#       Name:                AV-unprocessed.smi:186
#       Creating user name   scv26
#       Creation time:       Thu Mar 26 19:27:52 2020


#       File generated by GOLD software.
#

@<TRIPOS>MOLECULE
AV-unprocessed.smi:186
    60    63     1
SMALL
NO_CHARGES


@<TRIPOS>ATOM
      1 ****        -7.3922   4.4498   1.0491 C.3            1 S1                 0.0000
      2 ****        -6.2021   3.9717   0.4473 O.3            1 S1                 0.0000
      3 ****        -5.8098   2.7039   0.9513 C.3            1 S1                 0.0000
      4 ****        -4.5206   2.2515   0.2633 C.2            1 S1                 0.0000
      5 ****        -4.0377   2.9018  -0.6644 O.2            1 S1                 0.0000
      6 ****        -3.9704   1.1222   0.7314 N.am           1 S1                 0.0000
      7 ****        -2.7452   0.5286   0.2125 C.3            1 S1                 0.0000
      8 ****        -2.9328  -0.2314  -1.1023 C.3            1 S1                 0.0000
      9 ****        -2.1251  -1.3004  -0.5165 N.3            1 S1                 0.0000
     10 ****        -0.7713  -1.2780  -0.9731 C.ar           1 S1                 0.0000
     11 ****        -0.5414  -1.9474  -2.1322 N.ar           1 S1                 0.0000
     12 ****         0.6766  -2.0089  -2.6750 C.ar           1 S1                 0.0000
     13 ****         1.8124  -1.4747  -2.2306 N.ar           1 S1                 0.0000
     14 ****         1.6092  -0.7970  -1.0667 C.ar           1 S1                 0.0000
     15 ****         0.3683  -0.6485  -0.3776 C.ar           1 S1                 0.0000
     16 ****         0.5720   0.1202   0.7644 N.2            1 S1                 0.0000
     17 ****         1.8450   0.4024   0.7524 C.2            1 S1                 0.0000
     18 ****         2.5464  -0.1149  -0.3102 N.pl3          1 S1                 0.0000
     19 ****         3.9691   0.0421  -0.5719 C.3            1 S1                 0.0000
     20 ****         4.8506  -0.9669   0.2005 C.3            1 S1                 0.0000
     21 ****         4.7226  -0.7197   1.5904 O.3            1 S1                 0.0000
     22 ****         4.5064  -2.4296  -0.0658 C.3            1 S1                 0.0000
     23 ****         5.8525  -3.1258   0.0761 C.3            1 S1                 0.0000
     24 ****         6.7414  -2.2052  -0.5333 O.3            1 S1                 0.0000
     25 ****         6.3445  -0.8857  -0.1724 C.3            1 S1                 0.0000
     26 ****        -2.4196  -0.8284   0.8367 C.3            1 S1                 0.0000
     27 ****        -7.6518   5.4201   0.6263 H              1 S1                 0.0000
     28 ****        -7.2666   4.5742   2.1255 H              1 S1                 0.0000
     29 ****        -8.2261   3.7700   0.8694 H              1 S1                 0.0000
     30 ****        -5.6442   2.7604   2.0284 H              1 S1                 0.0000
     31 ****        -6.5912   1.9649   0.7680 H              1 S1                 0.0000
     32 ****        -4.4281   0.6442   1.4939 H              1 S1                 0.0000
     33 ****        -1.8924   1.2097   0.1930 H              1 S1                 0.0000
     34 ****        -3.9589  -0.5559  -1.2823 H              1 S1                 0.0000
     35 ****        -2.4980   0.2585  -1.9749 H              1 S1                 0.0000
     36 ****         0.7503  -2.5662  -3.5972 H              1 S1                 0.0000
     37 ****         2.3117   0.9960   1.5251 H              1 S1                 0.0000
     38 ****         4.1320  -0.0625  -1.6453 H              1 S1                 0.0000
     39 ****         4.2539   1.0643  -0.3196 H              1 S1                 0.0000
     40 ****         5.2751  -1.3299   2.0549 H              1 S1                 0.0000
     41 ****         3.7389  -2.8314   0.5974 H              1 S1                 0.0000
     42 ****         4.1578  -2.5545  -1.0914 H              1 S1                 0.0000
     43 ****         6.1194  -3.2582   1.1259 H              1 S1                 0.0000
     44 ****         5.8796  -4.0989  -0.4147 H              1 S1                 0.0000
     45 ****         6.5265  -0.2175  -1.0145 H              1 S1                 0.0000
     46 ****         6.9575  -0.5344   0.6594 H              1 S1                 0.0000
     47 ****        -1.5965  -0.8463   1.5484 H              1 S1                 0.0000
     48 ****        -3.2959  -1.3372   1.2413 H              1 S1                 0.0000
     49 ****        -5.4681   4.6277   0.6227 LP             1 S1                 0.0000
     50 ****        -6.3504   3.8931  -0.5385 LP             1 S1                 0.0000
     51 ****        -4.4890   3.7375  -0.9772 LP             1 S1                 0.0000
     52 ****        -3.1944   2.5941  -1.1049 LP             1 S1                 0.0000
     53 ****        -2.3004  -2.2674  -0.7016 LP             1 S1                 0.0000
     54 ****        -1.3033  -2.4055  -2.5903 LP             1 S1                 0.0000
     55 ****         2.6965  -1.5597  -2.6900 LP             1 S1                 0.0000
     56 ****        -0.1079   0.3954   1.4442 LP             1 S1                 0.0000
     57 ****         3.7707  -0.8463   1.8695 LP             1 S1                 0.0000
     58 ****         5.0079   0.2167   1.7943 LP             1 S1                 0.0000
     59 ****         6.7044  -2.3084  -1.5273 LP             1 S1                 0.0000
     60 ****         7.6739  -2.3758  -0.2149 LP             1 S1                 0.0000
@<TRIPOS>BOND
    1    1    2 1     
    2    1   27 1     
    3    1   28 1     
    4    1   29 1     
    5    2    3 1     
    6    3    4 1     
    7    3   30 1     
    8    3   31 1     
    9    4    5 2     
   10    4    6 am    
   11    6    7 1     
   12    6   32 1     
   13    7   26 1     
   14    7    8 1     
   15    7   33 1     
   16    8    9 1     
   17    8   34 1     
   18    8   35 1     
   19    9   10 1     
   20    9   26 1     
   21   10   15 ar    
   22   10   11 ar    
   23   11   12 ar    
   24   12   13 ar    
   25   12   36 1     
   26   13   14 ar    
   27   14   18 1     
   28   14   15 ar    
   29   15   16 1     
   30   16   17 2     
   31   17   18 1     
   32   17   37 1     
   33   18   19 1     
   34   19   20 1     
   35   19   38 1     
   36   19   39 1     
   37   20   25 1     
   38   20   21 1     
   39   20   22 1     
   40   21   40 1     
   41   22   23 1     
   42   22   41 1     
   43   22   42 1     
   44   23   24 1     
   45   23   43 1     
   46   23   44 1     
   47   24   25 1     
   48   25   45 1     
   49   25   46 1     
   50   26   47 1     
   51   26   48 1     
   52    2   49 1     
   53    2   50 1     
   54    5   51 1     
   55    5   52 1     
   56    9   53 1     
   57   11   54 1     
   58   13   55 1     
   59   16   56 1     
   60   21   57 1     
   61   21   58 1     
   62   24   59 1     
   63   24   60 1     
@<TRIPOS>SUBSTRUCTURE
      1 S1             1
@<TRIPOS>SET
LONE_PAIRS      STATIC     ATOMS    <user>   **** ""
12 49 50 51 52 53 54 55 56 57 58 59 60
DONOR_HYDROGENS      STATIC     ATOMS    <user>   **** ""
2 32 40
ATOM$BLUE        STATIC     ATOMS    COLORGROUP SYSTEM
12 49 50 51 52 53 54 55 56 57 58 59 60
ATOM$RED        STATIC     ATOMS    COLORGROUP SYSTEM
2 32 40
