AV-unprocessed.smi:2448|AV-procd|sdf|9653|dock2
  -GOLD-   2272013283D 1   1.00000     0.00000
 Structure written by MMmdl.
 37 38  0  0  0  0  0  0  0  0  1 V2000
  152.9578  138.9739  156.5643 O   0  0  0  0  0  0  0  0  0  0  0  0
  152.1437  140.1080  156.8039 C   0  0  1  0  0  0  0  0  0  0  0  0
  152.5329  140.6885  158.1786 C   0  0  0  0  0  0  0  0  0  0  0  0
  153.9179  141.1622  158.2022 N   0  0  0  0  0  0  0  0  0  0  0  0
  154.4023  141.7054  159.4804 C   0  0  1  0  0  0  0  0  0  0  0  0
  153.2549  142.1091  160.4441 C   0  0  0  0  0  0  0  0  0  0  0  0
  152.7625  143.5409  160.3014 C   0  0  0  0  0  0  0  0  0  0  0  0
  152.4845  144.3243  161.4417 C   0  0  0  0  0  0  0  0  0  0  0  0
  152.0350  145.6472  161.2572 C   0  0  0  0  0  0  0  0  0  0  0  0
  151.8622  146.2091  160.0418 N   0  0  0  0  0  0  0  0  0  0  0  0
  152.1407  145.4587  158.9545 C   0  0  0  0  0  0  0  0  0  0  0  0
  152.5941  144.1265  159.0287 C   0  0  0  0  0  0  0  0  0  0  0  0
  155.3527  140.6857  160.1430 C   0  0  0  0  0  0  0  0  0  0  0  0
  154.8004  139.4717  160.1242 F   0  0  0  0  0  0  0  0  0  0  0  0
  156.5051  140.6246  159.4756 F   0  0  0  0  0  0  0  0  0  0  0  0
  155.6016  141.0260  161.4082 F   0  0  0  0  0  0  0  0  0  0  0  0
  152.2786  141.1035  155.6373 C   0  0  0  0  0  0  0  0  0  0  0  0
  151.5402  140.5155  154.4307 C   0  0  0  0  0  0  0  0  0  0  0  0
  150.1230  139.5789  155.0557 S   0  0  0  0  0  0  0  0  0  0  0  0
  150.6772  139.6435  156.7808 C   0  0  0  0  0  0  0  0  0  0  0  0
  153.6410  138.9553  157.2169 H   0  0  0  0  0  0  0  0  0  0  0  0
  151.8663  141.5186  158.4158 H   0  0  0  0  0  0  0  0  0  0  0  0
  152.3699  139.9292  158.9405 H   0  0  0  0  0  0  0  0  0  0  0  0
  154.0474  141.8589  157.4751 H   0  0  0  0  0  0  0  0  0  0  0  0
  155.0121  142.5859  159.2763 H   0  0  0  0  0  0  0  0  0  0  0  0
  152.4207  141.4139  160.3414 H   0  0  0  0  0  0  0  0  0  0  0  0
  153.5909  142.0114  161.4765 H   0  0  0  0  0  0  0  0  0  0  0  0
  152.6052  143.9227  162.4371 H   0  0  0  0  0  0  0  0  0  0  0  0
  151.8086  146.2706  162.1097 H   0  0  0  0  0  0  0  0  0  0  0  0
  151.9996  145.9344  157.9952 H   0  0  0  0  0  0  0  0  0  0  0  0
  152.8081  143.5723  158.1267 H   0  0  0  0  0  0  0  0  0  0  0  0
  151.8070  142.0476  155.9141 H   0  0  0  0  0  0  0  0  0  0  0  0
  153.3186  141.3269  155.3960 H   0  0  0  0  0  0  0  0  0  0  0  0
  151.2218  141.2859  153.7285 H   0  0  0  0  0  0  0  0  0  0  0  0
  152.1918  139.8261  153.8931 H   0  0  0  0  0  0  0  0  0  0  0  0
  150.5287  138.6846  157.2787 H   0  0  0  0  0  0  0  0  0  0  0  0
  150.0454  140.3719  157.2904 H   0  0  0  0  0  0  0  0  0  0  0  0
  1  2  1  0  0  0  0
  1 21  1  0  0  0  0
  2 20  1  0  0  0  0
  2  3  1  0  0  0  0
  2 17  1  0  0  0  0
  3  4  1  0  0  0  0
  3 22  1  0  0  0  0
  3 23  1  0  0  0  0
  4  5  1  0  0  0  0
  4 24  1  0  0  0  0
  5  6  1  0  0  0  0
  5 13  1  0  0  0  0
  5 25  1  0  0  0  0
  6  7  1  0  0  0  0
  6 26  1  0  0  0  0
  6 27  1  0  0  0  0
  7 12  1  0  0  0  0
  7  8  2  0  0  0  0
  8  9  1  0  0  0  0
  8 28  1  0  0  0  0
  9 10  2  0  0  0  0
  9 29  1  0  0  0  0
 10 11  1  0  0  0  0
 11 12  2  0  0  0  0
 11 30  1  0  0  0  0
 12 31  1  0  0  0  0
 13 14  1  0  0  0  0
 13 15  1  0  0  0  0
 13 16  1  0  0  0  0
 17 18  1  0  0  0  0
 17 32  1  0  0  0  0
 17 33  1  0  0  0  0
 18 19  1  0  0  0  0
 18 34  1  0  0  0  0
 18 35  1  0  0  0  0
 19 20  1  0  0  0  0
 20 36  1  0  0  0  0
 20 37  1  0  0  0  0
M  END
> <s_m_source_file>
AV-unprocessed.smi

> <i_m_source_file_index>
2448

> <i_lp_mmshare_version>
43012

> <i_f3d_flags>
0

> <s_epik_input>
W0NIMl0xU1tDSDJdW0NIMl1bQ0BAXTEoW09IXSlbQ0gyXVtOSF1bQ0BASF0oQyhGKShGKUYpW0NIMl1jMltjSF1bY0hdbltjSF1bY0hdMg==

> <s_epik_cmdline>
J2VwaWtfcHl0aG9uJywgJy1waCcsICc3LjAnLCAnLXRuJywgJzgnLCAnLW1hJywgJzIwMCcsICctbWV0YWxfYmluZGluZycsICctaW1hZScsICc8aW5maWxlLm1hZT4nLCAnLW9tYWUnLCAnPG91dGZpbGUubWFlPic=

> <r_epik_Ionization_Penalty>
0.187708

> <r_epik_Ionization_Penalty_Charging>
0

> <r_epik_Ionization_Penalty_Neutral>
0.187708

> <r_epik_State_Penalty>
0.22769

> <r_epik_Charging_Adjusted_Penalty>
0.22769

> <i_epik_Tot_Q>
0

> <i_epik_Tot_abs_Q>
0

> <r_epik_Metal_State_Penalty>
0.176206

> <b_epik_Metal_Only>
0

> <s_lp_Force_Field>
OPLS_2005

> <r_lp_Energy>
32.0446

> <b_lp_Chiralities_Consistent>
1

> <s_lp_Variant>
AV-unprocessed.smi:2448-3

> <Gold.Version>
5.8.1

> <Gold.Id.Protein>
6NUR|6NUR_protein|mol2

> <Gold.PLP.Fitness>
42.7980

> <Gold.PLP.PLP>
-45.5083

> <Gold.PLP.part.hbond>
-2.0000

> <Gold.PLP.part.metal>
0.0000

> <Gold.PLP.part.buried>
-2.8911

> <Gold.PLP.part.nonpolar>
-39.7868

> <Gold.PLP.part.repulsive>
0.1124

> <Gold.PLP.ligand.clash>
0.0000

> <Gold.PLP.ligand.torsion>
1.5920

> <Gold.PLP.Chemscore.Hbond>
0.0000

> <Gold.PLP.Chemscore.CHOScore>
0.0000

> <Gold.PLP.Chemscore.Metal>
0.0000

> <Gold.Chemscore.Hbonds>
donor molecule, donor type, donor heavy atom, donor atom, acceptor molecule, acceptor atom, score
      P1  H  7997  8009       L1     4  0.06

> <Gold.PLP.Chemscore.Internal.Correction>
0.4736

> <Gold.Rescore>
     Score         DG    S(hbond)    S(metal)    S(lipo)     H(rot)  DE(clash)    DE(int)     intcor
     12.02     -13.81       0.00        0.00     121.74       2.31       0.51       1.27       ----

> <Gold.Chemscore.Fitness>
12.0246

> <Gold.Chemscore.DG>
-13.8074

> <Gold.Chemscore.ZeroCoef>
-5.4800

> <Gold.Chemscore.Hbond>
0.0000

> <Gold.Chemscore.Metal>
0.0000

> <Gold.Chemscore.Lipo>
121.7419

> <Gold.Chemscore.Internal_Hbond>
0.0000

> <Gold.Chemscore.DEClash>
0.5123

> <Gold.Chemscore.DEInternal>
1.2705

> <Gold.Chemscore.Rot>
2.3111

> <Gold.Chemscore.Internal.Correction>
   9.000000E+99

> <Gold.Chemscore.Hbond.Weighted>
-0.0000

> <Gold.Chemscore.Metal.Weighted>
-0.0000

> <Gold.Chemscore.Lipo.Weighted>
-14.2438

> <Gold.Chemscore.Internal_Hbond.Weighted>
0.0000

> <Gold.Chemscore.DEClash.Weighted>
0.5123

> <Gold.Chemscore.DEInternal.Weighted>
1.2705

> <Gold.Chemscore.Rot.Weighted>
5.9164

> <Gold.Chemscore.Internal.Correction.Weighted>
   9.000000E+99

> <Gold.Protein.RotatedTorsions>
[ 6907 6896 6895 6894 ] final   86.54 input  -60.11 | X-H torsion
[ 7974 7965 7964 7962 ] final  -66.70 input  175.53 | X-H torsion
[ 8008 7997 7996 7995 ] final  147.92 input   59.86 | X-H torsion
[ 10167 10162 10161 10158 ] final  -36.43 input  -65.29 | X-H torsion
[ 10718 10713 10712 10709 ] final -160.72 input   66.30 | X-H torsion
[ 10763 10752 10751 10750 ] final  107.73 input  -60.55 | X-H torsion
[ 11005 11000 10999 10996 ] final  -51.95 input  -57.11 | X-H torsion

> <Gold.Protein.ActiveResidues>
 VAL166  LYS551  ARG553  GLY616  TRP617  ASP618  TYR619  PRO620  LYS621  CYS622 
 ASP623  PHE694  ASN695  SER759  ASP760  ASP761  ALA762  ILE779  LEU786  VAL792 
 PHE793  MET794  SER795  GLU796  ALA797  LYS798  CYS799  TRP800  GLU811  SER814 

> <Gold.Protein.RotatedAtoms>
  152.5396  134.2415  159.8863 H   0  0  0  0  0  0  0  0  0  0  0  0  # atno 6907 bound_to 6896
  151.2382  133.4407  159.2614 H   0  0  0  0  0  0  0  0  0  0  0  0  # atno 6908 bound_to 6896
  151.0651  134.9776  159.8336 H   0  0  0  0  0  0  0  0  0  0  0  0  # atno 6909 bound_to 6896
  145.7385  140.8964  143.0542 H   0  0  0  0  0  0  0  0  0  0  0  0  # atno 7974 bound_to 7965
  156.2809  140.2142  156.5615 H   0  0  0  0  0  0  0  0  0  0  0  0  # atno 8008 bound_to 7997
  154.7209  140.0503  157.0661 H   0  0  0  0  0  0  0  0  0  0  0  0  # atno 8009 bound_to 7997
  155.0480  140.3153  155.4705 H   0  0  0  0  0  0  0  0  0  0  0  0  # atno 8010 bound_to 7997
  140.7143  143.3409  151.2359 H   0  0  0  0  0  0  0  0  0  0  0  0  # atno 10167 bound_to 10162
  156.5861  130.8750  151.2877 H   0  0  0  0  0  0  0  0  0  0  0  0  # atno 10718 bound_to 10713
  153.4107  135.3835  155.2048 H   0  0  0  0  0  0  0  0  0  0  0  0  # atno 10763 bound_to 10752
  154.8737  135.3793  154.4504 H   0  0  0  0  0  0  0  0  0  0  0  0  # atno 10764 bound_to 10752
  153.5012  135.7088  153.5893 H   0  0  0  0  0  0  0  0  0  0  0  0  # atno 10765 bound_to 10752
  141.0899  133.6635  156.3953 H   0  0  0  0  0  0  0  0  0  0  0  0  # atno 11005 bound_to 11000
  144.6876  139.9428  143.7475 LP  0  0  0  0  0  0  0  0  0  0  0  0  # atno 17320 bound_to 7965
  146.0471  139.3475  143.0662 LP  0  0  0  0  0  0  0  0  0  0  0  0  # atno 17321 bound_to 7965
  139.6917  143.9681  152.2862 LP  0  0  0  0  0  0  0  0  0  0  0  0  # atno 17342 bound_to 10162
  139.9345  144.6720  150.8329 LP  0  0  0  0  0  0  0  0  0  0  0  0  # atno 17343 bound_to 10162
  157.7315  130.9701  150.1882 LP  0  0  0  0  0  0  0  0  0  0  0  0  # atno 17370 bound_to 10713
  156.2590  130.3708  149.8151 LP  0  0  0  0  0  0  0  0  0  0  0  0  # atno 17371 bound_to 10713
  140.5277  134.6243  157.5339 LP  0  0  0  0  0  0  0  0  0  0  0  0  # atno 17394 bound_to 11000
  139.9723  134.7273  156.0018 LP  0  0  0  0  0  0  0  0  0  0  0  0  # atno 17395 bound_to 11000

$$$$
