AV-unprocessed.smi:2519|AV-procd|sdf|9903|dock1
  -GOLD-   2272013543D 1   1.00000     0.00000
 Structure written by MMmdl.
 43 44  0  0  0  0  0  0  0  0  1 V2000
  152.7801  129.6533  155.7788 C   0  0  0  0  0  0  0  0  0  0  0  0
  151.7522  130.6051  155.3874 N   0  0  0  0  0  0  0  0  0  0  0  0
  150.5597  130.2676  154.8692 C   0  0  0  0  0  0  0  0  0  0  0  0
  150.2165  129.0990  154.6835 O   0  0  0  0  0  0  0  0  0  0  0  0
  149.6386  131.4109  154.5279 C   0  0  0  0  0  0  0  0  0  0  0  0
  148.3154  131.1520  154.1055 C   0  0  0  0  0  0  0  0  0  0  0  0
  147.4819  132.2388  153.7872 C   0  0  0  0  0  0  0  0  0  0  0  0
  147.9935  133.5445  153.9005 C   0  0  0  0  0  0  0  0  0  0  0  0
  149.3253  133.7299  154.3290 C   0  0  0  0  0  0  0  0  0  0  0  0
  149.7487  135.0818  154.4174 N   0  0  0  0  0  0  0  0  0  0  0  0
  150.7109  135.6065  155.2026 C   0  0  0  0  0  0  0  0  0  0  0  0
  151.4373  134.9546  155.9509 O   0  0  0  0  0  0  0  0  0  0  0  0
  150.8368  136.9428  155.1047 N   0  0  0  0  0  0  0  0  0  0  0  0
  151.7701  137.8310  155.8064 C   0  0  2  0  0  0  0  0  0  0  0  0
  151.8444  137.4455  157.2962 C   0  0  0  0  0  0  0  0  0  0  0  0
  150.5511  137.7955  158.0519 C   0  0  0  0  0  0  0  0  0  0  0  0
  150.1821  139.2773  157.8796 C   0  0  0  0  0  0  0  0  0  0  0  0
  150.0669  139.6691  156.3916 C   0  0  1  0  0  0  0  0  0  0  0  0
  149.6836  141.1523  156.2118 C   0  0  0  0  0  0  0  0  0  0  0  0
  148.5953  141.4508  156.9220 F   0  0  0  0  0  0  0  0  0  0  0  0
  150.6866  141.9346  156.6108 F   0  0  0  0  0  0  0  0  0  0  0  0
  149.4430  141.4089  154.9259 F   0  0  0  0  0  0  0  0  0  0  0  0
  151.3760  139.3175  155.6494 C   0  0  0  0  0  0  0  0  0  0  0  0
  150.1187  132.6740  154.6320 N   0  0  0  0  0  0  0  0  0  0  0  0
  153.6173  130.1794  156.2378 H   0  0  0  0  0  0  0  0  0  0  0  0
  153.1532  129.1093  154.9103 H   0  0  0  0  0  0  0  0  0  0  0  0
  152.3925  128.9339  156.5010 H   0  0  0  0  0  0  0  0  0  0  0  0
  151.9543  131.5874  155.5105 H   0  0  0  0  0  0  0  0  0  0  0  0
  147.9377  130.1432  154.0237 H   0  0  0  0  0  0  0  0  0  0  0  0
  146.4658  132.0739  153.4608 H   0  0  0  0  0  0  0  0  0  0  0  0
  147.3663  134.3910  153.6605 H   0  0  0  0  0  0  0  0  0  0  0  0
  149.2430  135.7338  153.8363 H   0  0  0  0  0  0  0  0  0  0  0  0
  150.2205  137.3979  154.4468 H   0  0  0  0  0  0  0  0  0  0  0  0
  152.7656  137.6843  155.3839 H   0  0  0  0  0  0  0  0  0  0  0  0
  152.0634  136.3822  157.4020 H   0  0  0  0  0  0  0  0  0  0  0  0
  152.6791  137.9728  157.7597 H   0  0  0  0  0  0  0  0  0  0  0  0
  149.7320  137.1707  157.6939 H   0  0  0  0  0  0  0  0  0  0  0  0
  150.6695  137.5658  159.1110 H   0  0  0  0  0  0  0  0  0  0  0  0
  149.2415  139.4760  158.3938 H   0  0  0  0  0  0  0  0  0  0  0  0
  150.9358  139.8969  158.3670 H   0  0  0  0  0  0  0  0  0  0  0  0
  149.2631  139.0749  155.9538 H   0  0  0  0  0  0  0  0  0  0  0  0
  152.1847  139.9373  156.0387 H   0  0  0  0  0  0  0  0  0  0  0  0
  151.2884  139.5763  154.5942 H   0  0  0  0  0  0  0  0  0  0  0  0
  1  2  1  0  0  0  0
  1 25  1  0  0  0  0
  1 26  1  0  0  0  0
  1 27  1  0  0  0  0
  2  3  1  0  0  0  0
  2 28  1  0  0  0  0
  3  4  2  0  0  0  0
  3  5  1  0  0  0  0
  5 24  1  0  0  0  0
  5  6  2  0  0  0  0
  6  7  1  0  0  0  0
  6 29  1  0  0  0  0
  7  8  2  0  0  0  0
  7 30  1  0  0  0  0
  8  9  1  0  0  0  0
  8 31  1  0  0  0  0
  9 10  1  0  0  0  0
  9 24  2  0  0  0  0
 10 11  1  0  0  0  0
 10 32  1  0  0  0  0
 11 12  2  0  0  0  0
 11 13  1  0  0  0  0
 13 14  1  0  0  0  0
 13 33  1  0  0  0  0
 14 23  1  0  0  0  0
 14 15  1  0  0  0  0
 14 34  1  0  0  0  0
 15 16  1  0  0  0  0
 15 35  1  0  0  0  0
 15 36  1  0  0  0  0
 16 17  1  0  0  0  0
 16 37  1  0  0  0  0
 16 38  1  0  0  0  0
 17 18  1  0  0  0  0
 17 39  1  0  0  0  0
 17 40  1  0  0  0  0
 18 19  1  0  0  0  0
 18 23  1  0  0  0  0
 18 41  1  0  0  0  0
 19 20  1  0  0  0  0
 19 21  1  0  0  0  0
 19 22  1  0  0  0  0
 23 42  1  0  0  0  0
 23 43  1  0  0  0  0
M  END
> <s_m_source_file>
AV-unprocessed.smi

> <i_m_source_file_index>
2519

> <i_lp_mmshare_version>
43012

> <i_f3d_flags>
0

> <s_epik_input>
W0NIM11bTkhdQyg9TyljMVtjSF1bY0hdW2NIXWMobjEpW05IXUMoPU8pW05IXVtDQEBIXTJbQ0gyXVtDSDJdW0NIMl1bQ0BASF0oQyhGKShGKUYpW0NIMl0y

> <s_epik_cmdline>
J2VwaWtfcHl0aG9uJywgJy1waCcsICc3LjAnLCAnLXRuJywgJzgnLCAnLW1hJywgJzIwMCcsICctbWV0YWxfYmluZGluZycsICctaW1hZScsICc8aW5maWxlLm1hZT4nLCAnLW9tYWUnLCAnPG91dGZpbGUubWFlPic=

> <r_lp_tautomer_probability>
1

> <r_epik_Ionization_Penalty>
3.74915e-05

> <r_epik_Ionization_Penalty_Charging>
0

> <r_epik_Ionization_Penalty_Neutral>
3.74915e-05

> <r_epik_State_Penalty>
-0

> <r_epik_Charging_Adjusted_Penalty>
0

> <i_epik_Tot_Q>
0

> <i_epik_Tot_abs_Q>
0

> <r_epik_Metal_State_Penalty>
-0

> <b_epik_Metal_Only>
0

> <s_lp_Force_Field>
OPLS_2005

> <r_lp_Energy>
26.8043

> <b_lp_Chiralities_Consistent>
1

> <s_lp_Variant>
AV-unprocessed.smi:2519-1

> <Gold.Version>
5.8.1

> <Gold.Id.Protein>
6NUR|6NUR_protein|mol2

> <Gold.PLP.Fitness>
37.8337

> <Gold.PLP.PLP>
-33.5161

> <Gold.PLP.part.hbond>
-2.1726

> <Gold.PLP.part.metal>
0.0000

> <Gold.PLP.part.buried>
-1.8543

> <Gold.PLP.part.nonpolar>
-28.9015

> <Gold.PLP.part.repulsive>
0.2677

> <Gold.PLP.ligand.clash>
0.0000

> <Gold.PLP.ligand.torsion>
0.3926

> <Gold.PLP.Chemscore.Hbond>
1.6800

> <Gold.PLP.Chemscore.CHOScore>
0.0000

> <Gold.PLP.Chemscore.Metal>
0.0000

> <Gold.Chemscore.Hbonds>
donor molecule, donor type, donor heavy atom, donor atom, acceptor molecule, acceptor atom, score
      L1  H    10    32       P1  7948  0.80
      P1  H 10752 10764       L1    12  0.79

> <Gold.PLP.Chemscore.Internal.Correction>
0.0628

> <Gold.Rescore>
     Score         DG    S(hbond)    S(metal)    S(lipo)     H(rot)  DE(clash)    DE(int)     intcor
     10.84     -13.74       1.26        0.00      56.50       1.00       0.01       2.89       ----

> <Gold.Chemscore.Fitness>
10.8362

> <Gold.Chemscore.DG>
-13.7387

> <Gold.Chemscore.ZeroCoef>
-5.4800

> <Gold.Chemscore.Hbond>
1.2599

> <Gold.Chemscore.Metal>
0.0000

> <Gold.Chemscore.Lipo>
56.5006

> <Gold.Chemscore.Internal_Hbond>
0.0000

> <Gold.Chemscore.DEClash>
0.0090

> <Gold.Chemscore.DEInternal>
2.8936

> <Gold.Chemscore.Rot>
1.0000

> <Gold.Chemscore.Internal.Correction>
   9.000000E+99

> <Gold.Chemscore.Hbonds>
donor molecule, donor type, donor heavy atom, donor atom, acceptor molecule, acceptor atom, score
      L1  H    10    32       P1  7948  0.52
      P1  H 10752 10764       L1    12  0.17

> <Gold.Chemscore.Hbond.Weighted>
-4.2081

> <Gold.Chemscore.Metal.Weighted>
-0.0000

> <Gold.Chemscore.Lipo.Weighted>
-6.6106

> <Gold.Chemscore.Internal_Hbond.Weighted>
0.0000

> <Gold.Chemscore.DEClash.Weighted>
0.0090

> <Gold.Chemscore.DEInternal.Weighted>
2.8936

> <Gold.Chemscore.Rot.Weighted>
2.5600

> <Gold.Chemscore.Internal.Correction.Weighted>
   9.000000E+99

> <Gold.Protein.RotatedTorsions>
[ 6907 6896 6895 6894 ] final    9.23 input  -60.11 | X-H torsion
[ 7974 7965 7964 7962 ] final  124.45 input  175.53 | X-H torsion
[ 8008 7997 7996 7995 ] final  176.14 input   59.86 | X-H torsion
[ 10167 10162 10161 10158 ] final -109.50 input  -65.29 | X-H torsion
[ 10718 10713 10712 10709 ] final   33.05 input   66.30 | X-H torsion
[ 10763 10752 10751 10750 ] final  -21.43 input  -60.55 | X-H torsion
[ 11005 11000 10999 10996 ] final -148.77 input  -57.11 | X-H torsion

> <Gold.Protein.ActiveResidues>
 VAL166  LYS551  ARG553  GLY616  TRP617  ASP618  TYR619  PRO620  LYS621  CYS622 
 ASP623  PHE694  ASN695  SER759  ASP760  ASP761  ALA762  ILE779  LEU786  VAL792 
 PHE793  MET794  SER795  GLU796  ALA797  LYS798  CYS799  TRP800  GLU811  SER814 

> <Gold.Protein.RotatedAtoms>
  151.7188  135.0898  160.0280 H   0  0  0  0  0  0  0  0  0  0  0  0  # atno 6907 bound_to 6896
  152.3615  133.6299  159.6027 H   0  0  0  0  0  0  0  0  0  0  0  0  # atno 6908 bound_to 6896
  150.7608  133.9332  159.3475 H   0  0  0  0  0  0  0  0  0  0  0  0  # atno 6909 bound_to 6896
  145.0843  139.3634  143.4893 H   0  0  0  0  0  0  0  0  0  0  0  0  # atno 7974 bound_to 7965
  156.0796  140.1391  156.9729 H   0  0  0  0  0  0  0  0  0  0  0  0  # atno 8008 bound_to 7997
  154.4577  140.0955  156.6855 H   0  0  0  0  0  0  0  0  0  0  0  0  # atno 8009 bound_to 7997
  155.5097  140.3453  155.4388 H   0  0  0  0  0  0  0  0  0  0  0  0  # atno 8010 bound_to 7997
  140.1546  143.4171  152.1470 H   0  0  0  0  0  0  0  0  0  0  0  0  # atno 10167 bound_to 10162
  157.2930  130.7312  149.6622 H   0  0  0  0  0  0  0  0  0  0  0  0  # atno 10718 bound_to 10713
  153.6360  135.6987  153.5258 H   0  0  0  0  0  0  0  0  0  0  0  0  # atno 10763 bound_to 10752
  153.2821  135.4182  155.1088 H   0  0  0  0  0  0  0  0  0  0  0  0  # atno 10764 bound_to 10752
  154.8511  135.3604  154.5903 H   0  0  0  0  0  0  0  0  0  0  0  0  # atno 10765 bound_to 10752
  140.7577  134.3334  157.5110 H   0  0  0  0  0  0  0  0  0  0  0  0  # atno 11005 bound_to 11000
  146.3531  140.0647  142.8627 LP  0  0  0  0  0  0  0  0  0  0  0  0  # atno 17320 bound_to 7965
  145.1141  140.9423  143.4639 LP  0  0  0  0  0  0  0  0  0  0  0  0  # atno 17321 bound_to 7965
  139.5410  144.7256  151.4735 LP  0  0  0  0  0  0  0  0  0  0  0  0  # atno 17342 bound_to 10162
  140.6681  143.8353  150.6966 LP  0  0  0  0  0  0  0  0  0  0  0  0  # atno 17343 bound_to 10162
  155.9668  130.4303  150.4870 LP  0  0  0  0  0  0  0  0  0  0  0  0  # atno 17370 bound_to 10713
  157.2836  131.0612  151.2181 LP  0  0  0  0  0  0  0  0  0  0  0  0  # atno 17371 bound_to 10713
  139.8776  134.9182  156.3198 LP  0  0  0  0  0  0  0  0  0  0  0  0  # atno 17394 bound_to 11000
  140.9692  133.7338  156.0510 LP  0  0  0  0  0  0  0  0  0  0  0  0  # atno 17395 bound_to 11000

$$$$
