AV-unprocessed.smi:2162|AV-procd|sdf|8803|dock1
  -GOLD-   2272011583D 1   1.00000     0.00000
 Structure written by MMmdl.
 41 42  0  0  0  0  0  0  0  0  1 V2000
  154.2177  140.6645  159.8694 C   0  0  0  0  0  0  0  0  0  0  0  0
  153.2007  141.6668  159.4438 C   0  0  0  0  0  0  0  0  0  0  0  0
  152.0499  141.3441  158.8480 N   0  0  0  0  0  0  0  0  0  0  0  0
  151.2558  142.4611  158.5708 C   0  0  0  0  0  0  0  0  0  0  0  0
  149.8997  142.2836  157.9492 C   0  0  0  0  0  0  0  0  0  0  0  0
  149.8593  141.2213  156.8307 C   0  0  0  0  0  0  0  0  0  0  0  0
  148.6384  141.3017  156.0307 N   0  0  0  0  0  0  0  0  0  0  0  0
  148.5919  141.3090  154.6888 C   0  0  0  0  0  0  0  0  0  0  0  0
  149.5972  141.3317  153.9774 O   0  0  0  0  0  0  0  0  0  0  0  0
  147.1964  141.2338  154.0495 C   0  0  1  0  0  0  0  0  0  0  0  0
  146.3451  140.0966  154.6457 C   0  0  0  0  0  0  0  0  0  0  0  0
  145.3466  140.8231  155.5340 C   0  0  0  0  0  0  0  0  0  0  0  0
  144.6004  140.2328  156.3137 O   0  0  0  0  0  0  0  0  0  0  0  0
  145.4282  142.1502  155.3684 N   0  0  0  0  0  0  0  0  0  0  0  0
  144.6993  143.1591  156.1474 C   0  0  0  0  0  0  0  0  0  0  0  0
  145.0324  143.1008  157.6495 C   0  0  0  0  0  0  0  0  0  0  0  0
  143.1891  143.0336  155.8897 C   0  0  0  0  0  0  0  0  0  0  0  0
  146.3823  142.5120  154.3290 C   0  0  0  0  0  0  0  0  0  0  0  0
  151.8431  143.6464  158.9392 C   0  0  0  0  0  0  0  0  0  0  0  0
  153.4007  143.3987  159.6781 S   0  0  0  0  0  0  0  0  0  0  0  0
  153.7767  139.6684  159.9185 H   0  0  0  0  0  0  0  0  0  0  0  0
  154.6056  140.9214  160.8552 H   0  0  0  0  0  0  0  0  0  0  0  0
  155.0446  140.6491  159.1596 H   0  0  0  0  0  0  0  0  0  0  0  0
  149.1791  142.0082  158.7203 H   0  0  0  0  0  0  0  0  0  0  0  0
  149.5484  143.2350  157.5488 H   0  0  0  0  0  0  0  0  0  0  0  0
  150.7140  141.3552  156.1674 H   0  0  0  0  0  0  0  0  0  0  0  0
  149.9677  140.2253  157.2632 H   0  0  0  0  0  0  0  0  0  0  0  0
  147.7633  141.2871  156.5341 H   0  0  0  0  0  0  0  0  0  0  0  0
  147.3059  141.0918  152.9731 H   0  0  0  0  0  0  0  0  0  0  0  0
  145.8079  139.5582  153.8643 H   0  0  0  0  0  0  0  0  0  0  0  0
  146.9211  139.3695  155.2203 H   0  0  0  0  0  0  0  0  0  0  0  0
  145.0137  144.1438  155.7971 H   0  0  0  0  0  0  0  0  0  0  0  0
  144.5567  143.9244  158.1826 H   0  0  0  0  0  0  0  0  0  0  0  0
  146.1067  143.1804  157.8186 H   0  0  0  0  0  0  0  0  0  0  0  0
  144.6854  142.1749  158.1093 H   0  0  0  0  0  0  0  0  0  0  0  0
  142.6332  143.7988  156.4319 H   0  0  0  0  0  0  0  0  0  0  0  0
  142.8135  142.0607  156.2076 H   0  0  0  0  0  0  0  0  0  0  0  0
  142.9565  143.1475  154.8303 H   0  0  0  0  0  0  0  0  0  0  0  0
  147.0075  143.3464  154.6489 H   0  0  0  0  0  0  0  0  0  0  0  0
  145.8442  142.8255  153.4336 H   0  0  0  0  0  0  0  0  0  0  0  0
  151.4469  144.6457  158.8378 H   0  0  0  0  0  0  0  0  0  0  0  0
  1  2  1  0  0  0  0
  1 21  1  0  0  0  0
  1 22  1  0  0  0  0
  1 23  1  0  0  0  0
  2 20  1  0  0  0  0
  2  3  2  0  0  0  0
  3  4  1  0  0  0  0
  4  5  1  0  0  0  0
  4 19  2  0  0  0  0
  5  6  1  0  0  0  0
  5 24  1  0  0  0  0
  5 25  1  0  0  0  0
  6  7  1  0  0  0  0
  6 26  1  0  0  0  0
  6 27  1  0  0  0  0
  7  8  1  0  0  0  0
  7 28  1  0  0  0  0
  8  9  2  0  0  0  0
  8 10  1  0  0  0  0
 10 18  1  0  0  0  0
 10 11  1  0  0  0  0
 10 29  1  0  0  0  0
 11 12  1  0  0  0  0
 11 30  1  0  0  0  0
 11 31  1  0  0  0  0
 12 13  2  0  0  0  0
 12 14  1  0  0  0  0
 14 15  1  0  0  0  0
 14 18  1  0  0  0  0
 15 16  1  0  0  0  0
 15 17  1  0  0  0  0
 15 32  1  0  0  0  0
 16 33  1  0  0  0  0
 16 34  1  0  0  0  0
 16 35  1  0  0  0  0
 17 36  1  0  0  0  0
 17 37  1  0  0  0  0
 17 38  1  0  0  0  0
 18 39  1  0  0  0  0
 18 40  1  0  0  0  0
 19 20  1  0  0  0  0
 19 41  1  0  0  0  0
M  END
> <s_m_source_file>
AV-unprocessed.smi

> <i_m_source_file_index>
2162

> <i_lp_mmshare_version>
43012

> <i_f3d_flags>
0

> <s_epik_input>
W0NIM11jMW5jKFtjSF1zMSlbQ0gyXVtDSDJdW05IXUMoPU8pW0NAQEhdMltDSDJdQyg9TylOKFtDSDJdMilbQ0hdKFtDSDNdKVtDSDNd

> <s_epik_cmdline>
J2VwaWtfcHl0aG9uJywgJy1waCcsICc3LjAnLCAnLXRuJywgJzgnLCAnLW1hJywgJzIwMCcsICctbWV0YWxfYmluZGluZycsICctaW1hZScsICc8aW5maWxlLm1hZT4nLCAnLW9tYWUnLCAnPG91dGZpbGUubWFlPic=

> <r_epik_Ionization_Penalty>
0.000973993

> <r_epik_Ionization_Penalty_Charging>
0

> <r_epik_Ionization_Penalty_Neutral>
0.000973993

> <r_epik_State_Penalty>
0.000633765

> <r_epik_Charging_Adjusted_Penalty>
0.000633765

> <i_epik_Tot_Q>
0

> <i_epik_Tot_abs_Q>
0

> <r_epik_Metal_State_Penalty>
-0

> <b_epik_Metal_Only>
0

> <s_lp_Force_Field>
OPLS_2005

> <r_lp_Energy>
12.9276

> <b_lp_Chiralities_Consistent>
1

> <s_lp_Variant>
AV-unprocessed.smi:2162-2

> <Gold.Version>
5.8.1

> <Gold.Id.Protein>
6NUR|6NUR_protein|mol2

> <Gold.PLP.Fitness>
38.3496

> <Gold.PLP.PLP>
-36.0378

> <Gold.PLP.part.hbond>
-2.2158

> <Gold.PLP.part.metal>
0.0000

> <Gold.PLP.part.buried>
-4.8804

> <Gold.PLP.part.nonpolar>
-30.3509

> <Gold.PLP.part.repulsive>
0.5661

> <Gold.PLP.ligand.clash>
0.0000

> <Gold.PLP.ligand.torsion>
0.5252

> <Gold.PLP.Chemscore.Hbond>
1.0973

> <Gold.PLP.Chemscore.CHOScore>
0.0000

> <Gold.PLP.Chemscore.Metal>
0.0000

> <Gold.Chemscore.Hbonds>
donor molecule, donor type, donor heavy atom, donor atom, acceptor molecule, acceptor atom, score
      P1  H  7989  7998       L1     9  0.23
      P1  H  8011  8017       L1     9  0.75

> <Gold.PLP.Chemscore.Internal.Correction>
0.0705

> <Gold.Rescore>
     Score         DG    S(hbond)    S(metal)    S(lipo)     H(rot)  DE(clash)    DE(int)     intcor
     13.18     -14.00       0.65        0.00      90.43       1.66       0.21       0.60       ----

> <Gold.Chemscore.Fitness>
13.1846

> <Gold.Chemscore.DG>
-13.9977

> <Gold.Chemscore.ZeroCoef>
-5.4800

> <Gold.Chemscore.Hbond>
0.6535

> <Gold.Chemscore.Metal>
0.0000

> <Gold.Chemscore.Lipo>
90.4336

> <Gold.Chemscore.Internal_Hbond>
0.0000

> <Gold.Chemscore.DEClash>
0.2094

> <Gold.Chemscore.DEInternal>
0.6037

> <Gold.Chemscore.Rot>
1.6585

> <Gold.Chemscore.Internal.Correction>
   9.000000E+99

> <Gold.Chemscore.Hbonds>
donor molecule, donor type, donor heavy atom, donor atom, acceptor molecule, acceptor atom, score
      P1  H  7989  7998       L1     9  0.23
      P1  H  8011  8017       L1     9  0.72

> <Gold.Chemscore.Hbond.Weighted>
-2.1826

> <Gold.Chemscore.Metal.Weighted>
-0.0000

> <Gold.Chemscore.Lipo.Weighted>
-10.5807

> <Gold.Chemscore.Internal_Hbond.Weighted>
0.0000

> <Gold.Chemscore.DEClash.Weighted>
0.2094

> <Gold.Chemscore.DEInternal.Weighted>
0.6037

> <Gold.Chemscore.Rot.Weighted>
4.2457

> <Gold.Chemscore.Internal.Correction.Weighted>
   9.000000E+99

> <Gold.Protein.RotatedTorsions>
[ 6907 6896 6895 6894 ] final -146.04 input  -60.11 | X-H torsion
[ 7974 7965 7964 7962 ] final  -89.96 input  175.53 | X-H torsion
[ 8008 7997 7996 7995 ] final  -96.46 input   59.86 | X-H torsion
[ 10167 10162 10161 10158 ] final  125.77 input  -65.29 | X-H torsion
[ 10718 10713 10712 10709 ] final   73.64 input   66.30 | X-H torsion
[ 10763 10752 10751 10750 ] final    6.81 input  -60.55 | X-H torsion
[ 11005 11000 10999 10996 ] final   87.22 input  -57.11 | X-H torsion

> <Gold.Protein.ActiveResidues>
 VAL166  LYS551  ARG553  GLY616  TRP617  ASP618  TYR619  PRO620  LYS621  CYS622 
 ASP623  PHE694  ASN695  SER759  ASP760  ASP761  ALA762  ILE779  LEU786  VAL792 
 PHE793  MET794  SER795  GLU796  ALA797  LYS798  CYS799  TRP800  GLU811  SER814 

> <Gold.Protein.RotatedAtoms>
  151.1361  133.5003  159.2597 H   0  0  0  0  0  0  0  0  0  0  0  0  # atno 6907 bound_to 6896
  151.1705  135.0315  159.8759 H   0  0  0  0  0  0  0  0  0  0  0  0  # atno 6908 bound_to 6896
  152.5461  134.1224  159.8458 H   0  0  0  0  0  0  0  0  0  0  0  0  # atno 6909 bound_to 6896
  145.4328  140.9556  143.2119 H   0  0  0  0  0  0  0  0  0  0  0  0  # atno 7974 bound_to 7965
  154.7748  140.0471  157.1080 H   0  0  0  0  0  0  0  0  0  0  0  0  # atno 8008 bound_to 7997
  154.9777  140.3097  155.4940 H   0  0  0  0  0  0  0  0  0  0  0  0  # atno 8009 bound_to 7997
  156.2927  140.2242  156.4873 H   0  0  0  0  0  0  0  0  0  0  0  0  # atno 8010 bound_to 7997
  139.5667  144.6915  151.3890 H   0  0  0  0  0  0  0  0  0  0  0  0  # atno 10167 bound_to 10162
  157.6557  130.9638  150.1097 H   0  0  0  0  0  0  0  0  0  0  0  0  # atno 10718 bound_to 10713
  153.2435  135.6906  153.7757 H   0  0  0  0  0  0  0  0  0  0  0  0  # atno 10763 bound_to 10752
  153.6878  135.3318  155.3195 H   0  0  0  0  0  0  0  0  0  0  0  0  # atno 10764 bound_to 10752
  154.8365  135.4538  154.1365 H   0  0  0  0  0  0  0  0  0  0  0  0  # atno 10765 bound_to 10752
  139.8925  134.8408  156.2829 H   0  0  0  0  0  0  0  0  0  0  0  0  # atno 11005 bound_to 11000
  144.8172  139.5856  143.7003 LP  0  0  0  0  0  0  0  0  0  0  0  0  # atno 17320 bound_to 7965
  146.2598  139.6384  142.9370 LP  0  0  0  0  0  0  0  0  0  0  0  0  # atno 17321 bound_to 7965
  140.6951  143.7768  150.7314 LP  0  0  0  0  0  0  0  0  0  0  0  0  # atno 17342 bound_to 10162
  140.1262  143.4567  152.2282 LP  0  0  0  0  0  0  0  0  0  0  0  0  # atno 17343 bound_to 10162
  156.1997  130.3659  149.8804 LP  0  0  0  0  0  0  0  0  0  0  0  0  # atno 17370 bound_to 10713
  156.6711  130.8820  151.3562 LP  0  0  0  0  0  0  0  0  0  0  0  0  # atno 17371 bound_to 10713
  141.0026  133.7142  156.0985 LP  0  0  0  0  0  0  0  0  0  0  0  0  # atno 17394 bound_to 11000
  140.7476  134.4080  157.5546 LP  0  0  0  0  0  0  0  0  0  0  0  0  # atno 17395 bound_to 11000

$$$$
