AV-unprocessed.smi:3316|AV-procd|sdf|12759|dock3
  -GOLD-   2272019 93D 1   1.00000     0.00000
 Structure written by MMmdl.
 41 43  0  0  0  0  0  0  0  0  2 V2000
  149.3035  141.3411  154.4222 C   0  0  0  0  0  0  0  0  0  0  0  0
  149.7313  140.6689  155.7364 C   0  0  2  0  0  0  0  0  0  0  0  0
  150.2093  141.7073  156.7696 C   0  0  0  0  0  0  0  0  0  0  0  0
  149.1063  142.5851  157.2108 N   0  3  0  0  0  0  0  0  0  0  0  0
  149.2825  143.1347  158.5687 C   0  0  0  0  0  0  0  0  0  0  0  0
  150.2768  144.3109  158.5694 C   0  0  1  0  0  0  0  0  0  0  0  0
  150.4361  145.0013  159.9587 C   0  0  0  0  0  0  0  0  0  0  0  0
  151.9663  144.9894  160.1797 C   0  0  1  0  0  0  0  0  0  0  0  0
  152.3886  143.5508  160.3866 C   0  0  0  0  0  0  0  0  0  0  0  0
  152.2594  142.9273  159.2144 C   0  0  0  0  0  0  0  0  0  0  0  0
  151.7445  143.9452  158.2159 C   0  0  2  0  0  0  0  0  0  0  0  0
  152.4470  145.2032  158.7406 C   0  0  0  0  0  0  0  0  0  0  0  0
  150.7718  139.5829  155.4898 C   0  0  0  0  0  0  0  0  0  0  0  0
  150.4882  138.5007  154.6298 C   0  0  0  0  0  0  0  0  0  0  0  0
  151.4768  137.5152  154.4360 C   0  0  0  0  0  0  0  0  0  0  0  0
  152.6857  137.5500  155.0358 N   0  0  0  0  0  0  0  0  0  0  0  0
  152.9540  138.5880  155.8561 C   0  0  0  0  0  0  0  0  0  0  0  0
  152.0358  139.6247  156.1177 C   0  0  0  0  0  0  0  0  0  0  0  0
  148.9156  140.6069  153.7154 H   0  0  0  0  0  0  0  0  0  0  0  0
  150.1358  141.8573  153.9430 H   0  0  0  0  0  0  0  0  0  0  0  0
  148.5170  142.0757  154.5958 H   0  0  0  0  0  0  0  0  0  0  0  0
  148.8426  140.1866  156.1470 H   0  0  0  0  0  0  0  0  0  0  0  0
  150.6450  141.2110  157.6377 H   0  0  0  0  0  0  0  0  0  0  0  0
  150.9937  142.3263  156.3320 H   0  0  0  0  0  0  0  0  0  0  0  0
  149.0292  143.3552  156.5617 H   0  0  0  0  0  0  0  0  0  0  0  0
  148.3133  143.4782  158.9330 H   0  0  0  0  0  0  0  0  0  0  0  0
  149.6105  142.3443  159.2448 H   0  0  0  0  0  0  0  0  0  0  0  0
  149.9230  145.0575  157.8558 H   0  0  0  0  0  0  0  0  0  0  0  0
  150.0518  146.0216  159.9281 H   0  0  0  0  0  0  0  0  0  0  0  0
  149.9117  144.4743  160.7574 H   0  0  0  0  0  0  0  0  0  0  0  0
  152.3559  145.6921  160.9168 H   0  0  0  0  0  0  0  0  0  0  0  0
  152.7010  143.1289  161.3305 H   0  0  0  0  0  0  0  0  0  0  0  0
  152.4435  141.8857  158.9959 H   0  0  0  0  0  0  0  0  0  0  0  0
  151.9458  143.7057  157.1714 H   0  0  0  0  0  0  0  0  0  0  0  0
  152.0932  146.1324  158.2894 H   0  0  0  0  0  0  0  0  0  0  0  0
  153.5339  145.1568  158.6435 H   0  0  0  0  0  0  0  0  0  0  0  0
  149.5368  138.4220  154.1243 H   0  0  0  0  0  0  0  0  0  0  0  0
  151.2901  136.6752  153.7835 H   0  0  0  0  0  0  0  0  0  0  0  0
  153.9289  138.5917  156.3207 H   0  0  0  0  0  0  0  0  0  0  0  0
  152.3035  140.4313  156.7842 H   0  0  0  0  0  0  0  0  0  0  0  0
  148.2462  142.0557  157.1871 H   0  0  0  0  0  0  0  0  0  0  0  0
  1  2  1  0  0  0  0
  1 19  1  0  0  0  0
  1 20  1  0  0  0  0
  1 21  1  0  0  0  0
  2  3  1  0  0  0  0
  2 13  1  0  0  0  0
  2 22  1  0  0  0  0
  3  4  1  0  0  0  0
  3 23  1  0  0  0  0
  3 24  1  0  0  0  0
  4  5  1  0  0  0  0
  4 25  1  0  0  0  0
  4 41  1  0  0  0  0
  5  6  1  0  0  0  0
  5 26  1  0  0  0  0
  5 27  1  0  0  0  0
  6 11  1  0  0  0  0
  6  7  1  0  0  0  0
  6 28  1  0  0  0  0
  7  8  1  0  0  0  0
  7 29  1  0  0  0  0
  7 30  1  0  0  0  0
  8 12  1  0  0  0  0
  8  9  1  0  0  0  0
  8 31  1  0  0  0  0
  9 10  2  0  0  0  0
  9 32  1  0  0  0  0
 10 11  1  0  0  0  0
 10 33  1  0  0  0  0
 11 12  1  0  0  0  0
 11 34  1  0  0  0  0
 12 35  1  0  0  0  0
 12 36  1  0  0  0  0
 13 18  1  0  0  0  0
 13 14  2  0  0  0  0
 14 15  1  0  0  0  0
 14 37  1  0  0  0  0
 15 16  2  0  0  0  0
 15 38  1  0  0  0  0
 16 17  1  0  0  0  0
 17 18  2  0  0  0  0
 17 39  1  0  0  0  0
 18 40  1  0  0  0  0
M  CHG  1   4   1
M  END
> <s_m_source_file>
AV-unprocessed.smi

> <i_m_source_file_index>
3316

> <i_lp_mmshare_version>
43012

> <i_f3d_flags>
0

> <s_epik_input>
W2NIXTFbY0hdbltjSF1bY0hdYzFbQ0BIXShbQ0gzXSlbQ0gyXVtOSF1bQ0gyXVtDQEhdKFtDSDJdW0NASF0yMylbQ0BIXShbQ0gyXTMpW0NIXT1bQ0hdMg==

> <s_epik_cmdline>
J2VwaWtfcHl0aG9uJywgJy1waCcsICc3LjAnLCAnLXRuJywgJzgnLCAnLW1hJywgJzIwMCcsICctbWV0YWxfYmluZGluZycsICctaW1hZScsICc8aW5maWxlLm1hZT4nLCAnLW9tYWUnLCAnPG91dGZpbGUubWFlPic=

> <r_lp_tautomer_probability>
1

> <r_epik_Ionization_Penalty>
0.00280406

> <r_epik_Ionization_Penalty_Charging>
0.000446589

> <r_epik_Ionization_Penalty_Neutral>
0.00235747

> <r_epik_State_Penalty>
-0

> <r_epik_Charging_Adjusted_Penalty>
0.000446589

> <i_epik_Tot_Q>
1

> <i_epik_Tot_abs_Q>
1

> <r_epik_Metal_State_Penalty>
-0

> <b_epik_Metal_Only>
0

> <s_lp_Force_Field>
OPLS_2005

> <r_lp_Energy>
65.6453

> <b_lp_Chiralities_Consistent>
1

> <s_lp_Variant>
AV-unprocessed.smi:3316-7

> <Gold.Version>
5.8.1

> <Gold.Id.Protein>
6NUR|6NUR_protein|mol2

> <Gold.PLP.Fitness>
57.2080

> <Gold.PLP.PLP>
-47.1108

> <Gold.PLP.part.hbond>
-2.0000

> <Gold.PLP.part.metal>
0.0000

> <Gold.PLP.part.buried>
-3.2008

> <Gold.PLP.part.nonpolar>
-42.6564

> <Gold.PLP.part.repulsive>
0.1093

> <Gold.PLP.ligand.clash>
0.0000

> <Gold.PLP.ligand.torsion>
0.3143

> <Gold.PLP.Chemscore.Hbond>
2.5440

> <Gold.PLP.Chemscore.CHOScore>
1.0000

> <Gold.PLP.Chemscore.Metal>
0.0000

> <Gold.Chemscore.Hbonds>
donor molecule, donor type, donor heavy atom, donor atom, acceptor molecule, acceptor atom, score
      L1  H     4    25       P1  8028  2.00
      P1  H 10752 10763       L1    16  0.22
      L1  C    15    38       P1  7949  1.00

> <Gold.PLP.Chemscore.Internal.Correction>
0.0938

> <Gold.Rescore>
     Score         DG    S(hbond)    S(metal)    S(lipo)     H(rot)  DE(clash)    DE(int)     intcor
     24.07     -24.96       1.85        0.00     143.66       1.36       0.50       0.39       ----

> <Gold.Chemscore.Fitness>
24.0672

> <Gold.Chemscore.DG>
-24.9612

> <Gold.Chemscore.ZeroCoef>
-5.4800

> <Gold.Chemscore.Hbond>
1.8458

> <Gold.Chemscore.Metal>
0.0000

> <Gold.Chemscore.Lipo>
143.6585

> <Gold.Chemscore.Internal_Hbond>
0.0000

> <Gold.Chemscore.DEClash>
0.5026

> <Gold.Chemscore.DEInternal>
0.3914

> <Gold.Chemscore.Rot>
1.3640

> <Gold.Chemscore.Internal.Correction>
   9.000000E+99

> <Gold.Chemscore.Hbonds>
donor molecule, donor type, donor heavy atom, donor atom, acceptor molecule, acceptor atom, score
      L1  H     4    25       P1  8028  0.96
      P1  H 10752 10763       L1    16  0.01

> <Gold.Chemscore.Hbond.Weighted>
-6.1651

> <Gold.Chemscore.Metal.Weighted>
-0.0000

> <Gold.Chemscore.Lipo.Weighted>
-16.8080

> <Gold.Chemscore.Internal_Hbond.Weighted>
0.0000

> <Gold.Chemscore.DEClash.Weighted>
0.5026

> <Gold.Chemscore.DEInternal.Weighted>
0.3914

> <Gold.Chemscore.Rot.Weighted>
3.4919

> <Gold.Chemscore.Internal.Correction.Weighted>
   9.000000E+99

> <Gold.Protein.RotatedTorsions>
[ 6907 6896 6895 6894 ] final    2.94 input  -60.11 | X-H torsion
[ 7974 7965 7964 7962 ] final  -97.85 input  175.53 | X-H torsion
[ 8008 7997 7996 7995 ] final  166.03 input   59.86 | X-H torsion
[ 10167 10162 10161 10158 ] final -118.74 input  -65.29 | X-H torsion
[ 10718 10713 10712 10709 ] final   67.88 input   66.30 | X-H torsion
[ 10763 10752 10751 10750 ] final   55.18 input  -60.55 | X-H torsion
[ 11005 11000 10999 10996 ] final  -79.01 input  -57.11 | X-H torsion

> <Gold.Protein.ActiveResidues>
 VAL166  LYS551  ARG553  GLY616  TRP617  ASP618  TYR619  PRO620  LYS621  CYS622 
 ASP623  PHE694  ASN695  SER759  ASP760  ASP761  ALA762  ILE779  LEU786  VAL792 
 PHE793  MET794  SER795  GLU796  ALA797  LYS798  CYS799  TRP800  GLU811  SER814 

> <Gold.Protein.RotatedAtoms>
  151.6170  135.1035  160.0093 H   0  0  0  0  0  0  0  0  0  0  0  0  # atno 6907 bound_to 6896
  152.4178  133.7062  159.6463 H   0  0  0  0  0  0  0  0  0  0  0  0  # atno 6908 bound_to 6896
  150.8066  133.8426  159.3224 H   0  0  0  0  0  0  0  0  0  0  0  0  # atno 6909 bound_to 6896
  145.3283  140.9436  143.2676 H   0  0  0  0  0  0  0  0  0  0  0  0  # atno 7974 bound_to 7965
  156.1752  140.1654  156.8375 H   0  0  0  0  0  0  0  0  0  0  0  0  # atno 8008 bound_to 7997
  154.5299  140.0759  156.8360 H   0  0  0  0  0  0  0  0  0  0  0  0  # atno 8009 bound_to 7997
  155.3428  140.3385  155.4241 H   0  0  0  0  0  0  0  0  0  0  0  0  # atno 8010 bound_to 7997
  140.0542  143.5030  152.2066 H   0  0  0  0  0  0  0  0  0  0  0  0  # atno 10167 bound_to 10162
  157.6257  130.9344  150.0302 H   0  0  0  0  0  0  0  0  0  0  0  0  # atno 10718 bound_to 10713
  152.9813  135.5719  154.5025 H   0  0  0  0  0  0  0  0  0  0  0  0  # atno 10763 bound_to 10752
  154.4542  135.2779  155.1761 H   0  0  0  0  0  0  0  0  0  0  0  0  # atno 10764 bound_to 10752
  154.3376  135.6236  153.5634 H   0  0  0  0  0  0  0  0  0  0  0  0  # atno 10765 bound_to 10752
  141.1666  133.7087  156.8059 H   0  0  0  0  0  0  0  0  0  0  0  0  # atno 11005 bound_to 11000
  144.8884  139.4808  143.6689 LP  0  0  0  0  0  0  0  0  0  0  0  0  # atno 17320 bound_to 7965
  146.3055  139.7567  142.9059 LP  0  0  0  0  0  0  0  0  0  0  0  0  # atno 17321 bound_to 7965
  139.5934  144.7558  151.3345 LP  0  0  0  0  0  0  0  0  0  0  0  0  # atno 17342 bound_to 10162
  140.7202  143.7155  150.7736 LP  0  0  0  0  0  0  0  0  0  0  0  0  # atno 17343 bound_to 10162
  156.1427  130.3642  149.9557 LP  0  0  0  0  0  0  0  0  0  0  0  0  # atno 17370 bound_to 10713
  156.7594  130.9145  151.3641 LP  0  0  0  0  0  0  0  0  0  0  0  0  # atno 17371 bound_to 10713
  140.2223  134.8748  157.3390 LP  0  0  0  0  0  0  0  0  0  0  0  0  # atno 17394 bound_to 11000
  140.1975  134.4295  155.7681 LP  0  0  0  0  0  0  0  0  0  0  0  0  # atno 17395 bound_to 11000

$$$$
