AV-unprocessed.smi:1216|AV-procd|sdf|5098|dock6
  -GOLD-   22720 4153D 1   1.00000     0.00000
 Structure written by MMmdl.
 43 44  0  0  0  0  0  0  0  0  2 V2000
  146.9025  137.9100  154.7576 C   0  0  0  0  0  0  0  0  0  0  0  0
  148.4160  138.1502  154.6788 C   0  0  2  0  0  0  0  0  0  0  0  0
  148.7599  139.2207  153.6207 C   0  0  0  0  0  0  0  0  0  0  0  0
  148.1674  140.5296  153.9189 N   0  0  0  0  0  0  0  0  0  0  0  0
  146.8485  140.8892  153.8118 C   0  0  0  0  0  0  0  0  0  0  0  0
  146.7655  142.1964  154.2172 C   0  0  0  0  0  0  0  0  0  0  0  0
  148.0369  142.5811  154.5484 N   0  3  0  0  0  0  0  0  0  0  0  0
  148.8888  141.5684  154.3600 C   0  0  0  0  0  0  0  0  0  0  0  0
  149.0829  136.8846  154.3750 N   0  0  0  0  0  0  0  0  0  0  0  0
  149.6901  136.0865  155.2673 C   0  0  0  0  0  0  0  0  0  0  0  0
  149.7179  136.3215  156.4762 O   0  0  0  0  0  0  0  0  0  0  0  0
  150.3745  134.8374  154.6978 C   0  0  0  0  0  0  0  0  0  0  0  0
  149.8431  133.5878  155.2636 N   0  0  0  0  0  0  0  0  0  0  0  0
  149.0943  132.7123  154.3479 C   0  0  0  0  0  0  0  0  0  0  0  0
  149.8267  131.3937  154.0085 C   0  0  0  0  0  0  0  0  0  0  0  0
  150.7518  130.8279  155.1041 C   0  0  0  0  0  0  0  0  0  0  0  0
  150.1016  130.6798  156.4955 C   0  0  0  0  0  0  0  0  0  0  0  0
  149.4374  131.9461  157.0872 C   0  0  0  0  0  0  0  0  0  0  0  0
  150.0209  133.2718  156.5715 C   0  0  0  0  0  0  0  0  0  0  0  0
  150.6230  134.0001  157.3616 O   0  0  0  0  0  0  0  0  0  0  0  0
  146.3718  138.8293  155.0071 H   0  0  0  0  0  0  0  0  0  0  0  0
  146.6612  137.1742  155.5255 H   0  0  0  0  0  0  0  0  0  0  0  0
  146.5069  137.5446  153.8092 H   0  0  0  0  0  0  0  0  0  0  0  0
  148.7352  138.5109  155.6584 H   0  0  0  0  0  0  0  0  0  0  0  0
  149.8404  139.3402  153.5255 H   0  0  0  0  0  0  0  0  0  0  0  0
  148.3887  138.9171  152.6410 H   0  0  0  0  0  0  0  0  0  0  0  0
  146.0858  140.2031  153.4736 H   0  0  0  0  0  0  0  0  0  0  0  0
  145.9190  142.8631  154.2946 H   0  0  0  0  0  0  0  0  0  0  0  0
  149.9478  141.5834  154.5467 H   0  0  0  0  0  0  0  0  0  0  0  0
  149.1015  136.6039  153.4050 H   0  0  0  0  0  0  0  0  0  0  0  0
  150.2607  134.8460  153.6132 H   0  0  0  0  0  0  0  0  0  0  0  0
  151.4502  134.8942  154.8755 H   0  0  0  0  0  0  0  0  0  0  0  0
  148.1181  132.4924  154.7800 H   0  0  0  0  0  0  0  0  0  0  0  0
  148.8560  133.2355  153.4212 H   0  0  0  0  0  0  0  0  0  0  0  0
  149.0872  130.6421  153.7304 H   0  0  0  0  0  0  0  0  0  0  0  0
  150.4316  131.5538  153.1152 H   0  0  0  0  0  0  0  0  0  0  0  0
  151.1208  129.8534  154.7825 H   0  0  0  0  0  0  0  0  0  0  0  0
  151.6423  131.4530  155.1840 H   0  0  0  0  0  0  0  0  0  0  0  0
  149.3557  129.8855  156.4535 H   0  0  0  0  0  0  0  0  0  0  0  0
  150.8640  130.3269  157.1910 H   0  0  0  0  0  0  0  0  0  0  0  0
  148.3652  131.9327  156.8924 H   0  0  0  0  0  0  0  0  0  0  0  0
  149.5210  131.9178  158.1743 H   0  0  0  0  0  0  0  0  0  0  0  0
  148.2979  143.4970  154.8915 H   0  0  0  0  0  0  0  0  0  0  0  0
  1  2  1  0  0  0  0
  1 21  1  0  0  0  0
  1 22  1  0  0  0  0
  1 23  1  0  0  0  0
  2  3  1  0  0  0  0
  2  9  1  0  0  0  0
  2 24  1  0  0  0  0
  3  4  1  0  0  0  0
  3 25  1  0  0  0  0
  3 26  1  0  0  0  0
  4  8  1  0  0  0  0
  4  5  1  0  0  0  0
  5  6  2  0  0  0  0
  5 27  1  0  0  0  0
  6  7  1  0  0  0  0
  6 28  1  0  0  0  0
  7  8  2  0  0  0  0
  7 43  1  0  0  0  0
  8 29  1  0  0  0  0
  9 10  1  0  0  0  0
  9 30  1  0  0  0  0
 10 11  2  0  0  0  0
 10 12  1  0  0  0  0
 12 13  1  0  0  0  0
 12 31  1  0  0  0  0
 12 32  1  0  0  0  0
 13 19  1  0  0  0  0
 13 14  1  0  0  0  0
 14 15  1  0  0  0  0
 14 33  1  0  0  0  0
 14 34  1  0  0  0  0
 15 16  1  0  0  0  0
 15 35  1  0  0  0  0
 15 36  1  0  0  0  0
 16 17  1  0  0  0  0
 16 37  1  0  0  0  0
 16 38  1  0  0  0  0
 17 18  1  0  0  0  0
 17 39  1  0  0  0  0
 17 40  1  0  0  0  0
 18 19  1  0  0  0  0
 18 41  1  0  0  0  0
 18 42  1  0  0  0  0
 19 20  2  0  0  0  0
M  CHG  1   7   1
M  END
> <s_m_source_file>
AV-unprocessed.smi

> <i_m_source_file_index>
1216

> <i_lp_mmshare_version>
43012

> <i_f3d_flags>
0

> <s_epik_input>
W2NIXTFuW2NIXVtjSF1uMVtDSDJdW0NAQEhdKFtDSDNdKVtOSF1DKD1PKVtDSDJdTjJbQ0gyXVtDSDJdW0NIMl1bQ0gyXVtDSDJdQzI9Tw==

> <s_epik_cmdline>
J2VwaWtfcHl0aG9uJywgJy1waCcsICc3LjAnLCAnLXRuJywgJzgnLCAnLW1hJywgJzIwMCcsICctbWV0YWxfYmluZGluZycsICctaW1hZScsICc8aW5maWxlLm1hZT4nLCAnLW9tYWUnLCAnPG91dGZpbGUubWFlPic=

> <r_lp_tautomer_probability>
1

> <r_epik_Ionization_Penalty>
0.254232

> <r_epik_Ionization_Penalty_Charging>
0

> <r_epik_Ionization_Penalty_Neutral>
0.254232

> <r_epik_State_Penalty>
0.245698

> <r_epik_Charging_Adjusted_Penalty>
0.245698

> <i_epik_Tot_Q>
1

> <i_epik_Tot_abs_Q>
1

> <r_epik_Metal_State_Penalty>
0.535799

> <b_epik_Metal_Only>
0

> <s_lp_Force_Field>
OPLS_2005

> <r_lp_Energy>
19.3608

> <b_lp_Chiralities_Consistent>
1

> <s_lp_Variant>
AV-unprocessed.smi:1216-1

> <Gold.Version>
5.8.1

> <Gold.Id.Protein>
6NUR|6NUR_protein|mol2

> <Gold.PLP.Fitness>
42.8832

> <Gold.PLP.PLP>
-28.8433

> <Gold.PLP.part.hbond>
-3.0000

> <Gold.PLP.part.metal>
0.0000

> <Gold.PLP.part.buried>
-1.6460

> <Gold.PLP.part.nonpolar>
-25.4656

> <Gold.PLP.part.repulsive>
0.2052

> <Gold.PLP.ligand.clash>
0.0000

> <Gold.PLP.ligand.torsion>
0.4675

> <Gold.PLP.Chemscore.Hbond>
3.9760

> <Gold.PLP.Chemscore.CHOScore>
1.0000

> <Gold.PLP.Chemscore.Metal>
0.0000

> <Gold.Chemscore.Hbonds>
donor molecule, donor type, donor heavy atom, donor atom, acceptor molecule, acceptor atom, score
      L1  H     7    43       P1  8028  1.98
      L1  H     9    30       P1  7948  1.00
      P1  H  6896  6909       L1    20  0.67
      L1  C     5    27       P1 10175  0.79

> <Gold.PLP.Chemscore.Internal.Correction>
0.0468

> <Gold.Rescore>
     Score         DG    S(hbond)    S(metal)    S(lipo)     H(rot)  DE(clash)    DE(int)     intcor
     13.53     -15.40       2.96        0.00      48.74       2.22       0.08       1.80       ----

> <Gold.Chemscore.Fitness>
13.5260

> <Gold.Chemscore.DG>
-15.4038

> <Gold.Chemscore.ZeroCoef>
-5.4800

> <Gold.Chemscore.Hbond>
2.9623

> <Gold.Chemscore.Metal>
0.0000

> <Gold.Chemscore.Lipo>
48.7420

> <Gold.Chemscore.Internal_Hbond>
0.0000

> <Gold.Chemscore.DEClash>
0.0811

> <Gold.Chemscore.DEInternal>
1.7967

> <Gold.Chemscore.Rot>
2.2161

> <Gold.Chemscore.Internal.Correction>
   9.000000E+99

> <Gold.Chemscore.Hbonds>
donor molecule, donor type, donor heavy atom, donor atom, acceptor molecule, acceptor atom, score
      L1  H     7    43       P1  8028  0.89
      L1  H     9    30       P1  7948  0.97
      P1  H  6896  6909       L1    20  0.66

> <Gold.Chemscore.Hbond.Weighted>
-9.8942

> <Gold.Chemscore.Metal.Weighted>
-0.0000

> <Gold.Chemscore.Lipo.Weighted>
-5.7028

> <Gold.Chemscore.Internal_Hbond.Weighted>
0.0000

> <Gold.Chemscore.DEClash.Weighted>
0.0811

> <Gold.Chemscore.DEInternal.Weighted>
1.7967

> <Gold.Chemscore.Rot.Weighted>
5.6733

> <Gold.Chemscore.Internal.Correction.Weighted>
   9.000000E+99

> <Gold.Protein.RotatedTorsions>
[ 6907 6896 6895 6894 ] final   -4.93 input  -60.11 | X-H torsion
[ 7974 7965 7964 7962 ] final  178.71 input  175.53 | X-H torsion
[ 8008 7997 7996 7995 ] final  163.43 input   59.86 | X-H torsion
[ 10167 10162 10161 10158 ] final -177.68 input  -65.29 | X-H torsion
[ 10718 10713 10712 10709 ] final   72.96 input   66.30 | X-H torsion
[ 10763 10752 10751 10750 ] final  -74.22 input  -60.55 | X-H torsion
[ 11005 11000 10999 10996 ] final -150.45 input  -57.11 | X-H torsion

> <Gold.Protein.ActiveResidues>
 VAL166  LYS551  ARG553  GLY616  TRP617  ASP618  TYR619  PRO620  LYS621  CYS622 
 ASP623  PHE694  ASN695  SER759  ASP760  ASP761  ALA762  ILE779  LEU786  VAL792 
 PHE793  MET794  SER795  GLU796  ALA797  LYS798  CYS799  TRP800  GLU811  SER814 

> <Gold.Protein.RotatedAtoms>
  151.4897  135.1057  159.9799 H   0  0  0  0  0  0  0  0  0  0  0  0  # atno 6907 bound_to 6896
  152.4746  133.8104  159.7011 H   0  0  0  0  0  0  0  0  0  0  0  0  # atno 6908 bound_to 6896
  150.8775  133.7356  159.2968 H   0  0  0  0  0  0  0  0  0  0  0  0  # atno 6909 bound_to 6896
  144.7153  140.0438  143.6437 H   0  0  0  0  0  0  0  0  0  0  0  0  # atno 7974 bound_to 7965
  156.1957  140.1724  156.8002 H   0  0  0  0  0  0  0  0  0  0  0  0  # atno 8008 bound_to 7997
  154.5527  140.0714  156.8725 H   0  0  0  0  0  0  0  0  0  0  0  0  # atno 8009 bound_to 7997
  155.2998  140.3361  155.4250 H   0  0  0  0  0  0  0  0  0  0  0  0  # atno 8010 bound_to 7997
  139.5468  144.2213  152.1004 H   0  0  0  0  0  0  0  0  0  0  0  0  # atno 10167 bound_to 10162
  157.6526  130.9605  150.1002 H   0  0  0  0  0  0  0  0  0  0  0  0  # atno 10718 bound_to 10713
  154.4701  135.5871  153.6315 H   0  0  0  0  0  0  0  0  0  0  0  0  # atno 10763 bound_to 10752
  152.9833  135.6065  154.3377 H   0  0  0  0  0  0  0  0  0  0  0  0  # atno 10764 bound_to 10752
  154.3258  135.2843  155.2476 H   0  0  0  0  0  0  0  0  0  0  0  0  # atno 10765 bound_to 10752
  140.7400  134.3524  157.5149 H   0  0  0  0  0  0  0  0  0  0  0  0  # atno 11005 bound_to 11000
  146.0001  139.3084  143.0933 LP  0  0  0  0  0  0  0  0  0  0  0  0  # atno 17320 bound_to 7965
  145.8803  140.9367  143.0605 LP  0  0  0  0  0  0  0  0  0  0  0  0  # atno 17321 bound_to 7965
  140.1701  144.4943  150.6584 LP  0  0  0  0  0  0  0  0  0  0  0  0  # atno 17342 bound_to 10162
  140.6719  143.2289  151.5603 LP  0  0  0  0  0  0  0  0  0  0  0  0  # atno 17343 bound_to 10162
  156.1927  130.3655  149.8889 LP  0  0  0  0  0  0  0  0  0  0  0  0  # atno 17370 bound_to 10713
  156.6813  130.8859  151.3576 LP  0  0  0  0  0  0  0  0  0  0  0  0  # atno 17371 bound_to 10713
  139.8808  134.9075  156.2946 LP  0  0  0  0  0  0  0  0  0  0  0  0  # atno 17394 bound_to 11000
  140.9845  133.7247  156.0721 LP  0  0  0  0  0  0  0  0  0  0  0  0  # atno 17395 bound_to 11000

$$$$
