AV-unprocessed.smi:33|AV-procd|sdf|213|dock10
  -GOLD-   2262015523D 1   1.00000     0.00000
 Structure written by MMmdl.
 67 72  0  0  0  0  0  0  0  0  1 V2000
  154.0871  139.9898  158.9393 O   0  0  0  0  0  0  0  0  0  0  0  0
  153.1192  140.7426  159.0669 C   0  0  0  0  0  0  0  0  0  0  0  0
  152.0656  140.7561  158.2263 O   0  0  0  0  0  0  0  0  0  0  0  0
  152.0190  139.8664  157.1222 C   0  0  0  0  0  0  0  0  0  0  0  0
  150.6760  140.0346  156.3971 C   0  0  2  0  0  0  0  0  0  0  0  0
  149.6636  139.3455  157.1350 O   0  0  0  0  0  0  0  0  0  0  0  0
  149.1596  138.2679  156.4064 C   0  0  2  0  0  0  0  0  0  0  0  0
  148.9895  137.0772  157.2997 N   0  0  0  0  0  0  0  0  0  0  0  0
  149.9430  136.5150  158.1193 C   0  0  0  0  0  0  0  0  0  0  0  0
  149.5480  135.4852  158.8177 N   0  0  0  0  0  0  0  0  0  0  0  0
  148.2187  135.3228  158.4507 C   0  0  0  0  0  0  0  0  0  0  0  0
  147.1965  134.4087  158.8242 C   0  0  0  0  0  0  0  0  0  0  0  0
  147.3886  133.4220  159.7314 N   0  0  0  0  0  0  0  0  0  0  0  0
  147.4505  132.0458  159.2176 C   0  0  0  0  0  0  0  0  0  0  0  0
  147.7906  131.8472  158.0496 O   0  0  0  0  0  0  0  0  0  0  0  0
  147.1452  130.8818  160.1174 C   0  0  0  0  0  0  0  0  0  0  0  0
  147.6310  129.5948  159.7983 C   0  0  0  0  0  0  0  0  0  0  0  0
  147.3349  128.4977  160.6303 C   0  0  0  0  0  0  0  0  0  0  0  0
  146.5351  128.6765  161.7750 C   0  0  0  0  0  0  0  0  0  0  0  0
  146.0236  129.9513  162.0830 C   0  0  0  0  0  0  0  0  0  0  0  0
  146.3208  131.0492  161.2528 C   0  0  0  0  0  0  0  0  0  0  0  0
  147.5207  133.8169  161.1416 C   0  0  0  0  0  0  0  0  0  0  0  0
  148.1325  133.0851  161.9222 O   0  0  0  0  0  0  0  0  0  0  0  0
  146.9690  135.1295  161.6224 C   0  0  0  0  0  0  0  0  0  0  0  0
  147.7011  135.9070  162.5463 C   0  0  0  0  0  0  0  0  0  0  0  0
  147.1836  137.1316  163.0116 C   0  0  0  0  0  0  0  0  0  0  0  0
  145.9236  137.5777  162.5698 C   0  0  0  0  0  0  0  0  0  0  0  0
  145.1764  136.7943  161.6702 C   0  0  0  0  0  0  0  0  0  0  0  0
  145.6925  135.5694  161.2051 C   0  0  0  0  0  0  0  0  0  0  0  0
  145.9761  134.5437  158.2439 N   0  0  0  0  0  0  0  0  0  0  0  0
  145.7697  135.5185  157.3541 C   0  0  0  0  0  0  0  0  0  0  0  0
  146.6274  136.4427  156.9168 N   0  0  0  0  0  0  0  0  0  0  0  0
  147.8564  136.3106  157.4939 C   0  0  0  0  0  0  0  0  0  0  0  0
  150.1173  138.0066  155.2378 C   0  0  2  0  0  0  0  0  0  0  0  0
  151.1388  137.0669  155.5208 O   0  0  0  0  0  0  0  0  0  0  0  0
  150.6820  139.3945  155.0035 C   0  0  1  0  0  0  0  0  0  0  0  0
  149.8599  140.0728  154.2005 F   0  0  0  0  0  0  0  0  0  0  0  0
  152.9885  141.7317  160.1752 C   0  0  0  0  0  0  0  0  0  0  0  0
  152.2005  142.8903  159.9811 C   0  0  0  0  0  0  0  0  0  0  0  0
  152.0569  143.8410  161.0103 C   0  0  0  0  0  0  0  0  0  0  0  0
  152.7000  143.6449  162.2464 C   0  0  0  0  0  0  0  0  0  0  0  0
  153.4885  142.4977  162.4514 C   0  0  0  0  0  0  0  0  0  0  0  0
  153.6338  141.5463  161.4231 C   0  0  0  0  0  0  0  0  0  0  0  0
  152.8428  140.1053  156.4492 H   0  0  0  0  0  0  0  0  0  0  0  0
  152.1515  138.8317  157.4388 H   0  0  0  0  0  0  0  0  0  0  0  0
  150.4321  141.0956  156.3288 H   0  0  0  0  0  0  0  0  0  0  0  0
  148.1507  138.5131  156.0714 H   0  0  0  0  0  0  0  0  0  0  0  0
  150.9498  136.9010  158.1877 H   0  0  0  0  0  0  0  0  0  0  0  0
  148.2453  129.4456  158.9220 H   0  0  0  0  0  0  0  0  0  0  0  0
  147.7206  127.5182  160.3892 H   0  0  0  0  0  0  0  0  0  0  0  0
  146.3082  127.8348  162.4127 H   0  0  0  0  0  0  0  0  0  0  0  0
  145.4016  130.0877  162.9555 H   0  0  0  0  0  0  0  0  0  0  0  0
  145.9190  132.0223  161.4966 H   0  0  0  0  0  0  0  0  0  0  0  0
  148.6696  135.5747  162.8912 H   0  0  0  0  0  0  0  0  0  0  0  0
  147.7539  137.7280  163.7083 H   0  0  0  0  0  0  0  0  0  0  0  0
  145.5273  138.5168  162.9266 H   0  0  0  0  0  0  0  0  0  0  0  0
  144.2062  137.1322  161.3376 H   0  0  0  0  0  0  0  0  0  0  0  0
  145.1068  134.9740  160.5196 H   0  0  0  0  0  0  0  0  0  0  0  0
  144.7762  135.5676  156.9333 H   0  0  0  0  0  0  0  0  0  0  0  0
  149.5533  137.6404  154.3793 H   0  0  0  0  0  0  0  0  0  0  0  0
  151.1786  136.9409  156.4568 H   0  0  0  0  0  0  0  0  0  0  0  0
  151.6612  139.3954  154.5227 H   0  0  0  0  0  0  0  0  0  0  0  0
  151.6979  143.0625  159.0402 H   0  0  0  0  0  0  0  0  0  0  0  0
  151.4525  144.7215  160.8503 H   0  0  0  0  0  0  0  0  0  0  0  0
  152.5894  144.3738  163.0357 H   0  0  0  0  0  0  0  0  0  0  0  0
  153.9834  142.3464  163.3995 H   0  0  0  0  0  0  0  0  0  0  0  0
  154.2472  140.6775  161.6133 H   0  0  0  0  0  0  0  0  0  0  0  0
  1  2  2  0  0  0  0
  2  3  1  0  0  0  0
  2 38  1  0  0  0  0
  3  4  1  0  0  0  0
  4  5  1  0  0  0  0
  4 44  1  0  0  0  0
  4 45  1  0  0  0  0
  5 36  1  0  0  0  0
  5  6  1  0  0  0  0
  5 46  1  0  0  0  0
  6  7  1  0  0  0  0
  7  8  1  0  0  0  0
  7 34  1  0  0  0  0
  7 47  1  0  0  0  0
  8 33  1  0  0  0  0
  8  9  1  0  0  0  0
  9 10  2  0  0  0  0
  9 48  1  0  0  0  0
 10 11  1  0  0  0  0
 11 33  2  0  0  0  0
 11 12  1  0  0  0  0
 12 13  1  0  0  0  0
 12 30  2  0  0  0  0
 13 14  1  0  0  0  0
 13 22  1  0  0  0  0
 14 15  2  0  0  0  0
 14 16  1  0  0  0  0
 16 21  1  0  0  0  0
 16 17  2  0  0  0  0
 17 18  1  0  0  0  0
 17 49  1  0  0  0  0
 18 19  2  0  0  0  0
 18 50  1  0  0  0  0
 19 20  1  0  0  0  0
 19 51  1  0  0  0  0
 20 21  2  0  0  0  0
 20 52  1  0  0  0  0
 21 53  1  0  0  0  0
 22 23  2  0  0  0  0
 22 24  1  0  0  0  0
 24 29  1  0  0  0  0
 24 25  2  0  0  0  0
 25 26  1  0  0  0  0
 25 54  1  0  0  0  0
 26 27  2  0  0  0  0
 26 55  1  0  0  0  0
 27 28  1  0  0  0  0
 27 56  1  0  0  0  0
 28 29  2  0  0  0  0
 28 57  1  0  0  0  0
 29 58  1  0  0  0  0
 30 31  1  0  0  0  0
 31 32  2  0  0  0  0
 31 59  1  0  0  0  0
 32 33  1  0  0  0  0
 34 35  1  0  0  0  0
 34 36  1  0  0  0  0
 34 60  1  0  0  0  0
 35 61  1  0  0  0  0
 36 37  1  0  0  0  0
 36 62  1  0  0  0  0
 38 43  1  0  0  0  0
 38 39  2  0  0  0  0
 39 40  1  0  0  0  0
 39 63  1  0  0  0  0
 40 41  2  0  0  0  0
 40 64  1  0  0  0  0
 41 42  1  0  0  0  0
 41 65  1  0  0  0  0
 42 43  2  0  0  0  0
 42 66  1  0  0  0  0
 43 67  1  0  0  0  0
M  END
> <s_m_source_file>
AV-unprocessed.smi

> <i_m_source_file_index>
33

> <i_lp_mmshare_version>
43012

> <i_f3d_flags>
0

> <s_epik_input>
W2NIXTFbY0hdW2NIXVtjSF1bY0hdYzFDKD1PKU9bQ0gyXVtDQEBIXTJPW0NASF0oW0NAQEhdKFtPSF0pW0NAQEhdMkYpbihbY0hdbjMpYyhjMzQpbltjSF1uYzROKEMoPU8pYzVbY0hdW2NIXVtjSF1bY0hdW2NIXTUpQyg9TyljNltjSF1bY0hdW2NIXVtjSF1bY0hdNg==

> <s_epik_cmdline>
J2VwaWtfcHl0aG9uJywgJy1waCcsICc3LjAnLCAnLXRuJywgJzgnLCAnLW1hJywgJzIwMCcsICctbWV0YWxfYmluZGluZycsICctaW1hZScsICc8aW5maWxlLm1hZT4nLCAnLW9tYWUnLCAnPG91dGZpbGUubWFlPic=

> <r_lp_tautomer_probability>
1

> <r_epik_Ionization_Penalty>
0.00067664

> <r_epik_Ionization_Penalty_Charging>
0

> <r_epik_Ionization_Penalty_Neutral>
0.00067664

> <r_epik_State_Penalty>
0.000428095

> <r_epik_Charging_Adjusted_Penalty>
0.000428095

> <i_epik_Tot_Q>
0

> <i_epik_Tot_abs_Q>
0

> <r_epik_Metal_State_Penalty>
-0

> <b_epik_Metal_Only>
0

> <s_epik_Chemistry_Notes>
This compound has an ester and may undergo hydrolysis at high or low pH. This compound contains an acetal/aminal-like group ( X-CH(R)-Y where X, Y are N, S, or O) that may be acid/base labile, releasing an aldehyde.

> <s_lp_Force_Field>
OPLS_2005

> <r_lp_Energy>
74.9187

> <b_lp_Chiralities_Consistent>
1

> <s_lp_Variant>
AV-unprocessed.smi:33-15

> <Gold.Version>
5.8.1

> <Gold.Id.Protein>
6NUR|6NUR_protein|mol2

> <Gold.PLP.Fitness>
60.9579

> <Gold.PLP.PLP>
-59.3868

> <Gold.PLP.part.hbond>
-2.0000

> <Gold.PLP.part.metal>
0.0000

> <Gold.PLP.part.buried>
-3.5037

> <Gold.PLP.part.nonpolar>
-52.5860

> <Gold.PLP.part.repulsive>
0.0000

> <Gold.PLP.ligand.clash>
2.8511

> <Gold.PLP.ligand.torsion>
3.2203

> <Gold.PLP.Chemscore.Hbond>
2.0000

> <Gold.PLP.Chemscore.CHOScore>
0.0000

> <Gold.PLP.Chemscore.Metal>
0.0000

> <Gold.Chemscore.Hbonds>
donor molecule, donor type, donor heavy atom, donor atom, acceptor molecule, acceptor atom, score
      P1  H  6896  6908       L1    10  1.00
      P1  H  7997  8008       L1     1  1.00

> <Gold.PLP.Chemscore.Internal.Correction>
4.8628

> <Gold.Rescore>
     Score         DG    S(hbond)    S(metal)    S(lipo)     H(rot)  DE(clash)    DE(int)     intcor
     16.74     -25.06       2.34        0.00     155.77       2.52       0.84       7.48       ----

> <Gold.Chemscore.Fitness>
16.7385

> <Gold.Chemscore.DG>
-25.0608

> <Gold.Chemscore.ZeroCoef>
-5.4800

> <Gold.Chemscore.Hbond>
2.3409

> <Gold.Chemscore.Metal>
0.0000

> <Gold.Chemscore.Lipo>
155.7736

> <Gold.Chemscore.Internal_Hbond>
0.0000

> <Gold.Chemscore.DEClash>
0.8390

> <Gold.Chemscore.DEInternal>
7.4833

> <Gold.Chemscore.Rot>
2.5247

> <Gold.Chemscore.Internal.Correction>
   9.000000E+99

> <Gold.Chemscore.Hbonds>
donor molecule, donor type, donor heavy atom, donor atom, acceptor molecule, acceptor atom, score
      P1  H  6896  6908       L1    10  0.92
      P1  H  7997  8008       L1     1  0.81
      P1  H 10752 10765       L1    35  0.01

> <Gold.Chemscore.Hbond.Weighted>
-7.8186

> <Gold.Chemscore.Metal.Weighted>
-0.0000

> <Gold.Chemscore.Lipo.Weighted>
-18.2255

> <Gold.Chemscore.Internal_Hbond.Weighted>
0.0000

> <Gold.Chemscore.DEClash.Weighted>
0.8390

> <Gold.Chemscore.DEInternal.Weighted>
7.4833

> <Gold.Chemscore.Rot.Weighted>
6.4633

> <Gold.Chemscore.Internal.Correction.Weighted>
   9.000000E+99

> <Gold.Protein.RotatedTorsions>
[ 6907 6896 6895 6894 ] final  174.91 input  -60.11 | X-H torsion
[ 7974 7965 7964 7962 ] final   19.91 input  175.53 | X-H torsion
[ 8008 7997 7996 7995 ] final -101.41 input   59.86 | X-H torsion
[ 10167 10162 10161 10158 ] final  144.34 input  -65.29 | X-H torsion
[ 10718 10713 10712 10709 ] final  122.71 input   66.30 | X-H torsion
[ 10763 10752 10751 10750 ] final -173.83 input  -60.55 | X-H torsion
[ 11005 11000 10999 10996 ] final  -61.57 input  -57.11 | X-H torsion

> <Gold.Protein.ActiveResidues>
 VAL166  LYS551  ARG553  GLY616  TRP617  ASP618  TYR619  PRO620  LYS621  CYS622 
 ASP623  PHE694  ASN695  SER759  ASP760  ASP761  ALA762  ILE779  LEU786  VAL792 
 PHE793  MET794  SER795  GLU796  ALA797  LYS798  CYS799  TRP800  GLU811  SER814 

> <Gold.Protein.RotatedAtoms>
  151.7447  133.3324  159.3375 H   0  0  0  0  0  0  0  0  0  0  0  0  # atno 6907 bound_to 6896
  150.7559  134.6246  159.6163 H   0  0  0  0  0  0  0  0  0  0  0  0  # atno 6908 bound_to 6896
  152.3507  134.7011  160.0288 H   0  0  0  0  0  0  0  0  0  0  0  0  # atno 6909 bound_to 6896
  146.2132  139.8245  142.8673 H   0  0  0  0  0  0  0  0  0  0  0  0  # atno 7974 bound_to 7965
  154.8421  140.0434  157.1548 H   0  0  0  0  0  0  0  0  0  0  0  0  # atno 8008 bound_to 7997
  154.9035  140.3003  155.5284 H   0  0  0  0  0  0  0  0  0  0  0  0  # atno 8009 bound_to 7997
  156.2993  140.2371  156.4066 H   0  0  0  0  0  0  0  0  0  0  0  0  # atno 8010 bound_to 7997
  139.4949  144.5978  151.6545 H   0  0  0  0  0  0  0  0  0  0  0  0  # atno 10167 bound_to 10162
  157.5721  131.1082  150.8348 H   0  0  0  0  0  0  0  0  0  0  0  0  # atno 10718 bound_to 10713
  154.6033  135.2857  155.0511 H   0  0  0  0  0  0  0  0  0  0  0  0  # atno 10763 bound_to 10752
  154.1768  135.6463  153.5027 H   0  0  0  0  0  0  0  0  0  0  0  0  # atno 10764 bound_to 10752
  153.0165  135.5414  154.6760 H   0  0  0  0  0  0  0  0  0  0  0  0  # atno 10765 bound_to 10752
  141.1329  133.6631  156.5395 H   0  0  0  0  0  0  0  0  0  0  0  0  # atno 11005 bound_to 11000
  145.3061  141.0207  143.3581 LP  0  0  0  0  0  0  0  0  0  0  0  0  # atno 17320 bound_to 7965
  144.8970  139.4699  143.6650 LP  0  0  0  0  0  0  0  0  0  0  0  0  # atno 17321 bound_to 7965
  140.5620  144.0252  150.6174 LP  0  0  0  0  0  0  0  0  0  0  0  0  # atno 17342 bound_to 10162
  140.3341  143.3059  152.0657 LP  0  0  0  0  0  0  0  0  0  0  0  0  # atno 17343 bound_to 10162
  156.8816  130.5181  149.5290 LP  0  0  0  0  0  0  0  0  0  0  0  0  # atno 17370 bound_to 10713
  156.0766  130.5787  150.9485 LP  0  0  0  0  0  0  0  0  0  0  0  0  # atno 17371 bound_to 10713
  140.4151  134.7238  157.4858 LP  0  0  0  0  0  0  0  0  0  0  0  0  # atno 17394 bound_to 11000
  140.0400  134.6282  155.8994 LP  0  0  0  0  0  0  0  0  0  0  0  0  # atno 17395 bound_to 11000

$$$$
