AV-unprocessed.smi:1471|AV-procd|sdf|5963|dock7
  -GOLD-   22720 6 53D 1   1.00000     0.00000
 Structure written by MMmdl.
 42 43  0  0  0  0  0  0  0  0  1 V2000
  146.9930  139.6919  155.7999 C   0  0  0  0  0  0  0  0  0  0  0  0
  148.2564  138.8976  155.6043 C   0  0  0  0  0  0  0  0  0  0  0  0
  148.1163  137.6395  155.3430 N   0  0  0  0  0  0  0  0  0  0  0  0
  149.2099  136.8191  155.1515 N   0  0  0  0  0  0  0  0  0  0  0  0
  148.8638  135.4213  154.8695 C   0  0  0  0  0  0  0  0  0  0  0  0
  149.1987  134.4898  156.0560 C   0  0  1  0  0  0  0  0  0  0  0  0
  150.6038  134.3835  156.1703 O   0  0  0  0  0  0  0  0  0  0  0  0
  148.6747  135.0439  157.3888 C   0  0  0  0  0  0  0  0  0  0  0  0
  148.5593  133.9733  158.3149 O   0  0  0  0  0  0  0  0  0  0  0  0
  147.2202  133.6543  158.6637 C   0  0  0  0  0  0  0  0  0  0  0  0
  146.7631  134.3231  159.9498 C   0  0  0  0  0  0  0  0  0  0  0  0
  146.7230  135.7311  160.0377 C   0  0  0  0  0  0  0  0  0  0  0  0
  146.3046  136.3555  161.2287 C   0  0  0  0  0  0  0  0  0  0  0  0
  145.9288  135.5751  162.3388 C   0  0  0  0  0  0  0  0  0  0  0  0
  145.9733  134.1699  162.2578 C   0  0  0  0  0  0  0  0  0  0  0  0
  146.3918  133.5434  161.0675 C   0  0  0  0  0  0  0  0  0  0  0  0
  146.4336  132.1909  161.0039 F   0  0  0  0  0  0  0  0  0  0  0  0
  150.5094  137.2267  155.2211 C   0  0  0  0  0  0  0  0  0  0  0  0
  151.4559  136.4558  155.0554 O   0  0  0  0  0  0  0  0  0  0  0  0
  150.6611  138.6541  155.5124 C   0  0  0  0  0  0  0  0  0  0  0  0
  152.0066  139.1237  155.5943 C   0  0  0  0  0  0  0  0  0  0  0  0
  153.0960  139.5127  155.6414 N   0  0  0  0  0  0  0  0  0  0  0  0
  149.5949  139.4726  155.6945 C   0  0  0  0  0  0  0  0  0  0  0  0
  149.7000  140.9606  155.9994 C   0  0  0  0  0  0  0  0  0  0  0  0
  147.0124  140.2254  156.7505 H   0  0  0  0  0  0  0  0  0  0  0  0
  146.1075  139.0540  155.8017 H   0  0  0  0  0  0  0  0  0  0  0  0
  146.8713  140.4249  155.0021 H   0  0  0  0  0  0  0  0  0  0  0  0
  147.8121  135.3256  154.5915 H   0  0  0  0  0  0  0  0  0  0  0  0
  149.4118  135.1038  153.9803 H   0  0  0  0  0  0  0  0  0  0  0  0
  148.7870  133.4914  155.9038 H   0  0  0  0  0  0  0  0  0  0  0  0
  150.9251  135.1388  156.6384 H   0  0  0  0  0  0  0  0  0  0  0  0
  149.3687  135.7843  157.7902 H   0  0  0  0  0  0  0  0  0  0  0  0
  147.7157  135.5422  157.2372 H   0  0  0  0  0  0  0  0  0  0  0  0
  146.5726  134.0005  157.8581 H   0  0  0  0  0  0  0  0  0  0  0  0
  147.0923  132.5721  158.7190 H   0  0  0  0  0  0  0  0  0  0  0  0
  147.0099  136.3375  159.1912 H   0  0  0  0  0  0  0  0  0  0  0  0
  146.2732  137.4335  161.2908 H   0  0  0  0  0  0  0  0  0  0  0  0
  145.6086  136.0540  163.2525 H   0  0  0  0  0  0  0  0  0  0  0  0
  145.6877  133.5714  163.1103 H   0  0  0  0  0  0  0  0  0  0  0  0
  150.7241  141.3246  155.9234 H   0  0  0  0  0  0  0  0  0  0  0  0
  149.3489  141.1665  157.0110 H   0  0  0  0  0  0  0  0  0  0  0  0
  149.0984  141.5428  155.3008 H   0  0  0  0  0  0  0  0  0  0  0  0
  1  2  1  0  0  0  0
  1 25  1  0  0  0  0
  1 26  1  0  0  0  0
  1 27  1  0  0  0  0
  2 23  1  0  0  0  0
  2  3  2  0  0  0  0
  3  4  1  0  0  0  0
  4  5  1  0  0  0  0
  4 18  1  0  0  0  0
  5  6  1  0  0  0  0
  5 28  1  0  0  0  0
  5 29  1  0  0  0  0
  6  7  1  0  0  0  0
  6  8  1  0  0  0  0
  6 30  1  0  0  0  0
  7 31  1  0  0  0  0
  8  9  1  0  0  0  0
  8 32  1  0  0  0  0
  8 33  1  0  0  0  0
  9 10  1  0  0  0  0
 10 11  1  0  0  0  0
 10 34  1  0  0  0  0
 10 35  1  0  0  0  0
 11 16  1  0  0  0  0
 11 12  2  0  0  0  0
 12 13  1  0  0  0  0
 12 36  1  0  0  0  0
 13 14  2  0  0  0  0
 13 37  1  0  0  0  0
 14 15  1  0  0  0  0
 14 38  1  0  0  0  0
 15 16  2  0  0  0  0
 15 39  1  0  0  0  0
 16 17  1  0  0  0  0
 18 19  2  0  0  0  0
 18 20  1  0  0  0  0
 20 21  1  0  0  0  0
 20 23  2  0  0  0  0
 21 22  3  0  0  0  0
 23 24  1  0  0  0  0
 24 40  1  0  0  0  0
 24 41  1  0  0  0  0
 24 42  1  0  0  0  0
M  END
> <s_m_source_file>
AV-unprocessed.smi

> <i_m_source_file_index>
1471

> <i_lp_mmshare_version>
43012

> <i_f3d_flags>
0

> <s_epik_input>
TiNDYyhjMVtDSDNdKWMoPU8pbihuYzFbQ0gzXSlbQ0gyXVtDQEhdKFtPSF0pW0NIMl1PW0NIMl1jMltjSF1bY0hdW2NIXVtjSF1jMkY=

> <s_epik_cmdline>
J2VwaWtfcHl0aG9uJywgJy1waCcsICc3LjAnLCAnLXRuJywgJzgnLCAnLW1hJywgJzIwMCcsICctbWV0YWxfYmluZGluZycsICctaW1hZScsICc8aW5maWxlLm1hZT4nLCAnLW9tYWUnLCAnPG91dGZpbGUubWFlPic=

> <r_lp_tautomer_probability>
1

> <r_epik_Ionization_Penalty>
6.13319e-08

> <r_epik_Ionization_Penalty_Charging>
2.19172e-10

> <r_epik_Ionization_Penalty_Neutral>
6.11128e-08

> <r_epik_State_Penalty>
-0

> <r_epik_Charging_Adjusted_Penalty>
2.19172e-10

> <i_epik_Tot_Q>
0

> <i_epik_Tot_abs_Q>
0

> <r_epik_Metal_State_Penalty>
-0

> <b_epik_Metal_Only>
0

> <s_lp_Force_Field>
OPLS_2005

> <r_lp_Energy>
30.1465

> <b_lp_Chiralities_Consistent>
1

> <s_lp_Variant>
AV-unprocessed.smi:1471-2

> <Gold.Version>
5.8.1

> <Gold.Id.Protein>
6NUR|6NUR_protein|mol2

> <Gold.PLP.Fitness>
46.8585

> <Gold.PLP.PLP>
-39.8471

> <Gold.PLP.part.hbond>
-3.3221

> <Gold.PLP.part.metal>
0.0000

> <Gold.PLP.part.buried>
-4.9706

> <Gold.PLP.part.nonpolar>
-33.1252

> <Gold.PLP.part.repulsive>
0.2254

> <Gold.PLP.ligand.clash>
0.0351

> <Gold.PLP.ligand.torsion>
0.9983

> <Gold.PLP.Chemscore.Hbond>
3.0000

> <Gold.PLP.Chemscore.CHOScore>
0.0000

> <Gold.PLP.Chemscore.Metal>
0.0000

> <Gold.Chemscore.Hbonds>
donor molecule, donor type, donor heavy atom, donor atom, acceptor molecule, acceptor atom, score
      P1  H  6896  6909       L1     9  0.23
      P1  H  7997  8008       L1    22  0.93
      P1  H 10752 10763       L1    19  1.00

> <Gold.PLP.Chemscore.Internal.Correction>
0.0431

> <Gold.Rescore>
     Score         DG    S(hbond)    S(metal)    S(lipo)     H(rot)  DE(clash)    DE(int)     intcor
     14.53     -17.38       2.88        0.00      77.41       2.65       0.10       2.75       ----

> <Gold.Chemscore.Fitness>
14.5273

> <Gold.Chemscore.DG>
-17.3790

> <Gold.Chemscore.ZeroCoef>
-5.4800

> <Gold.Chemscore.Hbond>
2.8796

> <Gold.Chemscore.Metal>
0.0000

> <Gold.Chemscore.Lipo>
77.4136

> <Gold.Chemscore.Internal_Hbond>
0.0000

> <Gold.Chemscore.DEClash>
0.1014

> <Gold.Chemscore.DEInternal>
2.7503

> <Gold.Chemscore.Rot>
2.6470

> <Gold.Chemscore.Internal.Correction>
   9.000000E+99

> <Gold.Chemscore.Hbonds>
donor molecule, donor type, donor heavy atom, donor atom, acceptor molecule, acceptor atom, score
      P1  H  6896  6909       L1     9  0.07
      P1  H  7997  8008       L1    22  0.89
      P1  H 10752 10763       L1    19  1.00

> <Gold.Chemscore.Hbond.Weighted>
-9.6178

> <Gold.Chemscore.Metal.Weighted>
-0.0000

> <Gold.Chemscore.Lipo.Weighted>
-9.0574

> <Gold.Chemscore.Internal_Hbond.Weighted>
0.0000

> <Gold.Chemscore.DEClash.Weighted>
0.1014

> <Gold.Chemscore.DEInternal.Weighted>
2.7503

> <Gold.Chemscore.Rot.Weighted>
6.7762

> <Gold.Chemscore.Internal.Correction.Weighted>
   9.000000E+99

> <Gold.Protein.RotatedTorsions>
[ 6907 6896 6895 6894 ] final   20.05 input  -60.11 | X-H torsion
[ 7974 7965 7964 7962 ] final  127.98 input  175.53 | X-H torsion
[ 8008 7997 7996 7995 ] final  -27.40 input   59.86 | X-H torsion
[ 10167 10162 10161 10158 ] final  -47.42 input  -65.29 | X-H torsion
[ 10718 10713 10712 10709 ] final -122.53 input   66.30 | X-H torsion
[ 10763 10752 10751 10750 ] final   58.01 input  -60.55 | X-H torsion
[ 11005 11000 10999 10996 ] final -124.36 input  -57.11 | X-H torsion

> <Gold.Protein.ActiveResidues>
 VAL166  LYS551  ARG553  GLY616  TRP617  ASP618  TYR619  PRO620  LYS621  CYS622 
 ASP623  PHE694  ASN695  SER759  ASP760  ASP761  ALA762  ILE779  LEU786  VAL792 
 PHE793  MET794  SER795  GLU796  ALA797  LYS798  CYS799  TRP800  GLU811  SER814 

> <Gold.Protein.RotatedAtoms>
  151.8904  135.0419  160.0496 H   0  0  0  0  0  0  0  0  0  0  0  0  # atno 6907 bound_to 6896
  152.2440  133.5155  159.5295 H   0  0  0  0  0  0  0  0  0  0  0  0  # atno 6908 bound_to 6896
  150.7062  134.0966  159.3993 H   0  0  0  0  0  0  0  0  0  0  0  0  # atno 6909 bound_to 6896
  145.0446  139.3934  143.5084 H   0  0  0  0  0  0  0  0  0  0  0  0  # atno 7974 bound_to 7965
  154.4379  140.1873  156.0925 H   0  0  0  0  0  0  0  0  0  0  0  0  # atno 8008 bound_to 7997
  156.0354  140.3326  155.7159 H   0  0  0  0  0  0  0  0  0  0  0  0  # atno 8009 bound_to 7997
  155.5778  140.0618  157.2781 H   0  0  0  0  0  0  0  0  0  0  0  0  # atno 8010 bound_to 7997
  140.6776  143.2785  151.3923 H   0  0  0  0  0  0  0  0  0  0  0  0  # atno 10167 bound_to 10162
  156.1426  130.6477  150.9794 H   0  0  0  0  0  0  0  0  0  0  0  0  # atno 10718 bound_to 10713
  152.9862  135.5621  154.5484 H   0  0  0  0  0  0  0  0  0  0  0  0  # atno 10763 bound_to 10752
  154.4925  135.2793  155.1487 H   0  0  0  0  0  0  0  0  0  0  0  0  # atno 10764 bound_to 10752
  154.2951  135.6318  153.5454 H   0  0  0  0  0  0  0  0  0  0  0  0  # atno 10765 bound_to 10752
  140.9847  134.0624  157.3725 H   0  0  0  0  0  0  0  0  0  0  0  0  # atno 11005 bound_to 11000
  146.3512  140.0065  142.8671 LP  0  0  0  0  0  0  0  0  0  0  0  0  # atno 17320 bound_to 7965
  145.1604  140.9669  143.4381 LP  0  0  0  0  0  0  0  0  0  0  0  0  # atno 17321 bound_to 7965
  139.6078  144.1162  152.2267 LP  0  0  0  0  0  0  0  0  0  0  0  0  # atno 17342 bound_to 10162
  140.0566  144.5890  150.7295 LP  0  0  0  0  0  0  0  0  0  0  0  0  # atno 17343 bound_to 10162
  157.6589  131.0884  150.7884 LP  0  0  0  0  0  0  0  0  0  0  0  0  # atno 17370 bound_to 10713
  156.7958  130.4905  149.5377 LP  0  0  0  0  0  0  0  0  0  0  0  0  # atno 17371 bound_to 10713
  139.8965  135.0146  156.7056 LP  0  0  0  0  0  0  0  0  0  0  0  0  # atno 17394 bound_to 11000
  140.7133  133.9204  155.8098 LP  0  0  0  0  0  0  0  0  0  0  0  0  # atno 17395 bound_to 11000

$$$$
