AV-unprocessed.smi:2721|AV-procd|sdf|10501|dock8
  -GOLD-   2272014543D 1   1.00000     0.00000
 Structure written by MMmdl.
 29 30  0  0  0  0  0  0  0  0  2 V2000
  151.7820  138.4168  154.7777 C   0  0  0  0  0  0  0  0  0  0  0  0
  150.5634  139.1596  154.5379 N   0  0  0  0  0  0  0  0  0  0  0  0
  149.3364  138.6901  154.1240 C   0  0  0  0  0  0  0  0  0  0  0  0
  148.4882  139.7614  154.0333 C   0  0  0  0  0  0  0  0  0  0  0  0
  147.0331  139.8493  153.6124 C   0  0  2  0  0  0  0  0  0  0  0  0
  146.1394  140.0551  154.7094 O   0  0  0  0  0  0  0  0  0  0  0  0
  145.9023  138.9263  155.5489 C   0  0  0  0  0  0  0  0  0  0  0  0
  145.3344  137.7551  154.7330 C   0  0  0  0  0  0  0  0  0  0  0  0
  146.2597  137.4072  153.5629 C   0  0  0  0  0  0  0  0  0  0  0  0
  146.5383  138.6706  152.7360 C   0  0  2  0  0  0  0  0  0  0  0  0
  147.4537  138.3942  151.6130 N   0  3  0  0  0  0  0  0  0  0  0  0
  149.3160  140.8551  154.4206 C   0  0  0  0  0  0  0  0  0  0  0  0
  150.5528  140.4945  154.7178 N   0  0  0  0  0  0  0  0  0  0  0  0
  146.9216  140.7478  153.0040 H   0  0  0  0  0  0  0  0  0  0  0  0
  145.5898  138.9737  152.2902 H   0  0  0  0  0  0  0  0  0  0  0  0
  151.6021  137.3495  154.6463 H   0  0  0  0  0  0  0  0  0  0  0  0
  152.1297  138.5945  155.7960 H   0  0  0  0  0  0  0  0  0  0  0  0
  152.5522  138.7360  154.0750 H   0  0  0  0  0  0  0  0  0  0  0  0
  149.1796  137.6395  153.9316 H   0  0  0  0  0  0  0  0  0  0  0  0
  146.8109  138.6340  156.0724 H   0  0  0  0  0  0  0  0  0  0  0  0
  145.1887  139.2170  156.3200 H   0  0  0  0  0  0  0  0  0  0  0  0
  145.1920  136.8837  155.3730 H   0  0  0  0  0  0  0  0  0  0  0  0
  144.3492  138.0252  154.3506 H   0  0  0  0  0  0  0  0  0  0  0  0
  147.1871  136.9745  153.9361 H   0  0  0  0  0  0  0  0  0  0  0  0
  145.7947  136.6418  152.9405 H   0  0  0  0  0  0  0  0  0  0  0  0
  146.9349  138.3999  150.7463 H   0  0  0  0  0  0  0  0  0  0  0  0
  147.8800  137.4876  151.7412 H   0  0  0  0  0  0  0  0  0  0  0  0
  149.0545  141.9008  154.4885 H   0  0  0  0  0  0  0  0  0  0  0  0
  148.1731  139.1023  151.5805 H   0  0  0  0  0  0  0  0  0  0  0  0
  1  2  1  0  0  0  0
  1 16  1  0  0  0  0
  1 17  1  0  0  0  0
  1 18  1  0  0  0  0
  2 13  1  0  0  0  0
  2  3  1  0  0  0  0
  3  4  2  0  0  0  0
  3 19  1  0  0  0  0
  4  5  1  0  0  0  0
  4 12  1  0  0  0  0
  5 14  1  0  0  0  0
  5 10  1  0  0  0  0
  5  6  1  0  0  0  0
  6  7  1  0  0  0  0
  7  8  1  0  0  0  0
  7 20  1  0  0  0  0
  7 21  1  0  0  0  0
  8  9  1  0  0  0  0
  8 22  1  0  0  0  0
  8 23  1  0  0  0  0
  9 10  1  0  0  0  0
  9 24  1  0  0  0  0
  9 25  1  0  0  0  0
 10 15  1  0  0  0  0
 10 11  1  0  0  0  0
 11 26  1  0  0  0  0
 11 27  1  0  0  0  0
 11 29  1  0  0  0  0
 12 13  2  0  0  0  0
 12 28  1  0  0  0  0
M  CHG  1  11   1
M  END
> <s_m_source_file>
AV-unprocessed.smi

> <i_m_source_file_index>
2721

> <i_lp_mmshare_version>
43012

> <i_f3d_flags>
0

> <s_epik_input>
W0NIM11uMVtjSF1jKFtjSF1uMSlbQ0BIXTJPW0NIMl1bQ0gyXVtDSDJdW0NAQEhdMltOSDJd

> <s_epik_cmdline>
J2VwaWtfcHl0aG9uJywgJy1waCcsICc3LjAnLCAnLXRuJywgJzgnLCAnLW1hJywgJzIwMCcsICctbWV0YWxfYmluZGluZycsICctaW1hZScsICc8aW5maWxlLm1hZT4nLCAnLW9tYWUnLCAnPG91dGZpbGUubWFlPic=

> <r_lp_tautomer_probability>
1

> <r_epik_Ionization_Penalty>
0.0061467

> <r_epik_Ionization_Penalty_Charging>
0.00611941

> <r_epik_Ionization_Penalty_Neutral>
2.72888e-05

> <r_epik_State_Penalty>
0.00451057

> <r_epik_Charging_Adjusted_Penalty>
0.01063

> <i_epik_Tot_Q>
1

> <i_epik_Tot_abs_Q>
1

> <r_epik_Metal_State_Penalty>
-0

> <b_epik_Metal_Only>
0

> <s_lp_Force_Field>
OPLS_2005

> <r_lp_Energy>
14.6487

> <b_lp_Chiralities_Consistent>
1

> <s_lp_Variant>
AV-unprocessed.smi:2721-2

> <Gold.Version>
5.8.1

> <Gold.Id.Protein>
6NUR|6NUR_protein|mol2

> <Gold.PLP.Fitness>
35.7040

> <Gold.PLP.PLP>
-21.6410

> <Gold.PLP.part.hbond>
-3.0000

> <Gold.PLP.part.metal>
0.0000

> <Gold.PLP.part.buried>
-2.1564

> <Gold.PLP.part.nonpolar>
-17.9044

> <Gold.PLP.part.repulsive>
1.6451

> <Gold.PLP.ligand.clash>
0.0000

> <Gold.PLP.ligand.torsion>
0.4988

> <Gold.PLP.Chemscore.Hbond>
4.0000

> <Gold.PLP.Chemscore.CHOScore>
1.0000

> <Gold.PLP.Chemscore.Metal>
0.0000

> <Gold.Chemscore.Hbonds>
donor molecule, donor type, donor heavy atom, donor atom, acceptor molecule, acceptor atom, score
      L1  H    11    27       P1  7948  2.00
      L1  H    11    29       P1  7957  1.00
      P1  H  7989  7998       L1    13  0.90
      L1  C     3    19       P1  7948  1.00

> <Gold.PLP.Chemscore.Internal.Correction>
0.0607

> <Gold.Rescore>
     Score         DG    S(hbond)    S(metal)    S(lipo)     H(rot)  DE(clash)    DE(int)     intcor
     15.47     -16.78       2.52        0.00      46.52       1.00       0.71       0.60       ----

> <Gold.Chemscore.Fitness>
15.4651

> <Gold.Chemscore.DG>
-16.7779

> <Gold.Chemscore.ZeroCoef>
-5.4800

> <Gold.Chemscore.Hbond>
2.5195

> <Gold.Chemscore.Metal>
0.0000

> <Gold.Chemscore.Lipo>
46.5201

> <Gold.Chemscore.Internal_Hbond>
0.0000

> <Gold.Chemscore.DEClash>
0.7095

> <Gold.Chemscore.DEInternal>
0.6032

> <Gold.Chemscore.Rot>
1.0000

> <Gold.Chemscore.Internal.Correction>
   9.000000E+99

> <Gold.Chemscore.Hbonds>
donor molecule, donor type, donor heavy atom, donor atom, acceptor molecule, acceptor atom, score
      L1  H    11    27       P1  7948  0.99
      L1  H    11    29       P1  7957  0.88
      P1  H  7989  7998       L1    13  0.14

> <Gold.Chemscore.Hbond.Weighted>
-8.4150

> <Gold.Chemscore.Metal.Weighted>
-0.0000

> <Gold.Chemscore.Lipo.Weighted>
-5.4429

> <Gold.Chemscore.Internal_Hbond.Weighted>
0.0000

> <Gold.Chemscore.DEClash.Weighted>
0.7095

> <Gold.Chemscore.DEInternal.Weighted>
0.6032

> <Gold.Chemscore.Rot.Weighted>
2.5600

> <Gold.Chemscore.Internal.Correction.Weighted>
   9.000000E+99

> <Gold.Protein.RotatedTorsions>
[ 6907 6896 6895 6894 ] final -165.30 input  -60.11 | X-H torsion
[ 7974 7965 7964 7962 ] final  -26.19 input  175.53 | X-H torsion
[ 8008 7997 7996 7995 ] final -138.57 input   59.86 | X-H torsion
[ 10167 10162 10161 10158 ] final  130.28 input  -65.29 | X-H torsion
[ 10718 10713 10712 10709 ] final  135.09 input   66.30 | X-H torsion
[ 10763 10752 10751 10750 ] final   98.76 input  -60.55 | X-H torsion
[ 11005 11000 10999 10996 ] final -131.91 input  -57.11 | X-H torsion

> <Gold.Protein.ActiveResidues>
 VAL166  LYS551  ARG553  GLY616  TRP617  ASP618  TYR619  PRO620  LYS621  CYS622 
 ASP623  PHE694  ASN695  SER759  ASP760  ASP761  ALA762  ILE779  LEU786  VAL792 
 PHE793  MET794  SER795  GLU796  ALA797  LYS798  CYS799  TRP800  GLU811  SER814 

> <Gold.Protein.RotatedAtoms>
  151.4254  133.3686  159.2761 H   0  0  0  0  0  0  0  0  0  0  0  0  # atno 6907 bound_to 6896
  150.9263  134.8681  159.7533 H   0  0  0  0  0  0  0  0  0  0  0  0  # atno 6908 bound_to 6896
  152.5006  134.4196  159.9528 H   0  0  0  0  0  0  0  0  0  0  0  0  # atno 6909 bound_to 6896
  146.1442  140.4987  142.8639 H   0  0  0  0  0  0  0  0  0  0  0  0  # atno 7974 bound_to 7965
  155.4305  140.0525  157.3019 H   0  0  0  0  0  0  0  0  0  0  0  0  # atno 8008 bound_to 7997
  154.4862  140.2102  155.9608 H   0  0  0  0  0  0  0  0  0  0  0  0  # atno 8009 bound_to 7997
  156.1278  140.3177  155.8308 H   0  0  0  0  0  0  0  0  0  0  0  0  # atno 8010 bound_to 7997
  139.5437  144.6754  151.4541 H   0  0  0  0  0  0  0  0  0  0  0  0  # atno 10167 bound_to 10162
  157.4606  131.1073  150.9924 H   0  0  0  0  0  0  0  0  0  0  0  0  # atno 10718 bound_to 10713
  153.2931  135.4137  155.1185 H   0  0  0  0  0  0  0  0  0  0  0  0  # atno 10763 bound_to 10752
  154.8526  135.3523  154.5954 H   0  0  0  0  0  0  0  0  0  0  0  0  # atno 10764 bound_to 10752
  153.6377  135.7058  153.5310 H   0  0  0  0  0  0  0  0  0  0  0  0  # atno 10765 bound_to 10752
  140.9217  134.1436  157.4308 H   0  0  0  0  0  0  0  0  0  0  0  0  # atno 11005 bound_to 11000
  144.7827  140.5872  143.6595 LP  0  0  0  0  0  0  0  0  0  0  0  0  # atno 17320 bound_to 7965
  145.4977  139.1485  143.3674 LP  0  0  0  0  0  0  0  0  0  0  0  0  # atno 17321 bound_to 7965
  140.6677  143.8361  150.6962 LP  0  0  0  0  0  0  0  0  0  0  0  0  # atno 17342 bound_to 10162
  140.1776  143.4142  152.1956 LP  0  0  0  0  0  0  0  0  0  0  0  0  # atno 17343 bound_to 10162
  157.0722  130.5869  149.5404 LP  0  0  0  0  0  0  0  0  0  0  0  0  # atno 17370 bound_to 10713
  156.0027  130.5109  150.7721 LP  0  0  0  0  0  0  0  0  0  0  0  0  # atno 17371 bound_to 10713
  139.8777  134.9974  156.5843 LP  0  0  0  0  0  0  0  0  0  0  0  0  # atno 17394 bound_to 11000
  140.7979  133.8529  155.8701 LP  0  0  0  0  0  0  0  0  0  0  0  0  # atno 17395 bound_to 11000

$$$$
