#       Name:                AV-unprocessed.smi:249
#       Creating user name   scv26
#       Creation time:       Thu Mar 26 21:02:41 2020


#       File generated by GOLD software.
#

@<TRIPOS>MOLECULE
AV-unprocessed.smi:249
    71    74     1
SMALL
NO_CHARGES


@<TRIPOS>ATOM
      1 ****        -5.8385  -4.0810   2.4293 C.3            1 S1                 0.0000
      2 ****        -4.9324  -3.7603   1.2289 C.3            1 S1                 0.0000
      3 ****        -4.3415  -2.3907   1.2742 N.4            1 S1                 1.0000
      4 ****        -3.4292  -2.2202   2.4430 C.3            1 S1                 0.0000
      5 ****        -2.9050  -0.7828   2.5667 C.3            1 S1                 0.0000
      6 ****        -2.1812  -0.3689   1.2809 C.3            1 S1                 0.0000
      7 ****        -1.6234   0.9836   1.3665 N.pl3          1 S1                 0.0000
      8 ****        -2.4555   2.1261   1.7367 C.3            1 S1                 0.0000
      9 ****        -0.2743   1.1374   1.3920 C.ar           1 S1                 0.0000
     10 ****         0.2703   1.9932   2.2967 N.ar           1 S1                 0.0000
     11 ****         1.5943   2.1611   2.3580 C.ar           1 S1                 0.0000
     12 ****         2.5428   1.5889   1.6148 N.ar           1 S1                 0.0000
     13 ****         2.0038   0.7434   0.6910 C.ar           1 S1                 0.0000
     14 ****         0.6197   0.4585   0.5134 C.ar           1 S1                 0.0000
     15 ****         0.4566  -0.4450  -0.5316 N.2            1 S1                 0.0000
     16 ****         1.6721  -0.6903  -0.9373 C.2            1 S1                 0.0000
     17 ****         2.6615  -0.0039  -0.2707 N.pl3          1 S1                 0.0000
     18 ****         4.0905  -0.0892  -0.5147 C.3            1 S1                 0.0000
     19 ****         4.7434   1.2239  -1.0215 C.3            1 S1                 0.0000
     20 ****         6.2811   1.0602  -1.0173 C.3            1 S1                 0.0000
     21 ****         6.7072   0.1152  -1.9780 O.3            1 S1                 0.0000
     22 ****         4.2021   1.7268  -2.3922 C.3            1 S1                 0.0000
     23 ****         4.9385   2.9296  -2.9619 C.3            1 S1                 0.0000
     24 ****         3.9507   3.4509  -3.9947 C.3            1 S1                 0.0000
     25 ****         2.6809   3.2773  -3.3855 O.3            1 S1                 0.0000
     26 ****         2.7598   2.2606  -2.3904 C.3            1 S1                 0.0000
     27 ****        -3.1392  -0.5313   0.0940 C.3            1 S1                 0.0000
     28 ****        -3.6816  -1.9737  -0.0078 C.3            1 S1                 0.0000
     29 ****        -4.6172  -2.0610  -1.2317 C.3            1 S1                 0.0000
     30 ****        -6.3664  -5.0206   2.2643 H              1 S1                 0.0000
     31 ****        -6.5897  -3.3048   2.5778 H              1 S1                 0.0000
     32 ****        -5.2774  -4.1967   3.3560 H              1 S1                 0.0000
     33 ****        -4.1396  -4.5045   1.1415 H              1 S1                 0.0000
     34 ****        -5.5614  -3.8722   0.3488 H              1 S1                 0.0000
     35 ****        -3.9430  -2.4609   3.3718 H              1 S1                 0.0000
     36 ****        -2.5932  -2.9163   2.3558 H              1 S1                 0.0000
     37 ****        -3.7383  -0.1104   2.7745 H              1 S1                 0.0000
     38 ****        -2.2260  -0.7108   3.4172 H              1 S1                 0.0000
     39 ****        -1.3682  -1.0822   1.1509 H              1 S1                 0.0000
     40 ****        -2.0918   3.0386   1.2627 H              1 S1                 0.0000
     41 ****        -2.4457   2.2716   2.8172 H              1 S1                 0.0000
     42 ****        -3.4895   1.9828   1.4256 H              1 S1                 0.0000
     43 ****         1.9435   2.8535   3.1097 H              1 S1                 0.0000
     44 ****         1.8805  -1.3715  -1.7497 H              1 S1                 0.0000
     45 ****         4.5576  -0.3992   0.4208 H              1 S1                 0.0000
     46 ****         4.2703  -0.8958  -1.2266 H              1 S1                 0.0000
     47 ****         4.5290   2.0008  -0.2871 H              1 S1                 0.0000
     48 ****         6.7795   2.0097  -1.2113 H              1 S1                 0.0000
     49 ****         6.6248   0.7353  -0.0347 H              1 S1                 0.0000
     50 ****         7.6488   0.0460  -1.9355 H              1 S1                 0.0000
     51 ****         4.2683   0.9185  -3.1226 H              1 S1                 0.0000
     52 ****         5.1012   3.6819  -2.1884 H              1 S1                 0.0000
     53 ****         5.9028   2.6759  -3.4032 H              1 S1                 0.0000
     54 ****         4.1289   4.4923  -4.2636 H              1 S1                 0.0000
     55 ****         3.9942   2.8490  -4.9034 H              1 S1                 0.0000
     56 ****         2.0325   1.4781  -2.6023 H              1 S1                 0.0000
     57 ****         2.5037   2.7106  -1.4307 H              1 S1                 0.0000
     58 ****        -3.9748   0.1639   0.1822 H              1 S1                 0.0000
     59 ****        -2.6161  -0.2678  -0.8263 H              1 S1                 0.0000
     60 ****        -2.8360  -2.6414  -0.1820 H              1 S1                 0.0000
     61 ****        -4.1588  -1.5972  -2.1057 H              1 S1                 0.0000
     62 ****        -5.5625  -1.5493  -1.0484 H              1 S1                 0.0000
     63 ****        -4.8330  -3.0896  -1.5183 H              1 S1                 0.0000
     64 ****        -5.1121  -1.7527   1.4134 H              1 S1                 0.0000
     65 ****        -0.3240   2.5005   2.9206 LP             1 S1                 0.0000
     66 ****         3.5226   1.7582   1.7214 LP             1 S1                 0.0000
     67 ****        -0.3978  -0.8210  -0.8903 LP             1 S1                 0.0000
     68 ****         6.4323   0.4157  -2.8913 LP             1 S1                 0.0000
     69 ****         6.2948  -0.7744  -1.7817 LP             1 S1                 0.0000
     70 ****         2.0127   3.0111  -4.0802 LP             1 S1                 0.0000
     71 ****         2.3959   4.1365  -2.9608 LP             1 S1                 0.0000
@<TRIPOS>BOND
    1    1    2 1     
    2    1   30 1     
    3    1   31 1     
    4    1   32 1     
    5    2    3 1     
    6    2   33 1     
    7    2   34 1     
    8    3   28 1     
    9    3    4 1     
   10    3   64 1     
   11    4    5 1     
   12    4   35 1     
   13    4   36 1     
   14    5    6 1     
   15    5   37 1     
   16    5   38 1     
   17    6    7 1     
   18    6   27 1     
   19    6   39 1     
   20    7    8 1     
   21    7    9 1     
   22    8   40 1     
   23    8   41 1     
   24    8   42 1     
   25    9   14 ar    
   26    9   10 ar    
   27   10   11 ar    
   28   11   12 ar    
   29   11   43 1     
   30   12   13 ar    
   31   13   17 1     
   32   13   14 ar    
   33   14   15 1     
   34   15   16 2     
   35   16   17 1     
   36   16   44 1     
   37   17   18 1     
   38   18   19 1     
   39   18   45 1     
   40   18   46 1     
   41   19   20 1     
   42   19   22 1     
   43   19   47 1     
   44   20   21 1     
   45   20   48 1     
   46   20   49 1     
   47   21   50 1     
   48   22   26 1     
   49   22   23 1     
   50   22   51 1     
   51   23   24 1     
   52   23   52 1     
   53   23   53 1     
   54   24   25 1     
   55   24   54 1     
   56   24   55 1     
   57   25   26 1     
   58   26   56 1     
   59   26   57 1     
   60   27   28 1     
   61   27   58 1     
   62   27   59 1     
   63   28   29 1     
   64   28   60 1     
   65   29   61 1     
   66   29   62 1     
   67   29   63 1     
   68   10   65 1     
   69   12   66 1     
   70   15   67 1     
   71   21   68 1     
   72   21   69 1     
   73   25   70 1     
   74   25   71 1     
@<TRIPOS>SUBSTRUCTURE
      1 S1             1
@<TRIPOS>SET
LONE_PAIRS      STATIC     ATOMS    <user>   **** ""
7 65 66 67 68 69 70 71
DONOR_HYDROGENS      STATIC     ATOMS    <user>   **** ""
2 64 50
ATOM$BLUE        STATIC     ATOMS    COLORGROUP SYSTEM
7 65 66 67 68 69 70 71
ATOM$RED        STATIC     ATOMS    COLORGROUP SYSTEM
2 64 50
