AV-unprocessed.smi:76|AV-procd|sdf|769|dock7
  -GOLD-   2262017113D 1   1.00000     0.00000
 Structure written by MMmdl.
 55 58  0  0  0  0  0  0  0  0  1 V2000
  149.7944  141.6925  155.1277 C   0  0  0  0  0  0  0  0  0  0  0  0
  150.3729  141.5259  156.5488 C   0  0  2  0  0  0  0  0  0  0  0  0
  150.8291  142.8981  157.0887 C   0  0  0  0  0  0  0  0  0  0  0  0
  151.4457  142.7936  158.4977 C   0  0  2  0  0  0  0  0  0  0  0  0
  151.9077  144.1627  159.0363 C   0  0  0  0  0  0  0  0  0  0  0  0
  150.8757  144.9979  159.1606 F   0  0  0  0  0  0  0  0  0  0  0  0
  152.4862  144.0122  160.2276 F   0  0  0  0  0  0  0  0  0  0  0  0
  152.8001  144.7011  158.2051 F   0  0  0  0  0  0  0  0  0  0  0  0
  152.5889  141.7623  158.4687 C   0  0  0  0  0  0  0  0  0  0  0  0
  152.0949  140.4137  157.9275 C   0  0  0  0  0  0  0  0  0  0  0  0
  151.4847  140.5664  156.6074 N   0  0  0  0  0  0  0  0  0  0  0  0
  151.2409  139.3675  156.0314 C   0  0  0  0  0  0  0  0  0  0  0  0
  151.3811  139.2160  154.6877 N   0  0  0  0  0  0  0  0  0  0  0  0
  151.1525  138.0249  154.1257 C   0  0  0  0  0  0  0  0  0  0  0  0
  150.7855  136.8819  154.7105 N   0  0  0  0  0  0  0  0  0  0  0  0
  150.6445  137.0359  156.0590 C   0  0  0  0  0  0  0  0  0  0  0  0
  150.8529  138.2355  156.7937 C   0  0  0  0  0  0  0  0  0  0  0  0
  150.6283  138.0145  158.1458 N   0  0  0  0  0  0  0  0  0  0  0  0
  150.3064  136.7510  158.2080 C   0  0  0  0  0  0  0  0  0  0  0  0
  150.2755  136.0894  157.0000 N   0  0  0  0  0  0  0  0  0  0  0  0
  149.9590  134.6851  156.7807 C   0  0  0  0  0  0  0  0  0  0  0  0
  148.4841  134.3954  156.3579 C   0  0  0  0  0  0  0  0  0  0  0  0
  148.1838  135.1688  155.0436 C   0  0  0  0  0  0  0  0  0  0  0  0
  148.8158  134.6136  153.9068 O   0  0  0  0  0  0  0  0  0  0  0  0
  148.3173  132.8704  156.1321 C   0  0  0  0  0  0  0  0  0  0  0  0
  148.3481  132.0674  157.4468 C   0  0  0  0  0  0  0  0  0  0  0  0
  147.3626  132.5598  158.3467 O   0  0  0  0  0  0  0  0  0  0  0  0
  147.5648  133.9207  158.7074 C   0  0  0  0  0  0  0  0  0  0  0  0
  147.4722  134.8128  157.4565 C   0  0  0  0  0  0  0  0  0  0  0  0
  149.0088  142.4481  155.1139 H   0  0  0  0  0  0  0  0  0  0  0  0
  149.3506  140.7689  154.7553 H   0  0  0  0  0  0  0  0  0  0  0  0
  150.5645  142.0024  154.4203 H   0  0  0  0  0  0  0  0  0  0  0  0
  149.5781  141.1541  157.1975 H   0  0  0  0  0  0  0  0  0  0  0  0
  151.5581  143.3336  156.4037 H   0  0  0  0  0  0  0  0  0  0  0  0
  149.9806  143.5826  157.1077 H   0  0  0  0  0  0  0  0  0  0  0  0
  150.6740  142.4183  159.1718 H   0  0  0  0  0  0  0  0  0  0  0  0
  153.4057  142.1273  157.8450 H   0  0  0  0  0  0  0  0  0  0  0  0
  153.0003  141.6243  159.4688 H   0  0  0  0  0  0  0  0  0  0  0  0
  152.9304  139.7141  157.8709 H   0  0  0  0  0  0  0  0  0  0  0  0
  151.3678  139.9859  158.6198 H   0  0  0  0  0  0  0  0  0  0  0  0
  151.2839  137.9809  153.0545 H   0  0  0  0  0  0  0  0  0  0  0  0
  150.0764  136.2643  159.1447 H   0  0  0  0  0  0  0  0  0  0  0  0
  150.6402  134.3077  156.0168 H   0  0  0  0  0  0  0  0  0  0  0  0
  150.2265  134.1503  157.6905 H   0  0  0  0  0  0  0  0  0  0  0  0
  147.1133  135.1846  154.8391 H   0  0  0  0  0  0  0  0  0  0  0  0
  148.5045  136.2072  155.1332 H   0  0  0  0  0  0  0  0  0  0  0  0
  149.0882  135.3189  153.3401 H   0  0  0  0  0  0  0  0  0  0  0  0
  147.3623  132.6628  155.6489 H   0  0  0  0  0  0  0  0  0  0  0  0
  149.0837  132.4998  155.4505 H   0  0  0  0  0  0  0  0  0  0  0  0
  148.1337  131.0185  157.2413 H   0  0  0  0  0  0  0  0  0  0  0  0
  149.3322  132.0929  157.9149 H   0  0  0  0  0  0  0  0  0  0  0  0
  146.7933  134.2066  159.4224 H   0  0  0  0  0  0  0  0  0  0  0  0
  148.5206  134.0391  159.2182 H   0  0  0  0  0  0  0  0  0  0  0  0
  147.5931  135.8606  157.7284 H   0  0  0  0  0  0  0  0  0  0  0  0
  146.4549  134.7297  157.0728 H   0  0  0  0  0  0  0  0  0  0  0  0
  1  2  1  0  0  0  0
  1 30  1  0  0  0  0
  1 31  1  0  0  0  0
  1 32  1  0  0  0  0
  2 11  1  0  0  0  0
  2  3  1  0  0  0  0
  2 33  1  0  0  0  0
  3  4  1  0  0  0  0
  3 34  1  0  0  0  0
  3 35  1  0  0  0  0
  4  5  1  0  0  0  0
  4  9  1  0  0  0  0
  4 36  1  0  0  0  0
  5  6  1  0  0  0  0
  5  7  1  0  0  0  0
  5  8  1  0  0  0  0
  9 10  1  0  0  0  0
  9 37  1  0  0  0  0
  9 38  1  0  0  0  0
 10 11  1  0  0  0  0
 10 39  1  0  0  0  0
 10 40  1  0  0  0  0
 11 12  1  0  0  0  0
 12 17  1  0  0  0  0
 12 13  2  0  0  0  0
 13 14  1  0  0  0  0
 14 15  2  0  0  0  0
 14 41  1  0  0  0  0
 15 16  1  0  0  0  0
 16 20  1  0  0  0  0
 16 17  2  0  0  0  0
 17 18  1  0  0  0  0
 18 19  2  0  0  0  0
 19 20  1  0  0  0  0
 19 42  1  0  0  0  0
 20 21  1  0  0  0  0
 21 22  1  0  0  0  0
 21 43  1  0  0  0  0
 21 44  1  0  0  0  0
 22 29  1  0  0  0  0
 22 23  1  0  0  0  0
 22 25  1  0  0  0  0
 23 24  1  0  0  0  0
 23 45  1  0  0  0  0
 23 46  1  0  0  0  0
 24 47  1  0  0  0  0
 25 26  1  0  0  0  0
 25 48  1  0  0  0  0
 25 49  1  0  0  0  0
 26 27  1  0  0  0  0
 26 50  1  0  0  0  0
 26 51  1  0  0  0  0
 27 28  1  0  0  0  0
 28 29  1  0  0  0  0
 28 52  1  0  0  0  0
 28 53  1  0  0  0  0
 29 54  1  0  0  0  0
 29 55  1  0  0  0  0
M  END
> <s_m_source_file>
AV-unprocessed.smi

> <i_m_source_file_index>
76

> <i_lp_mmshare_version>
43012

> <i_f3d_flags>
0

> <s_epik_input>
W0NIM11bQ0BASF0xW0NIMl1bQ0BASF0oQyhGKShGKUYpW0NIMl1bQ0gyXU4xYyhuW2NIXW4yKWMoYzIzKW5bY0hdbjNbQ0gyXUM0KFtDSDJdW09IXSlbQ0gyXVtDSDJdT1tDSDJdW0NIMl00

> <s_epik_cmdline>
J2VwaWtfcHl0aG9uJywgJy1waCcsICc3LjAnLCAnLXRuJywgJzgnLCAnLW1hJywgJzIwMCcsICctbWV0YWxfYmluZGluZycsICctaW1hZScsICc8aW5maWxlLm1hZT4nLCAnLW9tYWUnLCAnPG91dGZpbGUubWFlPic=

> <r_lp_tautomer_probability>
1

> <r_epik_Ionization_Penalty>
0.00244097

> <r_epik_Ionization_Penalty_Charging>
0

> <r_epik_Ionization_Penalty_Neutral>
0.00244097

> <r_epik_State_Penalty>
0.00151846

> <r_epik_Charging_Adjusted_Penalty>
0.00151846

> <i_epik_Tot_Q>
0

> <i_epik_Tot_abs_Q>
0

> <r_epik_Metal_State_Penalty>
-0

> <b_epik_Metal_Only>
0

> <s_lp_Force_Field>
OPLS_2005

> <r_lp_Energy>
38.0325

> <b_lp_Chiralities_Consistent>
1

> <s_lp_Variant>
AV-unprocessed.smi:76-3

> <Gold.Version>
5.8.1

> <Gold.Id.Protein>
6NUR|6NUR_protein|mol2

> <Gold.PLP.Fitness>
46.2441

> <Gold.PLP.PLP>
-39.4537

> <Gold.PLP.part.hbond>
-2.0000

> <Gold.PLP.part.metal>
0.0000

> <Gold.PLP.part.buried>
-3.4862

> <Gold.PLP.part.nonpolar>
-32.5921

> <Gold.PLP.part.repulsive>
0.2602

> <Gold.PLP.ligand.clash>
0.0000

> <Gold.PLP.ligand.torsion>
1.1681

> <Gold.PLP.Chemscore.Hbond>
1.9750

> <Gold.PLP.Chemscore.CHOScore>
1.0000

> <Gold.PLP.Chemscore.Metal>
0.0000

> <Gold.Chemscore.Hbonds>
donor molecule, donor type, donor heavy atom, donor atom, acceptor molecule, acceptor atom, score
      L1  H    24    47       P1  7948  1.00
      P1  H  7989  7998       L1    13  0.96
      L1  C    14    41       P1  7949  1.00

> <Gold.PLP.Chemscore.Internal.Correction>
0.2015

> <Gold.Rescore>
     Score         DG    S(hbond)    S(metal)    S(lipo)     H(rot)  DE(clash)    DE(int)     intcor
     10.36     -14.46       1.89        0.00      76.73       2.47       0.42       3.68       ----

> <Gold.Chemscore.Fitness>
10.3650

> <Gold.Chemscore.DG>
-14.4618

> <Gold.Chemscore.ZeroCoef>
-5.4800

> <Gold.Chemscore.Hbond>
1.8919

> <Gold.Chemscore.Metal>
0.0000

> <Gold.Chemscore.Lipo>
76.7264

> <Gold.Chemscore.Internal_Hbond>
0.0000

> <Gold.Chemscore.DEClash>
0.4207

> <Gold.Chemscore.DEInternal>
3.6762

> <Gold.Chemscore.Rot>
2.4665

> <Gold.Chemscore.Internal.Correction>
   9.000000E+99

> <Gold.Chemscore.Hbonds>
donor molecule, donor type, donor heavy atom, donor atom, acceptor molecule, acceptor atom, score
      L1  H    24    47       P1  7948  0.38
      P1  H  7989  7998       L1    13  0.86

> <Gold.Chemscore.Hbond.Weighted>
-6.3190

> <Gold.Chemscore.Metal.Weighted>
-0.0000

> <Gold.Chemscore.Lipo.Weighted>
-8.9770

> <Gold.Chemscore.Internal_Hbond.Weighted>
0.0000

> <Gold.Chemscore.DEClash.Weighted>
0.4207

> <Gold.Chemscore.DEInternal.Weighted>
3.6762

> <Gold.Chemscore.Rot.Weighted>
6.3142

> <Gold.Chemscore.Internal.Correction.Weighted>
   9.000000E+99

> <Gold.Protein.RotatedTorsions>
[ 6907 6896 6895 6894 ] final  -46.79 input  -60.11 | X-H torsion
[ 7974 7965 7964 7962 ] final  -17.34 input  175.53 | X-H torsion
[ 8008 7997 7996 7995 ] final  159.93 input   59.86 | X-H torsion
[ 10167 10162 10161 10158 ] final  126.73 input  -65.29 | X-H torsion
[ 10718 10713 10712 10709 ] final  101.81 input   66.30 | X-H torsion
[ 10763 10752 10751 10750 ] final   62.42 input  -60.55 | X-H torsion
[ 11005 11000 10999 10996 ] final  165.59 input  -57.11 | X-H torsion

> <Gold.Protein.ActiveResidues>
 VAL166  LYS551  ARG553  GLY616  TRP617  ASP618  TYR619  PRO620  LYS621  CYS622 
 ASP623  PHE694  ASN695  SER759  ASP760  ASP761  ALA762  ILE779  LEU786  VAL792 
 PHE793  MET794  SER795  GLU796  ALA797  LYS798  CYS799  TRP800  GLU811  SER814 

> <Gold.Protein.RotatedAtoms>
  150.9075  134.8491  159.7402 H   0  0  0  0  0  0  0  0  0  0  0  0  # atno 6907 bound_to 6896
  152.4926  134.4409  159.9553 H   0  0  0  0  0  0  0  0  0  0  0  0  # atno 6908 bound_to 6896
  151.4455  133.3592  159.2823 H   0  0  0  0  0  0  0  0  0  0  0  0  # atno 6909 bound_to 6896
  146.1945  140.3765  142.8445 H   0  0  0  0  0  0  0  0  0  0  0  0  # atno 7974 bound_to 7965
  156.2206  140.1818  156.7485 H   0  0  0  0  0  0  0  0  0  0  0  0  # atno 8008 bound_to 7997
  154.5859  140.0658  156.9200 H   0  0  0  0  0  0  0  0  0  0  0  0  # atno 8009 bound_to 7997
  155.2420  140.3322  155.4294 H   0  0  0  0  0  0  0  0  0  0  0  0  # atno 8010 bound_to 7997
  139.5615  144.6885  151.4028 H   0  0  0  0  0  0  0  0  0  0  0  0  # atno 10167 bound_to 10162
  157.6819  131.0736  150.5308 H   0  0  0  0  0  0  0  0  0  0  0  0  # atno 10718 bound_to 10713
  152.9982  135.5466  154.6190 H   0  0  0  0  0  0  0  0  0  0  0  0  # atno 10763 bound_to 10752
  154.5494  135.2825  155.1025 H   0  0  0  0  0  0  0  0  0  0  0  0  # atno 10764 bound_to 10752
  154.2271  135.6440  153.5216 H   0  0  0  0  0  0  0  0  0  0  0  0  # atno 10765 bound_to 10752
  140.2577  134.7927  157.3561 H   0  0  0  0  0  0  0  0  0  0  0  0  # atno 11005 bound_to 11000
  144.8553  140.7061  143.6142 LP  0  0  0  0  0  0  0  0  0  0  0  0  # atno 17320 bound_to 7965
  145.3686  139.1664  143.4344 LP  0  0  0  0  0  0  0  0  0  0  0  0  # atno 17321 bound_to 7965
  140.6896  143.7894  150.7235 LP  0  0  0  0  0  0  0  0  0  0  0  0  # atno 17342 bound_to 10162
  140.1372  143.4473  152.2217 LP  0  0  0  0  0  0  0  0  0  0  0  0  # atno 17343 bound_to 10162
  156.5618  130.4257  149.6059 LP  0  0  0  0  0  0  0  0  0  0  0  0  # atno 17370 bound_to 10713
  156.2814  130.7073  151.1898 LP  0  0  0  0  0  0  0  0  0  0  0  0  # atno 17371 bound_to 10713
  140.1495  134.4868  155.7971 LP  0  0  0  0  0  0  0  0  0  0  0  0  # atno 17394 bound_to 11000
  141.2194  133.6857  156.7354 LP  0  0  0  0  0  0  0  0  0  0  0  0  # atno 17395 bound_to 11000

$$$$
