AV-unprocessed.smi:633|AV-procd|sdf|3130|dock6
  -GOLD-   22720 0 53D 1   1.00000     0.00000
 Structure written by MMmdl.
 53 56  0  0  0  0  0  0  0  0  1 V2000
  153.6720  142.0478  160.7097 C   0  0  0  0  0  0  0  0  0  0  0  0
  152.4446  142.1525  159.7983 C   0  0  2  0  0  0  0  0  0  0  0  0
  152.4147  141.0302  158.7455 C   0  0  0  0  0  0  0  0  0  0  0  0
  151.3057  141.2328  157.8178 N   0  0  0  0  0  0  0  0  0  0  0  0
  150.9428  140.1622  156.9730 C   0  0  0  0  0  0  0  0  0  0  0  0
  151.1409  140.2636  155.5761 C   0  0  0  0  0  0  0  0  0  0  0  0
  150.7770  139.1846  154.7478 C   0  0  0  0  0  0  0  0  0  0  0  0
  150.2143  138.0285  155.3369 C   0  0  0  0  0  0  0  0  0  0  0  0
  149.8298  136.8660  154.6153 N   0  0  0  0  0  0  0  0  0  0  0  0
  149.6852  135.6087  155.0675 C   0  0  0  0  0  0  0  0  0  0  0  0
  149.9140  135.2379  156.2184 O   0  0  0  0  0  0  0  0  0  0  0  0
  149.2731  134.7896  154.0876 N   0  0  0  0  0  0  0  0  0  0  0  0
  149.0165  133.3545  154.1968 C   0  0  0  0  0  0  0  0  0  0  0  0
  150.2104  132.5519  154.6931 C   0  0  0  0  0  0  0  0  0  0  0  0
  150.0503  131.1338  155.1873 C   0  0  0  0  0  0  0  0  0  0  0  0
  150.3878  132.2416  156.1599 C   0  0  0  0  0  0  0  0  0  0  0  0
  148.4335  132.7374  152.9339 C   0  0  0  0  0  0  0  0  0  0  0  0
  146.9995  132.9876  152.5333 C   0  0  0  0  0  0  0  0  0  0  0  0
  147.4255  131.6151  153.0044 C   0  0  0  0  0  0  0  0  0  0  0  0
  150.0633  138.0178  156.7376 C   0  0  0  0  0  0  0  0  0  0  0  0
  150.4080  139.0506  157.5346 N   0  0  0  0  0  0  0  0  0  0  0  0
  151.3148  142.5511  157.1904 C   0  0  0  0  0  0  0  0  0  0  0  0
  151.3995  143.6682  158.2494 C   0  0  1  0  0  0  0  0  0  0  0  0
  150.0736  143.9069  158.9937 C   0  0  0  0  0  0  0  0  0  0  0  0
  152.4858  143.4206  159.1450 O   0  0  0  0  0  0  0  0  0  0  0  0
  153.6823  141.0991  161.2467 H   0  0  0  0  0  0  0  0  0  0  0  0
  153.6768  142.8484  161.4497 H   0  0  0  0  0  0  0  0  0  0  0  0
  154.5967  142.1185  160.1363 H   0  0  0  0  0  0  0  0  0  0  0  0
  151.5543  142.0904  160.4243 H   0  0  0  0  0  0  0  0  0  0  0  0
  153.3514  141.0111  158.1864 H   0  0  0  0  0  0  0  0  0  0  0  0
  152.3145  140.0668  159.2474 H   0  0  0  0  0  0  0  0  0  0  0  0
  151.5575  141.1556  155.1322 H   0  0  0  0  0  0  0  0  0  0  0  0
  150.9487  139.2630  153.6857 H   0  0  0  0  0  0  0  0  0  0  0  0
  149.6901  136.9998  153.6245 H   0  0  0  0  0  0  0  0  0  0  0  0
  149.1201  135.1972  153.1769 H   0  0  0  0  0  0  0  0  0  0  0  0
  148.2469  133.2768  154.9659 H   0  0  0  0  0  0  0  0  0  0  0  0
  151.1278  132.7467  154.1405 H   0  0  0  0  0  0  0  0  0  0  0  0
  149.0456  130.7188  155.2329 H   0  0  0  0  0  0  0  0  0  0  0  0
  150.8370  130.4245  154.9384 H   0  0  0  0  0  0  0  0  0  0  0  0
  151.3994  132.2710  156.5595 H   0  0  0  0  0  0  0  0  0  0  0  0
  149.6061  132.5637  156.8452 H   0  0  0  0  0  0  0  0  0  0  0  0
  149.1450  132.6682  152.1131 H   0  0  0  0  0  0  0  0  0  0  0  0
  146.3815  133.5803  153.2048 H   0  0  0  0  0  0  0  0  0  0  0  0
  146.7897  133.1139  151.4732 H   0  0  0  0  0  0  0  0  0  0  0  0
  147.4990  130.8267  152.2582 H   0  0  0  0  0  0  0  0  0  0  0  0
  147.0836  131.2961  153.9868 H   0  0  0  0  0  0  0  0  0  0  0  0
  149.6487  137.1547  157.2378 H   0  0  0  0  0  0  0  0  0  0  0  0
  152.1826  142.6068  156.5319 H   0  0  0  0  0  0  0  0  0  0  0  0
  150.4386  142.7119  156.5633 H   0  0  0  0  0  0  0  0  0  0  0  0
  151.6402  144.5969  157.7313 H   0  0  0  0  0  0  0  0  0  0  0  0
  149.2953  144.2273  158.3008 H   0  0  0  0  0  0  0  0  0  0  0  0
  150.1850  144.6868  159.7472 H   0  0  0  0  0  0  0  0  0  0  0  0
  149.7108  143.0082  159.4917 H   0  0  0  0  0  0  0  0  0  0  0  0
  1  2  1  0  0  0  0
  1 26  1  0  0  0  0
  1 27  1  0  0  0  0
  1 28  1  0  0  0  0
  2 25  1  0  0  0  0
  2  3  1  0  0  0  0
  2 29  1  0  0  0  0
  3  4  1  0  0  0  0
  3 30  1  0  0  0  0
  3 31  1  0  0  0  0
  4  5  1  0  0  0  0
  4 22  1  0  0  0  0
  5 21  1  0  0  0  0
  5  6  2  0  0  0  0
  6  7  1  0  0  0  0
  6 32  1  0  0  0  0
  7  8  2  0  0  0  0
  7 33  1  0  0  0  0
  8  9  1  0  0  0  0
  8 20  1  0  0  0  0
  9 10  1  0  0  0  0
  9 34  1  0  0  0  0
 10 11  2  0  0  0  0
 10 12  1  0  0  0  0
 12 13  1  0  0  0  0
 12 35  1  0  0  0  0
 13 14  1  0  0  0  0
 13 17  1  0  0  0  0
 13 36  1  0  0  0  0
 14 16  1  0  0  0  0
 14 15  1  0  0  0  0
 14 37  1  0  0  0  0
 15 16  1  0  0  0  0
 15 38  1  0  0  0  0
 15 39  1  0  0  0  0
 16 40  1  0  0  0  0
 16 41  1  0  0  0  0
 17 19  1  0  0  0  0
 17 18  1  0  0  0  0
 17 42  1  0  0  0  0
 18 19  1  0  0  0  0
 18 43  1  0  0  0  0
 18 44  1  0  0  0  0
 19 45  1  0  0  0  0
 19 46  1  0  0  0  0
 20 21  2  0  0  0  0
 20 47  1  0  0  0  0
 22 23  1  0  0  0  0
 22 48  1  0  0  0  0
 22 49  1  0  0  0  0
 23 24  1  0  0  0  0
 23 25  1  0  0  0  0
 23 50  1  0  0  0  0
 24 51  1  0  0  0  0
 24 52  1  0  0  0  0
 24 53  1  0  0  0  0
M  END
> <s_m_source_file>
AV-unprocessed.smi

> <i_m_source_file_index>
633

> <i_lp_mmshare_version>
43012

> <i_f3d_flags>
0

> <s_epik_input>
W0NIM11bQ0BASF0xW0NIMl1OKFtDSDJdW0NASF0oTzEpW0NIM10pYzJbY0hdW2NIXWMoW2NIXW4yKVtOSF1DKD1PKVtOSF1bQ0hdKFtDSF0zW0NIMl1bQ0gyXTMpW0NIXTRbQ0gyXVtDSDJdNA==

> <s_epik_cmdline>
J2VwaWtfcHl0aG9uJywgJy1waCcsICc3LjAnLCAnLXRuJywgJzgnLCAnLW1hJywgJzIwMCcsICctbWV0YWxfYmluZGluZycsICctaW1hZScsICc8aW5maWxlLm1hZT4nLCAnLW9tYWUnLCAnPG91dGZpbGUubWFlPic=

> <r_lp_tautomer_probability>
1

> <r_epik_Ionization_Penalty>
0.00291159

> <r_epik_Ionization_Penalty_Charging>
0

> <r_epik_Ionization_Penalty_Neutral>
0.00291159

> <r_epik_State_Penalty>
0.00200877

> <r_epik_Charging_Adjusted_Penalty>
0.00200877

> <i_epik_Tot_Q>
0

> <i_epik_Tot_abs_Q>
0

> <r_epik_Metal_State_Penalty>
-0

> <b_epik_Metal_Only>
0

> <s_lp_Force_Field>
OPLS_2005

> <r_lp_Energy>
43.7528

> <b_lp_Chiralities_Consistent>
1

> <s_lp_Variant>
AV-unprocessed.smi:633-1

> <Gold.Version>
5.8.1

> <Gold.Id.Protein>
6NUR|6NUR_protein|mol2

> <Gold.PLP.Fitness>
49.4955

> <Gold.PLP.PLP>
-44.3675

> <Gold.PLP.part.hbond>
-2.0000

> <Gold.PLP.part.metal>
0.0000

> <Gold.PLP.part.buried>
-5.3315

> <Gold.PLP.part.nonpolar>
-36.7023

> <Gold.PLP.part.repulsive>
0.0743

> <Gold.PLP.ligand.clash>
0.0000

> <Gold.PLP.ligand.torsion>
1.6591

> <Gold.PLP.Chemscore.Hbond>
1.9760

> <Gold.PLP.Chemscore.CHOScore>
0.0000

> <Gold.PLP.Chemscore.Metal>
0.0000

> <Gold.Chemscore.Hbonds>
donor molecule, donor type, donor heavy atom, donor atom, acceptor molecule, acceptor atom, score
      L1  H     9    34       P1  7948  0.96
      L1  H    12    35       P1  7948  0.90

> <Gold.PLP.Chemscore.Internal.Correction>
2.5182

> <Gold.Rescore>
     Score         DG    S(hbond)    S(metal)    S(lipo)     H(rot)  DE(clash)    DE(int)     intcor
     17.53     -20.60       1.70        0.00     111.32       1.40       0.02       3.06       ----

> <Gold.Chemscore.Fitness>
17.5285

> <Gold.Chemscore.DG>
-20.6023

> <Gold.Chemscore.ZeroCoef>
-5.4800

> <Gold.Chemscore.Hbond>
1.7030

> <Gold.Chemscore.Metal>
0.0000

> <Gold.Chemscore.Lipo>
111.3151

> <Gold.Chemscore.Internal_Hbond>
0.0000

> <Gold.Chemscore.DEClash>
0.0173

> <Gold.Chemscore.DEInternal>
3.0565

> <Gold.Chemscore.Rot>
1.4022

> <Gold.Chemscore.Internal.Correction>
   9.000000E+99

> <Gold.Chemscore.Hbonds>
donor molecule, donor type, donor heavy atom, donor atom, acceptor molecule, acceptor atom, score
      L1  H     9    34       P1  7948  0.60
      L1  H    12    35       P1  7948  0.18

> <Gold.Chemscore.Hbond.Weighted>
-5.6881

> <Gold.Chemscore.Metal.Weighted>
-0.0000

> <Gold.Chemscore.Lipo.Weighted>
-13.0239

> <Gold.Chemscore.Internal_Hbond.Weighted>
0.0000

> <Gold.Chemscore.DEClash.Weighted>
0.0173

> <Gold.Chemscore.DEInternal.Weighted>
3.0565

> <Gold.Chemscore.Rot.Weighted>
3.5897

> <Gold.Chemscore.Internal.Correction.Weighted>
   9.000000E+99

> <Gold.Protein.RotatedTorsions>
[ 6907 6896 6895 6894 ] final   75.25 input  -60.11 | X-H torsion
[ 7974 7965 7964 7962 ] final  148.67 input  175.53 | X-H torsion
[ 8008 7997 7996 7995 ] final  128.52 input   59.86 | X-H torsion
[ 10167 10162 10161 10158 ] final   11.15 input  -65.29 | X-H torsion
[ 10718 10713 10712 10709 ] final  161.99 input   66.30 | X-H torsion
[ 10763 10752 10751 10750 ] final -169.41 input  -60.55 | X-H torsion
[ 11005 11000 10999 10996 ] final    7.77 input  -57.11 | X-H torsion

> <Gold.Protein.ActiveResidues>
 VAL166  LYS551  ARG553  GLY616  TRP617  ASP618  TYR619  PRO620  LYS621  CYS622 
 ASP623  PHE694  ASN695  SER759  ASP760  ASP761  ALA762  ILE779  LEU786  VAL792 
 PHE793  MET794  SER795  GLU796  ALA797  LYS798  CYS799  TRP800  GLU811  SER814 

> <Gold.Protein.RotatedAtoms>
  152.5016  134.4149  159.9460 H   0  0  0  0  0  0  0  0  0  0  0  0  # atno 6907 bound_to 6896
  151.4119  133.3718  159.2753 H   0  0  0  0  0  0  0  0  0  0  0  0  # atno 6908 bound_to 6896
  150.9285  134.8723  159.7595 H   0  0  0  0  0  0  0  0  0  0  0  0  # atno 6909 bound_to 6896
  144.8496  139.6183  143.5980 H   0  0  0  0  0  0  0  0  0  0  0  0  # atno 7974 bound_to 7965
  156.2916  140.2643  156.2449 H   0  0  0  0  0  0  0  0  0  0  0  0  # atno 8008 bound_to 7997
  154.9940  140.0388  157.2350 H   0  0  0  0  0  0  0  0  0  0  0  0  # atno 8009 bound_to 7997
  154.7660  140.2769  155.6180 H   0  0  0  0  0  0  0  0  0  0  0  0  # atno 8010 bound_to 7997
  140.6150  143.8328  150.7108 H   0  0  0  0  0  0  0  0  0  0  0  0  # atno 10167 bound_to 10162
  157.1288  131.0511  151.2381 H   0  0  0  0  0  0  0  0  0  0  0  0  # atno 10718 bound_to 10713
  154.6525  135.2913  154.9968 H   0  0  0  0  0  0  0  0  0  0  0  0  # atno 10763 bound_to 10752
  154.1056  135.6570  153.4880 H   0  0  0  0  0  0  0  0  0  0  0  0  # atno 10764 bound_to 10752
  153.0384  135.5253  154.7440 H   0  0  0  0  0  0  0  0  0  0  0  0  # atno 10765 bound_to 10752
  140.5445  134.0342  155.7915 H   0  0  0  0  0  0  0  0  0  0  0  0  # atno 11005 bound_to 11000
  146.2774  139.6787  142.9253 LP  0  0  0  0  0  0  0  0  0  0  0  0  # atno 17320 bound_to 7965
  145.4526  141.0429  143.2796 LP  0  0  0  0  0  0  0  0  0  0  0  0  # atno 17321 bound_to 7965
  140.1905  143.4040  152.1867 LP  0  0  0  0  0  0  0  0  0  0  0  0  # atno 17342 bound_to 10162
  139.5391  144.7239  151.4794 LP  0  0  0  0  0  0  0  0  0  0  0  0  # atno 17343 bound_to 10162
  157.4411  130.7544  149.7070 LP  0  0  0  0  0  0  0  0  0  0  0  0  # atno 17370 bound_to 10713
  155.9812  130.4021  150.3483 LP  0  0  0  0  0  0  0  0  0  0  0  0  # atno 17371 bound_to 10713
  141.1208  133.9465  157.2734 LP  0  0  0  0  0  0  0  0  0  0  0  0  # atno 17394 bound_to 11000
  139.9487  135.0179  156.8929 LP  0  0  0  0  0  0  0  0  0  0  0  0  # atno 17395 bound_to 11000

$$$$
