AV-unprocessed.smi:1362|AV-procd|sdf|5563|dock7
  -GOLD-   22720 5153D 1   1.00000     0.00000
 Structure written by MMmdl.
 38 38  0  0  0  0  0  0  0  0  2 V2000
  153.5215  139.6851  159.2108 C   0  0  0  0  0  0  0  0  0  0  0  0
  152.4936  140.1569  158.2048 C   0  0  0  0  0  0  0  0  0  0  0  0
  151.7764  141.1797  158.4770 N   0  0  0  0  0  0  0  0  0  0  0  0
  150.8201  141.6209  157.5466 C   0  0  0  0  0  0  0  0  0  0  0  0
  150.0100  142.8398  157.9539 C   0  0  0  0  0  0  0  0  0  0  0  0
  150.6450  140.9787  156.3560 C   0  0  0  0  0  0  0  0  0  0  0  0
  149.6157  141.4178  155.3148 C   0  0  0  0  0  0  0  0  0  0  0  0
  148.1483  141.3105  155.7363 C   0  0  0  0  0  0  0  0  0  0  0  0
  147.5940  140.2129  155.8019 O   0  0  0  0  0  0  0  0  0  0  0  0
  147.5292  142.4679  156.0159 N   0  0  0  0  0  0  0  0  0  0  0  0
  146.1262  142.6140  156.4010 C   0  0  1  0  0  0  0  0  0  0  0  0
  146.0570  143.0383  157.8805 C   0  0  0  0  0  0  0  0  0  0  0  0
  145.4119  143.6040  155.4430 C   0  0  0  0  0  0  0  0  0  0  0  0
  143.9063  143.7262  155.7403 C   0  0  0  0  0  0  0  0  0  0  0  0
  145.6121  143.2301  153.9608 C   0  0  0  0  0  0  0  0  0  0  0  0
  151.4958  139.8076  156.0785 C   0  0  0  0  0  0  0  0  0  0  0  0
  151.3893  139.2002  155.0136 O   0  0  0  0  0  0  0  0  0  0  0  0
  152.3926  139.4361  157.0361 N   0  5  0  0  0  0  0  0  0  0  0  0
  153.6849  140.4352  159.9857 H   0  0  0  0  0  0  0  0  0  0  0  0
  154.4757  139.4910  158.7196 H   0  0  0  0  0  0  0  0  0  0  0  0
  153.1844  138.7647  159.6883 H   0  0  0  0  0  0  0  0  0  0  0  0
  148.9538  142.5851  158.0417 H   0  0  0  0  0  0  0  0  0  0  0  0
  150.1160  143.6366  157.2174 H   0  0  0  0  0  0  0  0  0  0  0  0
  150.3419  143.2298  158.9170 H   0  0  0  0  0  0  0  0  0  0  0  0
  149.8028  142.4420  154.9914 H   0  0  0  0  0  0  0  0  0  0  0  0
  149.7646  140.8150  154.4184 H   0  0  0  0  0  0  0  0  0  0  0  0
  148.0673  143.3183  155.9352 H   0  0  0  0  0  0  0  0  0  0  0  0
  145.6357  141.6435  156.3024 H   0  0  0  0  0  0  0  0  0  0  0  0
  145.0329  143.0443  158.2523 H   0  0  0  0  0  0  0  0  0  0  0  0
  146.4751  144.0345  158.0283 H   0  0  0  0  0  0  0  0  0  0  0  0
  146.6151  142.3485  158.5144 H   0  0  0  0  0  0  0  0  0  0  0  0
  145.8527  144.5915  155.5882 H   0  0  0  0  0  0  0  0  0  0  0  0
  143.4106  142.7567  155.6803 H   0  0  0  0  0  0  0  0  0  0  0  0
  143.4187  144.3911  155.0267 H   0  0  0  0  0  0  0  0  0  0  0  0
  143.7192  144.1387  156.7312 H   0  0  0  0  0  0  0  0  0  0  0  0
  145.2292  142.2308  153.7514 H   0  0  0  0  0  0  0  0  0  0  0  0
  146.6628  143.2504  153.6713 H   0  0  0  0  0  0  0  0  0  0  0  0
  145.0903  143.9287  153.3062 H   0  0  0  0  0  0  0  0  0  0  0  0
  1  2  1  0  0  0  0
  1 19  1  0  0  0  0
  1 20  1  0  0  0  0
  1 21  1  0  0  0  0
  2 18  1  0  0  0  0
  2  3  2  0  0  0  0
  3  4  1  0  0  0  0
  4  5  1  0  0  0  0
  4  6  2  0  0  0  0
  5 22  1  0  0  0  0
  5 23  1  0  0  0  0
  5 24  1  0  0  0  0
  6  7  1  0  0  0  0
  6 16  1  0  0  0  0
  7  8  1  0  0  0  0
  7 25  1  0  0  0  0
  7 26  1  0  0  0  0
  8  9  2  0  0  0  0
  8 10  1  0  0  0  0
 10 11  1  0  0  0  0
 10 27  1  0  0  0  0
 11 12  1  0  0  0  0
 11 13  1  0  0  0  0
 11 28  1  0  0  0  0
 12 29  1  0  0  0  0
 12 30  1  0  0  0  0
 12 31  1  0  0  0  0
 13 14  1  0  0  0  0
 13 15  1  0  0  0  0
 13 32  1  0  0  0  0
 14 33  1  0  0  0  0
 14 34  1  0  0  0  0
 14 35  1  0  0  0  0
 15 36  1  0  0  0  0
 15 37  1  0  0  0  0
 15 38  1  0  0  0  0
 16 17  2  0  0  0  0
 16 18  1  0  0  0  0
M  CHG  1  18  -1
M  END
> <s_m_source_file>
AV-unprocessed.smi

> <i_m_source_file_index>
1362

> <i_lp_mmshare_version>
43012

> <i_f3d_flags>
0

> <s_epik_input>
W0NIM11jMW5jKFtDSDNdKWMoYyg9TylbbkhdMSlbQ0gyXUMoPU8pW05IXVtDQEhdKFtDSDNdKVtDSF0oW0NIM10pW0NIM10=

> <s_epik_cmdline>
J2VwaWtfcHl0aG9uJywgJy1waCcsICc3LjAnLCAnLXRuJywgJzgnLCAnLW1hJywgJzIwMCcsICctbWV0YWxfYmluZGluZycsICctaW1hZScsICc8aW5maWxlLm1hZT4nLCAnLW9tYWUnLCAnPG91dGZpbGUubWFlPic=

> <r_lp_tautomer_probability>
0.839158

> <r_epik_Ionization_Penalty>
6.62204

> <r_epik_Ionization_Penalty_Charging>
7.30593e-08

> <r_epik_Ionization_Penalty_Neutral>
6.62204

> <r_epik_State_Penalty>
4.44062

> <r_epik_Charging_Adjusted_Penalty>
4.44062

> <i_epik_Tot_Q>
-1

> <i_epik_Tot_abs_Q>
1

> <r_epik_Metal_State_Penalty>
0.802984

> <b_epik_Metal_Only>
1

> <s_lp_Force_Field>
OPLS_2005

> <r_lp_Energy>
10.9313

> <b_lp_Chiralities_Consistent>
1

> <s_lp_Variant>
AV-unprocessed.smi:1362-6

> <Gold.Version>
5.8.1

> <Gold.Id.Protein>
6NUR|6NUR_protein|mol2

> <Gold.PLP.Fitness>
40.9396

> <Gold.PLP.PLP>
-29.4840

> <Gold.PLP.part.hbond>
-3.0000

> <Gold.PLP.part.metal>
0.0000

> <Gold.PLP.part.buried>
-5.6835

> <Gold.PLP.part.nonpolar>
-21.9367

> <Gold.PLP.part.repulsive>
0.1386

> <Gold.PLP.ligand.clash>
0.0000

> <Gold.PLP.ligand.torsion>
0.2720

> <Gold.PLP.Chemscore.Hbond>
3.9920

> <Gold.PLP.Chemscore.CHOScore>
0.0000

> <Gold.PLP.Chemscore.Metal>
0.0000

> <Gold.Chemscore.Hbonds>
donor molecule, donor type, donor heavy atom, donor atom, acceptor molecule, acceptor atom, score
      L1  H    10    27       P1  8028  1.00
      P1  H  7989  7998       L1    17  0.42
      P1  H  7997  8009       L1    18  0.73

> <Gold.PLP.Chemscore.Internal.Correction>
0.0236

> <Gold.Rescore>
     Score         DG    S(hbond)    S(metal)    S(lipo)     H(rot)  DE(clash)    DE(int)     intcor
     13.75     -14.17       2.01        0.00      52.77       1.64       0.33       0.09       ----

> <Gold.Chemscore.Fitness>
13.7550

> <Gold.Chemscore.DG>
-14.1692

> <Gold.Chemscore.ZeroCoef>
-5.4800

> <Gold.Chemscore.Hbond>
2.0127

> <Gold.Chemscore.Metal>
0.0000

> <Gold.Chemscore.Lipo>
52.7665

> <Gold.Chemscore.Internal_Hbond>
0.0000

> <Gold.Chemscore.DEClash>
0.3251

> <Gold.Chemscore.DEInternal>
0.0891

> <Gold.Chemscore.Rot>
1.6433

> <Gold.Chemscore.Internal.Correction>
   9.000000E+99

> <Gold.Chemscore.Hbonds>
donor molecule, donor type, donor heavy atom, donor atom, acceptor molecule, acceptor atom, score
      L1  H    10    27       P1  8028  0.50
      P1  H  7989  7998       L1    17  0.14
      P1  H  7997  8009       L1    18  0.01

> <Gold.Chemscore.Hbond.Weighted>
-6.7224

> <Gold.Chemscore.Metal.Weighted>
-0.0000

> <Gold.Chemscore.Lipo.Weighted>
-6.1737

> <Gold.Chemscore.Internal_Hbond.Weighted>
0.0000

> <Gold.Chemscore.DEClash.Weighted>
0.3251

> <Gold.Chemscore.DEInternal.Weighted>
0.0891

> <Gold.Chemscore.Rot.Weighted>
4.2069

> <Gold.Chemscore.Internal.Correction.Weighted>
   9.000000E+99

> <Gold.Protein.RotatedTorsions>
[ 6907 6896 6895 6894 ] final  -74.64 input  -60.11 | X-H torsion
[ 7974 7965 7964 7962 ] final  142.87 input  175.53 | X-H torsion
[ 8008 7997 7996 7995 ] final -163.60 input   59.86 | X-H torsion
[ 10167 10162 10161 10158 ] final  -81.71 input  -65.29 | X-H torsion
[ 10718 10713 10712 10709 ] final  115.89 input   66.30 | X-H torsion
[ 10763 10752 10751 10750 ] final  159.24 input  -60.55 | X-H torsion
[ 11005 11000 10999 10996 ] final   45.74 input  -57.11 | X-H torsion

> <Gold.Protein.ActiveResidues>
 VAL166  LYS551  ARG553  GLY616  TRP617  ASP618  TYR619  PRO620  LYS621  CYS622 
 ASP623  PHE694  ASN695  SER759  ASP760  ASP761  ALA762  ILE779  LEU786  VAL792 
 PHE793  MET794  SER795  GLU796  ALA797  LYS798  CYS799  TRP800  GLU811  SER814 

> <Gold.Protein.RotatedAtoms>
  150.7086  134.4839  159.5483 H   0  0  0  0  0  0  0  0  0  0  0  0  # atno 6907 bound_to 6896
  152.2471  134.8168  160.0461 H   0  0  0  0  0  0  0  0  0  0  0  0  # atno 6908 bound_to 6896
  151.8929  133.3485  159.3841 H   0  0  0  0  0  0  0  0  0  0  0  0  # atno 6909 bound_to 6896
  144.8970  139.5477  143.5772 H   0  0  0  0  0  0  0  0  0  0  0  0  # atno 7974 bound_to 7965
  155.8237  140.0923  157.1834 H   0  0  0  0  0  0  0  0  0  0  0  0  # atno 8008 bound_to 7997
  154.3979  140.1432  156.3590 H   0  0  0  0  0  0  0  0  0  0  0  0  # atno 8009 bound_to 7997
  155.8240  140.3445  155.5534 H   0  0  0  0  0  0  0  0  0  0  0  0  # atno 8010 bound_to 7997
  140.4387  143.2522  151.8656 H   0  0  0  0  0  0  0  0  0  0  0  0  # atno 10167 bound_to 10162
  157.6194  131.1018  150.7394 H   0  0  0  0  0  0  0  0  0  0  0  0  # atno 10718 bound_to 10713
  154.2286  135.2779  155.2898 H   0  0  0  0  0  0  0  0  0  0  0  0  # atno 10763 bound_to 10752
  154.5642  135.5638  153.7039 H   0  0  0  0  0  0  0  0  0  0  0  0  # atno 10764 bound_to 10752
  153.0025  135.6305  154.2428 H   0  0  0  0  0  0  0  0  0  0  0  0  # atno 10765 bound_to 10752
  140.1432  134.4556  155.8434 H   0  0  0  0  0  0  0  0  0  0  0  0  # atno 11005 bound_to 11000
  146.3087  139.7668  142.9037 LP  0  0  0  0  0  0  0  0  0  0  0  0  # atno 17320 bound_to 7965
  145.3683  141.0338  143.3245 LP  0  0  0  0  0  0  0  0  0  0  0  0  # atno 17321 bound_to 7965
  139.4788  144.5253  151.8743 LP  0  0  0  0  0  0  0  0  0  0  0  0  # atno 17342 bound_to 10162
  140.4343  144.2073  150.5889 LP  0  0  0  0  0  0  0  0  0  0  0  0  # atno 17343 bound_to 10162
  156.7755  130.4842  149.5410 LP  0  0  0  0  0  0  0  0  0  0  0  0  # atno 17370 bound_to 10713
  156.1332  130.6193  151.0363 LP  0  0  0  0  0  0  0  0  0  0  0  0  # atno 17371 bound_to 10713
  141.2189  133.6841  156.7285 LP  0  0  0  0  0  0  0  0  0  0  0  0  # atno 17394 bound_to 11000
  140.2696  134.8402  157.3835 LP  0  0  0  0  0  0  0  0  0  0  0  0  # atno 17395 bound_to 11000

$$$$
