AV-unprocessed.smi:2131|AV-procd|sdf|8687|dock1
  -GOLD-   2272011443D 1   1.00000     0.00000
 Structure written by MMmdl.
 40 42  0  0  0  0  0  0  0  0  1 V2000
  150.0102  132.8367  157.3339 N   0  0  0  0  0  0  0  0  0  0  0  0
  149.9044  133.2659  156.2646 C   0  0  0  0  0  0  0  0  0  0  0  0
  149.7695  133.8116  154.9055 C   0  0  0  0  0  0  0  0  0  0  0  0
  149.5537  135.3107  154.9128 C   0  0  0  0  0  0  0  0  0  0  0  0
  148.2555  135.8404  155.0462 C   0  0  0  0  0  0  0  0  0  0  0  0
  148.0594  137.2349  155.0549 C   0  0  0  0  0  0  0  0  0  0  0  0
  149.1506  138.1194  154.9304 C   0  0  0  0  0  0  0  0  0  0  0  0
  148.8687  139.4688  154.9524 O   0  0  0  0  0  0  0  0  0  0  0  0
  149.9574  140.3828  154.9883 C   0  0  0  0  0  0  0  0  0  0  0  0
  149.7359  141.3880  156.1282 C   0  0  2  0  0  0  0  0  0  0  0  0
  148.6784  142.2522  155.7610 O   0  0  0  0  0  0  0  0  0  0  0  0
  150.9992  142.2135  156.4410 C   0  0  0  0  0  0  0  0  0  0  0  0
  151.5193  141.9508  157.7715 N   0  0  0  0  0  0  0  0  0  0  0  0
  151.9416  140.7669  158.2550 C   0  0  0  0  0  0  0  0  0  0  0  0
  152.3848  140.7431  159.5086 N   0  0  0  0  0  0  0  0  0  0  0  0
  152.2338  142.0672  159.8834 C   0  0  0  0  0  0  0  0  0  0  0  0
  152.5235  142.7130  161.1069 C   0  0  0  0  0  0  0  0  0  0  0  0
  152.2811  144.0939  161.2608 C   0  0  0  0  0  0  0  0  0  0  0  0
  151.7455  144.8489  160.1970 C   0  0  0  0  0  0  0  0  0  0  0  0
  151.4487  144.2277  158.9686 C   0  0  0  0  0  0  0  0  0  0  0  0
  151.6936  142.8499  158.8184 C   0  0  0  0  0  0  0  0  0  0  0  0
  150.4541  137.5787  154.7914 C   0  0  0  0  0  0  0  0  0  0  0  0
  150.6514  136.1840  154.7841 C   0  0  0  0  0  0  0  0  0  0  0  0
  150.6697  133.5637  154.3424 H   0  0  0  0  0  0  0  0  0  0  0  0
  148.9303  133.3162  154.4163 H   0  0  0  0  0  0  0  0  0  0  0  0
  147.4068  135.1791  155.1424 H   0  0  0  0  0  0  0  0  0  0  0  0
  147.0598  137.6303  155.1596 H   0  0  0  0  0  0  0  0  0  0  0  0
  150.9014  139.8549  155.1347 H   0  0  0  0  0  0  0  0  0  0  0  0
  150.0106  140.9155  154.0369 H   0  0  0  0  0  0  0  0  0  0  0  0
  149.4217  140.8474  157.0220 H   0  0  0  0  0  0  0  0  0  0  0  0
  148.9523  143.1433  155.9168 H   0  0  0  0  0  0  0  0  0  0  0  0
  151.7858  141.9879  155.7197 H   0  0  0  0  0  0  0  0  0  0  0  0
  150.7930  143.2807  156.3497 H   0  0  0  0  0  0  0  0  0  0  0  0
  151.9208  139.8710  157.6515 H   0  0  0  0  0  0  0  0  0  0  0  0
  152.9331  142.1450  161.9291 H   0  0  0  0  0  0  0  0  0  0  0  0
  152.5066  144.5766  162.2004 H   0  0  0  0  0  0  0  0  0  0  0  0
  151.5622  145.9056  160.3249 H   0  0  0  0  0  0  0  0  0  0  0  0
  151.0361  144.8026  158.1527 H   0  0  0  0  0  0  0  0  0  0  0  0
  151.3213  138.2129  154.6885 H   0  0  0  0  0  0  0  0  0  0  0  0
  151.6497  135.7854  154.6787 H   0  0  0  0  0  0  0  0  0  0  0  0
  1  2  3  0  0  0  0
  2  3  1  0  0  0  0
  3  4  1  0  0  0  0
  3 24  1  0  0  0  0
  3 25  1  0  0  0  0
  4 23  1  0  0  0  0
  4  5  2  0  0  0  0
  5  6  1  0  0  0  0
  5 26  1  0  0  0  0
  6  7  2  0  0  0  0
  6 27  1  0  0  0  0
  7  8  1  0  0  0  0
  7 22  1  0  0  0  0
  8  9  1  0  0  0  0
  9 10  1  0  0  0  0
  9 28  1  0  0  0  0
  9 29  1  0  0  0  0
 10 11  1  0  0  0  0
 10 12  1  0  0  0  0
 10 30  1  0  0  0  0
 11 31  1  0  0  0  0
 12 13  1  0  0  0  0
 12 32  1  0  0  0  0
 12 33  1  0  0  0  0
 13 21  1  0  0  0  0
 13 14  1  0  0  0  0
 14 15  2  0  0  0  0
 14 34  1  0  0  0  0
 15 16  1  0  0  0  0
 16 21  2  0  0  0  0
 16 17  1  0  0  0  0
 17 18  2  0  0  0  0
 17 35  1  0  0  0  0
 18 19  1  0  0  0  0
 18 36  1  0  0  0  0
 19 20  2  0  0  0  0
 19 37  1  0  0  0  0
 20 21  1  0  0  0  0
 20 38  1  0  0  0  0
 22 23  2  0  0  0  0
 22 39  1  0  0  0  0
 23 40  1  0  0  0  0
M  END
> <s_m_source_file>
AV-unprocessed.smi

> <i_m_source_file_index>
2131

> <i_lp_mmshare_version>
43012

> <i_f3d_flags>
0

> <s_epik_input>
TiNDW0NIMl1jMVtjSF1bY0hdYyhbY0hdW2NIXTEpT1tDSDJdW0NASF0oW09IXSlbQ0gyXW4oW2NIXW4yKWMoYzIzKVtjSF1bY0hdW2NIXVtjSF0z

> <s_epik_cmdline>
J2VwaWtfcHl0aG9uJywgJy1waCcsICc3LjAnLCAnLXRuJywgJzgnLCAnLW1hJywgJzIwMCcsICctbWV0YWxfYmluZGluZycsICctaW1hZScsICc8aW5maWxlLm1hZT4nLCAnLW9tYWUnLCAnPG91dGZpbGUubWFlPic=

> <r_lp_tautomer_probability>
1

> <r_epik_Ionization_Penalty>
0.0609831

> <r_epik_Ionization_Penalty_Charging>
0

> <r_epik_Ionization_Penalty_Neutral>
0.0609831

> <r_epik_State_Penalty>
0.0529032

> <r_epik_Charging_Adjusted_Penalty>
0.0529032

> <i_epik_Tot_Q>
0

> <i_epik_Tot_abs_Q>
0

> <r_epik_Metal_State_Penalty>
5.53344e-05

> <b_epik_Metal_Only>
0

> <s_lp_Force_Field>
OPLS_2005

> <r_lp_Energy>
15.4123

> <b_lp_Chiralities_Consistent>
1

> <s_lp_Variant>
AV-unprocessed.smi:2131-1

> <Gold.Version>
5.8.1

> <Gold.Id.Protein>
6NUR|6NUR_protein|mol2

> <Gold.PLP.Fitness>
48.6203

> <Gold.PLP.PLP>
-45.6924

> <Gold.PLP.part.hbond>
-1.8348

> <Gold.PLP.part.metal>
0.0000

> <Gold.PLP.part.buried>
-5.2889

> <Gold.PLP.part.nonpolar>
-38.1506

> <Gold.PLP.part.repulsive>
0.0836

> <Gold.PLP.ligand.clash>
0.0000

> <Gold.PLP.ligand.torsion>
1.5758

> <Gold.PLP.Chemscore.Hbond>
2.0000

> <Gold.PLP.Chemscore.CHOScore>
0.0000

> <Gold.PLP.Chemscore.Metal>
0.0000

> <Gold.Chemscore.Hbonds>
donor molecule, donor type, donor heavy atom, donor atom, acceptor molecule, acceptor atom, score
      L1  H    11    31       P1  8028  1.00
      P1  H  6896  6908       L1     1  0.44

> <Gold.PLP.Chemscore.Internal.Correction>
0.0796

> <Gold.Rescore>
     Score         DG    S(hbond)    S(metal)    S(lipo)     H(rot)  DE(clash)    DE(int)     intcor
     17.73     -19.27       1.99        0.00     120.43       2.72       0.10       1.44       ----

> <Gold.Chemscore.Fitness>
17.7283

> <Gold.Chemscore.DG>
-19.2707

> <Gold.Chemscore.ZeroCoef>
-5.4800

> <Gold.Chemscore.Hbond>
1.9936

> <Gold.Chemscore.Metal>
0.0000

> <Gold.Chemscore.Lipo>
120.4342

> <Gold.Chemscore.Internal_Hbond>
0.0000

> <Gold.Chemscore.DEClash>
0.1033

> <Gold.Chemscore.DEInternal>
1.4390

> <Gold.Chemscore.Rot>
2.7183

> <Gold.Chemscore.Internal.Correction>
   9.000000E+99

> <Gold.Chemscore.Hbonds>
donor molecule, donor type, donor heavy atom, donor atom, acceptor molecule, acceptor atom, score
      L1  H    11    31       P1  8028  0.95
      P1  H  6896  6908       L1     1  0.43

> <Gold.Chemscore.Hbond.Weighted>
-6.6587

> <Gold.Chemscore.Metal.Weighted>
-0.0000

> <Gold.Chemscore.Lipo.Weighted>
-14.0908

> <Gold.Chemscore.Internal_Hbond.Weighted>
0.0000

> <Gold.Chemscore.DEClash.Weighted>
0.1033

> <Gold.Chemscore.DEInternal.Weighted>
1.4390

> <Gold.Chemscore.Rot.Weighted>
6.9588

> <Gold.Chemscore.Internal.Correction.Weighted>
   9.000000E+99

> <Gold.Protein.RotatedTorsions>
[ 6907 6896 6895 6894 ] final   94.85 input  -60.11 | X-H torsion
[ 7974 7965 7964 7962 ] final   80.48 input  175.53 | X-H torsion
[ 8008 7997 7996 7995 ] final  -85.07 input   59.86 | X-H torsion
[ 10167 10162 10161 10158 ] final   18.05 input  -65.29 | X-H torsion
[ 10718 10713 10712 10709 ] final  -48.55 input   66.30 | X-H torsion
[ 10763 10752 10751 10750 ] final  111.63 input  -60.55 | X-H torsion
[ 11005 11000 10999 10996 ] final   97.46 input  -57.11 | X-H torsion

> <Gold.Protein.ActiveResidues>
 VAL166  LYS551  ARG553  GLY616  TRP617  ASP618  TYR619  PRO620  LYS621  CYS622 
 ASP623  PHE694  ASN695  SER759  ASP760  ASP761  ALA762  ILE779  LEU786  VAL792 
 PHE793  MET794  SER795  GLU796  ALA797  LYS798  CYS799  TRP800  GLU811  SER814 

> <Gold.Protein.RotatedAtoms>
  152.5447  134.1129  159.8366 H   0  0  0  0  0  0  0  0  0  0  0  0  # atno 6907 bound_to 6896
  151.1194  133.5108  159.2610 H   0  0  0  0  0  0  0  0  0  0  0  0  # atno 6908 bound_to 6896
  151.1796  135.0364  159.8841 H   0  0  0  0  0  0  0  0  0  0  0  0  # atno 6909 bound_to 6896
  145.6507  139.2447  143.1978 H   0  0  0  0  0  0  0  0  0  0  0  0  # atno 7974 bound_to 7965
  154.6367  140.0596  156.9797 H   0  0  0  0  0  0  0  0  0  0  0  0  # atno 8008 bound_to 7997
  155.1581  140.3280  155.4398 H   0  0  0  0  0  0  0  0  0  0  0  0  # atno 8009 bound_to 7997
  156.2510  140.1935  156.6689 H   0  0  0  0  0  0  0  0  0  0  0  0  # atno 8010 bound_to 7997
  140.5681  143.9212  150.6692 H   0  0  0  0  0  0  0  0  0  0  0  0  # atno 10167 bound_to 10162
  156.1977  130.4155  149.9283 H   0  0  0  0  0  0  0  0  0  0  0  0  # atno 10718 bound_to 10713
  153.4662  135.3711  155.2365 H   0  0  0  0  0  0  0  0  0  0  0  0  # atno 10763 bound_to 10752
  154.8757  135.3920  154.3866 H   0  0  0  0  0  0  0  0  0  0  0  0  # atno 10764 bound_to 10752
  153.4447  135.7084  153.6211 H   0  0  0  0  0  0  0  0  0  0  0  0  # atno 10765 bound_to 10752
  139.8776  134.9001  156.4310 H   0  0  0  0  0  0  0  0  0  0  0  0  # atno 11005 bound_to 11000
  146.1206  140.7314  142.9459 LP  0  0  0  0  0  0  0  0  0  0  0  0  # atno 17320 bound_to 7965
  144.7123  140.4086  143.7071 LP  0  0  0  0  0  0  0  0  0  0  0  0  # atno 17321 bound_to 7965
  140.2680  143.3476  152.1263 LP  0  0  0  0  0  0  0  0  0  0  0  0  # atno 17342 bound_to 10162
  139.5103  144.6882  151.5830 LP  0  0  0  0  0  0  0  0  0  0  0  0  # atno 17343 bound_to 10162
  156.7003  130.8930  151.3598 LP  0  0  0  0  0  0  0  0  0  0  0  0  # atno 17370 bound_to 10713
  157.6967  130.9290  150.0666 LP  0  0  0  0  0  0  0  0  0  0  0  0  # atno 17371 bound_to 10713
  140.9067  133.7741  155.9743 LP  0  0  0  0  0  0  0  0  0  0  0  0  # atno 17394 bound_to 11000
  140.8592  134.2861  157.5242 LP  0  0  0  0  0  0  0  0  0  0  0  0  # atno 17395 bound_to 11000

$$$$
