AV-unprocessed.smi:2455|AV-procd|sdf|9699|dock7
  -GOLD-   2272013343D 1   1.00000     0.00000
 Structure written by MMmdl.
 36 36  0  0  0  0  0  0  0  0  2 V2000
  145.1422  137.1045  162.0283 C   0  0  0  0  0  0  0  0  0  0  0  0
  145.8424  135.7745  162.3657 C   0  0  0  0  0  0  0  0  0  0  0  0
  146.5388  135.0370  161.1783 C   0  0  0  0  0  0  0  0  0  0  0  0
  147.1635  133.7235  161.7425 C   0  0  0  0  0  0  0  0  0  0  0  0
  147.9941  132.8730  160.7616 C   0  0  0  0  0  0  0  0  0  0  0  0
  145.5148  134.7274  160.0386 C   0  0  0  0  0  0  0  0  0  0  0  0
  144.3802  133.9205  160.4851 N   0  0  0  0  0  0  0  0  0  0  0  0
  143.4678  133.3332  159.6959 C   0  0  0  0  0  0  0  0  0  0  0  0
  143.4731  133.4110  158.4679 O   0  0  0  0  0  0  0  0  0  0  0  0
  142.3740  132.5338  160.4048 C   0  0  0  0  0  0  0  0  0  0  0  0
  142.1358  131.2663  159.7366 N   0  0  0  0  0  0  0  0  0  0  0  0
  141.2321  130.2773  160.0680 C   0  0  0  0  0  0  0  0  0  0  0  0
  141.3726  129.2738  159.1527 C   0  0  0  0  0  0  0  0  0  0  0  0
  142.4035  129.7440  158.2920 C   0  0  0  0  0  0  0  0  0  0  0  0
  142.8600  130.9346  158.6455 N   0  0  0  0  0  0  0  0  0  0  0  0
  147.6846  135.9404  160.6435 C   0  0  0  0  0  0  0  0  0  0  0  0
  148.5231  135.4466  159.8561 O   0  0  0  0  0  0  0  0  0  0  0  0
  147.7097  137.1271  161.0406 O   0  5  0  0  0  0  0  0  0  0  0  0
  144.7149  137.5474  162.9279 H   0  0  0  0  0  0  0  0  0  0  0  0
  144.3261  136.9625  161.3207 H   0  0  0  0  0  0  0  0  0  0  0  0
  145.8327  137.8341  161.6053 H   0  0  0  0  0  0  0  0  0  0  0  0
  146.5718  135.9707  163.1531 H   0  0  0  0  0  0  0  0  0  0  0  0
  145.1115  135.1120  162.8304 H   0  0  0  0  0  0  0  0  0  0  0  0
  147.8010  133.9621  162.5953 H   0  0  0  0  0  0  0  0  0  0  0  0
  146.3740  133.0947  162.1542 H   0  0  0  0  0  0  0  0  0  0  0  0
  148.3691  131.9791  161.2597 H   0  0  0  0  0  0  0  0  0  0  0  0
  148.8598  133.4155  160.3821 H   0  0  0  0  0  0  0  0  0  0  0  0
  147.4057  132.5413  159.9077 H   0  0  0  0  0  0  0  0  0  0  0  0
  145.0923  135.6536  159.6475 H   0  0  0  0  0  0  0  0  0  0  0  0
  146.0058  134.2617  159.1832 H   0  0  0  0  0  0  0  0  0  0  0  0
  144.2879  133.7943  161.4823 H   0  0  0  0  0  0  0  0  0  0  0  0
  142.6673  132.3548  161.4406 H   0  0  0  0  0  0  0  0  0  0  0  0
  141.4396  133.0965  160.4299 H   0  0  0  0  0  0  0  0  0  0  0  0
  140.5696  130.3713  160.9158 H   0  0  0  0  0  0  0  0  0  0  0  0
  140.8230  128.3454  159.1050 H   0  0  0  0  0  0  0  0  0  0  0  0
  142.8315  129.2581  157.4274 H   0  0  0  0  0  0  0  0  0  0  0  0
  1  2  1  0  0  0  0
  1 19  1  0  0  0  0
  1 20  1  0  0  0  0
  1 21  1  0  0  0  0
  2  3  1  0  0  0  0
  2 22  1  0  0  0  0
  2 23  1  0  0  0  0
  3  4  1  0  0  0  0
  3  6  1  0  0  0  0
  3 16  1  0  0  0  0
  4  5  1  0  0  0  0
  4 24  1  0  0  0  0
  4 25  1  0  0  0  0
  5 26  1  0  0  0  0
  5 27  1  0  0  0  0
  5 28  1  0  0  0  0
  6  7  1  0  0  0  0
  6 29  1  0  0  0  0
  6 30  1  0  0  0  0
  7  8  1  0  0  0  0
  7 31  1  0  0  0  0
  8  9  2  0  0  0  0
  8 10  1  0  0  0  0
 10 11  1  0  0  0  0
 10 32  1  0  0  0  0
 10 33  1  0  0  0  0
 11 15  1  0  0  0  0
 11 12  1  0  0  0  0
 12 13  2  0  0  0  0
 12 34  1  0  0  0  0
 13 14  1  0  0  0  0
 13 35  1  0  0  0  0
 14 15  2  0  0  0  0
 14 36  1  0  0  0  0
 16 17  2  0  0  0  0
 16 18  1  0  0  0  0
M  CHG  1  18  -1
M  END
> <s_m_source_file>
AV-unprocessed.smi

> <i_m_source_file_index>
2455

> <i_lp_mmshare_version>
43012

> <i_f3d_flags>
0

> <s_epik_input>
W0NIM11bQ0gyXUMoW0NIMl1bQ0gzXSkoQyg9TylbT0hdKVtDSDJdW05IXUMoPU8pW0NIMl1uMVtjSF1bY0hdW2NIXW4x

> <s_epik_cmdline>
J2VwaWtfcHl0aG9uJywgJy1waCcsICc3LjAnLCAnLXRuJywgJzgnLCAnLW1hJywgJzIwMCcsICctbWV0YWxfYmluZGluZycsICctaW1hZScsICc8aW5maWxlLm1hZT4nLCAnLW9tYWUnLCAnPG91dGZpbGUubWFlPic=

> <r_lp_tautomer_probability>
1

> <r_epik_Ionization_Penalty>
0.00236672

> <r_epik_Ionization_Penalty_Charging>
0.00235221

> <r_epik_Ionization_Penalty_Neutral>
1.45156e-05

> <r_epik_State_Penalty>
0.00162453

> <r_epik_Charging_Adjusted_Penalty>
0.00397673

> <i_epik_Tot_Q>
-1

> <i_epik_Tot_abs_Q>
1

> <r_epik_Metal_State_Penalty>
-0

> <b_epik_Metal_Only>
0

> <s_lp_Force_Field>
OPLS_2005

> <r_lp_Energy>
9.36787

> <b_lp_Chiralities_Consistent>
1

> <s_lp_Variant>
AV-unprocessed.smi:2455-1

> <Gold.Version>
5.8.1

> <Gold.Id.Protein>
6NUR|6NUR_protein|mol2

> <Gold.PLP.Fitness>
43.6819

> <Gold.PLP.PLP>
-27.9734

> <Gold.PLP.part.hbond>
-2.6341

> <Gold.PLP.part.metal>
0.0000

> <Gold.PLP.part.buried>
-4.9499

> <Gold.PLP.part.nonpolar>
-19.9125

> <Gold.PLP.part.repulsive>
0.2056

> <Gold.PLP.ligand.clash>
0.0000

> <Gold.PLP.ligand.torsion>
0.6172

> <Gold.PLP.Chemscore.Hbond>
4.6017

> <Gold.PLP.Chemscore.CHOScore>
1.0000

> <Gold.PLP.Chemscore.Metal>
0.0000

> <Gold.Chemscore.Hbonds>
donor molecule, donor type, donor heavy atom, donor atom, acceptor molecule, acceptor atom, score
      P1  H  6896  6907       L1    17  0.52
      P1  H  6931  6943       L1    18  1.86
      P1  H  6934  6947       L1    18  1.76
      L1  C    14    36       P1 10956  0.79

> <Gold.PLP.Chemscore.Internal.Correction>
0.1377

> <Gold.Rescore>
     Score         DG    S(hbond)    S(metal)    S(lipo)     H(rot)  DE(clash)    DE(int)     intcor
      8.44     -13.39       2.44        0.00      55.64       2.63       0.07       4.87       ----

> <Gold.Chemscore.Fitness>
8.4393

> <Gold.Chemscore.DG>
-13.3858

> <Gold.Chemscore.ZeroCoef>
-5.4800

> <Gold.Chemscore.Hbond>
2.4351

> <Gold.Chemscore.Metal>
0.0000

> <Gold.Chemscore.Lipo>
55.6374

> <Gold.Chemscore.Internal_Hbond>
0.0000

> <Gold.Chemscore.DEClash>
0.0727

> <Gold.Chemscore.DEInternal>
4.8738

> <Gold.Chemscore.Rot>
2.6316

> <Gold.Chemscore.Internal.Correction>
   9.000000E+99

> <Gold.Chemscore.Hbonds>
donor molecule, donor type, donor heavy atom, donor atom, acceptor molecule, acceptor atom, score
      P1  H  6896  6907       L1    17  0.25
      P1  H  6931  6943       L1    18  0.90
      P1  H  6934  6947       L1    18  0.85

> <Gold.Chemscore.Hbond.Weighted>
-8.1332

> <Gold.Chemscore.Metal.Weighted>
-0.0000

> <Gold.Chemscore.Lipo.Weighted>
-6.5096

> <Gold.Chemscore.Internal_Hbond.Weighted>
0.0000

> <Gold.Chemscore.DEClash.Weighted>
0.0727

> <Gold.Chemscore.DEInternal.Weighted>
4.8738

> <Gold.Chemscore.Rot.Weighted>
6.7370

> <Gold.Chemscore.Internal.Correction.Weighted>
   9.000000E+99

> <Gold.Protein.RotatedTorsions>
[ 6907 6896 6895 6894 ] final  -69.10 input  -60.11 | X-H torsion
[ 7974 7965 7964 7962 ] final   77.84 input  175.53 | X-H torsion
[ 8008 7997 7996 7995 ] final  120.18 input   59.86 | X-H torsion
[ 10167 10162 10161 10158 ] final  124.08 input  -65.29 | X-H torsion
[ 10718 10713 10712 10709 ] final  169.19 input   66.30 | X-H torsion
[ 10763 10752 10751 10750 ] final -115.33 input  -60.55 | X-H torsion
[ 11005 11000 10999 10996 ] final  148.46 input  -57.11 | X-H torsion

> <Gold.Protein.ActiveResidues>
 VAL166  LYS551  ARG553  GLY616  TRP617  ASP618  TYR619  PRO620  LYS621  CYS622 
 ASP623  PHE694  ASN695  SER759  ASP760  ASP761  ALA762  ILE779  LEU786  VAL792 
 PHE793  MET794  SER795  GLU796  ALA797  LYS798  CYS799  TRP800  GLU811  SER814 

> <Gold.Protein.RotatedAtoms>
  150.7322  134.5644  159.5858 H   0  0  0  0  0  0  0  0  0  0  0  0  # atno 6907 bound_to 6896
  152.3099  134.7507  160.0348 H   0  0  0  0  0  0  0  0  0  0  0  0  # atno 6908 bound_to 6896
  151.8058  133.3340  159.3577 H   0  0  0  0  0  0  0  0  0  0  0  0  # atno 6909 bound_to 6896
  145.6849  139.2535  143.1793 H   0  0  0  0  0  0  0  0  0  0  0  0  # atno 7974 bound_to 7965
  156.2631  140.2836  156.1109 H   0  0  0  0  0  0  0  0  0  0  0  0  # atno 8008 bound_to 7997
  155.1258  140.0393  157.2779 H   0  0  0  0  0  0  0  0  0  0  0  0  # atno 8009 bound_to 7997
  154.6636  140.2572  155.7088 H   0  0  0  0  0  0  0  0  0  0  0  0  # atno 8010 bound_to 7997
  139.5762  144.6964  151.3647 H   0  0  0  0  0  0  0  0  0  0  0  0  # atno 10167 bound_to 10162
  157.0262  131.0246  151.2759 H   0  0  0  0  0  0  0  0  0  0  0  0  # atno 10718 bound_to 10713
  154.8477  135.4385  154.1647 H   0  0  0  0  0  0  0  0  0  0  0  0  # atno 10763 bound_to 10752
  153.2775  135.6950  153.7425 H   0  0  0  0  0  0  0  0  0  0  0  0  # atno 10764 bound_to 10752
  153.6641  135.3430  155.3110 H   0  0  0  0  0  0  0  0  0  0  0  0  # atno 10765 bound_to 10752
  140.0962  134.9011  157.1726 H   0  0  0  0  0  0  0  0  0  0  0  0  # atno 11005 bound_to 11000
  146.0932  140.7631  142.9585 LP  0  0  0  0  0  0  0  0  0  0  0  0  # atno 17320 bound_to 7965
  144.7014  140.3670  143.7153 LP  0  0  0  0  0  0  0  0  0  0  0  0  # atno 17321 bound_to 7965
  140.7044  143.7550  150.7457 LP  0  0  0  0  0  0  0  0  0  0  0  0  # atno 17342 bound_to 10162
  140.1070  143.4734  152.2392 LP  0  0  0  0  0  0  0  0  0  0  0  0  # atno 17343 bound_to 10162
  157.5212  130.7999  149.7811 LP  0  0  0  0  0  0  0  0  0  0  0  0  # atno 17370 bound_to 10713
  156.0085  130.3844  150.2347 LP  0  0  0  0  0  0  0  0  0  0  0  0  # atno 17371 bound_to 10713
  140.3284  134.2838  155.7232 LP  0  0  0  0  0  0  0  0  0  0  0  0  # atno 17394 bound_to 11000
  141.2092  133.7754  157.0009 LP  0  0  0  0  0  0  0  0  0  0  0  0  # atno 17395 bound_to 11000

$$$$
