AV-unprocessed.smi:3150|AV-procd|sdf|12010|dock7
  -GOLD-   2272017423D 1   1.00000     0.00000
 Structure written by MMmdl.
 33 34  0  0  0  0  0  0  0  0  3 V2000
  148.5373  141.1901  154.0148 C   0  0  0  0  0  0  0  0  0  0  0  0
  149.2542  140.5189  155.1962 C   0  0  1  0  0  0  0  0  0  0  0  0
  150.4938  140.0106  154.7103 O   0  0  0  0  0  0  0  0  0  0  0  0
  150.4345  138.7178  154.1201 C   0  0  0  0  0  0  0  0  0  0  0  0
  151.7100  137.9741  154.4526 C   0  0  0  0  0  0  0  0  0  0  0  0
  152.4435  138.2571  155.7438 C   0  0  0  0  0  0  0  0  0  0  0  0
  153.0452  138.6833  154.4290 C   0  0  0  0  0  0  0  0  0  0  0  0
  149.4984  141.5115  156.3446 C   0  0  0  0  0  0  0  0  0  0  0  0
  148.5393  142.0022  156.9426 O   0  0  0  0  0  0  0  0  0  0  0  0
  150.7884  141.7912  156.6092 N   0  0  0  0  0  0  0  0  0  0  0  0
  151.3263  142.6698  157.5903 C   0  0  0  0  0  0  0  0  0  0  0  0
  151.0197  143.9910  157.6223 N   0  3  0  0  0  0  0  0  0  0  0  0
  151.5125  144.8507  158.5394 C   0  0  0  0  0  0  0  0  0  0  0  0
  152.3953  144.3848  159.5325 C   0  0  0  0  0  0  0  0  0  0  0  0
  152.7479  143.0209  159.5462 C   0  0  0  0  0  0  0  0  0  0  0  0
  152.2112  142.1553  158.5691 C   0  0  0  0  0  0  0  0  0  0  0  0
  152.5543  140.8322  158.5823 O   0  5  0  0  0  0  0  0  0  0  0  0
  147.5796  141.6132  154.3196 H   0  0  0  0  0  0  0  0  0  0  0  0
  148.3402  140.4673  153.2229 H   0  0  0  0  0  0  0  0  0  0  0  0
  149.1373  141.9920  153.5827 H   0  0  0  0  0  0  0  0  0  0  0  0
  148.6341  139.6907  155.5451 H   0  0  0  0  0  0  0  0  0  0  0  0
  149.5774  138.1487  154.4821 H   0  0  0  0  0  0  0  0  0  0  0  0
  150.3481  138.8009  153.0360 H   0  0  0  0  0  0  0  0  0  0  0  0
  151.7092  136.9343  154.1309 H   0  0  0  0  0  0  0  0  0  0  0  0
  152.0492  139.0376  156.3916 H   0  0  0  0  0  0  0  0  0  0  0  0
  152.9002  137.4127  156.2560 H   0  0  0  0  0  0  0  0  0  0  0  0
  153.9042  138.1243  154.0633 H   0  0  0  0  0  0  0  0  0  0  0  0
  153.0505  139.7473  154.2001 H   0  0  0  0  0  0  0  0  0  0  0  0
  151.4769  141.3246  156.0358 H   0  0  0  0  0  0  0  0  0  0  0  0
  151.1871  145.8769  158.4509 H   0  0  0  0  0  0  0  0  0  0  0  0
  152.7965  145.0617  160.2723 H   0  0  0  0  0  0  0  0  0  0  0  0
  153.4239  142.6436  160.2999 H   0  0  0  0  0  0  0  0  0  0  0  0
  150.3816  144.3528  156.9128 H   0  0  0  0  0  0  0  0  0  0  0  0
  1  2  1  0  0  0  0
  1 18  1  0  0  0  0
  1 19  1  0  0  0  0
  1 20  1  0  0  0  0
  2  3  1  0  0  0  0
  2  8  1  0  0  0  0
  2 21  1  0  0  0  0
  3  4  1  0  0  0  0
  4  5  1  0  0  0  0
  4 22  1  0  0  0  0
  4 23  1  0  0  0  0
  5  7  1  0  0  0  0
  5  6  1  0  0  0  0
  5 24  1  0  0  0  0
  6  7  1  0  0  0  0
  6 25  1  0  0  0  0
  6 26  1  0  0  0  0
  7 27  1  0  0  0  0
  7 28  1  0  0  0  0
  8  9  2  0  0  0  0
  8 10  1  0  0  0  0
 10 29  1  0  0  0  0
 10 11  1  0  0  0  0
 11 16  2  0  0  0  0
 11 12  1  0  0  0  0
 12 33  1  0  0  0  0
 12 13  2  0  0  0  0
 13 30  1  0  0  0  0
 13 14  1  0  0  0  0
 14 31  1  0  0  0  0
 14 15  2  0  0  0  0
 15 16  1  0  0  0  0
 15 32  1  0  0  0  0
 16 17  1  0  0  0  0
M  CHG  1  12   1
M  CHG  1  17  -1
M  END
> <s_m_source_file>
AV-unprocessed.smi

> <i_m_source_file_index>
3150

> <i_lp_mmshare_version>
43012

> <i_f3d_flags>
0

> <s_epik_input>
W0NIMl0xW0NIMl1bQ0hdMVtDSDJdT1tDQEBIXShbQ0gzXSlDKD1PKVtOSF1jMm5bY0hdW2NIXVtjSF1jMltPSF0=

> <s_epik_cmdline>
J2VwaWtfcHl0aG9uJywgJy1waCcsICc3LjAnLCAnLXRuJywgJzgnLCAnLW1hJywgJzIwMCcsICctbWV0YWxfYmluZGluZycsICctaW1hZScsICc8aW5maWxlLm1hZT4nLCAnLW9tYWUnLCAnPG91dGZpbGUubWFlPic=

> <r_lp_tautomer_probability>
0.56342

> <r_epik_Ionization_Penalty>
0.213151

> <r_epik_Ionization_Penalty_Charging>
0.0249427

> <r_epik_Ionization_Penalty_Neutral>
0.188209

> <r_epik_State_Penalty>
0.538305

> <r_epik_Charging_Adjusted_Penalty>
0.563248

> <i_epik_Tot_Q>
0

> <i_epik_Tot_abs_Q>
2

> <r_epik_Metal_State_Penalty>
2.57454

> <b_epik_Metal_Only>
0

> <s_lp_Force_Field>
OPLS_2005

> <r_lp_Energy>
15.4349

> <b_lp_Chiralities_Consistent>
1

> <s_lp_Variant>
AV-unprocessed.smi:3150-4

> <Gold.Version>
5.8.1

> <Gold.Id.Protein>
6NUR|6NUR_protein|mol2

> <Gold.PLP.Fitness>
45.6778

> <Gold.PLP.PLP>
-38.4300

> <Gold.PLP.part.hbond>
-2.0000

> <Gold.PLP.part.metal>
0.0000

> <Gold.PLP.part.buried>
-6.5414

> <Gold.PLP.part.nonpolar>
-30.6294

> <Gold.PLP.part.repulsive>
0.9726

> <Gold.PLP.ligand.clash>
0.0000

> <Gold.PLP.ligand.torsion>
1.4101

> <Gold.PLP.Chemscore.Hbond>
3.0000

> <Gold.PLP.Chemscore.CHOScore>
0.0000

> <Gold.PLP.Chemscore.Metal>
0.0000

> <Gold.Chemscore.Hbonds>
donor molecule, donor type, donor heavy atom, donor atom, acceptor molecule, acceptor atom, score
      L1  H    12    33       P1  8028  2.00
      P1  H  7989  7998       L1     3  1.00

> <Gold.PLP.Chemscore.Internal.Correction>
1.0681

> <Gold.Rescore>
     Score         DG    S(hbond)    S(metal)    S(lipo)     H(rot)  DE(clash)    DE(int)     intcor
     16.63     -18.28       1.73        0.00      96.91       1.68       0.13       1.52       ----

> <Gold.Chemscore.Fitness>
16.6294

> <Gold.Chemscore.DG>
-18.2804

> <Gold.Chemscore.ZeroCoef>
-5.4800

> <Gold.Chemscore.Hbond>
1.7280

> <Gold.Chemscore.Metal>
0.0000

> <Gold.Chemscore.Lipo>
96.9090

> <Gold.Chemscore.Internal_Hbond>
0.0000

> <Gold.Chemscore.DEClash>
0.1313

> <Gold.Chemscore.DEInternal>
1.5197

> <Gold.Chemscore.Rot>
1.6833

> <Gold.Chemscore.Internal.Correction>
   9.000000E+99

> <Gold.Chemscore.Hbonds>
donor molecule, donor type, donor heavy atom, donor atom, acceptor molecule, acceptor atom, score
      L1  H    12    33       P1  8028  0.91
      P1  H  7989  7998       L1     3  0.26

> <Gold.Chemscore.Hbond.Weighted>
-5.7714

> <Gold.Chemscore.Metal.Weighted>
-0.0000

> <Gold.Chemscore.Lipo.Weighted>
-11.3384

> <Gold.Chemscore.Internal_Hbond.Weighted>
0.0000

> <Gold.Chemscore.DEClash.Weighted>
0.1313

> <Gold.Chemscore.DEInternal.Weighted>
1.5197

> <Gold.Chemscore.Rot.Weighted>
4.3094

> <Gold.Chemscore.Internal.Correction.Weighted>
   9.000000E+99

> <Gold.Protein.RotatedTorsions>
[ 6907 6896 6895 6894 ] final -162.14 input  -60.11 | X-H torsion
[ 7974 7965 7964 7962 ] final -150.68 input  175.53 | X-H torsion
[ 8008 7997 7996 7995 ] final  138.89 input   59.86 | X-H torsion
[ 10167 10162 10161 10158 ] final  141.77 input  -65.29 | X-H torsion
[ 10718 10713 10712 10709 ] final   28.10 input   66.30 | X-H torsion
[ 10763 10752 10751 10750 ] final -129.86 input  -60.55 | X-H torsion
[ 11005 11000 10999 10996 ] final   19.49 input  -57.11 | X-H torsion

> <Gold.Protein.ActiveResidues>
 VAL166  LYS551  ARG553  GLY616  TRP617  ASP618  TYR619  PRO620  LYS621  CYS622 
 ASP623  PHE694  ASN695  SER759  ASP760  ASP761  ALA762  ILE779  LEU786  VAL792 
 PHE793  MET794  SER795  GLU796  ALA797  LYS798  CYS799  TRP800  GLU811  SER814 

> <Gold.Protein.RotatedAtoms>
  151.3756  133.3839  159.2704 H   0  0  0  0  0  0  0  0  0  0  0  0  # atno 6907 bound_to 6896
  150.9617  134.9005  159.7745 H   0  0  0  0  0  0  0  0  0  0  0  0  # atno 6908 bound_to 6896
  152.5152  134.3715  159.9372 H   0  0  0  0  0  0  0  0  0  0  0  0  # atno 6909 bound_to 6896
  144.7893  140.4899  143.5784 H   0  0  0  0  0  0  0  0  0  0  0  0  # atno 7974 bound_to 7965
  156.2994  140.2382  156.4148 H   0  0  0  0  0  0  0  0  0  0  0  0  # atno 8008 bound_to 7997
  154.8409  140.0428  157.1560 H   0  0  0  0  0  0  0  0  0  0  0  0  # atno 8009 bound_to 7997
  154.9104  140.2989  155.5273 H   0  0  0  0  0  0  0  0  0  0  0  0  # atno 8010 bound_to 7997
  139.5011  144.6150  151.6185 H   0  0  0  0  0  0  0  0  0  0  0  0  # atno 10167 bound_to 10162
  157.2290  130.7014  149.6304 H   0  0  0  0  0  0  0  0  0  0  0  0  # atno 10718 bound_to 10713
  154.8757  135.3881  154.3989 H   0  0  0  0  0  0  0  0  0  0  0  0  # atno 10763 bound_to 10752
  153.4716  135.7030  153.5995 H   0  0  0  0  0  0  0  0  0  0  0  0  # atno 10764 bound_to 10752
  153.4450  135.3847  155.2218 H   0  0  0  0  0  0  0  0  0  0  0  0  # atno 10765 bound_to 10752
  140.4131  134.1597  155.7668 H   0  0  0  0  0  0  0  0  0  0  0  0  # atno 11005 bound_to 11000
  145.5836  139.1490  143.3221 LP  0  0  0  0  0  0  0  0  0  0  0  0  # atno 17320 bound_to 7965
  146.2139  140.5965  142.9047 LP  0  0  0  0  0  0  0  0  0  0  0  0  # atno 17321 bound_to 7965
  140.5835  143.9904  150.6282 LP  0  0  0  0  0  0  0  0  0  0  0  0  # atno 17342 bound_to 10162
  140.3061  143.3228  152.0924 LP  0  0  0  0  0  0  0  0  0  0  0  0  # atno 17343 bound_to 10162
  155.9677  130.4495  150.5661 LP  0  0  0  0  0  0  0  0  0  0  0  0  # atno 17370 bound_to 10713
  157.3498  131.0731  151.1722 LP  0  0  0  0  0  0  0  0  0  0  0  0  # atno 17371 bound_to 10713
  141.1813  133.8407  157.1246 LP  0  0  0  0  0  0  0  0  0  0  0  0  # atno 17394 bound_to 11000
  140.0253  134.9927  157.0674 LP  0  0  0  0  0  0  0  0  0  0  0  0  # atno 17395 bound_to 11000

$$$$
