#       Name:                AV-unprocessed.smi:3201
#       Creating user name   scv26
#       Creation time:       Fri Mar 27 18:07:21 2020


#       File generated by GOLD software.
#

@<TRIPOS>MOLECULE
AV-unprocessed.smi:3201
    42    44     1
SMALL
NO_CHARGES


@<TRIPOS>ATOM
      1 ****        -2.8849   1.8463   1.5899 C.3            1 S1                 0.0000
      2 ****        -3.1568   0.3909   1.7955 C.2            1 S1                 0.0000
      3 ****        -2.3015  -0.6740   1.8937 C.2            1 S1                 0.0000
      4 ****        -0.7994  -0.6943   1.8196 C.3            1 S1                 0.0000
      5 ****        -0.3082  -0.6350   0.3673 C.3            1 S1                 0.0000
      6 ****         1.1670  -0.6653   0.3036 N.4            1 S1                 1.0000
      7 ****         1.7238  -0.5984  -1.0653 C.3            1 S1                 0.0000
      8 ****         1.6149   0.8160  -1.6824 C.3            1 S1                 0.0000
      9 ****         3.0765   1.1551  -2.0265 C.3            1 S1                 0.0000
     10 ****         3.5550   0.2650  -3.1886 C.3            1 S1                 0.0000
     11 ****         3.7011  -1.1154  -2.5204 C.3            1 S1                 0.0000
     12 ****         3.2487  -0.8428  -1.0730 C.3            1 S1                 0.0000
     13 ****         3.8175   0.5539  -0.8389 C.3            1 S1                 0.0000
     14 ****        -3.1693  -1.7865   2.0830 C.2            1 S1                 0.0000
     15 ****        -4.4453  -1.4457   2.0969 N.2            1 S1                 0.0000
     16 ****        -4.4398  -0.1083   1.9224 N.pl3          1 S1                 0.0000
     17 ****        -5.6998   0.6085   1.8850 C.3            1 S1                 0.0000
     18 ****        -1.8182   2.0380   1.4754 H              1 S1                 0.0000
     19 ****        -3.2395   2.4297   2.4398 H              1 S1                 0.0000
     20 ****        -3.3882   2.2121   0.6946 H              1 S1                 0.0000
     21 ****        -0.3786   0.1418   2.3794 H              1 S1                 0.0000
     22 ****        -0.4080  -1.5944   2.2953 H              1 S1                 0.0000
     23 ****        -0.7079  -1.4793  -0.1961 H              1 S1                 0.0000
     24 ****        -0.6756   0.2733  -0.1116 H              1 S1                 0.0000
     25 ****         1.5383   0.1043   0.8419 H              1 S1                 0.0000
     26 ****         1.2197  -1.3427  -1.6841 H              1 S1                 0.0000
     27 ****         0.9684   0.8359  -2.5606 H              1 S1                 0.0000
     28 ****         1.2229   1.5411  -0.9674 H              1 S1                 0.0000
     29 ****         3.2518   2.2190  -2.1888 H              1 S1                 0.0000
     30 ****         2.8472   0.2540  -4.0183 H              1 S1                 0.0000
     31 ****         4.5166   0.6080  -3.5731 H              1 S1                 0.0000
     32 ****         3.0997  -1.8821  -3.0103 H              1 S1                 0.0000
     33 ****         4.7414  -1.4429  -2.5452 H              1 S1                 0.0000
     34 ****         3.5828  -1.6044  -0.3673 H              1 S1                 0.0000
     35 ****         4.9035   0.6022  -0.9376 H              1 S1                 0.0000
     36 ****         3.5267   0.9890   0.1189 H              1 S1                 0.0000
     37 ****        -2.9099  -2.8275   2.2074 H              1 S1                 0.0000
     38 ****        -5.6698   1.4437   2.5853 H              1 S1                 0.0000
     39 ****        -6.5258  -0.0496   2.1592 H              1 S1                 0.0000
     40 ****        -5.8725   0.9924   0.8790 H              1 S1                 0.0000
     41 ****         1.4749  -1.5305   0.7243 H              1 S1                 0.0000
     42 ****        -5.2377  -2.0449   2.2111 LP             1 S1                 0.0000
@<TRIPOS>BOND
    1    1    2 1     
    2    1   18 1     
    3    1   19 1     
    4    1   20 1     
    5    2   16 1     
    6    2    3 2     
    7    3    4 1     
    8    3   14 1     
    9    4    5 1     
   10    4   21 1     
   11    4   22 1     
   12    5    6 1     
   13    5   23 1     
   14    5   24 1     
   15    6    7 1     
   16    6   25 1     
   17    6   41 1     
   18    7   12 1     
   19    7    8 1     
   20    7   26 1     
   21    8    9 1     
   22    8   27 1     
   23    8   28 1     
   24    9   13 1     
   25    9   10 1     
   26    9   29 1     
   27   10   11 1     
   28   10   30 1     
   29   10   31 1     
   30   11   12 1     
   31   11   32 1     
   32   11   33 1     
   33   12   13 1     
   34   12   34 1     
   35   13   35 1     
   36   13   36 1     
   37   14   15 2     
   38   14   37 1     
   39   15   16 1     
   40   16   17 1     
   41   17   38 1     
   42   17   39 1     
   43   17   40 1     
   44   15   42 1     
@<TRIPOS>SUBSTRUCTURE
      1 S1             1
@<TRIPOS>SET
LONE_PAIRS      STATIC     ATOMS    <user>   **** ""
1 42
DONOR_HYDROGENS      STATIC     ATOMS    <user>   **** ""
2 25 41
ATOM$BLUE        STATIC     ATOMS    COLORGROUP SYSTEM
1 42
ATOM$RED        STATIC     ATOMS    COLORGROUP SYSTEM
2 25 41
