AV-unprocessed.smi:1570|AV-procd|sdf|6316|dock4
  -GOLD-   22720 6523D 1   1.00000     0.00000
 Structure written by MMmdl.
 51 53  0  0  0  0  0  0  0  0  1 V2000
  154.4668  140.3148  161.1454 C   0  0  0  0  0  0  0  0  0  0  0  0
  154.4709  141.5883  160.2908 C   0  0  0  0  0  0  0  0  0  0  0  0
  153.2319  141.7178  159.5281 N   0  0  0  0  0  0  0  0  0  0  0  0
  152.7489  140.8390  158.6186 C   0  0  0  0  0  0  0  0  0  0  0  0
  153.2767  139.7772  158.2870 O   0  0  0  0  0  0  0  0  0  0  0  0
  151.5886  141.3357  158.1284 N   0  0  0  0  0  0  0  0  0  0  0  0
  150.7305  140.7088  157.1242 C   0  0  0  0  0  0  0  0  0  0  0  0
  151.5161  140.3266  155.8539 C   0  0  2  0  0  0  0  0  0  0  0  0
  150.6424  140.4387  154.7482 O   0  0  0  0  0  0  0  0  0  0  0  0
  151.9933  138.8607  155.9112 C   0  0  0  0  0  0  0  0  0  0  0  0
  151.0298  137.9010  156.4546 N   0  0  0  0  0  0  0  0  0  0  0  0
  151.1304  137.8378  157.9092 C   0  0  0  0  0  0  0  0  0  0  0  0
  150.1402  136.8369  158.5366 C   0  0  1  0  0  0  0  0  0  0  0  0
  148.6835  137.3307  158.5263 C   0  0  0  0  0  0  0  0  0  0  0  0
  150.2723  135.5581  157.9143 O   0  0  0  0  0  0  0  0  0  0  0  0
  150.1804  135.5633  156.4910 C   0  0  2  0  0  0  0  0  0  0  0  0
  150.4198  134.1341  155.9932 C   0  0  0  0  0  0  0  0  0  0  0  0
  151.2048  136.5563  155.9121 C   0  0  0  0  0  0  0  0  0  0  0  0
  151.3310  142.5766  158.7285 C   0  0  0  0  0  0  0  0  0  0  0  0
  150.2774  143.4905  158.5510 C   0  0  0  0  0  0  0  0  0  0  0  0
  150.3147  144.6778  159.3191 C   0  0  0  0  0  0  0  0  0  0  0  0
  151.3784  144.9247  160.2252 C   0  0  0  0  0  0  0  0  0  0  0  0
  152.4282  143.9896  160.3821 C   0  0  0  0  0  0  0  0  0  0  0  0
  152.3653  142.8171  159.6089 C   0  0  0  0  0  0  0  0  0  0  0  0
  155.3955  140.2236  161.7086 H   0  0  0  0  0  0  0  0  0  0  0  0
  154.3648  139.4238  160.5253 H   0  0  0  0  0  0  0  0  0  0  0  0
  153.6438  140.3227  161.8608 H   0  0  0  0  0  0  0  0  0  0  0  0
  154.6059  142.4625  160.9297 H   0  0  0  0  0  0  0  0  0  0  0  0
  155.3220  141.5789  159.6095 H   0  0  0  0  0  0  0  0  0  0  0  0
  150.3065  139.8098  157.5748 H   0  0  0  0  0  0  0  0  0  0  0  0
  149.8760  141.3431  156.8850 H   0  0  0  0  0  0  0  0  0  0  0  0
  152.3586  141.0044  155.7244 H   0  0  0  0  0  0  0  0  0  0  0  0
  150.0147  139.7333  154.7945 H   0  0  0  0  0  0  0  0  0  0  0  0
  152.2819  138.5384  154.9095 H   0  0  0  0  0  0  0  0  0  0  0  0
  152.9089  138.8280  156.5043 H   0  0  0  0  0  0  0  0  0  0  0  0
  152.1449  137.5475  158.1878 H   0  0  0  0  0  0  0  0  0  0  0  0
  150.9671  138.8270  158.3388 H   0  0  0  0  0  0  0  0  0  0  0  0
  150.4211  136.6988  159.5809 H   0  0  0  0  0  0  0  0  0  0  0  0
  148.5828  138.2516  159.1012 H   0  0  0  0  0  0  0  0  0  0  0  0
  148.0189  136.5898  158.9707 H   0  0  0  0  0  0  0  0  0  0  0  0
  148.3270  137.5373  157.5175 H   0  0  0  0  0  0  0  0  0  0  0  0
  149.1753  135.8648  156.1946 H   0  0  0  0  0  0  0  0  0  0  0  0
  150.3461  134.0794  154.9069 H   0  0  0  0  0  0  0  0  0  0  0  0
  149.6831  133.4474  156.4108 H   0  0  0  0  0  0  0  0  0  0  0  0
  151.4090  133.7766  156.2806 H   0  0  0  0  0  0  0  0  0  0  0  0
  151.0961  136.5651  154.8288 H   0  0  0  0  0  0  0  0  0  0  0  0
  152.2157  136.2027  156.1216 H   0  0  0  0  0  0  0  0  0  0  0  0
  149.4730  143.3014  157.8560 H   0  0  0  0  0  0  0  0  0  0  0  0
  149.5244  145.4064  159.2124 H   0  0  0  0  0  0  0  0  0  0  0  0
  151.3880  145.8387  160.8006 H   0  0  0  0  0  0  0  0  0  0  0  0
  153.2425  144.1746  161.0668 H   0  0  0  0  0  0  0  0  0  0  0  0
  1  2  1  0  0  0  0
  1 25  1  0  0  0  0
  1 26  1  0  0  0  0
  1 27  1  0  0  0  0
  2  3  1  0  0  0  0
  2 28  1  0  0  0  0
  2 29  1  0  0  0  0
  3 24  1  0  0  0  0
  3  4  1  0  0  0  0
  4  5  2  0  0  0  0
  4  6  1  0  0  0  0
  6  7  1  0  0  0  0
  6 19  1  0  0  0  0
  7  8  1  0  0  0  0
  7 30  1  0  0  0  0
  7 31  1  0  0  0  0
  8  9  1  0  0  0  0
  8 10  1  0  0  0  0
  8 32  1  0  0  0  0
  9 33  1  0  0  0  0
 10 11  1  0  0  0  0
 10 34  1  0  0  0  0
 10 35  1  0  0  0  0
 11 18  1  0  0  0  0
 11 12  1  0  0  0  0
 12 13  1  0  0  0  0
 12 36  1  0  0  0  0
 12 37  1  0  0  0  0
 13 14  1  0  0  0  0
 13 15  1  0  0  0  0
 13 38  1  0  0  0  0
 14 39  1  0  0  0  0
 14 40  1  0  0  0  0
 14 41  1  0  0  0  0
 15 16  1  0  0  0  0
 16 17  1  0  0  0  0
 16 18  1  0  0  0  0
 16 42  1  0  0  0  0
 17 43  1  0  0  0  0
 17 44  1  0  0  0  0
 17 45  1  0  0  0  0
 18 46  1  0  0  0  0
 18 47  1  0  0  0  0
 19 24  2  0  0  0  0
 19 20  1  0  0  0  0
 20 21  2  0  0  0  0
 20 48  1  0  0  0  0
 21 22  1  0  0  0  0
 21 49  1  0  0  0  0
 22 23  2  0  0  0  0
 22 50  1  0  0  0  0
 23 24  1  0  0  0  0
 23 51  1  0  0  0  0
M  END
> <s_m_source_file>
AV-unprocessed.smi

> <i_m_source_file_index>
1570

> <i_lp_mmshare_version>
43012

> <i_f3d_flags>
0

> <s_epik_input>
W2NIXTFbY0hdW2NIXVtjSF1jKGMxMiluKFtDSDJdW0NIM10pYyg9TyluMltDSDJdW0NASF0oW09IXSlbQ0gyXU4zW0NIMl1bQ0BASF0oW0NIM10pT1tDQEBIXShbQ0gzXSlbQ0gyXTM=

> <s_epik_cmdline>
J2VwaWtfcHl0aG9uJywgJy1waCcsICc3LjAnLCAnLXRuJywgJzgnLCAnLW1hJywgJzIwMCcsICctbWV0YWxfYmluZGluZycsICctaW1hZScsICc8aW5maWxlLm1hZT4nLCAnLW9tYWUnLCAnPG91dGZpbGUubWFlPic=

> <r_epik_Ionization_Penalty>
0.214359

> <r_epik_Ionization_Penalty_Charging>
2.30976e-09

> <r_epik_Ionization_Penalty_Neutral>
0.214359

> <r_epik_State_Penalty>
0.204533

> <r_epik_Charging_Adjusted_Penalty>
0.204533

> <i_epik_Tot_Q>
0

> <i_epik_Tot_abs_Q>
0

> <r_epik_Metal_State_Penalty>
0.204533

> <b_epik_Metal_Only>
0

> <s_lp_Force_Field>
OPLS_2005

> <r_lp_Energy>
63.3527

> <b_lp_Chiralities_Consistent>
1

> <s_lp_Variant>
AV-unprocessed.smi:1570-5

> <Gold.Version>
5.8.1

> <Gold.Id.Protein>
6NUR|6NUR_protein|mol2

> <Gold.PLP.Fitness>
53.6506

> <Gold.PLP.PLP>
-46.8187

> <Gold.PLP.part.hbond>
-3.0000

> <Gold.PLP.part.metal>
0.0000

> <Gold.PLP.part.buried>
-7.1543

> <Gold.PLP.part.nonpolar>
-37.5972

> <Gold.PLP.part.repulsive>
0.0000

> <Gold.PLP.ligand.clash>
0.0000

> <Gold.PLP.ligand.torsion>
0.9695

> <Gold.PLP.Chemscore.Hbond>
2.8800

> <Gold.PLP.Chemscore.CHOScore>
0.0000

> <Gold.PLP.Chemscore.Metal>
0.0000

> <Gold.Chemscore.Hbonds>
donor molecule, donor type, donor heavy atom, donor atom, acceptor molecule, acceptor atom, score
      P1  H  6896  6909       L1    15  0.70
      P1  H  7989  7998       L1     9  1.00
      P1  H  7997  8009       L1     5  1.00

> <Gold.PLP.Chemscore.Internal.Correction>
0.1309

> <Gold.Rescore>
     Score         DG    S(hbond)    S(metal)    S(lipo)     H(rot)  DE(clash)    DE(int)     intcor
     17.26     -21.83       2.49        0.00     113.57       2.06       0.00       4.58       ----

> <Gold.Chemscore.Fitness>
17.2558

> <Gold.Chemscore.DG>
-21.8327

> <Gold.Chemscore.ZeroCoef>
-5.4800

> <Gold.Chemscore.Hbond>
2.4946

> <Gold.Chemscore.Metal>
0.0000

> <Gold.Chemscore.Lipo>
113.5693

> <Gold.Chemscore.Internal_Hbond>
0.0000

> <Gold.Chemscore.DEClash>
0.0000

> <Gold.Chemscore.DEInternal>
4.5769

> <Gold.Chemscore.Rot>
2.0574

> <Gold.Chemscore.Internal.Correction>
   9.000000E+99

> <Gold.Chemscore.Hbonds>
donor molecule, donor type, donor heavy atom, donor atom, acceptor molecule, acceptor atom, score
      P1  H  6896  6909       L1    15  0.18
      P1  H  7989  7998       L1     9  0.44
      P1  H  7997  8009       L1     5  0.78

> <Gold.Chemscore.Hbond.Weighted>
-8.3320

> <Gold.Chemscore.Metal.Weighted>
-0.0000

> <Gold.Chemscore.Lipo.Weighted>
-13.2876

> <Gold.Chemscore.Internal_Hbond.Weighted>
0.0000

> <Gold.Chemscore.DEClash.Weighted>
0.0000

> <Gold.Chemscore.DEInternal.Weighted>
4.5769

> <Gold.Chemscore.Rot.Weighted>
5.2669

> <Gold.Chemscore.Internal.Correction.Weighted>
   9.000000E+99

> <Gold.Protein.RotatedTorsions>
[ 6907 6896 6895 6894 ] final   41.13 input  -60.11 | X-H torsion
[ 7974 7965 7964 7962 ] final  -75.05 input  175.53 | X-H torsion
[ 8008 7997 7996 7995 ] final  159.86 input   59.86 | X-H torsion
[ 10167 10162 10161 10158 ] final -155.96 input  -65.29 | X-H torsion
[ 10718 10713 10712 10709 ] final   -5.75 input   66.30 | X-H torsion
[ 10763 10752 10751 10750 ] final -116.62 input  -60.55 | X-H torsion
[ 11005 11000 10999 10996 ] final  -88.70 input  -57.11 | X-H torsion

> <Gold.Protein.ActiveResidues>
 VAL166  LYS551  ARG553  GLY616  TRP617  ASP618  TYR619  PRO620  LYS621  CYS622 
 ASP623  PHE694  ASN695  SER759  ASP760  ASP761  ALA762  ILE779  LEU786  VAL792 
 PHE793  MET794  SER795  GLU796  ALA797  LYS798  CYS799  TRP800  GLU811  SER814 

> <Gold.Protein.RotatedAtoms>
  152.1913  134.8669  160.0516 H   0  0  0  0  0  0  0  0  0  0  0  0  # atno 6907 bound_to 6896
  151.9557  133.3674  159.4024 H   0  0  0  0  0  0  0  0  0  0  0  0  # atno 6908 bound_to 6896
  150.6936  134.4217  159.5252 H   0  0  0  0  0  0  0  0  0  0  0  0  # atno 6909 bound_to 6896
  145.6311  140.9337  143.1086 H   0  0  0  0  0  0  0  0  0  0  0  0  # atno 7974 bound_to 7965
  156.2211  140.1820  156.7475 H   0  0  0  0  0  0  0  0  0  0  0  0  # atno 8008 bound_to 7997
  154.5867  140.0657  156.9209 H   0  0  0  0  0  0  0  0  0  0  0  0  # atno 8009 bound_to 7997
  155.2408  140.3322  155.4295 H   0  0  0  0  0  0  0  0  0  0  0  0  # atno 8010 bound_to 7997
  139.6888  143.9455  152.2375 H   0  0  0  0  0  0  0  0  0  0  0  0  # atno 10167 bound_to 10162
  156.7420  130.5212  149.5822 H   0  0  0  0  0  0  0  0  0  0  0  0  # atno 10718 bound_to 10713
  154.8526  135.4339  154.1850 H   0  0  0  0  0  0  0  0  0  0  0  0  # atno 10763 bound_to 10752
  153.2932  135.6963  153.7279 H   0  0  0  0  0  0  0  0  0  0  0  0  # atno 10764 bound_to 10752
  153.6438  135.3463  155.3054 H   0  0  0  0  0  0  0  0  0  0  0  0  # atno 10765 bound_to 10752
  141.1597  133.7586  156.9489 H   0  0  0  0  0  0  0  0  0  0  0  0  # atno 11005 bound_to 11000
  144.7193  139.8085  143.7387 LP  0  0  0  0  0  0  0  0  0  0  0  0  # atno 17320 bound_to 7965
  146.1356  139.4400  143.0141 LP  0  0  0  0  0  0  0  0  0  0  0  0  # atno 17321 bound_to 7965
  139.9265  144.6767  150.8407 LP  0  0  0  0  0  0  0  0  0  0  0  0  # atno 17342 bound_to 10162
  140.7676  143.3338  151.2353 LP  0  0  0  0  0  0  0  0  0  0  0  0  # atno 17343 bound_to 10162
  156.1458  130.6276  151.0529 LP  0  0  0  0  0  0  0  0  0  0  0  0  # atno 17370 bound_to 10713
  157.6814  131.0837  150.7359 LP  0  0  0  0  0  0  0  0  0  0  0  0  # atno 17371 bound_to 10713
  140.1270  134.9380  157.2284 LP  0  0  0  0  0  0  0  0  0  0  0  0  # atno 17394 bound_to 11000
  140.3000  134.3142  155.7292 LP  0  0  0  0  0  0  0  0  0  0  0  0  # atno 17395 bound_to 11000

$$$$
