AV-unprocessed.smi:53|AV-procd|sdf|513|dock5
  -GOLD-   2262016383D 1   1.00000     0.00000
 Structure written by MMmdl.
 30 31  0  0  0  0  0  0  0  0  1 V2000
  151.0702  131.2517  154.2452 N   0  0  0  0  0  0  0  0  0  0  0  0
  150.8005  132.5364  154.5175 C   0  0  0  0  0  0  0  0  0  0  0  0
  150.0065  133.3263  153.6031 C   0  0  0  0  0  0  0  0  0  0  0  0
  149.7763  134.6119  153.9499 C   0  0  0  0  0  0  0  0  0  0  0  0
  150.2648  135.1582  155.1281 N   0  0  0  0  0  0  0  0  0  0  0  0
  149.9906  136.6044  155.4826 C   0  0  2  0  0  0  0  0  0  0  0  0
  148.7347  136.9484  154.9905 O   0  0  0  0  0  0  0  0  0  0  0  0
  148.7350  138.3334  154.6815 C   0  0  2  0  0  0  0  0  0  0  0  0
  147.5887  138.6547  153.7102 C   0  0  0  0  0  0  0  0  0  0  0  0
  147.7052  139.9818  153.2435 O   0  0  0  0  0  0  0  0  0  0  0  0
  150.1275  138.5408  154.0751 C   0  0  1  0  0  0  0  0  0  0  0  0
  150.5410  139.8823  154.2464 O   0  0  0  0  0  0  0  0  0  0  0  0
  151.0147  137.5921  154.8776 C   0  0  2  0  0  0  0  0  0  0  0  0
  151.9862  136.9901  154.0403 O   0  0  0  0  0  0  0  0  0  0  0  0
  151.0555  134.3662  155.9944 C   0  0  0  0  0  0  0  0  0  0  0  0
  151.5417  134.8207  157.0292 O   0  0  0  0  0  0  0  0  0  0  0  0
  151.2754  133.0650  155.6290 N   0  0  0  0  0  0  0  0  0  0  0  0
  149.9374  136.6682  156.5710 H   0  0  0  0  0  0  0  0  0  0  0  0
  148.6428  138.9049  155.6079 H   0  0  0  0  0  0  0  0  0  0  0  0
  150.1225  138.2707  153.0176 H   0  0  0  0  0  0  0  0  0  0  0  0
  151.5131  138.1021  155.7036 H   0  0  0  0  0  0  0  0  0  0  0  0
  151.6278  130.7035  154.8838 H   0  0  0  0  0  0  0  0  0  0  0  0
  150.7143  130.8339  153.3972 H   0  0  0  0  0  0  0  0  0  0  0  0
  149.6028  132.9398  152.6783 H   0  0  0  0  0  0  0  0  0  0  0  0
  149.1956  135.2242  153.2749 H   0  0  0  0  0  0  0  0  0  0  0  0
  147.6393  137.9987  152.8407 H   0  0  0  0  0  0  0  0  0  0  0  0
  146.6162  138.4982  154.1778 H   0  0  0  0  0  0  0  0  0  0  0  0
  148.4420  140.0295  152.6536 H   0  0  0  0  0  0  0  0  0  0  0  0
  150.2328  140.1876  155.0859 H   0  0  0  0  0  0  0  0  0  0  0  0
  151.5841  136.8026  153.2056 H   0  0  0  0  0  0  0  0  0  0  0  0
  1  2  1  0  0  0  0
  1 22  1  0  0  0  0
  1 23  1  0  0  0  0
  2 17  2  0  0  0  0
  2  3  1  0  0  0  0
  3  4  2  0  0  0  0
  3 24  1  0  0  0  0
  4  5  1  0  0  0  0
  4 25  1  0  0  0  0
  5  6  1  0  0  0  0
  5 15  1  0  0  0  0
  6 18  1  0  0  0  0
  6 13  1  0  0  0  0
  6  7  1  0  0  0  0
  7  8  1  0  0  0  0
  8 19  1  0  0  0  0
  8  9  1  0  0  0  0
  8 11  1  0  0  0  0
  9 10  1  0  0  0  0
  9 26  1  0  0  0  0
  9 27  1  0  0  0  0
 10 28  1  0  0  0  0
 11 20  1  0  0  0  0
 11 12  1  0  0  0  0
 11 13  1  0  0  0  0
 12 29  1  0  0  0  0
 13 21  1  0  0  0  0
 13 14  1  0  0  0  0
 14 30  1  0  0  0  0
 15 16  2  0  0  0  0
 15 17  1  0  0  0  0
M  END
> <s_m_source_file>
AV-unprocessed.smi

> <i_m_source_file_index>
53

> <i_lp_mmshare_version>
43012

> <i_f3d_flags>
0

> <s_epik_input>
W05IMl1jMVtjSF1bY0hdbihjKD1PKW4xKVtDQEBIXTJPW0NASF0oW0NIMl1bT0hdKVtDQEBIXShbT0hdKVtDQEBIXTJbT0hd

> <s_epik_cmdline>
J2VwaWtfcHl0aG9uJywgJy1waCcsICc3LjAnLCAnLXRuJywgJzgnLCAnLW1hJywgJzIwMCcsICctbWV0YWxfYmluZGluZycsICctaW1hZScsICc8aW5maWxlLm1hZT4nLCAnLW9tYWUnLCAnPG91dGZpbGUubWFlPic=

> <r_lp_tautomer_probability>
0.99996

> <r_epik_Ionization_Penalty>
0.00069087

> <r_epik_Ionization_Penalty_Charging>
2.61959e-08

> <r_epik_Ionization_Penalty_Neutral>
0.000690844

> <r_epik_State_Penalty>
1.15523e-05

> <r_epik_Charging_Adjusted_Penalty>
1.15785e-05

> <i_epik_Tot_Q>
0

> <i_epik_Tot_abs_Q>
0

> <r_epik_Metal_State_Penalty>
-0

> <b_epik_Metal_Only>
0

> <s_epik_Chemistry_Notes>
This compound contains an acetal/aminal-like group ( X-CH(R)-Y where X, Y are N, S, or O) that may be acid/base labile, releasing an aldehyde.

> <s_lp_Force_Field>
OPLS_2005

> <r_lp_Energy>
35.6127

> <b_lp_Chiralities_Consistent>
1

> <s_lp_Variant>
AV-unprocessed.smi:53-1

> <Gold.Version>
5.8.1

> <Gold.Id.Protein>
6NUR|6NUR_protein|mol2

> <Gold.PLP.Fitness>
38.7865

> <Gold.PLP.PLP>
-24.6379

> <Gold.PLP.part.hbond>
-5.8518

> <Gold.PLP.part.metal>
0.0000

> <Gold.PLP.part.buried>
-3.6102

> <Gold.PLP.part.nonpolar>
-16.1086

> <Gold.PLP.part.repulsive>
0.0972

> <Gold.PLP.ligand.clash>
0.0000

> <Gold.PLP.ligand.torsion>
0.7552

> <Gold.PLP.Chemscore.Hbond>
4.1310

> <Gold.PLP.Chemscore.CHOScore>
1.0000

> <Gold.PLP.Chemscore.Metal>
0.0000

> <Gold.Chemscore.Hbonds>
donor molecule, donor type, donor heavy atom, donor atom, acceptor molecule, acceptor atom, score
      L1  H    10    28       P1  7957  1.00
      L1  H    14    30       P1  7949  1.00
      P1  H  7989  7998       L1    12  1.00
      P1  H 10752 10764       L1    14  0.83
      L1  C     4    25       P1  7948  0.18

> <Gold.PLP.Chemscore.Internal.Correction>
0.2659

> <Gold.Rescore>
     Score         DG    S(hbond)    S(metal)    S(lipo)     H(rot)  DE(clash)    DE(int)     intcor
     10.98     -13.50       4.04        0.00      34.25       3.71       1.19       1.33       ----

> <Gold.Chemscore.Fitness>
10.9841

> <Gold.Chemscore.DG>
-13.4974

> <Gold.Chemscore.ZeroCoef>
-5.4800

> <Gold.Chemscore.Hbond>
4.0437

> <Gold.Chemscore.Metal>
0.0000

> <Gold.Chemscore.Lipo>
34.2544

> <Gold.Chemscore.Internal_Hbond>
0.0000

> <Gold.Chemscore.DEClash>
1.1855

> <Gold.Chemscore.DEInternal>
1.3278

> <Gold.Chemscore.Rot>
3.7095

> <Gold.Chemscore.Internal.Correction>
   9.000000E+99

> <Gold.Chemscore.Hbonds>
donor molecule, donor type, donor heavy atom, donor atom, acceptor molecule, acceptor atom, score
      L1  H    10    28       P1  7957  1.00
      L1  H    14    30       P1  7949  0.93
      P1  H  7989  7998       L1    12  0.92
      P1  H 10752 10764       L1    14  0.54

> <Gold.Chemscore.Hbond.Weighted>
-13.5060

> <Gold.Chemscore.Metal.Weighted>
-0.0000

> <Gold.Chemscore.Lipo.Weighted>
-4.0078

> <Gold.Chemscore.Internal_Hbond.Weighted>
0.0000

> <Gold.Chemscore.DEClash.Weighted>
1.1855

> <Gold.Chemscore.DEInternal.Weighted>
1.3278

> <Gold.Chemscore.Rot.Weighted>
9.4964

> <Gold.Chemscore.Internal.Correction.Weighted>
   9.000000E+99

> <Gold.Protein.RotatedTorsions>
[ 6907 6896 6895 6894 ] final  -91.54 input  -60.11 | X-H torsion
[ 7974 7965 7964 7962 ] final  -35.43 input  175.53 | X-H torsion
[ 8008 7997 7996 7995 ] final   35.85 input   59.86 | X-H torsion
[ 10167 10162 10161 10158 ] final   94.41 input  -65.29 | X-H torsion
[ 10718 10713 10712 10709 ] final   62.24 input   66.30 | X-H torsion
[ 10763 10752 10751 10750 ] final  -64.53 input  -60.55 | X-H torsion
[ 11005 11000 10999 10996 ] final  -82.36 input  -57.11 | X-H torsion

> <Gold.Protein.ActiveResidues>
 VAL166  LYS551  ARG553  GLY616  TRP617  ASP618  TYR619  PRO620  LYS621  CYS622 
 ASP623  PHE694  ASN695  SER759  ASP760  ASP761  ALA762  ILE779  LEU786  VAL792 
 PHE793  MET794  SER795  GLU796  ALA797  LYS798  CYS799  TRP800  GLU811  SER814 

> <Gold.Protein.RotatedAtoms>
  150.6894  134.2262  159.4415 H   0  0  0  0  0  0  0  0  0  0  0  0  # atno 6907 bound_to 6896
  152.0215  134.9817  160.0580 H   0  0  0  0  0  0  0  0  0  0  0  0  # atno 6908 bound_to 6896
  152.1392  133.4419  159.4795 H   0  0  0  0  0  0  0  0  0  0  0  0  # atno 6909 bound_to 6896
  146.0747  140.6158  142.8936 H   0  0  0  0  0  0  0  0  0  0  0  0  # atno 7974 bound_to 7965
  155.1779  140.3297  155.4380 H   0  0  0  0  0  0  0  0  0  0  0  0  # atno 8008 bound_to 7997
  156.2487  140.1932  156.6829 H   0  0  0  0  0  0  0  0  0  0  0  0  # atno 8009 bound_to 7997
  154.6292  140.0585  156.9697 H   0  0  0  0  0  0  0  0  0  0  0  0  # atno 8010 bound_to 7997
  139.8086  144.6783  150.9669 H   0  0  0  0  0  0  0  0  0  0  0  0  # atno 10167 bound_to 10162
  157.5886  130.9039  149.9562 H   0  0  0  0  0  0  0  0  0  0  0  0  # atno 10718 bound_to 10713
  154.3314  135.6176  153.5553 H   0  0  0  0  0  0  0  0  0  0  0  0  # atno 10763 bound_to 10752
  152.9811  135.5747  154.4957 H   0  0  0  0  0  0  0  0  0  0  0  0  # atno 10764 bound_to 10752
  154.4644  135.2857  155.1666 H   0  0  0  0  0  0  0  0  0  0  0  0  # atno 10765 bound_to 10752
  141.1663  133.7241  156.8560 H   0  0  0  0  0  0  0  0  0  0  0  0  # atno 11005 bound_to 11000
  144.7254  140.4507  143.6977 LP  0  0  0  0  0  0  0  0  0  0  0  0  # atno 17320 bound_to 7965
  145.6327  139.1538  143.2960 LP  0  0  0  0  0  0  0  0  0  0  0  0  # atno 17321 bound_to 7965
  140.7818  143.4208  151.0845 LP  0  0  0  0  0  0  0  0  0  0  0  0  # atno 17342 bound_to 10162
  139.7875  143.8266  152.3147 LP  0  0  0  0  0  0  0  0  0  0  0  0  # atno 17343 bound_to 10162
  156.0938  130.3661  150.0345 LP  0  0  0  0  0  0  0  0  0  0  0  0  # atno 17370 bound_to 10713
  156.8472  130.9446  151.3628 LP  0  0  0  0  0  0  0  0  0  0  0  0  # atno 17371 bound_to 10713
  140.1882  134.8984  157.3029 LP  0  0  0  0  0  0  0  0  0  0  0  0  # atno 17394 bound_to 11000
  140.2319  134.3899  155.7518 LP  0  0  0  0  0  0  0  0  0  0  0  0  # atno 17395 bound_to 11000

$$$$
