AV-unprocessed.smi:415|AV-procd|sdf|2522|dock4
  -GOLD-   2262022473D 1   1.00000     0.00000
 Structure written by MMmdl.
 53 54  0  0  0  0  0  0  0  0  1 V2000
  148.0263  135.3069  160.2587 C   0  0  0  0  0  0  0  0  0  0  0  0
  149.1777  135.4131  159.4404 O   0  0  0  0  0  0  0  0  0  0  0  0
  148.8753  135.3254  158.0578 C   0  0  0  0  0  0  0  0  0  0  0  0
  150.1688  135.3988  157.2296 C   0  0  0  0  0  0  0  0  0  0  0  0
  150.2845  136.6260  156.4636 N   0  0  0  0  0  0  0  0  0  0  0  0
  150.4266  136.6445  155.0789 C   0  0  0  0  0  0  0  0  0  0  0  0
  150.4402  135.4521  154.3775 N   0  0  0  0  0  0  0  0  0  0  0  0
  150.5423  137.8056  154.3974 C   0  0  0  0  0  0  0  0  0  0  0  0
  150.5239  139.0967  155.0698 C   0  0  0  0  0  0  0  0  0  0  0  0
  150.6669  140.1634  154.4718 O   0  0  0  0  0  0  0  0  0  0  0  0
  150.3494  139.0566  156.4723 N   0  0  0  0  0  0  0  0  0  0  0  0
  150.3676  140.3343  157.2255 C   0  0  0  0  0  0  0  0  0  0  0  0
  151.7589  140.7448  157.7422 C   0  0  0  0  0  0  0  0  0  0  0  0
  152.7141  139.9870  157.5803 O   0  0  0  0  0  0  0  0  0  0  0  0
  151.8627  141.9322  158.3596 N   0  0  0  0  0  0  0  0  0  0  0  0
  153.0676  142.5283  158.9273 C   0  0  2  0  0  0  0  0  0  0  0  0
  153.4276  141.8484  160.2626 C   0  0  0  0  0  0  0  0  0  0  0  0
  152.3881  142.1519  161.3518 C   0  0  0  0  0  0  0  0  0  0  0  0
  152.2107  143.6653  161.5345 C   0  0  0  0  0  0  0  0  0  0  0  0
  151.8342  144.3734  160.2161 C   0  0  1  0  0  0  0  0  0  0  0  0
  151.6623  145.8822  160.4659 C   0  0  0  0  0  0  0  0  0  0  0  0
  152.8757  144.0571  159.1046 C   0  0  2  0  0  0  0  0  0  0  0  0
  152.5420  144.7353  157.7594 C   0  0  0  0  0  0  0  0  0  0  0  0
  150.2221  137.8438  157.1884 C   0  0  0  0  0  0  0  0  0  0  0  0
  150.0792  137.8601  158.4140 O   0  0  0  0  0  0  0  0  0  0  0  0
  148.3157  135.3737  161.3075 H   0  0  0  0  0  0  0  0  0  0  0  0
  147.5218  134.3516  160.1087 H   0  0  0  0  0  0  0  0  0  0  0  0
  147.3206  136.1126  160.0523 H   0  0  0  0  0  0  0  0  0  0  0  0
  148.3740  134.3769  157.8595 H   0  0  0  0  0  0  0  0  0  0  0  0
  148.1894  136.1217  157.7644 H   0  0  0  0  0  0  0  0  0  0  0  0
  151.0641  135.2723  157.8402 H   0  0  0  0  0  0  0  0  0  0  0  0
  150.2102  134.5850  156.5061 H   0  0  0  0  0  0  0  0  0  0  0  0
  150.3496  134.5591  154.8408 H   0  0  0  0  0  0  0  0  0  0  0  0
  150.5417  135.4259  153.3729 H   0  0  0  0  0  0  0  0  0  0  0  0
  150.6560  137.7862  153.3229 H   0  0  0  0  0  0  0  0  0  0  0  0
  149.9760  141.1525  156.6191 H   0  0  0  0  0  0  0  0  0  0  0  0
  149.6868  140.2935  158.0770 H   0  0  0  0  0  0  0  0  0  0  0  0
  151.0190  142.4809  158.4416 H   0  0  0  0  0  0  0  0  0  0  0  0
  153.8914  142.3687  158.2292 H   0  0  0  0  0  0  0  0  0  0  0  0
  153.5229  140.7702  160.1279 H   0  0  0  0  0  0  0  0  0  0  0  0
  154.4062  142.1992  160.5924 H   0  0  0  0  0  0  0  0  0  0  0  0
  151.4313  141.6974  161.0918 H   0  0  0  0  0  0  0  0  0  0  0  0
  152.6965  141.6983  162.2940 H   0  0  0  0  0  0  0  0  0  0  0  0
  151.4439  143.8482  162.2880 H   0  0  0  0  0  0  0  0  0  0  0  0
  153.1348  144.0910  161.9289 H   0  0  0  0  0  0  0  0  0  0  0  0
  150.8639  143.9881  159.8983 H   0  0  0  0  0  0  0  0  0  0  0  0
  152.6124  146.3536  160.7192 H   0  0  0  0  0  0  0  0  0  0  0  0
  150.9718  146.0658  161.2896 H   0  0  0  0  0  0  0  0  0  0  0  0
  151.2547  146.3926  159.5938 H   0  0  0  0  0  0  0  0  0  0  0  0
  153.8360  144.4603  159.4305 H   0  0  0  0  0  0  0  0  0  0  0  0
  151.5333  144.4922  157.4231 H   0  0  0  0  0  0  0  0  0  0  0  0
  153.2359  144.4198  156.9800 H   0  0  0  0  0  0  0  0  0  0  0  0
  152.6166  145.8202  157.8270 H   0  0  0  0  0  0  0  0  0  0  0  0
  1  2  1  0  0  0  0
  1 26  1  0  0  0  0
  1 27  1  0  0  0  0
  1 28  1  0  0  0  0
  2  3  1  0  0  0  0
  3  4  1  0  0  0  0
  3 29  1  0  0  0  0
  3 30  1  0  0  0  0
  4  5  1  0  0  0  0
  4 31  1  0  0  0  0
  4 32  1  0  0  0  0
  5 24  1  0  0  0  0
  5  6  1  0  0  0  0
  6  7  1  0  0  0  0
  6  8  2  0  0  0  0
  7 33  1  0  0  0  0
  7 34  1  0  0  0  0
  8  9  1  0  0  0  0
  8 35  1  0  0  0  0
  9 10  2  0  0  0  0
  9 11  1  0  0  0  0
 11 12  1  0  0  0  0
 11 24  1  0  0  0  0
 12 13  1  0  0  0  0
 12 36  1  0  0  0  0
 12 37  1  0  0  0  0
 13 14  2  0  0  0  0
 13 15  1  0  0  0  0
 15 16  1  0  0  0  0
 15 38  1  0  0  0  0
 16 22  1  0  0  0  0
 16 17  1  0  0  0  0
 16 39  1  0  0  0  0
 17 18  1  0  0  0  0
 17 40  1  0  0  0  0
 17 41  1  0  0  0  0
 18 19  1  0  0  0  0
 18 42  1  0  0  0  0
 18 43  1  0  0  0  0
 19 20  1  0  0  0  0
 19 44  1  0  0  0  0
 19 45  1  0  0  0  0
 20 21  1  0  0  0  0
 20 22  1  0  0  0  0
 20 46  1  0  0  0  0
 21 47  1  0  0  0  0
 21 48  1  0  0  0  0
 21 49  1  0  0  0  0
 22 23  1  0  0  0  0
 22 50  1  0  0  0  0
 23 51  1  0  0  0  0
 23 52  1  0  0  0  0
 23 53  1  0  0  0  0
 24 25  2  0  0  0  0
M  END
> <s_m_source_file>
AV-unprocessed.smi

> <i_m_source_file_index>
415

> <i_lp_mmshare_version>
43012

> <i_f3d_flags>
0

> <s_epik_input>
W0NIM11PW0NIMl1bQ0gyXW4xYyhbTkgyXSlbY0hdYyg9TyluKGMxPU8pW0NIMl1DKD1PKVtOSF1bQ0BASF0yW0NIMl1bQ0gyXVtDSDJdW0NAQEhdKFtDSDNdKVtDQEhdMltDSDNd

> <s_epik_cmdline>
J2VwaWtfcHl0aG9uJywgJy1waCcsICc3LjAnLCAnLXRuJywgJzgnLCAnLW1hJywgJzIwMCcsICctbWV0YWxfYmluZGluZycsICctaW1hZScsICc8aW5maWxlLm1hZT4nLCAnLW9tYWUnLCAnPG91dGZpbGUubWFlPic=

> <r_lp_tautomer_probability>
1

> <r_epik_Ionization_Penalty>
8.6647e-06

> <r_epik_Ionization_Penalty_Charging>
1.81162e-08

> <r_epik_Ionization_Penalty_Neutral>
8.64658e-06

> <r_epik_State_Penalty>
-0

> <r_epik_Charging_Adjusted_Penalty>
1.81162e-08

> <i_epik_Tot_Q>
0

> <i_epik_Tot_abs_Q>
0

> <r_epik_Metal_State_Penalty>
-0

> <b_epik_Metal_Only>
0

> <s_lp_Force_Field>
OPLS_2005

> <r_lp_Energy>
19.7433

> <b_lp_Chiralities_Consistent>
1

> <s_lp_Variant>
AV-unprocessed.smi:415-5

> <Gold.Version>
5.8.1

> <Gold.Id.Protein>
6NUR|6NUR_protein|mol2

> <Gold.PLP.Fitness>
52.5473

> <Gold.PLP.PLP>
-45.2554

> <Gold.PLP.part.hbond>
-4.8406

> <Gold.PLP.part.metal>
0.0000

> <Gold.PLP.part.buried>
-4.4842

> <Gold.PLP.part.nonpolar>
-37.9369

> <Gold.PLP.part.repulsive>
0.2587

> <Gold.PLP.ligand.clash>
0.0000

> <Gold.PLP.ligand.torsion>
0.9811

> <Gold.PLP.Chemscore.Hbond>
3.0652

> <Gold.PLP.Chemscore.CHOScore>
0.0000

> <Gold.PLP.Chemscore.Metal>
0.0000

> <Gold.Chemscore.Hbonds>
donor molecule, donor type, donor heavy atom, donor atom, acceptor molecule, acceptor atom, score
      L1  H     7    34       P1  7949  0.15
      P1  H  6896  6908       L1     2  1.00
      P1  H  7989  7998       L1    10  1.00
      P1  H  7997  8008       L1    14  1.00

> <Gold.PLP.Chemscore.Internal.Correction>
0.0586

> <Gold.Rescore>
     Score         DG    S(hbond)    S(metal)    S(lipo)     H(rot)  DE(clash)    DE(int)     intcor
     19.07     -23.04       2.78        0.00     120.23       2.26       0.25       3.72       ----

> <Gold.Chemscore.Fitness>
19.0708

> <Gold.Chemscore.DG>
-23.0393

> <Gold.Chemscore.ZeroCoef>
-5.4800

> <Gold.Chemscore.Hbond>
2.7812

> <Gold.Chemscore.Metal>
0.0000

> <Gold.Chemscore.Lipo>
120.2324

> <Gold.Chemscore.Internal_Hbond>
0.0000

> <Gold.Chemscore.DEClash>
0.2458

> <Gold.Chemscore.DEInternal>
3.7228

> <Gold.Chemscore.Rot>
2.2645

> <Gold.Chemscore.Internal.Correction>
   9.000000E+99

> <Gold.Chemscore.Hbonds>
donor molecule, donor type, donor heavy atom, donor atom, acceptor molecule, acceptor atom, score
      P1  H  6896  6908       L1     2  0.60
      P1  H  7989  7998       L1    10  0.94
      P1  H  7997  8008       L1    14  0.97

> <Gold.Chemscore.Hbond.Weighted>
-9.2893

> <Gold.Chemscore.Metal.Weighted>
-0.0000

> <Gold.Chemscore.Lipo.Weighted>
-14.0672

> <Gold.Chemscore.Internal_Hbond.Weighted>
0.0000

> <Gold.Chemscore.DEClash.Weighted>
0.2458

> <Gold.Chemscore.DEInternal.Weighted>
3.7228

> <Gold.Chemscore.Rot.Weighted>
5.7972

> <Gold.Chemscore.Internal.Correction.Weighted>
   9.000000E+99

> <Gold.Protein.RotatedTorsions>
[ 6907 6896 6895 6894 ] final -176.50 input  -60.11 | X-H torsion
[ 7974 7965 7964 7962 ] final   84.65 input  175.53 | X-H torsion
[ 8008 7997 7996 7995 ] final  -76.78 input   59.86 | X-H torsion
[ 10167 10162 10161 10158 ] final  115.99 input  -65.29 | X-H torsion
[ 10718 10713 10712 10709 ] final -108.62 input   66.30 | X-H torsion
[ 10763 10752 10751 10750 ] final   32.54 input  -60.55 | X-H torsion
[ 11005 11000 10999 10996 ] final -150.02 input  -57.11 | X-H torsion

> <Gold.Protein.ActiveResidues>
 VAL166  LYS551  ARG553  GLY616  TRP617  ASP618  TYR619  PRO620  LYS621  CYS622 
 ASP623  PHE694  ASN695  SER759  ASP760  ASP761  ALA762  ILE779  LEU786  VAL792 
 PHE793  MET794  SER795  GLU796  ALA797  LYS798  CYS799  TRP800  GLU811  SER814 

> <Gold.Protein.RotatedAtoms>
  151.6059  133.3352  159.3056 H   0  0  0  0  0  0  0  0  0  0  0  0  # atno 6907 bound_to 6896
  150.8183  134.7380  159.6761 H   0  0  0  0  0  0  0  0  0  0  0  0  # atno 6908 bound_to 6896
  152.4278  134.5842  160.0007 H   0  0  0  0  0  0  0  0  0  0  0  0  # atno 6909 bound_to 6896
  145.5960  139.2345  143.2273 H   0  0  0  0  0  0  0  0  0  0  0  0  # atno 7974 bound_to 7965
  154.5536  140.0721  156.8707 H   0  0  0  0  0  0  0  0  0  0  0  0  # atno 8008 bound_to 7997
  155.2945  140.3380  155.4232 H   0  0  0  0  0  0  0  0  0  0  0  0  # atno 8009 bound_to 7997
  156.1983  140.1712  156.7939 H   0  0  0  0  0  0  0  0  0  0  0  0  # atno 8010 bound_to 7997
  139.6278  144.7111  151.2496 H   0  0  0  0  0  0  0  0  0  0  0  0  # atno 10167 bound_to 10162
  156.0495  130.5722  150.7986 H   0  0  0  0  0  0  0  0  0  0  0  0  # atno 10718 bound_to 10713
  153.0257  135.6410  154.1371 H   0  0  0  0  0  0  0  0  0  0  0  0  # atno 10763 bound_to 10752
  154.1101  135.2853  155.3234 H   0  0  0  0  0  0  0  0  0  0  0  0  # atno 10764 bound_to 10752
  154.6338  135.5483  153.7773 H   0  0  0  0  0  0  0  0  0  0  0  0  # atno 10765 bound_to 10752
  140.7446  134.3475  157.5140 H   0  0  0  0  0  0  0  0  0  0  0  0  # atno 11005 bound_to 11000
  146.1612  140.6785  142.9277 LP  0  0  0  0  0  0  0  0  0  0  0  0  # atno 17320 bound_to 7965
  144.7330  140.4729  143.6924 LP  0  0  0  0  0  0  0  0  0  0  0  0  # atno 17321 bound_to 7965
  140.7421  143.6535  150.8227 LP  0  0  0  0  0  0  0  0  0  0  0  0  # atno 17342 bound_to 10162
  140.0156  143.5596  152.2821 LP  0  0  0  0  0  0  0  0  0  0  0  0  # atno 17343 bound_to 10162
  157.5406  131.0940  150.9833 LP  0  0  0  0  0  0  0  0  0  0  0  0  # atno 17370 bound_to 10713
  157.0117  130.5639  149.5321 LP  0  0  0  0  0  0  0  0  0  0  0  0  # atno 17371 bound_to 10713
  139.8799  134.9103  156.3011 LP  0  0  0  0  0  0  0  0  0  0  0  0  # atno 17394 bound_to 11000
  140.9806  133.7270  156.0666 LP  0  0  0  0  0  0  0  0  0  0  0  0  # atno 17395 bound_to 11000

$$$$
