AV-unprocessed.smi:134|AV-procd|sdf|1167|dock6
  -GOLD-   2262018313D 1   1.00000     0.00000
 Structure written by MMmdl.
 51 54  0  0  0  0  0  0  0  0  1 V2000
  147.1061  140.8744  153.6311 O   0  0  0  0  0  0  0  0  0  0  0  0
  147.9542  140.5739  154.4726 C   0  0  0  0  0  0  0  0  0  0  0  0
  149.1470  141.5033  154.7471 C   0  0  0  0  0  0  0  0  0  0  0  0
  150.1697  140.9022  155.6314 N   0  0  0  0  0  0  0  0  0  0  0  0
  150.9074  139.7917  155.1514 C   0  0  0  0  0  0  0  0  0  0  0  0
  150.6922  139.3157  154.0360 O   0  0  0  0  0  0  0  0  0  0  0  0
  151.9263  139.2743  156.0564 C   0  0  0  0  0  0  0  0  0  0  0  0
  152.6858  138.2321  155.6782 F   0  0  0  0  0  0  0  0  0  0  0  0
  152.1228  139.8291  157.2698 C   0  0  0  0  0  0  0  0  0  0  0  0
  151.3831  140.8980  157.7370 N   0  0  0  0  0  0  0  0  0  0  0  0
  151.7157  141.4786  159.0947 C   0  0  2  0  0  0  0  0  0  0  0  0
  152.2061  142.9333  159.0440 C   0  0  0  0  0  0  0  0  0  0  0  0
  153.2147  142.9413  160.1721 C   0  0  0  0  0  0  0  0  0  0  0  0
  153.8053  141.5383  160.0783 C   0  0  0  0  0  0  0  0  0  0  0  0
  152.7150  140.7048  159.6932 O   0  0  0  0  0  0  0  0  0  0  0  0
  150.4002  141.4814  156.9028 C   0  0  0  0  0  0  0  0  0  0  0  0
  149.7652  142.4731  157.2635 O   0  0  0  0  0  0  0  0  0  0  0  0
  147.9284  139.4442  155.2011 N   0  0  0  0  0  0  0  0  0  0  0  0
  146.9780  138.3893  155.1349 C   0  0  0  0  0  0  0  0  0  0  0  0
  145.5943  138.6400  154.9693 C   0  0  0  0  0  0  0  0  0  0  0  0
  144.6760  137.5736  154.9289 C   0  0  0  0  0  0  0  0  0  0  0  0
  145.1276  136.2480  155.0634 C   0  0  0  0  0  0  0  0  0  0  0  0
  146.4986  135.9891  155.2454 C   0  0  0  0  0  0  0  0  0  0  0  0
  147.4223  137.0528  155.2867 C   0  0  0  0  0  0  0  0  0  0  0  0
  149.1366  136.6785  155.5100 S   0  0  0  0  0  0  0  0  0  0  0  0
  149.0646  134.9184  155.5627 C   0  0  0  0  0  0  0  0  0  0  0  0
  148.7465  134.1920  154.3981 C   0  0  0  0  0  0  0  0  0  0  0  0
  148.7018  132.7847  154.4399 C   0  0  0  0  0  0  0  0  0  0  0  0
  148.9733  132.1057  155.6446 C   0  0  0  0  0  0  0  0  0  0  0  0
  148.9215  130.3820  155.6945 Cl  0  0  0  0  0  0  0  0  0  0  0  0
  149.2868  132.8343  156.8089 C   0  0  0  0  0  0  0  0  0  0  0  0
  149.3308  134.2413  156.7690 C   0  0  0  0  0  0  0  0  0  0  0  0
  149.5749  141.7991  153.7882 H   0  0  0  0  0  0  0  0  0  0  0  0
  148.7782  142.4399  155.1693 H   0  0  0  0  0  0  0  0  0  0  0  0
  152.8944  139.4096  157.8988 H   0  0  0  0  0  0  0  0  0  0  0  0
  150.8105  141.3794  159.6950 H   0  0  0  0  0  0  0  0  0  0  0  0
  152.6901  143.1631  158.0960 H   0  0  0  0  0  0  0  0  0  0  0  0
  151.3801  143.6292  159.1922 H   0  0  0  0  0  0  0  0  0  0  0  0
  153.9634  143.7276  160.0731 H   0  0  0  0  0  0  0  0  0  0  0  0
  152.7059  143.0700  161.1283 H   0  0  0  0  0  0  0  0  0  0  0  0
  154.5802  141.4995  159.3124 H   0  0  0  0  0  0  0  0  0  0  0  0
  154.2463  141.2067  161.0184 H   0  0  0  0  0  0  0  0  0  0  0  0
  148.7376  139.2668  155.7786 H   0  0  0  0  0  0  0  0  0  0  0  0
  145.2190  139.6487  154.8831 H   0  0  0  0  0  0  0  0  0  0  0  0
  143.6228  137.7746  154.7994 H   0  0  0  0  0  0  0  0  0  0  0  0
  144.4224  135.4305  155.0326 H   0  0  0  0  0  0  0  0  0  0  0  0
  146.8410  134.9702  155.3523 H   0  0  0  0  0  0  0  0  0  0  0  0
  148.5423  134.7100  153.4725 H   0  0  0  0  0  0  0  0  0  0  0  0
  148.4608  132.2274  153.5467 H   0  0  0  0  0  0  0  0  0  0  0  0
  149.4941  132.3155  157.7332 H   0  0  0  0  0  0  0  0  0  0  0  0
  149.5706  134.7964  157.6633 H   0  0  0  0  0  0  0  0  0  0  0  0
  1  2  2  0  0  0  0
  2  3  1  0  0  0  0
  2 18  1  0  0  0  0
  3  4  1  0  0  0  0
  3 33  1  0  0  0  0
  3 34  1  0  0  0  0
  4 16  1  0  0  0  0
  4  5  1  0  0  0  0
  5  6  2  0  0  0  0
  5  7  1  0  0  0  0
  7  8  1  0  0  0  0
  7  9  2  0  0  0  0
  9 10  1  0  0  0  0
  9 35  1  0  0  0  0
 10 11  1  0  0  0  0
 10 16  1  0  0  0  0
 11 15  1  0  0  0  0
 11 12  1  0  0  0  0
 11 36  1  0  0  0  0
 12 13  1  0  0  0  0
 12 37  1  0  0  0  0
 12 38  1  0  0  0  0
 13 14  1  0  0  0  0
 13 39  1  0  0  0  0
 13 40  1  0  0  0  0
 14 15  1  0  0  0  0
 14 41  1  0  0  0  0
 14 42  1  0  0  0  0
 16 17  2  0  0  0  0
 18 19  1  0  0  0  0
 18 43  1  0  0  0  0
 19 24  1  0  0  0  0
 19 20  2  0  0  0  0
 20 21  1  0  0  0  0
 20 44  1  0  0  0  0
 21 22  2  0  0  0  0
 21 45  1  0  0  0  0
 22 23  1  0  0  0  0
 22 46  1  0  0  0  0
 23 24  2  0  0  0  0
 23 47  1  0  0  0  0
 24 25  1  0  0  0  0
 25 26  1  0  0  0  0
 26 32  1  0  0  0  0
 26 27  2  0  0  0  0
 27 28  1  0  0  0  0
 27 48  1  0  0  0  0
 28 29  2  0  0  0  0
 28 49  1  0  0  0  0
 29 30  1  0  0  0  0
 29 31  1  0  0  0  0
 31 32  2  0  0  0  0
 31 50  1  0  0  0  0
 32 51  1  0  0  0  0
M  END
> <s_m_source_file>
AV-unprocessed.smi

> <i_m_source_file_index>
134

> <i_lp_mmshare_version>
43012

> <i_f3d_flags>
0

> <s_epik_input>
TzFbQ0gyXVtDSDJdW0NIMl1bQ0BIXTFuKGMyPU8pW2NIXWMoRiljKD1PKW4yW0NIMl1DKD1PKVtOSF1jM1tjSF1bY0hdW2NIXVtjSF1jM1NjNFtjSF1bY0hdYyhDbClbY0hdW2NIXTQ=

> <s_epik_cmdline>
J2VwaWtfcHl0aG9uJywgJy1waCcsICc3LjAnLCAnLXRuJywgJzgnLCAnLW1hJywgJzIwMCcsICctbWV0YWxfYmluZGluZycsICctaW1hZScsICc8aW5maWxlLm1hZT4nLCAnLW9tYWUnLCAnPG91dGZpbGUubWFlPic=

> <r_lp_tautomer_probability>
1

> <r_epik_Ionization_Penalty>
2.01717e-06

> <r_epik_Ionization_Penalty_Charging>
3.88729e-08

> <r_epik_Ionization_Penalty_Neutral>
1.9783e-06

> <r_epik_State_Penalty>
-0

> <r_epik_Charging_Adjusted_Penalty>
3.88729e-08

> <i_epik_Tot_Q>
0

> <i_epik_Tot_abs_Q>
0

> <r_epik_Metal_State_Penalty>
-0

> <b_epik_Metal_Only>
0

> <s_epik_Chemistry_Notes>
This compound contains an acetal/aminal-like group ( X-CH(R)-Y where X, Y are N, S, or O) that may be acid/base labile, releasing an aldehyde.

> <s_lp_Force_Field>
OPLS_2005

> <r_lp_Energy>
29.8469

> <b_lp_Chiralities_Consistent>
1

> <s_lp_Variant>
AV-unprocessed.smi:134-1

> <Gold.Version>
5.8.1

> <Gold.Id.Protein>
6NUR|6NUR_protein|mol2

> <Gold.PLP.Fitness>
47.0639

> <Gold.PLP.PLP>
-47.1456

> <Gold.PLP.part.hbond>
-1.0000

> <Gold.PLP.part.metal>
0.0000

> <Gold.PLP.part.buried>
-2.4176

> <Gold.PLP.part.nonpolar>
-44.3683

> <Gold.PLP.part.repulsive>
0.6293

> <Gold.PLP.ligand.clash>
0.0135

> <Gold.PLP.ligand.torsion>
0.4987

> <Gold.PLP.Chemscore.Hbond>
0.3000

> <Gold.PLP.Chemscore.CHOScore>
0.0000

> <Gold.PLP.Chemscore.Metal>
0.0000

> <Gold.Chemscore.Hbonds>
donor molecule, donor type, donor heavy atom, donor atom, acceptor molecule, acceptor atom, score
      P1  H  7989  7998       L1     6  0.15

> <Gold.PLP.Chemscore.Internal.Correction>
0.0292

> <Gold.Rescore>
     Score         DG    S(hbond)    S(metal)    S(lipo)     H(rot)  DE(clash)    DE(int)     intcor
      7.64     -11.59       0.02        0.00      94.56       1.95       0.16       3.79       ----

> <Gold.Chemscore.Fitness>
7.6375

> <Gold.Chemscore.DG>
-11.5918

> <Gold.Chemscore.ZeroCoef>
-5.4800

> <Gold.Chemscore.Hbond>
0.0159

> <Gold.Chemscore.Metal>
0.0000

> <Gold.Chemscore.Lipo>
94.5594

> <Gold.Chemscore.Internal_Hbond>
0.0000

> <Gold.Chemscore.DEClash>
0.1606

> <Gold.Chemscore.DEInternal>
3.7936

> <Gold.Chemscore.Rot>
1.9549

> <Gold.Chemscore.Internal.Correction>
   9.000000E+99

> <Gold.Chemscore.Hbond.Weighted>
-0.0530

> <Gold.Chemscore.Metal.Weighted>
-0.0000

> <Gold.Chemscore.Lipo.Weighted>
-11.0635

> <Gold.Chemscore.Internal_Hbond.Weighted>
0.0000

> <Gold.Chemscore.DEClash.Weighted>
0.1606

> <Gold.Chemscore.DEInternal.Weighted>
3.7936

> <Gold.Chemscore.Rot.Weighted>
5.0046

> <Gold.Chemscore.Internal.Correction.Weighted>
   9.000000E+99

> <Gold.Protein.RotatedTorsions>
[ 6907 6896 6895 6894 ] final -172.78 input  -60.11 | X-H torsion
[ 7974 7965 7964 7962 ] final  151.46 input  175.53 | X-H torsion
[ 8008 7997 7996 7995 ] final    7.02 input   59.86 | X-H torsion
[ 10167 10162 10161 10158 ] final  163.69 input  -65.29 | X-H torsion
[ 10718 10713 10712 10709 ] final   35.54 input   66.30 | X-H torsion
[ 10763 10752 10751 10750 ] final   25.42 input  -60.55 | X-H torsion
[ 11005 11000 10999 10996 ] final -162.84 input  -57.11 | X-H torsion

> <Gold.Protein.ActiveResidues>
 VAL166  LYS551  ARG553  GLY616  TRP617  ASP618  TYR619  PRO620  LYS621  CYS622 
 ASP623  PHE694  ASN695  SER759  ASP760  ASP761  ALA762  ILE779  LEU786  VAL792 
 PHE793  MET794  SER795  GLU796  ALA797  LYS798  CYS799  TRP800  GLU811  SER814 

> <Gold.Protein.RotatedAtoms>
  151.5456  133.3425  159.2943 H   0  0  0  0  0  0  0  0  0  0  0  0  # atno 6907 bound_to 6896
  150.8509  134.7836  159.7019 H   0  0  0  0  0  0  0  0  0  0  0  0  # atno 6908 bound_to 6896
  152.4555  134.5308  159.9862 H   0  0  0  0  0  0  0  0  0  0  0  0  # atno 6909 bound_to 6896
  144.8291  139.6541  143.6067 H   0  0  0  0  0  0  0  0  0  0  0  0  # atno 7974 bound_to 7965
  154.7485  140.2762  155.6313 H   0  0  0  0  0  0  0  0  0  0  0  0  # atno 8008 bound_to 7997
  156.2890  140.2683  156.2158 H   0  0  0  0  0  0  0  0  0  0  0  0  # atno 8009 bound_to 7997
  155.0167  140.0372  157.2411 H   0  0  0  0  0  0  0  0  0  0  0  0  # atno 8010 bound_to 7997
  139.4877  144.4312  151.9068 H   0  0  0  0  0  0  0  0  0  0  0  0  # atno 10167 bound_to 10162
  157.3239  130.7462  149.6803 H   0  0  0  0  0  0  0  0  0  0  0  0  # atno 10718 bound_to 10713
  153.0693  135.6583  154.0284 H   0  0  0  0  0  0  0  0  0  0  0  0  # atno 10763 bound_to 10752
  153.9933  135.2944  155.3411 H   0  0  0  0  0  0  0  0  0  0  0  0  # atno 10764 bound_to 10752
  154.7062  135.5224  153.8668 H   0  0  0  0  0  0  0  0  0  0  0  0  # atno 10765 bound_to 10752
  140.6048  134.4910  157.5209 H   0  0  0  0  0  0  0  0  0  0  0  0  # atno 11005 bound_to 11000
  146.2595  139.6377  142.9372 LP  0  0  0  0  0  0  0  0  0  0  0  0  # atno 17320 bound_to 7965
  145.4936  141.0438  143.2579 LP  0  0  0  0  0  0  0  0  0  0  0  0  # atno 17321 bound_to 7965
  140.3759  144.2796  150.5914 LP  0  0  0  0  0  0  0  0  0  0  0  0  # atno 17342 bound_to 10162
  140.5277  143.2250  151.8289 LP  0  0  0  0  0  0  0  0  0  0  0  0  # atno 17343 bound_to 10162
  155.9688  130.4215  150.4472 LP  0  0  0  0  0  0  0  0  0  0  0  0  # atno 17370 bound_to 10713
  157.2492  131.0542  151.2389 LP  0  0  0  0  0  0  0  0  0  0  0  0  # atno 17371 bound_to 10713
  139.9217  134.8136  156.1192 LP  0  0  0  0  0  0  0  0  0  0  0  0  # atno 17394 bound_to 11000
  141.0848  133.6739  156.2412 LP  0  0  0  0  0  0  0  0  0  0  0  0  # atno 17395 bound_to 11000

$$$$
