AV-unprocessed.smi:47|AV-procd|sdf|433|dock7
  -GOLD-   2262016303D 1   1.00000     0.00000
 Structure written by MMmdl.
 32 34  0  0  0  0  0  0  0  0  2 V2000
  146.5562  140.0551  152.9810 O   0  0  0  0  0  0  0  0  0  0  0  0
  147.4184  141.0940  153.3931 C   0  0  1  0  0  0  0  0  0  0  0  0
  146.8860  141.8344  154.6252 C   0  0  0  0  0  0  0  0  0  0  0  0
  148.0733  142.3129  155.3620 N   0  3  0  0  0  0  0  0  0  0  0  0
  149.2744  141.7090  154.7472 C   0  0  1  0  0  0  0  0  0  0  0  0
  150.1399  141.2838  155.8961 C   0  0  0  0  0  0  0  0  0  0  0  0
  150.5155  140.0109  156.0595 N   0  0  0  0  0  0  0  0  0  0  0  0
  151.2735  139.9027  157.1716 N   0  0  0  0  0  0  0  0  0  0  0  0
  151.2910  141.1608  157.6080 C   0  0  0  0  0  0  0  0  0  0  0  0
  152.0181  141.5502  158.8391 C   0  0  0  0  0  0  0  0  0  0  0  0
  151.7982  142.8092  159.4496 C   0  0  0  0  0  0  0  0  0  0  0  0
  152.4876  143.1833  160.6194 C   0  0  0  0  0  0  0  0  0  0  0  0
  153.4142  142.3016  161.2033 C   0  0  0  0  0  0  0  0  0  0  0  0
  153.6471  141.0467  160.6137 C   0  0  0  0  0  0  0  0  0  0  0  0
  152.9553  140.6771  159.4439 C   0  0  0  0  0  0  0  0  0  0  0  0
  150.6032  142.0770  156.8611 N   0  0  0  0  0  0  0  0  0  0  0  0
  148.7722  140.5678  153.8597 C   0  0  0  0  0  0  0  0  0  0  0  0
  147.5604  141.7976  152.5713 H   0  0  0  0  0  0  0  0  0  0  0  0
  149.7789  142.4681  154.1473 H   0  0  0  0  0  0  0  0  0  0  0  0
  145.6625  140.3558  153.0501 H   0  0  0  0  0  0  0  0  0  0  0  0
  146.2172  142.6544  154.3625 H   0  0  0  0  0  0  0  0  0  0  0  0
  146.3414  141.1529  155.2806 H   0  0  0  0  0  0  0  0  0  0  0  0
  148.1368  143.3199  155.3244 H   0  0  0  0  0  0  0  0  0  0  0  0
  151.0920  143.5076  159.0253 H   0  0  0  0  0  0  0  0  0  0  0  0
  152.3044  144.1482  161.0687 H   0  0  0  0  0  0  0  0  0  0  0  0
  153.9439  142.5866  162.1006 H   0  0  0  0  0  0  0  0  0  0  0  0
  154.3572  140.3653  161.0582 H   0  0  0  0  0  0  0  0  0  0  0  0
  153.1560  139.7067  159.0140 H   0  0  0  0  0  0  0  0  0  0  0  0
  148.6254  139.6654  154.4569 H   0  0  0  0  0  0  0  0  0  0  0  0
  149.4545  140.3243  153.0449 H   0  0  0  0  0  0  0  0  0  0  0  0
  148.0054  142.0106  156.3237 H   0  0  0  0  0  0  0  0  0  0  0  0
  150.2893  139.2216  155.4705 H   0  0  0  0  0  0  0  0  0  0  0  0
  1  2  1  0  0  0  0
  1 20  1  0  0  0  0
  2 18  1  0  0  0  0
  2 17  1  0  0  0  0
  2  3  1  0  0  0  0
  3  4  1  0  0  0  0
  3 21  1  0  0  0  0
  3 22  1  0  0  0  0
  4  5  1  0  0  0  0
  4 23  1  0  0  0  0
  4 31  1  0  0  0  0
  5 19  1  0  0  0  0
  5  6  1  0  0  0  0
  5 17  1  0  0  0  0
  6 16  2  0  0  0  0
  6  7  1  0  0  0  0
  7  8  1  0  0  0  0
  7 32  1  0  0  0  0
  8  9  2  0  0  0  0
  9 10  1  0  0  0  0
  9 16  1  0  0  0  0
 10 15  1  0  0  0  0
 10 11  2  0  0  0  0
 11 12  1  0  0  0  0
 11 24  1  0  0  0  0
 12 13  2  0  0  0  0
 12 25  1  0  0  0  0
 13 14  1  0  0  0  0
 13 26  1  0  0  0  0
 14 15  2  0  0  0  0
 14 27  1  0  0  0  0
 15 28  1  0  0  0  0
 17 29  1  0  0  0  0
 17 30  1  0  0  0  0
M  CHG  1   4   1
M  END
> <s_m_source_file>
AV-unprocessed.smi

> <i_m_source_file_index>
47

> <i_lp_mmshare_version>
43012

> <i_f3d_flags>
0

> <s_epik_input>
W09IXVtDQEhdMVtDSDJdW05IXVtDQEBIXShbQ0gyXTEpYzJuW25IXWMobjIpLWMzW2NIXVtjSF1bY0hdW2NIXVtjSF0z

> <s_epik_cmdline>
J2VwaWtfcHl0aG9uJywgJy1waCcsICc3LjAnLCAnLXRuJywgJzgnLCAnLW1hJywgJzIwMCcsICctbWV0YWxfYmluZGluZycsICctaW1hZScsICc8aW5maWxlLm1hZT4nLCAnLW9tYWUnLCAnPG91dGZpbGUubWFlPic=

> <r_epik_Ionization_Penalty>
1.14296

> <r_epik_Ionization_Penalty_Charging>
0.0688988

> <r_epik_Ionization_Penalty_Neutral>
1.07406

> <r_epik_State_Penalty>
1.72347

> <r_epik_Charging_Adjusted_Penalty>
1.79237

> <i_epik_Tot_Q>
1

> <i_epik_Tot_abs_Q>
1

> <r_epik_Metal_State_Penalty>
2.22085

> <b_epik_Metal_Only>
0

> <s_lp_Force_Field>
OPLS_2005

> <r_lp_Energy>
30.8137

> <b_lp_Chiralities_Consistent>
1

> <s_lp_Variant>
AV-unprocessed.smi:47-11

> <Gold.Version>
5.8.1

> <Gold.Id.Protein>
6NUR|6NUR_protein|mol2

> <Gold.PLP.Fitness>
44.6810

> <Gold.PLP.PLP>
-35.9026

> <Gold.PLP.part.hbond>
-2.0000

> <Gold.PLP.part.metal>
0.0000

> <Gold.PLP.part.buried>
-4.0584

> <Gold.PLP.part.nonpolar>
-31.2479

> <Gold.PLP.part.repulsive>
0.2623

> <Gold.PLP.ligand.clash>
0.0000

> <Gold.PLP.ligand.torsion>
0.1174

> <Gold.PLP.Chemscore.Hbond>
3.0000

> <Gold.PLP.Chemscore.CHOScore>
0.0000

> <Gold.PLP.Chemscore.Metal>
0.0000

> <Gold.Chemscore.Hbonds>
donor molecule, donor type, donor heavy atom, donor atom, acceptor molecule, acceptor atom, score
      L1  H     1    20       P1 10175  0.93
      L1  H     4    23       P1  8028  2.00

> <Gold.PLP.Chemscore.Internal.Correction>
0.0133

> <Gold.Rescore>
     Score         DG    S(hbond)    S(metal)    S(lipo)     H(rot)  DE(clash)    DE(int)     intcor
     17.82     -18.40       1.87        0.00      89.74       1.50       0.57       0.01       ----

> <Gold.Chemscore.Fitness>
17.8152

> <Gold.Chemscore.DG>
-18.3967

> <Gold.Chemscore.ZeroCoef>
-5.4800

> <Gold.Chemscore.Hbond>
1.8709

> <Gold.Chemscore.Metal>
0.0000

> <Gold.Chemscore.Lipo>
89.7371

> <Gold.Chemscore.Internal_Hbond>
0.0000

> <Gold.Chemscore.DEClash>
0.5744

> <Gold.Chemscore.DEInternal>
0.0071

> <Gold.Chemscore.Rot>
1.4966

> <Gold.Chemscore.Internal.Correction>
   9.000000E+99

> <Gold.Chemscore.Hbonds>
donor molecule, donor type, donor heavy atom, donor atom, acceptor molecule, acceptor atom, score
      L1  H     1    20       P1 10175  0.82
      L1  H     4    23       P1  8028  0.82

> <Gold.Chemscore.Hbond.Weighted>
-6.2487

> <Gold.Chemscore.Metal.Weighted>
-0.0000

> <Gold.Chemscore.Lipo.Weighted>
-10.4992

> <Gold.Chemscore.Internal_Hbond.Weighted>
0.0000

> <Gold.Chemscore.DEClash.Weighted>
0.5744

> <Gold.Chemscore.DEInternal.Weighted>
0.0071

> <Gold.Chemscore.Rot.Weighted>
3.8312

> <Gold.Chemscore.Internal.Correction.Weighted>
   9.000000E+99

> <Gold.Protein.RotatedTorsions>
[ 6907 6896 6895 6894 ] final  -93.85 input  -60.11 | X-H torsion
[ 7974 7965 7964 7962 ] final   30.31 input  175.53 | X-H torsion
[ 8008 7997 7996 7995 ] final   94.52 input   59.86 | X-H torsion
[ 10167 10162 10161 10158 ] final   -2.13 input  -65.29 | X-H torsion
[ 10718 10713 10712 10709 ] final   -1.30 input   66.30 | X-H torsion
[ 10763 10752 10751 10750 ] final  152.01 input  -60.55 | X-H torsion
[ 11005 11000 10999 10996 ] final   44.24 input  -57.11 | X-H torsion

> <Gold.Protein.ActiveResidues>
 VAL166  LYS551  ARG553  GLY616  TRP617  ASP618  TYR619  PRO620  LYS621  CYS622 
 ASP623  PHE694  ASN695  SER759  ASP760  ASP761  ALA762  ILE779  LEU786  VAL792 
 PHE793  MET794  SER795  GLU796  ALA797  LYS798  CYS799  TRP800  GLU811  SER814 

> <Gold.Protein.RotatedAtoms>
  150.6930  134.1903  159.4282 H   0  0  0  0  0  0  0  0  0  0  0  0  # atno 6907 bound_to 6896
  151.9874  134.9994  160.0569 H   0  0  0  0  0  0  0  0  0  0  0  0  # atno 6908 bound_to 6896
  152.1699  133.4601  159.4940 H   0  0  0  0  0  0  0  0  0  0  0  0  # atno 6909 bound_to 6896
  146.1620  139.6806  142.9027 H   0  0  0  0  0  0  0  0  0  0  0  0  # atno 7974 bound_to 7965
  156.0588  140.3299  155.7437 H   0  0  0  0  0  0  0  0  0  0  0  0  # atno 8008 bound_to 7997
  155.5487  140.0608  157.2872 H   0  0  0  0  0  0  0  0  0  0  0  0  # atno 8009 bound_to 7997
  154.4471  140.1898  156.0653 H   0  0  0  0  0  0  0  0  0  0  0  0  # atno 8010 bound_to 7997
  140.6838  143.6693  150.8198 H   0  0  0  0  0  0  0  0  0  0  0  0  # atno 10167 bound_to 10162
  156.8076  130.5414  149.5713 H   0  0  0  0  0  0  0  0  0  0  0  0  # atno 10718 bound_to 10713
  154.1130  135.2838  155.3226 H   0  0  0  0  0  0  0  0  0  0  0  0  # atno 10763 bound_to 10752
  154.6476  135.5380  153.7867 H   0  0  0  0  0  0  0  0  0  0  0  0  # atno 10764 bound_to 10752
  153.0339  135.6502  154.1288 H   0  0  0  0  0  0  0  0  0  0  0  0  # atno 10765 bound_to 10752
  140.1570  134.4389  155.8343 H   0  0  0  0  0  0  0  0  0  0  0  0  # atno 11005 bound_to 11000
  145.4565  141.0431  143.2775 LP  0  0  0  0  0  0  0  0  0  0  0  0  # atno 17320 bound_to 7965
  144.8039  139.6087  143.7059 LP  0  0  0  0  0  0  0  0  0  0  0  0  # atno 17321 bound_to 7965
  140.0397  143.5358  152.2723 LP  0  0  0  0  0  0  0  0  0  0  0  0  # atno 17342 bound_to 10162
  139.6181  144.7623  151.2801 LP  0  0  0  0  0  0  0  0  0  0  0  0  # atno 17343 bound_to 10162
  156.1064  130.6007  150.9977 LP  0  0  0  0  0  0  0  0  0  0  0  0  # atno 17370 bound_to 10713
  157.6522  131.0895  150.8025 LP  0  0  0  0  0  0  0  0  0  0  0  0  # atno 17371 bound_to 10713
  141.2205  133.6897  156.7525 LP  0  0  0  0  0  0  0  0  0  0  0  0  # atno 17394 bound_to 11000
  140.2535  134.8522  157.3691 LP  0  0  0  0  0  0  0  0  0  0  0  0  # atno 17395 bound_to 11000

$$$$
