AV-unprocessed.smi:3253|AV-procd|sdf|12445|dock10
  -GOLD-   2272018343D 1   1.00000     0.00000
 Structure written by MMmdl.
 37 38  0  0  0  0  0  0  0  0  2 V2000
  150.4748  133.7156  156.2185 C   0  0  0  0  0  0  0  0  0  0  0  0
  149.2235  134.2593  155.5037 C   0  0  2  0  0  0  0  0  0  0  0  0
  148.6591  133.2864  154.4491 C   0  0  0  0  0  0  0  0  0  0  0  0
  147.2255  133.4721  154.2053 N   0  0  0  0  0  0  0  0  0  0  0  0
  146.6088  134.5604  153.6427 C   0  0  0  0  0  0  0  0  0  0  0  0
  145.2663  134.2818  153.6236 C   0  0  0  0  0  0  0  0  0  0  0  0
  145.1202  133.0381  154.1776 N   0  3  0  0  0  0  0  0  0  0  0  0
  146.3125  132.5488  154.5335 C   0  0  0  0  0  0  0  0  0  0  0  0
  149.5222  135.5373  154.8635 N   0  0  0  0  0  0  0  0  0  0  0  0
  150.1506  136.5702  155.4468 C   0  0  0  0  0  0  0  0  0  0  0  0
  150.5532  136.5452  156.6103 O   0  0  0  0  0  0  0  0  0  0  0  0
  150.3553  137.8251  154.5832 C   0  0  2  0  0  0  0  0  0  0  0  0
  151.8450  138.0414  154.2469 C   0  0  0  0  0  0  0  0  0  0  0  0
  152.2126  139.3101  154.9984 C   0  0  0  0  0  0  0  0  0  0  0  0
  153.3604  139.7498  155.0465 O   0  0  0  0  0  0  0  0  0  0  0  0
  151.1386  139.8471  155.5834 N   0  0  0  0  0  0  0  0  0  0  0  0
  151.1275  141.0555  156.3964 C   0  0  0  0  0  0  0  0  0  0  0  0
  149.9135  139.1172  155.3059 C   0  0  0  0  0  0  0  0  0  0  0  0
  150.2581  132.7948  156.7601 H   0  0  0  0  0  0  0  0  0  0  0  0
  150.8569  134.4318  156.9467 H   0  0  0  0  0  0  0  0  0  0  0  0
  151.2756  133.5046  155.5093 H   0  0  0  0  0  0  0  0  0  0  0  0
  148.4473  134.4218  156.2539 H   0  0  0  0  0  0  0  0  0  0  0  0
  149.1758  133.4103  153.4959 H   0  0  0  0  0  0  0  0  0  0  0  0
  148.8130  132.2521  154.7604 H   0  0  0  0  0  0  0  0  0  0  0  0
  147.1561  135.4283  153.3040 H   0  0  0  0  0  0  0  0  0  0  0  0
  144.4262  134.8603  153.2673 H   0  0  0  0  0  0  0  0  0  0  0  0
  146.5006  131.5943  154.9923 H   0  0  0  0  0  0  0  0  0  0  0  0
  149.2291  135.6461  153.9033 H   0  0  0  0  0  0  0  0  0  0  0  0
  149.7843  137.7165  153.6592 H   0  0  0  0  0  0  0  0  0  0  0  0
  152.4896  137.2162  154.5548 H   0  0  0  0  0  0  0  0  0  0  0  0
  151.9877  138.1989  153.1774 H   0  0  0  0  0  0  0  0  0  0  0  0
  151.5161  141.9026  155.8302 H   0  0  0  0  0  0  0  0  0  0  0  0
  151.7462  140.9226  157.2844 H   0  0  0  0  0  0  0  0  0  0  0  0
  150.1162  141.3009  156.7214 H   0  0  0  0  0  0  0  0  0  0  0  0
  149.2719  139.7211  154.6628 H   0  0  0  0  0  0  0  0  0  0  0  0
  149.3655  138.9263  156.2305 H   0  0  0  0  0  0  0  0  0  0  0  0
  144.2386  132.5561  154.3018 H   0  0  0  0  0  0  0  0  0  0  0  0
  1  2  1  0  0  0  0
  1 19  1  0  0  0  0
  1 20  1  0  0  0  0
  1 21  1  0  0  0  0
  2  3  1  0  0  0  0
  2  9  1  0  0  0  0
  2 22  1  0  0  0  0
  3  4  1  0  0  0  0
  3 23  1  0  0  0  0
  3 24  1  0  0  0  0
  4  8  1  0  0  0  0
  4  5  1  0  0  0  0
  5  6  2  0  0  0  0
  5 25  1  0  0  0  0
  6  7  1  0  0  0  0
  6 26  1  0  0  0  0
  7  8  2  0  0  0  0
  7 37  1  0  0  0  0
  8 27  1  0  0  0  0
  9 10  1  0  0  0  0
  9 28  1  0  0  0  0
 10 11  2  0  0  0  0
 10 12  1  0  0  0  0
 12 18  1  0  0  0  0
 12 13  1  0  0  0  0
 12 29  1  0  0  0  0
 13 14  1  0  0  0  0
 13 30  1  0  0  0  0
 13 31  1  0  0  0  0
 14 15  2  0  0  0  0
 14 16  1  0  0  0  0
 16 17  1  0  0  0  0
 16 18  1  0  0  0  0
 17 32  1  0  0  0  0
 17 33  1  0  0  0  0
 17 34  1  0  0  0  0
 18 35  1  0  0  0  0
 18 36  1  0  0  0  0
M  CHG  1   7   1
M  END
> <s_m_source_file>
AV-unprocessed.smi

> <i_m_source_file_index>
3253

> <i_lp_mmshare_version>
43012

> <i_f3d_flags>
0

> <s_epik_input>
W2NIXTFuW2NIXVtjSF1uMVtDSDJdW0NAQEhdKFtDSDNdKVtOSF1DKD1PKVtDQEBIXTJbQ0gyXUMoPU8pTihbQ0gzXSlbQ0gyXTI=

> <s_epik_cmdline>
J2VwaWtfcHl0aG9uJywgJy1waCcsICc3LjAnLCAnLXRuJywgJzgnLCAnLW1hJywgJzIwMCcsICctbWV0YWxfYmluZGluZycsICctaW1hZScsICc8aW5maWxlLm1hZT4nLCAnLW9tYWUnLCAnPG91dGZpbGUubWFlPic=

> <r_lp_tautomer_probability>
1

> <r_epik_Ionization_Penalty>
0.251561

> <r_epik_Ionization_Penalty_Charging>
0

> <r_epik_Ionization_Penalty_Neutral>
0.251561

> <r_epik_State_Penalty>
0.242926

> <r_epik_Charging_Adjusted_Penalty>
0.242926

> <i_epik_Tot_Q>
1

> <i_epik_Tot_abs_Q>
1

> <r_epik_Metal_State_Penalty>
0.533885

> <b_epik_Metal_Only>
0

> <s_lp_Force_Field>
OPLS_2005

> <r_lp_Energy>
15.657

> <b_lp_Chiralities_Consistent>
1

> <s_lp_Variant>
AV-unprocessed.smi:3253-1

> <Gold.Version>
5.8.1

> <Gold.Id.Protein>
6NUR|6NUR_protein|mol2

> <Gold.PLP.Fitness>
42.9402

> <Gold.PLP.PLP>
-29.0646

> <Gold.PLP.part.hbond>
-3.6638

> <Gold.PLP.part.metal>
0.0000

> <Gold.PLP.part.buried>
-1.3212

> <Gold.PLP.part.nonpolar>
-23.9341

> <Gold.PLP.part.repulsive>
0.0710

> <Gold.PLP.ligand.clash>
0.0000

> <Gold.PLP.ligand.torsion>
0.5744

> <Gold.PLP.Chemscore.Hbond>
4.0000

> <Gold.PLP.Chemscore.CHOScore>
1.0000

> <Gold.PLP.Chemscore.Metal>
0.0000

> <Gold.Chemscore.Hbonds>
donor molecule, donor type, donor heavy atom, donor atom, acceptor molecule, acceptor atom, score
      L1  H     7    37       P1 10957  2.00
      L1  H     9    28       P1  7948  0.80
      P1  H  7997  8009       L1    15  0.80
      L1  C     5    25       P1  7948  1.00

> <Gold.PLP.Chemscore.Internal.Correction>
0.0243

> <Gold.Rescore>
     Score         DG    S(hbond)    S(metal)    S(lipo)     H(rot)  DE(clash)    DE(int)     intcor
     14.24     -14.89       2.87        0.00      42.85       2.03       0.03       0.62       ----

> <Gold.Chemscore.Fitness>
14.2441

> <Gold.Chemscore.DG>
-14.8879

> <Gold.Chemscore.ZeroCoef>
-5.4800

> <Gold.Chemscore.Hbond>
2.8747

> <Gold.Chemscore.Metal>
0.0000

> <Gold.Chemscore.Lipo>
42.8514

> <Gold.Chemscore.Internal_Hbond>
0.0000

> <Gold.Chemscore.DEClash>
0.0285

> <Gold.Chemscore.DEInternal>
0.6153

> <Gold.Chemscore.Rot>
2.0341

> <Gold.Chemscore.Internal.Correction>
   9.000000E+99

> <Gold.Chemscore.Hbonds>
donor molecule, donor type, donor heavy atom, donor atom, acceptor molecule, acceptor atom, score
      L1  H     7    37       P1 10957  0.85
      L1  H     9    28       P1  7948  0.55
      P1  H  7997  8009       L1    15  0.79

> <Gold.Chemscore.Hbond.Weighted>
-9.6015

> <Gold.Chemscore.Metal.Weighted>
-0.0000

> <Gold.Chemscore.Lipo.Weighted>
-5.0136

> <Gold.Chemscore.Internal_Hbond.Weighted>
0.0000

> <Gold.Chemscore.DEClash.Weighted>
0.0285

> <Gold.Chemscore.DEInternal.Weighted>
0.6153

> <Gold.Chemscore.Rot.Weighted>
5.2072

> <Gold.Chemscore.Internal.Correction.Weighted>
   9.000000E+99

> <Gold.Protein.RotatedTorsions>
[ 6907 6896 6895 6894 ] final  -32.83 input  -60.11 | X-H torsion
[ 7974 7965 7964 7962 ] final -113.43 input  175.53 | X-H torsion
[ 8008 7997 7996 7995 ] final -137.82 input   59.86 | X-H torsion
[ 10167 10162 10161 10158 ] final  162.93 input  -65.29 | X-H torsion
[ 10718 10713 10712 10709 ] final  158.93 input   66.30 | X-H torsion
[ 10763 10752 10751 10750 ] final  162.35 input  -60.55 | X-H torsion
[ 11005 11000 10999 10996 ] final  136.48 input  -57.11 | X-H torsion

> <Gold.Protein.ActiveResidues>
 VAL166  LYS551  ARG553  GLY616  TRP617  ASP618  TYR619  PRO620  LYS621  CYS622 
 ASP623  PHE694  ASN695  SER759  ASP760  ASP761  ALA762  ILE779  LEU786  VAL792 
 PHE793  MET794  SER795  GLU796  ALA797  LYS798  CYS799  TRP800  GLU811  SER814 

> <Gold.Protein.RotatedAtoms>
  151.0736  134.9814  159.8320 H   0  0  0  0  0  0  0  0  0  0  0  0  # atno 6907 bound_to 6896
  152.5411  134.2269  159.8819 H   0  0  0  0  0  0  0  0  0  0  0  0  # atno 6908 bound_to 6896
  151.2295  133.4414  159.2637 H   0  0  0  0  0  0  0  0  0  0  0  0  # atno 6909 bound_to 6896
  145.1321  140.8730  143.3752 H   0  0  0  0  0  0  0  0  0  0  0  0  # atno 7974 bound_to 7965
  155.4182  140.0517  157.3027 H   0  0  0  0  0  0  0  0  0  0  0  0  # atno 8008 bound_to 7997
  154.4915  140.2122  155.9498 H   0  0  0  0  0  0  0  0  0  0  0  0  # atno 8009 bound_to 7997
  156.1348  140.3165  155.8409 H   0  0  0  0  0  0  0  0  0  0  0  0  # atno 8010 bound_to 7997
  139.4867  144.4388  151.8978 H   0  0  0  0  0  0  0  0  0  0  0  0  # atno 10167 bound_to 10162
  157.1711  131.0610  151.2182 H   0  0  0  0  0  0  0  0  0  0  0  0  # atno 10718 bound_to 10713
  154.2771  135.2764  155.2713 H   0  0  0  0  0  0  0  0  0  0  0  0  # atno 10763 bound_to 10752
  154.5251  135.5745  153.6716 H   0  0  0  0  0  0  0  0  0  0  0  0  # atno 10764 bound_to 10752
  152.9935  135.6214  154.2928 H   0  0  0  0  0  0  0  0  0  0  0  0  # atno 10765 bound_to 10752
  140.0049  134.9463  157.0153 H   0  0  0  0  0  0  0  0  0  0  0  0  # atno 11005 bound_to 11000
  145.0624  139.3095  143.5873 LP  0  0  0  0  0  0  0  0  0  0  0  0  # atno 17320 bound_to 7965
  146.3513  140.0071  142.8670 LP  0  0  0  0  0  0  0  0  0  0  0  0  # atno 17321 bound_to 7965
  140.3839  144.2702  150.5906 LP  0  0  0  0  0  0  0  0  0  0  0  0  # atno 17342 bound_to 10162
  140.5208  143.2266  151.8391 LP  0  0  0  0  0  0  0  0  0  0  0  0  # atno 17343 bound_to 10162
  157.4042  130.7350  149.6790 LP  0  0  0  0  0  0  0  0  0  0  0  0  # atno 17370 bound_to 10713
  155.9738  130.4112  150.3972 LP  0  0  0  0  0  0  0  0  0  0  0  0  # atno 17371 bound_to 10713
  140.4659  134.1436  155.7197 LP  0  0  0  0  0  0  0  0  0  0  0  0  # atno 17394 bound_to 11000
  141.1669  133.8684  157.1686 LP  0  0  0  0  0  0  0  0  0  0  0  0  # atno 17395 bound_to 11000

$$$$
