AV-unprocessed.smi:1047|AV-procd|sdf|4594|dock9
  -GOLD-   22720 3 73D 1   1.00000     0.00000
 Structure written by MMmdl.
 55 57  0  0  0  0  0  0  0  0  1 V2000
  145.9965  136.7169  162.2736 C   0  0  0  0  0  0  0  0  0  0  0  0
  145.7490  136.7868  160.7598 C   0  0  0  0  0  0  0  0  0  0  0  0
  146.9186  137.1469  159.9607 N   0  0  0  0  0  0  0  0  0  0  0  0
  148.0114  136.1870  160.1008 C   0  0  0  0  0  0  0  0  0  0  0  0
  149.2194  136.5603  159.2243 C   0  0  0  0  0  0  0  0  0  0  0  0
  148.8022  136.6769  157.8685 O   0  0  0  0  0  0  0  0  0  0  0  0
  147.7859  137.6604  157.6868 C   0  0  1  0  0  0  0  0  0  0  0  0
  147.4380  137.7321  156.1938 C   0  0  0  0  0  0  0  0  0  0  0  0
  148.5599  138.2818  155.4466 N   0  0  0  0  0  0  0  0  0  0  0  0
  148.2522  139.4662  154.6526 C   0  0  0  0  0  0  0  0  0  0  0  0
  149.4950  140.3655  154.4779 C   0  0  1  0  0  0  0  0  0  0  0  0
  149.3158  141.1272  153.3027 O   0  0  0  0  0  0  0  0  0  0  0  0
  149.7596  141.3646  155.6312 C   0  0  0  0  0  0  0  0  0  0  0  0
  150.8589  140.9779  156.4995 N   0  0  0  0  0  0  0  0  0  0  0  0
  151.7121  139.9512  156.3175 C   0  0  0  0  0  0  0  0  0  0  0  0
  152.6754  139.7908  157.2201 N   0  0  0  0  0  0  0  0  0  0  0  0
  152.4141  140.8322  158.0937 C   0  0  0  0  0  0  0  0  0  0  0  0
  153.0881  141.2329  159.2679 C   0  0  0  0  0  0  0  0  0  0  0  0
  152.6441  142.3482  160.0133 C   0  0  0  0  0  0  0  0  0  0  0  0
  153.4026  142.7481  161.2666 C   0  0  0  0  0  0  0  0  0  0  0  0
  151.5042  143.0775  159.5900 C   0  0  0  0  0  0  0  0  0  0  0  0
  151.0076  144.2781  160.3759 C   0  0  0  0  0  0  0  0  0  0  0  0
  150.8186  142.6899  158.4196 C   0  0  0  0  0  0  0  0  0  0  0  0
  151.2751  141.5840  157.6811 C   0  0  0  0  0  0  0  0  0  0  0  0
  146.5707  137.2675  158.5486 C   0  0  0  0  0  0  0  0  0  0  0  0
  145.0602  136.5500  162.8064 H   0  0  0  0  0  0  0  0  0  0  0  0
  146.4273  137.6473  162.6451 H   0  0  0  0  0  0  0  0  0  0  0  0
  146.6694  135.9020  162.5400 H   0  0  0  0  0  0  0  0  0  0  0  0
  145.3400  135.8366  160.4128 H   0  0  0  0  0  0  0  0  0  0  0  0
  144.9668  137.5287  160.5918 H   0  0  0  0  0  0  0  0  0  0  0  0
  148.3377  136.1325  161.1389 H   0  0  0  0  0  0  0  0  0  0  0  0
  147.6641  135.1891  159.8279 H   0  0  0  0  0  0  0  0  0  0  0  0
  149.6660  137.4987  159.5575 H   0  0  0  0  0  0  0  0  0  0  0  0
  149.9920  135.7948  159.2958 H   0  0  0  0  0  0  0  0  0  0  0  0
  148.1575  138.6334  158.0167 H   0  0  0  0  0  0  0  0  0  0  0  0
  147.1704  136.7443  155.8170 H   0  0  0  0  0  0  0  0  0  0  0  0
  146.5645  138.3709  156.0581 H   0  0  0  0  0  0  0  0  0  0  0  0
  148.9650  137.5617  154.8562 H   0  0  0  0  0  0  0  0  0  0  0  0
  147.8956  139.1486  153.6716 H   0  0  0  0  0  0  0  0  0  0  0  0
  147.4408  140.0340  155.1098 H   0  0  0  0  0  0  0  0  0  0  0  0
  150.3743  139.7397  154.3219 H   0  0  0  0  0  0  0  0  0  0  0  0
  149.2050  140.5343  152.5753 H   0  0  0  0  0  0  0  0  0  0  0  0
  149.9772  142.3549  155.2289 H   0  0  0  0  0  0  0  0  0  0  0  0
  148.8641  141.4695  156.2459 H   0  0  0  0  0  0  0  0  0  0  0  0
  151.6321  139.2931  155.4646 H   0  0  0  0  0  0  0  0  0  0  0  0
  153.9557  140.6764  159.5904 H   0  0  0  0  0  0  0  0  0  0  0  0
  152.7633  142.6519  162.1445 H   0  0  0  0  0  0  0  0  0  0  0  0
  153.7420  143.7820  161.1960 H   0  0  0  0  0  0  0  0  0  0  0  0
  154.2804  142.1193  161.4195 H   0  0  0  0  0  0  0  0  0  0  0  0
  150.1101  144.7041  159.9263 H   0  0  0  0  0  0  0  0  0  0  0  0
  151.7695  145.0574  160.4049 H   0  0  0  0  0  0  0  0  0  0  0  0
  150.7651  143.9912  161.3993 H   0  0  0  0  0  0  0  0  0  0  0  0
  149.9530  143.2405  158.0831 H   0  0  0  0  0  0  0  0  0  0  0  0
  146.1584  136.3239  158.1870 H   0  0  0  0  0  0  0  0  0  0  0  0
  145.7874  138.0167  158.4267 H   0  0  0  0  0  0  0  0  0  0  0  0
  1  2  1  0  0  0  0
  1 26  1  0  0  0  0
  1 27  1  0  0  0  0
  1 28  1  0  0  0  0
  2  3  1  0  0  0  0
  2 29  1  0  0  0  0
  2 30  1  0  0  0  0
  3 25  1  0  0  0  0
  3  4  1  0  0  0  0
  4  5  1  0  0  0  0
  4 31  1  0  0  0  0
  4 32  1  0  0  0  0
  5  6  1  0  0  0  0
  5 33  1  0  0  0  0
  5 34  1  0  0  0  0
  6  7  1  0  0  0  0
  7  8  1  0  0  0  0
  7 25  1  0  0  0  0
  7 35  1  0  0  0  0
  8  9  1  0  0  0  0
  8 36  1  0  0  0  0
  8 37  1  0  0  0  0
  9 10  1  0  0  0  0
  9 38  1  0  0  0  0
 10 11  1  0  0  0  0
 10 39  1  0  0  0  0
 10 40  1  0  0  0  0
 11 12  1  0  0  0  0
 11 13  1  0  0  0  0
 11 41  1  0  0  0  0
 12 42  1  0  0  0  0
 13 14  1  0  0  0  0
 13 43  1  0  0  0  0
 13 44  1  0  0  0  0
 14 24  1  0  0  0  0
 14 15  1  0  0  0  0
 15 16  2  0  0  0  0
 15 45  1  0  0  0  0
 16 17  1  0  0  0  0
 17 24  2  0  0  0  0
 17 18  1  0  0  0  0
 18 19  2  0  0  0  0
 18 46  1  0  0  0  0
 19 20  1  0  0  0  0
 19 21  1  0  0  0  0
 20 47  1  0  0  0  0
 20 48  1  0  0  0  0
 20 49  1  0  0  0  0
 21 22  1  0  0  0  0
 21 23  2  0  0  0  0
 22 50  1  0  0  0  0
 22 51  1  0  0  0  0
 22 52  1  0  0  0  0
 23 24  1  0  0  0  0
 23 53  1  0  0  0  0
 25 54  1  0  0  0  0
 25 55  1  0  0  0  0
M  END
> <s_m_source_file>
AV-unprocessed.smi

> <i_m_source_file_index>
1047

> <i_lp_mmshare_version>
43012

> <i_f3d_flags>
0

> <s_epik_input>
W0NIM11bQ0gyXU4xW0NIMl1bQ0gyXU9bQ0BIXShbQ0gyXTEpW0NIMl1bTkhdW0NIMl1bQ0BIXShbT0hdKVtDSDJdbihbY0hdbjIpYyhjMjMpW2NIXWMoW0NIM10pYyhbY0hdMylbQ0gzXQ==

> <s_epik_cmdline>
J2VwaWtfcHl0aG9uJywgJy1waCcsICc3LjAnLCAnLXRuJywgJzgnLCAnLW1hJywgJzIwMCcsICctbWV0YWxfYmluZGluZycsICctaW1hZScsICc8aW5maWxlLm1hZT4nLCAnLW9tYWUnLCAnPG91dGZpbGUubWFlPic=

> <r_epik_Ionization_Penalty>
2.74124

> <r_epik_Ionization_Penalty_Charging>
0

> <r_epik_Ionization_Penalty_Neutral>
2.74124

> <r_epik_State_Penalty>
2.37482

> <r_epik_Charging_Adjusted_Penalty>
2.37482

> <i_epik_Tot_Q>
0

> <i_epik_Tot_abs_Q>
0

> <r_epik_Metal_State_Penalty>
2.25944

> <b_epik_Metal_Only>
0

> <s_lp_Force_Field>
OPLS_2005

> <r_lp_Energy>
29.9902

> <b_lp_Chiralities_Consistent>
1

> <s_lp_Variant>
AV-unprocessed.smi:1047-35

> <Gold.Version>
5.8.1

> <Gold.Id.Protein>
6NUR|6NUR_protein|mol2

> <Gold.PLP.Fitness>
52.0720

> <Gold.PLP.PLP>
-43.5407

> <Gold.PLP.part.hbond>
-4.3062

> <Gold.PLP.part.metal>
0.0000

> <Gold.PLP.part.buried>
-7.1539

> <Gold.PLP.part.nonpolar>
-32.6926

> <Gold.PLP.part.repulsive>
0.0000

> <Gold.PLP.ligand.clash>
0.0000

> <Gold.PLP.ligand.torsion>
1.5308

> <Gold.PLP.Chemscore.Hbond>
3.8143

> <Gold.PLP.Chemscore.CHOScore>
0.0000

> <Gold.PLP.Chemscore.Metal>
0.0000

> <Gold.Chemscore.Hbonds>
donor molecule, donor type, donor heavy atom, donor atom, acceptor molecule, acceptor atom, score
      L1  H    12    42       P1  7957  1.00
      P1  H  6934  6947       L1     3  0.55
      P1  H  7997  8009       L1    16  1.00
      P1  H  8011  8017       L1    12  0.70

> <Gold.PLP.Chemscore.Internal.Correction>
0.1500

> <Gold.Rescore>
     Score         DG    S(hbond)    S(metal)    S(lipo)     H(rot)  DE(clash)    DE(int)     intcor
     18.26     -19.78       2.22        0.00     114.05       2.52       0.03       1.49       ----

> <Gold.Chemscore.Fitness>
18.2606

> <Gold.Chemscore.DG>
-19.7795

> <Gold.Chemscore.ZeroCoef>
-5.4800

> <Gold.Chemscore.Hbond>
2.2204

> <Gold.Chemscore.Metal>
0.0000

> <Gold.Chemscore.Lipo>
114.0522

> <Gold.Chemscore.Internal_Hbond>
0.0000

> <Gold.Chemscore.DEClash>
0.0309

> <Gold.Chemscore.DEInternal>
1.4879

> <Gold.Chemscore.Rot>
2.5237

> <Gold.Chemscore.Internal.Correction>
   9.000000E+99

> <Gold.Chemscore.Hbonds>
donor molecule, donor type, donor heavy atom, donor atom, acceptor molecule, acceptor atom, score
      L1  H    12    42       P1  7957  0.90
      P1  H  6934  6947       L1     3  0.04
      P1  H  7997  8009       L1    16  0.44
      P1  H  8011  8017       L1    12  0.07

> <Gold.Chemscore.Hbond.Weighted>
-7.4160

> <Gold.Chemscore.Metal.Weighted>
-0.0000

> <Gold.Chemscore.Lipo.Weighted>
-13.3441

> <Gold.Chemscore.Internal_Hbond.Weighted>
0.0000

> <Gold.Chemscore.DEClash.Weighted>
0.0309

> <Gold.Chemscore.DEInternal.Weighted>
1.4879

> <Gold.Chemscore.Rot.Weighted>
6.4607

> <Gold.Chemscore.Internal.Correction.Weighted>
   9.000000E+99

> <Gold.Protein.RotatedTorsions>
[ 6907 6896 6895 6894 ] final   52.40 input  -60.11 | X-H torsion
[ 7974 7965 7964 7962 ] final  -64.46 input  175.53 | X-H torsion
[ 8008 7997 7996 7995 ] final -175.88 input   59.86 | X-H torsion
[ 10167 10162 10161 10158 ] final -142.94 input  -65.29 | X-H torsion
[ 10718 10713 10712 10709 ] final  -70.26 input   66.30 | X-H torsion
[ 10763 10752 10751 10750 ] final  161.34 input  -60.55 | X-H torsion
[ 11005 11000 10999 10996 ] final  -42.98 input  -57.11 | X-H torsion

> <Gold.Protein.ActiveResidues>
 VAL166  LYS551  ARG553  GLY616  TRP617  ASP618  TYR619  PRO620  LYS621  CYS622 
 ASP623  PHE694  ASN695  SER759  ASP760  ASP761  ALA762  ILE779  LEU786  VAL792 
 PHE793  MET794  SER795  GLU796  ALA797  LYS798  CYS799  TRP800  GLU811  SER814 

> <Gold.Protein.RotatedAtoms>
  152.3229  134.7358  160.0308 H   0  0  0  0  0  0  0  0  0  0  0  0  # atno 6907 bound_to 6896
  151.7800  133.3343  159.3477 H   0  0  0  0  0  0  0  0  0  0  0  0  # atno 6908 bound_to 6896
  150.7380  134.5871  159.6013 H   0  0  0  0  0  0  0  0  0  0  0  0  # atno 6909 bound_to 6896
  145.7664  140.8835  143.0403 H   0  0  0  0  0  0  0  0  0  0  0  0  # atno 7974 bound_to 7965
  155.9880  140.1195  157.0665 H   0  0  0  0  0  0  0  0  0  0  0  0  # atno 8008 bound_to 7997
  154.4202  140.1131  156.5594 H   0  0  0  0  0  0  0  0  0  0  0  0  # atno 8009 bound_to 7997
  155.6382  140.3473  155.4708 H   0  0  0  0  0  0  0  0  0  0  0  0  # atno 8010 bound_to 7997
  139.8040  143.7794  152.2660 H   0  0  0  0  0  0  0  0  0  0  0  0  # atno 10167 bound_to 10162
  156.0416  130.4328  150.2269 H   0  0  0  0  0  0  0  0  0  0  0  0  # atno 10718 bound_to 10713
  154.2614  135.2768  155.2776 H   0  0  0  0  0  0  0  0  0  0  0  0  # atno 10763 bound_to 10752
  154.5381  135.5710  153.6819 H   0  0  0  0  0  0  0  0  0  0  0  0  # atno 10764 bound_to 10752
  152.9961  135.6244  154.2764 H   0  0  0  0  0  0  0  0  0  0  0  0  # atno 10765 bound_to 10752
  141.0353  133.6802  156.2670 H   0  0  0  0  0  0  0  0  0  0  0  0  # atno 11005 bound_to 11000
  144.6820  139.9795  143.7483 LP  0  0  0  0  0  0  0  0  0  0  0  0  # atno 17320 bound_to 7965
  146.0213  139.3253  143.0811 LP  0  0  0  0  0  0  0  0  0  0  0  0  # atno 17321 bound_to 7965
  139.7923  144.7406  150.9938 LP  0  0  0  0  0  0  0  0  0  0  0  0  # atno 17342 bound_to 10162
  140.7819  143.4430  151.0524 LP  0  0  0  0  0  0  0  0  0  0  0  0  # atno 17343 bound_to 10162
  157.0364  131.0022  151.3297 LP  0  0  0  0  0  0  0  0  0  0  0  0  # atno 17370 bound_to 10713
  157.5241  130.8016  149.7842 LP  0  0  0  0  0  0  0  0  0  0  0  0  # atno 17371 bound_to 10713
  140.6334  134.5241  157.5562 LP  0  0  0  0  0  0  0  0  0  0  0  0  # atno 17394 bound_to 11000
  139.9236  134.8100  156.1136 LP  0  0  0  0  0  0  0  0  0  0  0  0  # atno 17395 bound_to 11000

$$$$
