AV-unprocessed.smi:287|AV-procd|sdf|2177|dock5
  -GOLD-   2262021543D 1   1.00000     0.00000
 Structure written by MMmdl.
 55 58  0  0  0  0  0  0  0  0  1 V2000
  155.8344  130.5896  155.1349 C   0  0  0  0  0  0  0  0  0  0  0  0
  154.3780  130.5138  155.4412 C   0  0  0  0  0  0  0  0  0  0  0  0
  153.5152  131.3149  156.1306 C   0  0  0  0  0  0  0  0  0  0  0  0
  152.2299  130.6959  156.0856 C   0  0  0  0  0  0  0  0  0  0  0  0
  150.9515  131.2286  156.7188 C   0  0  1  0  0  0  0  0  0  0  0  0
  150.4205  130.2166  157.7468 C   0  0  0  0  0  0  0  0  0  0  0  0
  151.1586  132.4275  157.4408 O   0  0  0  0  0  0  0  0  0  0  0  0
  149.8571  131.5479  155.6743 C   0  0  0  0  0  0  0  0  0  0  0  0
  149.1975  130.3522  155.1593 N   0  0  0  0  0  0  0  0  0  0  0  0
  148.2753  130.4533  154.1798 C   0  0  0  0  0  0  0  0  0  0  0  0
  147.6380  129.3528  153.7010 N   0  0  0  0  0  0  0  0  0  0  0  0
  146.7270  129.4774  152.7306 C   0  0  0  0  0  0  0  0  0  0  0  0
  146.3109  130.5858  152.1129 N   0  0  0  0  0  0  0  0  0  0  0  0
  146.9493  131.6919  152.5938 C   0  0  0  0  0  0  0  0  0  0  0  0
  147.9361  131.7105  153.6172 C   0  0  0  0  0  0  0  0  0  0  0  0
  148.3568  133.0152  153.8405 N   0  0  0  0  0  0  0  0  0  0  0  0
  147.6517  133.7235  152.9989 C   0  0  0  0  0  0  0  0  0  0  0  0
  146.7751  133.0040  152.2138 N   0  0  0  0  0  0  0  0  0  0  0  0
  145.8231  133.4859  151.1674 C   0  0  2  0  0  0  0  0  0  0  0  0
  146.1367  134.8195  150.8835 O   0  0  0  0  0  0  0  0  0  0  0  0
  145.0463  135.6835  151.2039 C   0  0  2  0  0  0  0  0  0  0  0  0
  145.5736  137.0224  151.7428 C   0  0  0  0  0  0  0  0  0  0  0  0
  146.3113  137.6902  150.7422 O   0  0  0  0  0  0  0  0  0  0  0  0
  144.2456  134.8853  152.2329 C   0  0  1  0  0  0  0  0  0  0  0  0
  142.8941  135.2903  152.3340 O   0  0  0  0  0  0  0  0  0  0  0  0
  144.3960  133.4585  151.7289 C   0  0  1  0  0  0  0  0  0  0  0  0
  143.4626  133.1185  150.7195 O   0  0  0  0  0  0  0  0  0  0  0  0
  152.4161  129.5576  155.3386 C   0  0  0  0  0  0  0  0  0  0  0  0
  151.5131  128.4627  154.8747 C   0  0  0  0  0  0  0  0  0  0  0  0
  153.7163  129.4359  154.9507 O   0  0  0  0  0  0  0  0  0  0  0  0
  145.9952  132.8274  150.3150 H   0  0  0  0  0  0  0  0  0  0  0  0
  144.4404  135.8295  150.3073 H   0  0  0  0  0  0  0  0  0  0  0  0
  144.7172  134.9709  153.2134 H   0  0  0  0  0  0  0  0  0  0  0  0
  144.3000  132.7298  152.5352 H   0  0  0  0  0  0  0  0  0  0  0  0
  156.3019  131.4162  155.6702 H   0  0  0  0  0  0  0  0  0  0  0  0
  155.9971  130.7424  154.0680 H   0  0  0  0  0  0  0  0  0  0  0  0
  156.3401  129.6694  155.4281 H   0  0  0  0  0  0  0  0  0  0  0  0
  153.7778  132.2403  156.6213 H   0  0  0  0  0  0  0  0  0  0  0  0
  150.1977  129.2577  157.2775 H   0  0  0  0  0  0  0  0  0  0  0  0
  149.5031  130.5702  158.2194 H   0  0  0  0  0  0  0  0  0  0  0  0
  151.1502  130.0332  158.5369 H   0  0  0  0  0  0  0  0  0  0  0  0
  151.7335  132.9842  156.9385 H   0  0  0  0  0  0  0  0  0  0  0  0
  149.0898  132.1612  156.1492 H   0  0  0  0  0  0  0  0  0  0  0  0
  150.2644  132.1398  154.8531 H   0  0  0  0  0  0  0  0  0  0  0  0
  149.4697  129.4767  155.5835 H   0  0  0  0  0  0  0  0  0  0  0  0
  146.2641  128.5578  152.4042 H   0  0  0  0  0  0  0  0  0  0  0  0
  147.7543  134.7965  152.9341 H   0  0  0  0  0  0  0  0  0  0  0  0
  144.7404  137.6689  152.0197 H   0  0  0  0  0  0  0  0  0  0  0  0
  146.1837  136.8819  152.6352 H   0  0  0  0  0  0  0  0  0  0  0  0
  145.7080  138.1631  150.1896 H   0  0  0  0  0  0  0  0  0  0  0  0
  142.8506  136.2204  152.1694 H   0  0  0  0  0  0  0  0  0  0  0  0
  142.8123  133.8027  150.6710 H   0  0  0  0  0  0  0  0  0  0  0  0
  150.6103  128.8713  154.4212 H   0  0  0  0  0  0  0  0  0  0  0  0
  151.2165  127.8274  155.7091 H   0  0  0  0  0  0  0  0  0  0  0  0
  152.0040  127.8346  154.1311 H   0  0  0  0  0  0  0  0  0  0  0  0
  1  2  1  0  0  0  0
  1 35  1  0  0  0  0
  1 36  1  0  0  0  0
  1 37  1  0  0  0  0
  2 30  1  0  0  0  0
  2  3  2  0  0  0  0
  3  4  1  0  0  0  0
  3 38  1  0  0  0  0
  4  5  1  0  0  0  0
  4 28  2  0  0  0  0
  5  6  1  0  0  0  0
  5  7  1  0  0  0  0
  5  8  1  0  0  0  0
  6 39  1  0  0  0  0
  6 40  1  0  0  0  0
  6 41  1  0  0  0  0
  7 42  1  0  0  0  0
  8  9  1  0  0  0  0
  8 43  1  0  0  0  0
  8 44  1  0  0  0  0
  9 10  1  0  0  0  0
  9 45  1  0  0  0  0
 10 15  1  0  0  0  0
 10 11  2  0  0  0  0
 11 12  1  0  0  0  0
 12 13  2  0  0  0  0
 12 46  1  0  0  0  0
 13 14  1  0  0  0  0
 14 18  1  0  0  0  0
 14 15  2  0  0  0  0
 15 16  1  0  0  0  0
 16 17  2  0  0  0  0
 17 18  1  0  0  0  0
 17 47  1  0  0  0  0
 18 19  1  0  0  0  0
 19 31  1  0  0  0  0
 19 26  1  0  0  0  0
 19 20  1  0  0  0  0
 20 21  1  0  0  0  0
 21 32  1  0  0  0  0
 21 22  1  0  0  0  0
 21 24  1  0  0  0  0
 22 23  1  0  0  0  0
 22 48  1  0  0  0  0
 22 49  1  0  0  0  0
 23 50  1  0  0  0  0
 24 33  1  0  0  0  0
 24 25  1  0  0  0  0
 24 26  1  0  0  0  0
 25 51  1  0  0  0  0
 26 34  1  0  0  0  0
 26 27  1  0  0  0  0
 27 52  1  0  0  0  0
 28 29  1  0  0  0  0
 28 30  1  0  0  0  0
 29 53  1  0  0  0  0
 29 54  1  0  0  0  0
 29 55  1  0  0  0  0
M  END
> <s_m_source_file>
AV-unprocessed.smi

> <i_m_source_file_index>
287

> <i_lp_mmshare_version>
43012

> <i_f3d_flags>
0

> <s_epik_input>
W0NIM11jMVtjSF1jKGMobzEpW0NIM10pW0NAQF0oW0NIM10pKFtPSF0pW0NIMl1bTkhdYyhuW2NIXW4yKWMoYzIzKW5bY0hdbjNbQ0BASF00T1tDQEhdKFtDSDJdW09IXSlbQ0BASF0oW09IXSlbQ0BIXTRbT0hd

> <s_epik_cmdline>
J2VwaWtfcHl0aG9uJywgJy1waCcsICc3LjAnLCAnLXRuJywgJzgnLCAnLW1hJywgJzIwMCcsICctbWV0YWxfYmluZGluZycsICctaW1hZScsICc8aW5maWxlLm1hZT4nLCAnLW9tYWUnLCAnPG91dGZpbGUubWFlPic=

> <r_lp_tautomer_probability>
1

> <r_epik_Ionization_Penalty>
0.000992612

> <r_epik_Ionization_Penalty_Charging>
0

> <r_epik_Ionization_Penalty_Neutral>
0.000992612

> <r_epik_State_Penalty>
-0

> <r_epik_Charging_Adjusted_Penalty>
0

> <i_epik_Tot_Q>
0

> <i_epik_Tot_abs_Q>
0

> <r_epik_Metal_State_Penalty>
-0

> <b_epik_Metal_Only>
0

> <s_epik_Chemistry_Notes>
This compound contains an acetal/aminal-like group ( X-CH(R)-Y where X, Y are N, S, or O) that may be acid/base labile, releasing an aldehyde.

> <s_lp_Force_Field>
OPLS_2005

> <r_lp_Energy>
40.3349

> <b_lp_Chiralities_Consistent>
1

> <s_lp_Variant>
AV-unprocessed.smi:287-1

> <Gold.Version>
5.8.1

> <Gold.Id.Protein>
6NUR|6NUR_protein|mol2

> <Gold.PLP.Fitness>
52.0784

> <Gold.PLP.PLP>
-39.7332

> <Gold.PLP.part.hbond>
-4.5375

> <Gold.PLP.part.metal>
0.0000

> <Gold.PLP.part.buried>
-3.4461

> <Gold.PLP.part.nonpolar>
-32.2205

> <Gold.PLP.part.repulsive>
0.6257

> <Gold.PLP.ligand.clash>
0.0000

> <Gold.PLP.ligand.torsion>
0.5460

> <Gold.PLP.Chemscore.Hbond>
3.4198

> <Gold.PLP.Chemscore.CHOScore>
1.0000

> <Gold.PLP.Chemscore.Metal>
0.0000

> <Gold.Chemscore.Hbonds>
donor molecule, donor type, donor heavy atom, donor atom, acceptor molecule, acceptor atom, score
      L1  H    23    50       P1 10171  0.96
      L1  H    27    52       P1 10186  0.47
      P1  H  6896  6909       L1     7  0.90
      P1  H  7954  7966       L1    23  0.98
      L1  C    17    47       P1  7948  1.00

> <Gold.PLP.Chemscore.Internal.Correction>
0.1780

> <Gold.Rescore>
     Score         DG    S(hbond)    S(metal)    S(lipo)     H(rot)  DE(clash)    DE(int)     intcor
      5.60      -9.69       2.83        0.00      70.34       5.27       2.04       2.06       ----

> <Gold.Chemscore.Fitness>
5.5968

> <Gold.Chemscore.DG>
-9.6899

> <Gold.Chemscore.ZeroCoef>
-5.4800

> <Gold.Chemscore.Hbond>
2.8334

> <Gold.Chemscore.Metal>
0.0000

> <Gold.Chemscore.Lipo>
70.3444

> <Gold.Chemscore.Internal_Hbond>
0.0000

> <Gold.Chemscore.DEClash>
2.0378

> <Gold.Chemscore.DEInternal>
2.0553

> <Gold.Chemscore.Rot>
5.2672

> <Gold.Chemscore.Internal.Correction>
   9.000000E+99

> <Gold.Chemscore.Hbonds>
donor molecule, donor type, donor heavy atom, donor atom, acceptor molecule, acceptor atom, score
      L1  H    23    50       P1 10171  0.92
      L1  H    27    52       P1 10186  0.43
      P1  H  6896  6909       L1     7  0.17
      P1  H  7954  7966       L1    23  0.53

> <Gold.Chemscore.Hbond.Weighted>
-9.4636

> <Gold.Chemscore.Metal.Weighted>
-0.0000

> <Gold.Chemscore.Lipo.Weighted>
-8.2303

> <Gold.Chemscore.Internal_Hbond.Weighted>
0.0000

> <Gold.Chemscore.DEClash.Weighted>
2.0378

> <Gold.Chemscore.DEInternal.Weighted>
2.0553

> <Gold.Chemscore.Rot.Weighted>
13.4839

> <Gold.Chemscore.Internal.Correction.Weighted>
   9.000000E+99

> <Gold.Protein.RotatedTorsions>
[ 6907 6896 6895 6894 ] final  -39.16 input  -60.11 | X-H torsion
[ 7974 7965 7964 7962 ] final -128.97 input  175.53 | X-H torsion
[ 8008 7997 7996 7995 ] final  110.64 input   59.86 | X-H torsion
[ 10167 10162 10161 10158 ] final   99.29 input  -65.29 | X-H torsion
[ 10718 10713 10712 10709 ] final   15.06 input   66.30 | X-H torsion
[ 10763 10752 10751 10750 ] final  -63.96 input  -60.55 | X-H torsion
[ 11005 11000 10999 10996 ] final -175.22 input  -57.11 | X-H torsion

> <Gold.Protein.ActiveResidues>
 VAL166  LYS551  ARG553  GLY616  TRP617  ASP618  TYR619  PRO620  LYS621  CYS622 
 ASP623  PHE694  ASN695  SER759  ASP760  ASP761  ALA762  ILE779  LEU786  VAL792 
 PHE793  MET794  SER795  GLU796  ALA797  LYS798  CYS799  TRP800  GLU811  SER814 

> <Gold.Protein.RotatedAtoms>
  150.9937  134.9266  159.7914 H   0  0  0  0  0  0  0  0  0  0  0  0  # atno 6907 bound_to 6896
  152.5258  134.3247  159.9171 H   0  0  0  0  0  0  0  0  0  0  0  0  # atno 6908 bound_to 6896
  151.3252  133.3982  159.2692 H   0  0  0  0  0  0  0  0  0  0  0  0  # atno 6909 bound_to 6896
  144.9618  140.7454  143.4724 H   0  0  0  0  0  0  0  0  0  0  0  0  # atno 7974 bound_to 7965
  156.2067  140.3035  155.9643 H   0  0  0  0  0  0  0  0  0  0  0  0  # atno 8008 bound_to 7997
  155.2824  140.0438  157.3033 H   0  0  0  0  0  0  0  0  0  0  0  0  # atno 8009 bound_to 7997
  154.5643  140.2329  155.8296 H   0  0  0  0  0  0  0  0  0  0  0  0  # atno 8010 bound_to 7997
  139.7631  144.6948  151.0264 H   0  0  0  0  0  0  0  0  0  0  0  0  # atno 10167 bound_to 10162
  157.0480  130.6258  149.5763 H   0  0  0  0  0  0  0  0  0  0  0  0  # atno 10718 bound_to 10713
  154.3229  135.6192  153.5516 H   0  0  0  0  0  0  0  0  0  0  0  0  # atno 10763 bound_to 10752
  152.9818  135.5728  154.5050 H   0  0  0  0  0  0  0  0  0  0  0  0  # atno 10764 bound_to 10752
  154.4721  135.2860  155.1611 H   0  0  0  0  0  0  0  0  0  0  0  0  # atno 10765 bound_to 10752
  140.4657  134.6212  157.4861 H   0  0  0  0  0  0  0  0  0  0  0  0  # atno 11005 bound_to 11000
  145.2689  139.1962  143.4852 LP  0  0  0  0  0  0  0  0  0  0  0  0  # atno 17320 bound_to 7965
  146.3355  140.2632  142.8603 LP  0  0  0  0  0  0  0  0  0  0  0  0  # atno 17321 bound_to 7965
  140.7808  143.4674  151.0193 LP  0  0  0  0  0  0  0  0  0  0  0  0  # atno 17342 bound_to 10162
  139.8360  143.7627  152.3180 LP  0  0  0  0  0  0  0  0  0  0  0  0  # atno 17343 bound_to 10162
  156.0016  130.5097  150.7685 LP  0  0  0  0  0  0  0  0  0  0  0  0  # atno 17370 bound_to 10713
  157.5052  131.0921  151.0266 LP  0  0  0  0  0  0  0  0  0  0  0  0  # atno 17371 bound_to 10713
  139.9917  134.6975  155.9679 LP  0  0  0  0  0  0  0  0  0  0  0  0  # atno 17394 bound_to 11000
  141.1600  133.6539  156.4288 LP  0  0  0  0  0  0  0  0  0  0  0  0  # atno 17395 bound_to 11000

$$$$
