AV-unprocessed.smi:39|AV-procd|sdf|366|dock3
  -GOLD-   2262016203D 1   1.00000     0.00000
 Structure written by MMmdl.
 31 32  0  0  0  0  0  0  0  0  4 V2000
  147.7423  133.8863  153.5498 C   0  0  0  0  0  0  0  0  0  0  0  0
  148.2529  134.3529  154.9020 C   0  0  0  0  0  0  0  0  0  0  0  0
  149.3610  135.1163  155.0299 C   0  0  0  0  0  0  0  0  0  0  0  0
  149.8223  135.5431  156.2647 N   0  0  0  0  0  0  0  0  0  0  0  0
  151.0716  136.3915  156.3992 C   0  0  2  0  0  0  0  0  0  0  0  0
  150.7638  137.7338  157.0792 C   0  0  0  0  0  0  0  0  0  0  0  0
  151.6229  138.7089  156.2912 C   0  0  1  0  0  0  0  0  0  0  0  0
  152.9987  138.7538  156.8009 N   0  0  0  0  0  0  0  0  0  0  0  0
  153.5707  137.6659  156.9501 N   0  3  0  0  0  0  0  0  0  0  0  0
  154.1796  136.7060  157.0026 N   0  5  0  0  0  0  0  0  0  0  0  0
  151.5835  138.0964  154.8859 C   0  0  2  0  0  0  0  0  0  0  0  0
  150.3231  138.4949  154.0917 C   0  0  0  0  0  0  0  0  0  0  0  0
  150.3200  139.8854  153.8491 O   0  0  0  0  0  0  0  0  0  0  0  0
  151.5863  136.6892  155.1309 O   0  0  0  0  0  0  0  0  0  0  0  0
  149.1410  135.1362  157.4423 C   0  0  0  0  0  0  0  0  0  0  0  0
  149.5986  135.4937  158.5279 O   0  0  0  0  0  0  0  0  0  0  0  0
  148.0184  134.3716  157.3226 N   0  5  0  0  0  0  0  0  0  0  0  0
  147.5286  133.9629  156.1173 C   0  0  0  0  0  0  0  0  0  0  0  0
  146.5078  133.2821  156.0228 O   0  0  0  0  0  0  0  0  0  0  0  0
  151.7891  135.7755  156.9438 H   0  0  0  0  0  0  0  0  0  0  0  0
  151.1865  139.7096  156.2939 H   0  0  0  0  0  0  0  0  0  0  0  0
  152.4714  138.3819  154.3193 H   0  0  0  0  0  0  0  0  0  0  0  0
  148.3767  134.2472  152.7400 H   0  0  0  0  0  0  0  0  0  0  0  0
  146.7310  134.2552  153.3765 H   0  0  0  0  0  0  0  0  0  0  0  0
  147.7248  132.7970  153.5054 H   0  0  0  0  0  0  0  0  0  0  0  0
  149.8923  135.3921  154.1322 H   0  0  0  0  0  0  0  0  0  0  0  0
  149.7078  137.9772  156.9517 H   0  0  0  0  0  0  0  0  0  0  0  0
  150.9850  137.6978  158.1465 H   0  0  0  0  0  0  0  0  0  0  0  0
  150.2363  137.9464  153.1541 H   0  0  0  0  0  0  0  0  0  0  0  0
  149.4288  138.2709  154.6730 H   0  0  0  0  0  0  0  0  0  0  0  0
  149.9046  140.0435  153.0153 H   0  0  0  0  0  0  0  0  0  0  0  0
  1  2  1  0  0  0  0
  1 23  1  0  0  0  0
  1 24  1  0  0  0  0
  1 25  1  0  0  0  0
  2 18  1  0  0  0  0
  2  3  2  0  0  0  0
  3  4  1  0  0  0  0
  3 26  1  0  0  0  0
  4  5  1  0  0  0  0
  4 15  1  0  0  0  0
  5 20  1  0  0  0  0
  5 14  1  0  0  0  0
  5  6  1  0  0  0  0
  6  7  1  0  0  0  0
  6 27  1  0  0  0  0
  6 28  1  0  0  0  0
  7 21  1  0  0  0  0
  7  8  1  0  0  0  0
  7 11  1  0  0  0  0
  8  9  2  0  0  0  0
  9 10  2  0  0  0  0
 11 22  1  0  0  0  0
 11 12  1  0  0  0  0
 11 14  1  0  0  0  0
 12 13  1  0  0  0  0
 12 29  1  0  0  0  0
 12 30  1  0  0  0  0
 13 31  1  0  0  0  0
 15 16  2  0  0  0  0
 15 17  1  0  0  0  0
 17 18  1  0  0  0  0
 18 19  2  0  0  0  0
M  CHG  1   9   1
M  CHG  1  10  -1
M  CHG  1  17  -1
M  END
> <s_m_source_file>
AV-unprocessed.smi

> <i_m_source_file_index>
39

> <i_lp_mmshare_version>
43012

> <i_f3d_flags>
0

> <s_epik_input>
Tz1jMVtuSF1jKD1PKW4oW2NIXWMxW0NIM10pW0NASF0yW0NIMl1bQ0BIXShOPVtOK109W04tXSlbQ0BIXShPMilbQ0gyXVtPSF0=

> <s_epik_cmdline>
J2VwaWtfcHl0aG9uJywgJy1waCcsICc3LjAnLCAnLXRuJywgJzgnLCAnLW1hJywgJzIwMCcsICctbWV0YWxfYmluZGluZycsICctaW1hZScsICc8aW5maWxlLm1hZT4nLCAnLW9tYWUnLCAnPG91dGZpbGUubWFlPic=

> <r_lp_tautomer_probability>
0.999537

> <r_epik_Ionization_Penalty>
3.6393

> <r_epik_Ionization_Penalty_Charging>
9.76484e-08

> <r_epik_Ionization_Penalty_Neutral>
3.6393

> <r_epik_State_Penalty>
3.63887

> <r_epik_Charging_Adjusted_Penalty>
3.63887

> <i_epik_Tot_Q>
-1

> <i_epik_Tot_abs_Q>
3

> <r_epik_Metal_State_Penalty>
0.225911

> <b_epik_Metal_Only>
1

> <s_epik_Chemistry_Notes>
This compound contains an acetal/aminal-like group ( X-CH(R)-Y where X, Y are N, S, or O) that may be acid/base labile, releasing an aldehyde.

> <s_lp_Force_Field>
OPLS_2005

> <r_lp_Energy>
37.4001

> <b_lp_Chiralities_Consistent>
1

> <s_lp_Variant>
AV-unprocessed.smi:39-16

> <Gold.Version>
5.8.1

> <Gold.Id.Protein>
6NUR|6NUR_protein|mol2

> <Gold.PLP.Fitness>
39.9786

> <Gold.PLP.PLP>
-20.3268

> <Gold.PLP.part.hbond>
-6.5118

> <Gold.PLP.part.metal>
0.0000

> <Gold.PLP.part.buried>
-3.0571

> <Gold.PLP.part.nonpolar>
-11.5928

> <Gold.PLP.part.repulsive>
0.1668

> <Gold.PLP.ligand.clash>
0.0000

> <Gold.PLP.ligand.torsion>
0.0585

> <Gold.PLP.Chemscore.Hbond>
5.5760

> <Gold.PLP.Chemscore.CHOScore>
0.9993

> <Gold.PLP.Chemscore.Metal>
0.0000

> <Gold.Chemscore.Hbonds>
donor molecule, donor type, donor heavy atom, donor atom, acceptor molecule, acceptor atom, score
      L1  H    13    31       P1  7957  1.00
      P1  H  6896  6908       L1    16  1.00
      P1  H  7989  7998       L1    13  0.58
      P1  H  7997  8009       L1     8  0.96
      P1  H 10752 10763       L1    14  0.86
      P1  H 10752 10764       L1    10  0.62
      L1  C     3    26       P1  7948  0.69

> <Gold.PLP.Chemscore.Internal.Correction>
0.0428

> <Gold.Rescore>
     Score         DG    S(hbond)    S(metal)    S(lipo)     H(rot)  DE(clash)    DE(int)     intcor
     14.98     -18.91       4.80        0.00      37.07       2.72       0.02       3.91       ----

> <Gold.Chemscore.Fitness>
14.9767

> <Gold.Chemscore.DG>
-18.9055

> <Gold.Chemscore.ZeroCoef>
-5.4800

> <Gold.Chemscore.Hbond>
4.8021

> <Gold.Chemscore.Metal>
0.0000

> <Gold.Chemscore.Lipo>
37.0740

> <Gold.Chemscore.Internal_Hbond>
0.0000

> <Gold.Chemscore.DEClash>
0.0153

> <Gold.Chemscore.DEInternal>
3.9136

> <Gold.Chemscore.Rot>
2.7153

> <Gold.Chemscore.Internal.Correction>
   9.000000E+99

> <Gold.Chemscore.Hbonds>
donor molecule, donor type, donor heavy atom, donor atom, acceptor molecule, acceptor atom, score
      L1  H    13    31       P1  7957  0.99
      P1  H  6896  6908       L1    16  0.99
      P1  H  7989  7998       L1    13  0.04
      P1  H  7997  8009       L1     8  0.59
      P1  H 10752 10763       L1    14  0.78
      P1  H 10752 10764       L1    10  0.59

> <Gold.Chemscore.Hbond.Weighted>
-16.0391

> <Gold.Chemscore.Metal.Weighted>
-0.0000

> <Gold.Chemscore.Lipo.Weighted>
-4.3377

> <Gold.Chemscore.Internal_Hbond.Weighted>
0.0000

> <Gold.Chemscore.DEClash.Weighted>
0.0153

> <Gold.Chemscore.DEInternal.Weighted>
3.9136

> <Gold.Chemscore.Rot.Weighted>
6.9512

> <Gold.Chemscore.Internal.Correction.Weighted>
   9.000000E+99

> <Gold.Protein.RotatedTorsions>
[ 6907 6896 6895 6894 ] final  161.68 input  -60.11 | X-H torsion
[ 7974 7965 7964 7962 ] final  -60.48 input  175.53 | X-H torsion
[ 8008 7997 7996 7995 ] final -159.19 input   59.86 | X-H torsion
[ 10167 10162 10161 10158 ] final  133.13 input  -65.29 | X-H torsion
[ 10718 10713 10712 10709 ] final  -34.82 input   66.30 | X-H torsion
[ 10763 10752 10751 10750 ] final   36.86 input  -60.55 | X-H torsion
[ 11005 11000 10999 10996 ] final   12.35 input  -57.11 | X-H torsion

> <Gold.Protein.ActiveResidues>
 VAL166  LYS551  ARG553  GLY616  TRP617  ASP618  TYR619  PRO620  LYS621  CYS622 
 ASP623  PHE694  ASN695  SER759  ASP760  ASP761  ALA762  ILE779  LEU786  VAL792 
 PHE793  MET794  SER795  GLU796  ALA797  LYS798  CYS799  TRP800  GLU811  SER814 

> <Gold.Protein.RotatedAtoms>
  151.9519  133.3668  159.4002 H   0  0  0  0  0  0  0  0  0  0  0  0  # atno 6907 bound_to 6896
  150.6979  134.4331  159.5267 H   0  0  0  0  0  0  0  0  0  0  0  0  # atno 6908 bound_to 6896
  152.2006  134.8591  160.0559 H   0  0  0  0  0  0  0  0  0  0  0  0  # atno 6909 bound_to 6896
  145.8150  140.8575  143.0162 H   0  0  0  0  0  0  0  0  0  0  0  0  # atno 7974 bound_to 7965
  155.7588  140.0836  157.2165 H   0  0  0  0  0  0  0  0  0  0  0  0  # atno 8008 bound_to 7997
  154.4005  140.1547  156.2865 H   0  0  0  0  0  0  0  0  0  0  0  0  # atno 8009 bound_to 7997
  155.8859  140.3418  155.5924 H   0  0  0  0  0  0  0  0  0  0  0  0  # atno 8010 bound_to 7997
  139.5310  144.6630  151.4952 H   0  0  0  0  0  0  0  0  0  0  0  0  # atno 10167 bound_to 10162
  156.3460  130.4301  149.7746 H   0  0  0  0  0  0  0  0  0  0  0  0  # atno 10718 bound_to 10713
  153.0060  135.6294  154.2053 H   0  0  0  0  0  0  0  0  0  0  0  0  # atno 10763 bound_to 10752
  154.1797  135.2814  155.3057 H   0  0  0  0  0  0  0  0  0  0  0  0  # atno 10764 bound_to 10752
  154.5844  135.5637  153.7277 H   0  0  0  0  0  0  0  0  0  0  0  0  # atno 10765 bound_to 10752
  140.4929  134.0822  155.7775 H   0  0  0  0  0  0  0  0  0  0  0  0  # atno 11005 bound_to 11000
  144.6753  140.0451  143.7480 LP  0  0  0  0  0  0  0  0  0  0  0  0  # atno 17320 bound_to 7965
  145.9736  139.2888  143.1084 LP  0  0  0  0  0  0  0  0  0  0  0  0  # atno 17321 bound_to 7965
  140.6487  143.8741  150.6763 LP  0  0  0  0  0  0  0  0  0  0  0  0  # atno 17342 bound_to 10162
  140.2098  143.3892  152.1727 LP  0  0  0  0  0  0  0  0  0  0  0  0  # atno 17343 bound_to 10162
  156.4964  130.8109  151.3115 LP  0  0  0  0  0  0  0  0  0  0  0  0  # atno 17370 bound_to 10713
  157.7454  130.9959  150.2759 LP  0  0  0  0  0  0  0  0  0  0  0  0  # atno 17371 bound_to 10713
  141.1475  133.9029  157.2180 LP  0  0  0  0  0  0  0  0  0  0  0  0  # atno 17394 bound_to 11000
  139.9758  135.0114  156.9628 LP  0  0  0  0  0  0  0  0  0  0  0  0  # atno 17395 bound_to 11000

$$$$
