AV-unprocessed.smi:3343|AV-procd|sdf|12891|dock2
  -GOLD-   2272019293D 1   1.00000     0.00000
 Structure written by MMmdl.
 42 43  0  0  0  0  0  0  0  0  2 V2000
  152.4799  138.2025  158.2991 C   0  0  0  0  0  0  0  0  0  0  0  0
  151.5982  139.4515  158.0998 C   0  0  2  0  0  0  0  0  0  0  0  0
  151.3961  139.7910  156.6154 C   0  0  0  0  0  0  0  0  0  0  0  0
  152.3628  139.8982  155.8603 O   0  0  0  0  0  0  0  0  0  0  0  0
  150.1276  139.9573  156.2089 N   0  0  0  0  0  0  0  0  0  0  0  0
  149.7106  140.2999  154.8523 C   0  0  0  0  0  0  0  0  0  0  0  0
  148.8444  141.5762  154.7926 C   0  0  0  0  0  0  0  0  0  0  0  0
  147.8706  141.5549  153.6973 N   0  0  0  0  0  0  0  0  0  0  0  0
  147.2802  140.2262  153.5099 C   0  0  0  0  0  0  0  0  0  0  0  0
  146.3226  139.8467  154.6609 C   0  0  0  0  0  0  0  0  0  0  0  0
  145.2500  140.8593  154.7993 N   0  3  0  0  0  0  0  0  0  0  0  0
  144.2712  140.5148  155.8520 C   0  0  0  0  0  0  0  0  0  0  0  0
  145.8275  142.2123  154.9744 C   0  0  0  0  0  0  0  0  0  0  0  0
  146.7883  142.5387  153.8116 C   0  0  0  0  0  0  0  0  0  0  0  0
  152.1132  140.6131  158.8144 N   0  0  0  0  0  0  0  0  0  0  0  0
  151.6440  141.8614  158.8720 C   0  0  0  0  0  0  0  0  0  0  0  0
  152.3957  142.6878  159.5858 N   0  0  0  0  0  0  0  0  0  0  0  0
  153.3903  141.8282  159.9563 C   0  0  0  0  0  0  0  0  0  0  0  0
  153.2749  140.5763  159.5139 N   0  0  0  0  0  0  0  0  0  0  0  0
  152.0498  137.3350  157.7973 H   0  0  0  0  0  0  0  0  0  0  0  0
  152.5693  137.9560  159.3575 H   0  0  0  0  0  0  0  0  0  0  0  0
  153.4885  138.3430  157.9080 H   0  0  0  0  0  0  0  0  0  0  0  0
  150.6190  139.2241  158.5251 H   0  0  0  0  0  0  0  0  0  0  0  0
  149.3945  139.8560  156.8957 H   0  0  0  0  0  0  0  0  0  0  0  0
  150.5894  140.3916  154.2129 H   0  0  0  0  0  0  0  0  0  0  0  0
  149.1389  139.4595  154.4554 H   0  0  0  0  0  0  0  0  0  0  0  0
  148.2747  141.6188  155.7218 H   0  0  0  0  0  0  0  0  0  0  0  0
  149.4581  142.4759  154.7826 H   0  0  0  0  0  0  0  0  0  0  0  0
  146.7355  140.2176  152.5647 H   0  0  0  0  0  0  0  0  0  0  0  0
  148.0706  139.4809  153.4128 H   0  0  0  0  0  0  0  0  0  0  0  0
  145.8730  138.8761  154.4492 H   0  0  0  0  0  0  0  0  0  0  0  0
  146.8612  139.7390  155.6033 H   0  0  0  0  0  0  0  0  0  0  0  0
  144.7445  140.4893  156.8346 H   0  0  0  0  0  0  0  0  0  0  0  0
  143.8282  139.5369  155.6594 H   0  0  0  0  0  0  0  0  0  0  0  0
  143.4634  141.2470  155.8793 H   0  0  0  0  0  0  0  0  0  0  0  0
  145.0211  142.9463  154.9909 H   0  0  0  0  0  0  0  0  0  0  0  0
  146.3338  142.2871  155.9378 H   0  0  0  0  0  0  0  0  0  0  0  0
  147.1949  143.5431  153.9214 H   0  0  0  0  0  0  0  0  0  0  0  0
  146.2307  142.5468  152.8739 H   0  0  0  0  0  0  0  0  0  0  0  0
  150.7353  142.1737  158.3787 H   0  0  0  0  0  0  0  0  0  0  0  0
  154.2275  142.1354  160.5658 H   0  0  0  0  0  0  0  0  0  0  0  0
  144.7471  140.8695  153.9231 H   0  0  0  0  0  0  0  0  0  0  0  0
  1  2  1  0  0  0  0
  1 20  1  0  0  0  0
  1 21  1  0  0  0  0
  1 22  1  0  0  0  0
  2  3  1  0  0  0  0
  2 15  1  0  0  0  0
  2 23  1  0  0  0  0
  3  4  2  0  0  0  0
  3  5  1  0  0  0  0
  5  6  1  0  0  0  0
  5 24  1  0  0  0  0
  6  7  1  0  0  0  0
  6 25  1  0  0  0  0
  6 26  1  0  0  0  0
  7  8  1  0  0  0  0
  7 27  1  0  0  0  0
  7 28  1  0  0  0  0
  8 14  1  0  0  0  0
  8  9  1  0  0  0  0
  9 10  1  0  0  0  0
  9 29  1  0  0  0  0
  9 30  1  0  0  0  0
 10 11  1  0  0  0  0
 10 31  1  0  0  0  0
 10 32  1  0  0  0  0
 11 12  1  0  0  0  0
 11 13  1  0  0  0  0
 11 42  1  0  0  0  0
 12 33  1  0  0  0  0
 12 34  1  0  0  0  0
 12 35  1  0  0  0  0
 13 14  1  0  0  0  0
 13 36  1  0  0  0  0
 13 37  1  0  0  0  0
 14 38  1  0  0  0  0
 14 39  1  0  0  0  0
 15 19  1  0  0  0  0
 15 16  1  0  0  0  0
 16 17  2  0  0  0  0
 16 40  1  0  0  0  0
 17 18  1  0  0  0  0
 18 19  2  0  0  0  0
 18 41  1  0  0  0  0
M  CHG  1  11   1
M  END
> <s_m_source_file>
AV-unprocessed.smi

> <i_m_source_file_index>
3343

> <i_lp_mmshare_version>
43012

> <i_f3d_flags>
0

> <s_epik_input>
bjFbY0hdbltjSF1uMVtDQEhdKFtDSDNdKUMoPU8pW05IXVtDSDJdW0NIMl1OMltDSDJdW0NIMl1OKFtDSDNdKVtDSDJdW0NIMl0y

> <s_epik_cmdline>
J2VwaWtfcHl0aG9uJywgJy1waCcsICc3LjAnLCAnLXRuJywgJzgnLCAnLW1hJywgJzIwMCcsICctbWV0YWxfYmluZGluZycsICctaW1hZScsICc8aW5maWxlLm1hZT4nLCAnLW9tYWUnLCAnPG91dGZpbGUubWFlPic=

> <r_lp_tautomer_probability>
1

> <r_epik_Ionization_Penalty>
0.0359277

> <r_epik_Ionization_Penalty_Charging>
0.0358005

> <r_epik_Ionization_Penalty_Neutral>
0.000127293

> <r_epik_State_Penalty>
0.0476325

> <r_epik_Charging_Adjusted_Penalty>
0.0834329

> <i_epik_Tot_Q>
1

> <i_epik_Tot_abs_Q>
1

> <r_epik_Metal_State_Penalty>
0.0476323

> <b_epik_Metal_Only>
0

> <s_lp_Force_Field>
OPLS_2005

> <r_lp_Energy>
27.0486

> <b_lp_Chiralities_Consistent>
1

> <s_lp_Variant>
AV-unprocessed.smi:3343-1

> <Gold.Version>
5.8.1

> <Gold.Id.Protein>
6NUR|6NUR_protein|mol2

> <Gold.PLP.Fitness>
37.7655

> <Gold.PLP.PLP>
-29.8623

> <Gold.PLP.part.hbond>
-2.2879

> <Gold.PLP.part.metal>
0.0000

> <Gold.PLP.part.buried>
-4.6139

> <Gold.PLP.part.nonpolar>
-22.4780

> <Gold.PLP.part.repulsive>
0.2151

> <Gold.PLP.ligand.clash>
0.0000

> <Gold.PLP.ligand.torsion>
0.6398

> <Gold.PLP.Chemscore.Hbond>
3.0000

> <Gold.PLP.Chemscore.CHOScore>
0.0000

> <Gold.PLP.Chemscore.Metal>
0.0000

> <Gold.Chemscore.Hbonds>
donor molecule, donor type, donor heavy atom, donor atom, acceptor molecule, acceptor atom, score
      L1  H    11    42       P1 10175  2.00
      P1  H  7997  8009       L1     4  0.98

> <Gold.PLP.Chemscore.Internal.Correction>
0.1829

> <Gold.Rescore>
     Score         DG    S(hbond)    S(metal)    S(lipo)     H(rot)  DE(clash)    DE(int)     intcor
      9.97     -10.55       1.99        0.00      43.95       2.63       0.11       0.47       ----

> <Gold.Chemscore.Fitness>
9.9717

> <Gold.Chemscore.DG>
-10.5545

> <Gold.Chemscore.ZeroCoef>
-5.4800

> <Gold.Chemscore.Hbond>
1.9939

> <Gold.Chemscore.Metal>
0.0000

> <Gold.Chemscore.Lipo>
43.9474

> <Gold.Chemscore.Internal_Hbond>
0.0000

> <Gold.Chemscore.DEClash>
0.1097

> <Gold.Chemscore.DEInternal>
0.4731

> <Gold.Chemscore.Rot>
2.6278

> <Gold.Chemscore.Internal.Correction>
   9.000000E+99

> <Gold.Chemscore.Hbonds>
donor molecule, donor type, donor heavy atom, donor atom, acceptor molecule, acceptor atom, score
      L1  H    11    42       P1 10175  0.93
      P1  H  7997  8009       L1     4  0.91

> <Gold.Chemscore.Hbond.Weighted>
-6.6597

> <Gold.Chemscore.Metal.Weighted>
-0.0000

> <Gold.Chemscore.Lipo.Weighted>
-5.1418

> <Gold.Chemscore.Internal_Hbond.Weighted>
0.0000

> <Gold.Chemscore.DEClash.Weighted>
0.1097

> <Gold.Chemscore.DEInternal.Weighted>
0.4731

> <Gold.Chemscore.Rot.Weighted>
6.7271

> <Gold.Chemscore.Internal.Correction.Weighted>
   9.000000E+99

> <Gold.Protein.RotatedTorsions>
[ 6907 6896 6895 6894 ] final  -53.35 input  -60.11 | X-H torsion
[ 7974 7965 7964 7962 ] final   98.61 input  175.53 | X-H torsion
[ 8008 7997 7996 7995 ] final -145.87 input   59.86 | X-H torsion
[ 10167 10162 10161 10158 ] final  119.02 input  -65.29 | X-H torsion
[ 10718 10713 10712 10709 ] final  -12.46 input   66.30 | X-H torsion
[ 10763 10752 10751 10750 ] final -168.30 input  -60.55 | X-H torsion
[ 11005 11000 10999 10996 ] final  -85.94 input  -57.11 | X-H torsion

> <Gold.Protein.ActiveResidues>
 VAL166  LYS551  ARG553  GLY616  TRP617  ASP618  TYR619  PRO620  LYS621  CYS622 
 ASP623  PHE694  ASN695  SER759  ASP760  ASP761  ALA762  ILE779  LEU786  VAL792 
 PHE793  MET794  SER795  GLU796  ALA797  LYS798  CYS799  TRP800  GLU811  SER814 

> <Gold.Protein.RotatedAtoms>
  150.8435  134.7735  159.6950 H   0  0  0  0  0  0  0  0  0  0  0  0  # atno 6907 bound_to 6896
  152.4517  134.5376  159.9839 H   0  0  0  0  0  0  0  0  0  0  0  0  # atno 6908 bound_to 6896
  151.5512  133.3379  159.2989 H   0  0  0  0  0  0  0  0  0  0  0  0  # atno 6909 bound_to 6896
  145.4099  139.2335  143.3254 H   0  0  0  0  0  0  0  0  0  0  0  0  # atno 7974 bound_to 7965
  155.5502  140.0616  157.2851 H   0  0  0  0  0  0  0  0  0  0  0  0  # atno 8008 bound_to 7997
  154.4423  140.1904  156.0723 H   0  0  0  0  0  0  0  0  0  0  0  0  # atno 8009 bound_to 7997
  156.0522  140.3283  155.7368 H   0  0  0  0  0  0  0  0  0  0  0  0  # atno 8010 bound_to 7997
  139.6073  144.7073  151.2923 H   0  0  0  0  0  0  0  0  0  0  0  0  # atno 10167 bound_to 10162
  156.6443  130.4937  149.6084 H   0  0  0  0  0  0  0  0  0  0  0  0  # atno 10718 bound_to 10713
  154.6643  135.2929  154.9825 H   0  0  0  0  0  0  0  0  0  0  0  0  # atno 10763 bound_to 10752
  154.0874  135.6595  153.4851 H   0  0  0  0  0  0  0  0  0  0  0  0  # atno 10764 bound_to 10752
  153.0448  135.5212  154.7609 H   0  0  0  0  0  0  0  0  0  0  0  0  # atno 10765 bound_to 10752
  141.1636  133.7427  156.9088 H   0  0  0  0  0  0  0  0  0  0  0  0  # atno 11005 bound_to 11000
  146.2710  140.4809  142.8814 LP  0  0  0  0  0  0  0  0  0  0  0  0  # atno 17320 bound_to 7965
  144.8316  140.6715  143.6287 LP  0  0  0  0  0  0  0  0  0  0  0  0  # atno 17321 bound_to 7965
  140.7294  143.6908  150.7923 LP  0  0  0  0  0  0  0  0  0  0  0  0  # atno 17342 bound_to 10162
  140.0496  143.5263  152.2680 LP  0  0  0  0  0  0  0  0  0  0  0  0  # atno 17343 bound_to 10162
  156.2134  130.6693  151.1293 LP  0  0  0  0  0  0  0  0  0  0  0  0  # atno 17370 bound_to 10713
  157.7161  131.0709  150.6321 LP  0  0  0  0  0  0  0  0  0  0  0  0  # atno 17371 bound_to 10713
  140.1531  134.9217  157.2618 LP  0  0  0  0  0  0  0  0  0  0  0  0  # atno 17394 bound_to 11000
  140.2699  134.3472  155.7377 LP  0  0  0  0  0  0  0  0  0  0  0  0  # atno 17395 bound_to 11000

$$$$
