AV-unprocessed.smi:100|AV-procd|sdf|902|dock4
  -GOLD-   2262017403D 1   1.00000     0.00000
 Structure written by MMmdl.
 31 33  0  0  0  0  0  0  0  0  1 V2000
  154.0838  134.7914  157.8937 N   0  0  0  0  0  0  0  0  0  0  0  0
  154.0513  136.1302  157.9473 C   0  0  0  0  0  0  0  0  0  0  0  0
  154.8989  136.7601  158.7936 N   0  0  0  0  0  0  0  0  0  0  0  0
  154.8833  138.0946  158.8667 C   0  0  0  0  0  0  0  0  0  0  0  0
  154.1172  138.9587  158.1963 N   0  0  0  0  0  0  0  0  0  0  0  0
  153.2644  138.3237  157.3388 C   0  0  0  0  0  0  0  0  0  0  0  0
  153.1707  136.9148  157.1603 C   0  0  0  0  0  0  0  0  0  0  0  0
  152.1958  136.6191  156.2178 N   0  0  0  0  0  0  0  0  0  0  0  0
  151.7410  137.7899  155.8613 C   0  0  0  0  0  0  0  0  0  0  0  0
  152.3293  138.8718  156.4804 N   0  0  0  0  0  0  0  0  0  0  0  0
  152.0129  140.3219  156.2594 C   0  0  1  0  0  0  0  0  0  0  0  0
  151.1386  140.4323  155.1756 O   0  0  0  0  0  0  0  0  0  0  0  0
  150.0858  141.3318  155.5065 C   0  0  1  0  0  0  0  0  0  0  0  0
  148.8485  141.0711  154.6331 C   0  0  0  0  0  0  0  0  0  0  0  0
  149.1695  141.2408  153.2689 O   0  0  0  0  0  0  0  0  0  0  0  0
  149.8899  141.1287  157.0115 C   0  0  1  0  0  0  0  0  0  0  0  0
  149.1920  140.0129  157.2349 F   0  0  0  0  0  0  0  0  0  0  0  0
  151.3280  140.9764  157.4787 C   0  0  1  0  0  0  0  0  0  0  0  0
  151.4272  140.2691  158.7023 O   0  0  0  0  0  0  0  0  0  0  0  0
  153.4605  134.2985  157.2706 H   0  0  0  0  0  0  0  0  0  0  0  0
  154.7319  134.2793  158.4741 H   0  0  0  0  0  0  0  0  0  0  0  0
  155.5843  138.5338  159.5609 H   0  0  0  0  0  0  0  0  0  0  0  0
  150.9590  137.8987  155.1240 H   0  0  0  0  0  0  0  0  0  0  0  0
  152.9763  140.7746  156.0209 H   0  0  0  0  0  0  0  0  0  0  0  0
  150.4554  142.3429  155.3253 H   0  0  0  0  0  0  0  0  0  0  0  0
  148.4986  140.0488  154.7783 H   0  0  0  0  0  0  0  0  0  0  0  0
  148.0238  141.7312  154.9031 H   0  0  0  0  0  0  0  0  0  0  0  0
  149.2799  140.3871  152.8789 H   0  0  0  0  0  0  0  0  0  0  0  0
  149.3625  141.9517  157.4945 H   0  0  0  0  0  0  0  0  0  0  0  0
  151.7678  141.9661  157.6078 H   0  0  0  0  0  0  0  0  0  0  0  0
  151.3720  140.8884  159.4137 H   0  0  0  0  0  0  0  0  0  0  0  0
  1  2  1  0  0  0  0
  1 20  1  0  0  0  0
  1 21  1  0  0  0  0
  2  7  1  0  0  0  0
  2  3  2  0  0  0  0
  3  4  1  0  0  0  0
  4  5  2  0  0  0  0
  4 22  1  0  0  0  0
  5  6  1  0  0  0  0
  6 10  1  0  0  0  0
  6  7  2  0  0  0  0
  7  8  1  0  0  0  0
  8  9  2  0  0  0  0
  9 10  1  0  0  0  0
  9 23  1  0  0  0  0
 10 11  1  0  0  0  0
 11 18  1  0  0  0  0
 11 12  1  0  0  0  0
 11 24  1  0  0  0  0
 12 13  1  0  0  0  0
 13 14  1  0  0  0  0
 13 16  1  0  0  0  0
 13 25  1  0  0  0  0
 14 15  1  0  0  0  0
 14 26  1  0  0  0  0
 14 27  1  0  0  0  0
 15 28  1  0  0  0  0
 16 17  1  0  0  0  0
 16 18  1  0  0  0  0
 16 29  1  0  0  0  0
 18 19  1  0  0  0  0
 18 30  1  0  0  0  0
 19 31  1  0  0  0  0
M  END
> <s_m_source_file>
AV-unprocessed.smi

> <i_m_source_file_index>
100

> <i_lp_mmshare_version>
43012

> <i_f3d_flags>
0

> <s_epik_input>
bjFbY0hdbmMoW05IMl0pYyhjMTIpbltjSF1uMltDQEBIXTNPW0NAQEhdKFtDSDJdW09IXSlbQ0BIXShGKVtDQEhdM1tPSF0=

> <s_epik_cmdline>
J2VwaWtfcHl0aG9uJywgJy1waCcsICc3LjAnLCAnLXRuJywgJzgnLCAnLW1hJywgJzIwMCcsICctbWV0YWxfYmluZGluZycsICctaW1hZScsICc8aW5maWxlLm1hZT4nLCAnLW9tYWUnLCAnPG91dGZpbGUubWFlPic=

> <r_lp_tautomer_probability>
1

> <r_epik_Ionization_Penalty>
0.000750324

> <r_epik_Ionization_Penalty_Charging>
0

> <r_epik_Ionization_Penalty_Neutral>
0.000750324

> <r_epik_State_Penalty>
-0

> <r_epik_Charging_Adjusted_Penalty>
0

> <i_epik_Tot_Q>
0

> <i_epik_Tot_abs_Q>
0

> <r_epik_Metal_State_Penalty>
-0

> <b_epik_Metal_Only>
0

> <s_epik_Chemistry_Notes>
This compound contains an acetal/aminal-like group ( X-CH(R)-Y where X, Y are N, S, or O) that may be acid/base labile, releasing an aldehyde.

> <s_lp_Force_Field>
OPLS_2005

> <r_lp_Energy>
37.3061

> <b_lp_Chiralities_Consistent>
1

> <s_lp_Variant>
AV-unprocessed.smi:100-6

> <Gold.Version>
5.8.1

> <Gold.Id.Protein>
6NUR|6NUR_protein|mol2

> <Gold.PLP.Fitness>
37.6018

> <Gold.PLP.PLP>
-23.8873

> <Gold.PLP.part.hbond>
-5.6223

> <Gold.PLP.part.metal>
0.0000

> <Gold.PLP.part.buried>
-2.6129

> <Gold.PLP.part.nonpolar>
-14.2912

> <Gold.PLP.part.repulsive>
0.2319

> <Gold.PLP.ligand.clash>
0.0000

> <Gold.PLP.ligand.torsion>
0.1400

> <Gold.PLP.Chemscore.Hbond>
4.6640

> <Gold.PLP.Chemscore.CHOScore>
0.0000

> <Gold.PLP.Chemscore.Metal>
0.0000

> <Gold.Chemscore.Hbonds>
donor molecule, donor type, donor heavy atom, donor atom, acceptor molecule, acceptor atom, score
      L1  H    15    28       P1  7957  0.53
      P1  H  7989  7998       L1    12  1.00
      P1  H  7997  8009       L1     5  1.00
      P1  H  8011  8017       L1    15  1.00
      P1  H 10752 10764       L1     8  0.99

> <Gold.PLP.Chemscore.Internal.Correction>
0.0024

> <Gold.Rescore>
     Score         DG    S(hbond)    S(metal)    S(lipo)     H(rot)  DE(clash)    DE(int)     intcor
      9.24     -10.31       2.87        0.00      29.13       3.19       0.03       1.04       ----

> <Gold.Chemscore.Fitness>
9.2395

> <Gold.Chemscore.DG>
-10.3079

> <Gold.Chemscore.ZeroCoef>
-5.4800

> <Gold.Chemscore.Hbond>
2.8700

> <Gold.Chemscore.Metal>
0.0000

> <Gold.Chemscore.Lipo>
29.1346

> <Gold.Chemscore.Internal_Hbond>
0.0000

> <Gold.Chemscore.DEClash>
0.0304

> <Gold.Chemscore.DEInternal>
1.0380

> <Gold.Chemscore.Rot>
3.1901

> <Gold.Chemscore.Internal.Correction>
   9.000000E+99

> <Gold.Chemscore.Hbonds>
donor molecule, donor type, donor heavy atom, donor atom, acceptor molecule, acceptor atom, score
      L1  H    15    28       P1  7957  0.52
      P1  H  7989  7998       L1    12  0.47
      P1  H  7997  8009       L1     5  0.46
      P1  H  8011  8017       L1    15  0.76
      P1  H 10752 10764       L1     8  0.53

> <Gold.Chemscore.Hbond.Weighted>
-9.5858

> <Gold.Chemscore.Metal.Weighted>
-0.0000

> <Gold.Chemscore.Lipo.Weighted>
-3.4087

> <Gold.Chemscore.Internal_Hbond.Weighted>
0.0000

> <Gold.Chemscore.DEClash.Weighted>
0.0304

> <Gold.Chemscore.DEInternal.Weighted>
1.0380

> <Gold.Chemscore.Rot.Weighted>
8.1667

> <Gold.Chemscore.Internal.Correction.Weighted>
   9.000000E+99

> <Gold.Protein.RotatedTorsions>
[ 6907 6896 6895 6894 ] final  108.84 input  -60.11 | X-H torsion
[ 7974 7965 7964 7962 ] final   58.88 input  175.53 | X-H torsion
[ 8008 7997 7996 7995 ] final  126.73 input   59.86 | X-H torsion
[ 10167 10162 10161 10158 ] final  149.10 input  -65.29 | X-H torsion
[ 10718 10713 10712 10709 ] final  107.83 input   66.30 | X-H torsion
[ 10763 10752 10751 10750 ] final  -45.40 input  -60.55 | X-H torsion
[ 11005 11000 10999 10996 ] final   -6.74 input  -57.11 | X-H torsion

> <Gold.Protein.ActiveResidues>
 VAL166  LYS551  ARG553  GLY616  TRP617  ASP618  TYR619  PRO620  LYS621  CYS622 
 ASP623  PHE694  ASN695  SER759  ASP760  ASP761  ALA762  ILE779  LEU786  VAL792 
 PHE793  MET794  SER795  GLU796  ALA797  LYS798  CYS799  TRP800  GLU811  SER814 

> <Gold.Protein.RotatedAtoms>
  152.5094  133.9030  159.7450 H   0  0  0  0  0  0  0  0  0  0  0  0  # atno 6907 bound_to 6896
  150.9441  133.6614  159.2791 H   0  0  0  0  0  0  0  0  0  0  0  0  # atno 6908 bound_to 6896
  151.3915  135.0961  159.9580 H   0  0  0  0  0  0  0  0  0  0  0  0  # atno 6909 bound_to 6896
  145.9133  139.3671  143.0522 H   0  0  0  0  0  0  0  0  0  0  0  0  # atno 7974 bound_to 7965
  156.2872  140.2686  156.2158 H   0  0  0  0  0  0  0  0  0  0  0  0  # atno 8008 bound_to 7997
  155.0218  140.0386  157.2458 H   0  0  0  0  0  0  0  0  0  0  0  0  # atno 8009 bound_to 7997
  154.7429  140.2728  155.6363 H   0  0  0  0  0  0  0  0  0  0  0  0  # atno 8010 bound_to 7997
  139.4866  144.5628  151.7199 H   0  0  0  0  0  0  0  0  0  0  0  0  # atno 10167 bound_to 10162
  157.6612  131.0881  150.6215 H   0  0  0  0  0  0  0  0  0  0  0  0  # atno 10718 bound_to 10713
  154.0280  135.6660  153.4778 H   0  0  0  0  0  0  0  0  0  0  0  0  # atno 10763 bound_to 10752
  153.0552  135.5060  154.7960 H   0  0  0  0  0  0  0  0  0  0  0  0  # atno 10764 bound_to 10752
  154.6896  135.3059  154.9463 H   0  0  0  0  0  0  0  0  0  0  0  0  # atno 10765 bound_to 10752
  140.7053  133.8955  155.8712 H   0  0  0  0  0  0  0  0  0  0  0  0  # atno 11005 bound_to 11000
  145.8644  140.9456  143.0683 LP  0  0  0  0  0  0  0  0  0  0  0  0  # atno 17320 bound_to 7965
  144.6745  140.0573  143.7477 LP  0  0  0  0  0  0  0  0  0  0  0  0  # atno 17321 bound_to 7965
  140.5201  144.0892  150.6020 LP  0  0  0  0  0  0  0  0  0  0  0  0  # atno 17342 bound_to 10162
  140.3847  143.2784  152.0130 LP  0  0  0  0  0  0  0  0  0  0  0  0  # atno 17343 bound_to 10162
  156.6517  130.4487  149.5717 LP  0  0  0  0  0  0  0  0  0  0  0  0  # atno 17370 bound_to 10713
  156.2132  130.6692  151.1292 LP  0  0  0  0  0  0  0  0  0  0  0  0  # atno 17371 bound_to 10713
  141.0130  134.0994  157.4202 LP  0  0  0  0  0  0  0  0  0  0  0  0  # atno 17394 bound_to 11000
  139.8886  135.0099  156.6629 LP  0  0  0  0  0  0  0  0  0  0  0  0  # atno 17395 bound_to 11000

$$$$
