AV-unprocessed.smi:712|AV-procd|sdf|3469|dock7
  -GOLD-   22720 0463D 1   1.00000     0.00000
 Structure written by MMmdl.
 51 52  0  0  0  0  0  0  0  0  2 V2000
  151.7940  144.5376  159.0311 C   0  0  0  0  0  0  0  0  0  0  0  0
  151.9942  143.0560  158.7884 C   0  0  0  0  0  0  0  0  0  0  0  0
  151.1457  142.3376  157.8602 C   0  0  0  0  0  0  0  0  0  0  0  0
  151.3471  141.0239  157.6721 C   0  0  0  0  0  0  0  0  0  0  0  0
  152.3594  140.3228  158.3518 N   0  0  0  0  0  0  0  0  0  0  0  0
  152.4802  138.8799  158.0857 C   0  0  0  0  0  0  0  0  0  0  0  0
  151.2269  138.1187  158.5318 C   0  0  0  0  0  0  0  0  0  0  0  0
  151.1562  137.6536  159.6693 O   0  0  0  0  0  0  0  0  0  0  0  0
  150.2577  137.9814  157.6151 N   0  0  0  0  0  0  0  0  0  0  0  0
  149.0544  137.1713  157.7702 C   0  0  0  0  0  0  0  0  0  0  0  0
  149.0470  135.9805  156.7911 C   0  0  1  0  0  0  0  0  0  0  0  0
  148.9607  136.4030  155.3031 C   0  0  0  0  0  0  0  0  0  0  0  0
  149.0641  135.2383  154.3880 N   0  3  2  0  0  0  0  0  0  0  0  0
  147.8099  134.4498  154.2475 C   0  0  0  0  0  0  0  0  0  0  0  0
  147.9583  133.2641  153.2689 C   0  0  0  0  0  0  0  0  0  0  0  0
  146.6013  132.8986  152.6497 C   0  0  0  0  0  0  0  0  0  0  0  0
  148.5884  132.0365  153.9466 C   0  0  0  0  0  0  0  0  0  0  0  0
  150.2571  134.4208  154.7160 C   0  0  0  0  0  0  0  0  0  0  0  0
  150.2879  134.0535  156.2096 C   0  0  0  0  0  0  0  0  0  0  0  0
  150.2488  135.2435  156.9880 O   0  0  0  0  0  0  0  0  0  0  0  0
  153.1933  140.9420  159.2423 C   0  0  0  0  0  0  0  0  0  0  0  0
  154.0755  140.3321  159.8486 O   0  0  0  0  0  0  0  0  0  0  0  0
  152.9646  142.3776  159.4393 C   0  0  0  0  0  0  0  0  0  0  0  0
  151.1550  144.9774  158.2647 H   0  0  0  0  0  0  0  0  0  0  0  0
  152.7500  145.0622  159.0165 H   0  0  0  0  0  0  0  0  0  0  0  0
  151.3261  144.7009  160.0023 H   0  0  0  0  0  0  0  0  0  0  0  0
  150.3568  142.8474  157.3269 H   0  0  0  0  0  0  0  0  0  0  0  0
  150.7449  140.4300  157.0000 H   0  0  0  0  0  0  0  0  0  0  0  0
  152.6364  138.6879  157.0234 H   0  0  0  0  0  0  0  0  0  0  0  0
  153.3664  138.4823  158.5844 H   0  0  0  0  0  0  0  0  0  0  0  0
  150.3989  138.4139  156.7134 H   0  0  0  0  0  0  0  0  0  0  0  0
  148.9325  136.8311  158.8000 H   0  0  0  0  0  0  0  0  0  0  0  0
  148.2025  137.8182  157.5594 H   0  0  0  0  0  0  0  0  0  0  0  0
  148.2035  135.3389  157.0508 H   0  0  0  0  0  0  0  0  0  0  0  0
  148.0424  136.9512  155.1035 H   0  0  0  0  0  0  0  0  0  0  0  0
  149.7790  137.0871  155.0742 H   0  0  0  0  0  0  0  0  0  0  0  0
  147.5157  134.0522  155.2199 H   0  0  0  0  0  0  0  0  0  0  0  0
  146.9944  135.1016  153.9341 H   0  0  0  0  0  0  0  0  0  0  0  0
  148.6092  133.5557  152.4460 H   0  0  0  0  0  0  0  0  0  0  0  0
  145.8864  132.5898  153.4130 H   0  0  0  0  0  0  0  0  0  0  0  0
  146.7018  132.0798  151.9367 H   0  0  0  0  0  0  0  0  0  0  0  0
  146.1725  133.7460  152.1140 H   0  0  0  0  0  0  0  0  0  0  0  0
  147.9795  131.6865  154.7809 H   0  0  0  0  0  0  0  0  0  0  0  0
  149.5840  132.2594  154.3306 H   0  0  0  0  0  0  0  0  0  0  0  0
  148.6914  131.2105  153.2421 H   0  0  0  0  0  0  0  0  0  0  0  0
  150.2979  133.5268  154.0929 H   0  0  0  0  0  0  0  0  0  0  0  0
  151.1469  135.0027  154.4719 H   0  0  0  0  0  0  0  0  0  0  0  0
  149.4572  133.3975  156.4741 H   0  0  0  0  0  0  0  0  0  0  0  0
  151.2046  133.5118  156.4424 H   0  0  0  0  0  0  0  0  0  0  0  0
  153.5990  142.9072  160.1352 H   0  0  0  0  0  0  0  0  0  0  0  0
  149.2371  135.6119  153.4655 H   0  0  0  0  0  0  0  0  0  0  0  0
  1  2  1  0  0  0  0
  1 24  1  0  0  0  0
  1 25  1  0  0  0  0
  1 26  1  0  0  0  0
  2 23  2  0  0  0  0
  2  3  1  0  0  0  0
  3  4  2  0  0  0  0
  3 27  1  0  0  0  0
  4  5  1  0  0  0  0
  4 28  1  0  0  0  0
  5  6  1  0  0  0  0
  5 21  1  0  0  0  0
  6  7  1  0  0  0  0
  6 29  1  0  0  0  0
  6 30  1  0  0  0  0
  7  8  2  0  0  0  0
  7  9  1  0  0  0  0
  9 10  1  0  0  0  0
  9 31  1  0  0  0  0
 10 11  1  0  0  0  0
 10 32  1  0  0  0  0
 10 33  1  0  0  0  0
 11 20  1  0  0  0  0
 11 12  1  0  0  0  0
 11 34  1  0  0  0  0
 12 13  1  0  0  0  0
 12 35  1  0  0  0  0
 12 36  1  0  0  0  0
 13 14  1  0  0  0  0
 13 18  1  0  0  0  0
 13 51  1  0  0  0  0
 14 15  1  0  0  0  0
 14 37  1  0  0  0  0
 14 38  1  0  0  0  0
 15 16  1  0  0  0  0
 15 17  1  0  0  0  0
 15 39  1  0  0  0  0
 16 40  1  0  0  0  0
 16 41  1  0  0  0  0
 16 42  1  0  0  0  0
 17 43  1  0  0  0  0
 17 44  1  0  0  0  0
 17 45  1  0  0  0  0
 18 19  1  0  0  0  0
 18 46  1  0  0  0  0
 18 47  1  0  0  0  0
 19 20  1  0  0  0  0
 19 48  1  0  0  0  0
 19 49  1  0  0  0  0
 21 22  2  0  0  0  0
 21 23  1  0  0  0  0
 23 50  1  0  0  0  0
M  CHG  1  13   1
M  END
> <s_m_source_file>
AV-unprocessed.smi

> <i_m_source_file_index>
712

> <i_lp_mmshare_version>
43012

> <i_f3d_flags>
0

> <s_epik_input>
W0NIM11jMVtjSF1bY0hdbihjKD1PKVtjSF0xKVtDSDJdQyg9TylbTkhdW0NIMl1bQ0BASF0yW0NIMl1OKFtDSDJdW0NIMl1PMilbQ0gyXVtDSF0oW0NIM10pW0NIM10=

> <s_epik_cmdline>
J2VwaWtfcHl0aG9uJywgJy1waCcsICc3LjAnLCAnLXRuJywgJzgnLCAnLW1hJywgJzIwMCcsICctbWV0YWxfYmluZGluZycsICctaW1hZScsICc8aW5maWxlLm1hZT4nLCAnLW9tYWUnLCAnPG91dGZpbGUubWFlPic=

> <r_lp_tautomer_probability>
1

> <r_epik_Ionization_Penalty>
0.0975935

> <r_epik_Ionization_Penalty_Charging>
0.0975934

> <r_epik_Ionization_Penalty_Neutral>
6.27044e-08

> <r_epik_State_Penalty>
0.0877056

> <r_epik_Charging_Adjusted_Penalty>
0.185299

> <i_epik_Tot_Q>
1

> <i_epik_Tot_abs_Q>
1

> <r_epik_Metal_State_Penalty>
0.0877109

> <b_epik_Metal_Only>
0

> <s_lp_Force_Field>
OPLS_2005

> <r_lp_Energy>
28.3742

> <b_lp_Chiralities_Consistent>
1

> <s_lp_Variant>
AV-unprocessed.smi:712-2

> <Gold.Version>
5.8.1

> <Gold.Id.Protein>
6NUR|6NUR_protein|mol2

> <Gold.PLP.Fitness>
45.4706

> <Gold.PLP.PLP>
-37.7690

> <Gold.PLP.part.hbond>
-2.7773

> <Gold.PLP.part.metal>
0.0000

> <Gold.PLP.part.buried>
-5.2413

> <Gold.PLP.part.nonpolar>
-29.8668

> <Gold.PLP.part.repulsive>
0.0957

> <Gold.PLP.ligand.clash>
0.0000

> <Gold.PLP.ligand.torsion>
0.7097

> <Gold.PLP.Chemscore.Hbond>
3.0000

> <Gold.PLP.Chemscore.CHOScore>
0.0000

> <Gold.PLP.Chemscore.Metal>
0.0000

> <Gold.Chemscore.Hbonds>
donor molecule, donor type, donor heavy atom, donor atom, acceptor molecule, acceptor atom, score
      L1  H    13    51       P1  7948  2.00

> <Gold.PLP.Chemscore.Internal.Correction>
0.1210

> <Gold.Rescore>
     Score         DG    S(hbond)    S(metal)    S(lipo)     H(rot)  DE(clash)    DE(int)     intcor
     16.62     -17.34       1.96        0.00      86.75       1.89       0.00       0.72       ----

> <Gold.Chemscore.Fitness>
16.6214

> <Gold.Chemscore.DG>
-17.3445

> <Gold.Chemscore.ZeroCoef>
-5.4800

> <Gold.Chemscore.Hbond>
1.9598

> <Gold.Chemscore.Metal>
0.0000

> <Gold.Chemscore.Lipo>
86.7497

> <Gold.Chemscore.Internal_Hbond>
0.0000

> <Gold.Chemscore.DEClash>
0.0000

> <Gold.Chemscore.DEInternal>
0.7231

> <Gold.Chemscore.Rot>
1.8871

> <Gold.Chemscore.Internal.Correction>
   9.000000E+99

> <Gold.Chemscore.Hbonds>
donor molecule, donor type, donor heavy atom, donor atom, acceptor molecule, acceptor atom, score
      L1  H    13    51       P1  7948  0.50
      P1  H  6896  6909       L1     8  0.01

> <Gold.Chemscore.Hbond.Weighted>
-6.5458

> <Gold.Chemscore.Metal.Weighted>
-0.0000

> <Gold.Chemscore.Lipo.Weighted>
-10.1497

> <Gold.Chemscore.Internal_Hbond.Weighted>
0.0000

> <Gold.Chemscore.DEClash.Weighted>
0.0000

> <Gold.Chemscore.DEInternal.Weighted>
0.7231

> <Gold.Chemscore.Rot.Weighted>
4.8309

> <Gold.Chemscore.Internal.Correction.Weighted>
   9.000000E+99

> <Gold.Protein.RotatedTorsions>
[ 6907 6896 6895 6894 ] final  112.48 input  -60.11 | X-H torsion
[ 7974 7965 7964 7962 ] final -132.49 input  175.53 | X-H torsion
[ 8008 7997 7996 7995 ] final  168.52 input   59.86 | X-H torsion
[ 10167 10162 10161 10158 ] final  162.94 input  -65.29 | X-H torsion
[ 10718 10713 10712 10709 ] final -114.90 input   66.30 | X-H torsion
[ 10763 10752 10751 10750 ] final  165.87 input  -60.55 | X-H torsion
[ 11005 11000 10999 10996 ] final -133.32 input  -57.11 | X-H torsion

> <Gold.Protein.ActiveResidues>
 VAL166  LYS551  ARG553  GLY616  TRP617  ASP618  TYR619  PRO620  LYS621  CYS622 
 ASP623  PHE694  ASN695  SER759  ASP760  ASP761  ALA762  ILE779  LEU786  VAL792 
 PHE793  MET794  SER795  GLU796  ALA797  LYS798  CYS799  TRP800  GLU811  SER814 

> <Gold.Protein.RotatedAtoms>
  152.4914  133.8510  159.7201 H   0  0  0  0  0  0  0  0  0  0  0  0  # atno 6907 bound_to 6896
  150.9047  133.7064  159.2876 H   0  0  0  0  0  0  0  0  0  0  0  0  # atno 6908 bound_to 6896
  151.4494  135.1032  159.9745 H   0  0  0  0  0  0  0  0  0  0  0  0  # atno 6909 bound_to 6896
  144.9280  140.7095  143.4923 H   0  0  0  0  0  0  0  0  0  0  0  0  # atno 7974 bound_to 7965
  156.1539  140.1588  156.8724 H   0  0  0  0  0  0  0  0  0  0  0  0  # atno 8008 bound_to 7997
  154.5097  140.0804  156.8002 H   0  0  0  0  0  0  0  0  0  0  0  0  # atno 8009 bound_to 7997
  155.3841  140.3406  155.4250 H   0  0  0  0  0  0  0  0  0  0  0  0  # atno 8010 bound_to 7997
  139.4867  144.4387  151.8979 H   0  0  0  0  0  0  0  0  0  0  0  0  # atno 10167 bound_to 10162
  156.0860  130.6052  150.8836 H   0  0  0  0  0  0  0  0  0  0  0  0  # atno 10718 bound_to 10713
  154.3305  135.2755  155.2474 H   0  0  0  0  0  0  0  0  0  0  0  0  # atno 10763 bound_to 10752
  154.4788  135.5864  153.6378 H   0  0  0  0  0  0  0  0  0  0  0  0  # atno 10764 bound_to 10752
  152.9867  135.6106  154.3497 H   0  0  0  0  0  0  0  0  0  0  0  0  # atno 10765 bound_to 10752
  140.9091  134.1591  157.4403 H   0  0  0  0  0  0  0  0  0  0  0  0  # atno 11005 bound_to 11000
  145.3187  139.1795  143.4599 LP  0  0  0  0  0  0  0  0  0  0  0  0  # atno 17320 bound_to 7965
  146.3235  140.3202  142.8633 LP  0  0  0  0  0  0  0  0  0  0  0  0  # atno 17321 bound_to 7965
  140.3838  144.2703  150.5906 LP  0  0  0  0  0  0  0  0  0  0  0  0  # atno 17342 bound_to 10162
  140.5209  143.2266  151.8390 LP  0  0  0  0  0  0  0  0  0  0  0  0  # atno 17343 bound_to 10162
  157.5995  131.0942  150.8985 LP  0  0  0  0  0  0  0  0  0  0  0  0  # atno 17370 bound_to 10713
  156.9145  130.5292  149.5280 LP  0  0  0  0  0  0  0  0  0  0  0  0  # atno 17371 bound_to 10713
  139.8754  134.9928  156.5616 LP  0  0  0  0  0  0  0  0  0  0  0  0  # atno 17394 bound_to 11000
  140.8133  133.8412  155.8829 LP  0  0  0  0  0  0  0  0  0  0  0  0  # atno 17395 bound_to 11000

$$$$
