AV-unprocessed.smi:127|AV-procd|sdf|1153|dock10
  -GOLD-   2262018293D 1   1.00000     0.00000
 Structure written by MMmdl.
 28 29  0  0  0  0  0  0  0  0  2 V2000
  152.8337  136.5747  156.8074 O   0  0  0  0  0  0  0  0  0  0  0  0
  152.6582  137.8104  156.7327 C   0  0  0  0  0  0  0  0  0  0  0  0
  152.9921  138.5362  155.7709 O   0  5  0  0  0  0  0  0  0  0  0  0
  151.9720  138.4934  157.9196 C   0  0  0  0  0  0  0  0  0  0  0  0
  151.5993  139.8724  157.6367 N   0  0  0  0  0  0  0  0  0  0  0  0
  150.7824  140.1160  156.5032 C   0  0  0  0  0  0  0  0  0  0  0  0
  150.2850  139.2023  155.8425 O   0  0  0  0  0  0  0  0  0  0  0  0
  150.5763  141.5266  156.1933 C   0  0  0  0  0  0  0  0  0  0  0  0
  149.7931  141.8726  155.1572 F   0  0  0  0  0  0  0  0  0  0  0  0
  151.1578  142.4958  156.9314 C   0  0  0  0  0  0  0  0  0  0  0  0
  151.9814  142.2302  158.0119 N   0  0  0  0  0  0  0  0  0  0  0  0
  152.6134  143.3458  158.8145 C   0  0  2  0  0  0  0  0  0  0  0  0
  152.0974  143.3177  160.2577 C   0  0  0  0  0  0  0  0  0  0  0  0
  150.9400  144.2902  160.1924 C   0  0  0  0  0  0  0  0  0  0  0  0
  151.4590  145.3171  159.1922 C   0  0  0  0  0  0  0  0  0  0  0  0
  152.2440  144.5764  158.2606 O   0  0  0  0  0  0  0  0  0  0  0  0
  152.2221  140.8928  158.3969 C   0  0  0  0  0  0  0  0  0  0  0  0
  152.9402  140.6383  159.3669 O   0  0  0  0  0  0  0  0  0  0  0  0
  151.0767  137.9468  158.2197 H   0  0  0  0  0  0  0  0  0  0  0  0
  152.6134  138.4828  158.8023 H   0  0  0  0  0  0  0  0  0  0  0  0
  150.9609  143.5207  156.6547 H   0  0  0  0  0  0  0  0  0  0  0  0
  153.6926  143.2122  158.7253 H   0  0  0  0  0  0  0  0  0  0  0  0
  151.8191  142.3143  160.5826 H   0  0  0  0  0  0  0  0  0  0  0  0
  152.8805  143.6982  160.9146 H   0  0  0  0  0  0  0  0  0  0  0  0
  150.0517  143.7936  159.8003 H   0  0  0  0  0  0  0  0  0  0  0  0
  150.6896  144.7249  161.1603 H   0  0  0  0  0  0  0  0  0  0  0  0
  150.6564  145.8624  158.6952 H   0  0  0  0  0  0  0  0  0  0  0  0
  152.1038  146.0411  159.6919 H   0  0  0  0  0  0  0  0  0  0  0  0
  1  2  2  0  0  0  0
  2  3  1  0  0  0  0
  2  4  1  0  0  0  0
  4  5  1  0  0  0  0
  4 19  1  0  0  0  0
  4 20  1  0  0  0  0
  5 17  1  0  0  0  0
  5  6  1  0  0  0  0
  6  7  2  0  0  0  0
  6  8  1  0  0  0  0
  8  9  1  0  0  0  0
  8 10  2  0  0  0  0
 10 11  1  0  0  0  0
 10 21  1  0  0  0  0
 11 12  1  0  0  0  0
 11 17  1  0  0  0  0
 12 16  1  0  0  0  0
 12 13  1  0  0  0  0
 12 22  1  0  0  0  0
 13 14  1  0  0  0  0
 13 23  1  0  0  0  0
 13 24  1  0  0  0  0
 14 15  1  0  0  0  0
 14 25  1  0  0  0  0
 14 26  1  0  0  0  0
 15 16  1  0  0  0  0
 15 27  1  0  0  0  0
 15 28  1  0  0  0  0
 17 18  2  0  0  0  0
M  CHG  1   3  -1
M  END
> <s_m_source_file>
AV-unprocessed.smi

> <i_m_source_file_index>
127

> <i_lp_mmshare_version>
43012

> <i_f3d_flags>
0

> <s_epik_input>
Tz1DKFtPSF0pW0NIMl1uMWMoPU8pYyhGKVtjSF1uKGMxPU8pW0NAQEhdMltDSDJdW0NIMl1bQ0gyXU8y

> <s_epik_cmdline>
J2VwaWtfcHl0aG9uJywgJy1waCcsICc3LjAnLCAnLXRuJywgJzgnLCAnLW1hJywgJzIwMCcsICctbWV0YWxfYmluZGluZycsICctaW1hZScsICc8aW5maWxlLm1hZT4nLCAnLW9tYWUnLCAnPG91dGZpbGUubWFlPic=

> <r_lp_tautomer_probability>
1

> <r_epik_Ionization_Penalty>
0.00125813

> <r_epik_Ionization_Penalty_Charging>
0.00125813

> <r_epik_Ionization_Penalty_Neutral>
6.20402e-12

> <r_epik_State_Penalty>
0.000832915

> <r_epik_Charging_Adjusted_Penalty>
0.00209104

> <i_epik_Tot_Q>
-1

> <i_epik_Tot_abs_Q>
1

> <r_epik_Metal_State_Penalty>
-0

> <b_epik_Metal_Only>
0

> <s_epik_Chemistry_Notes>
This compound contains an acetal/aminal-like group ( X-CH(R)-Y where X, Y are N, S, or O) that may be acid/base labile, releasing an aldehyde.

> <s_lp_Force_Field>
OPLS_2005

> <r_lp_Energy>
23.3893

> <b_lp_Chiralities_Consistent>
1

> <s_lp_Variant>
AV-unprocessed.smi:127-1

> <Gold.Version>
5.8.1

> <Gold.Id.Protein>
6NUR|6NUR_protein|mol2

> <Gold.PLP.Fitness>
47.8710

> <Gold.PLP.PLP>
-33.0984

> <Gold.PLP.part.hbond>
-2.0000

> <Gold.PLP.part.metal>
0.0000

> <Gold.PLP.part.buried>
-5.6787

> <Gold.PLP.part.nonpolar>
-25.8238

> <Gold.PLP.part.repulsive>
0.0702

> <Gold.PLP.ligand.clash>
0.0000

> <Gold.PLP.ligand.torsion>
0.1291

> <Gold.PLP.Chemscore.Hbond>
4.0000

> <Gold.PLP.Chemscore.CHOScore>
0.9954

> <Gold.PLP.Chemscore.Metal>
0.0000

> <Gold.Chemscore.Hbonds>
donor molecule, donor type, donor heavy atom, donor atom, acceptor molecule, acceptor atom, score
      P1  H  7997  8009       L1     3  1.46
      P1  H 10752 10765       L1     1  2.00
      L1  C    10    21       P1  8028  0.88

> <Gold.PLP.Chemscore.Internal.Correction>
0.0448

> <Gold.Rescore>
     Score         DG    S(hbond)    S(metal)    S(lipo)     H(rot)  DE(clash)    DE(int)     intcor
      9.66     -12.45       1.82        0.00      53.04       2.08       0.00       2.78       ----

> <Gold.Chemscore.Fitness>
9.6617

> <Gold.Chemscore.DG>
-12.4450

> <Gold.Chemscore.ZeroCoef>
-5.4800

> <Gold.Chemscore.Hbond>
1.8188

> <Gold.Chemscore.Metal>
0.0000

> <Gold.Chemscore.Lipo>
53.0429

> <Gold.Chemscore.Internal_Hbond>
0.0000

> <Gold.Chemscore.DEClash>
0.0024

> <Gold.Chemscore.DEInternal>
2.7809

> <Gold.Chemscore.Rot>
2.0765

> <Gold.Chemscore.Internal.Correction>
   9.000000E+99

> <Gold.Chemscore.Hbonds>
donor molecule, donor type, donor heavy atom, donor atom, acceptor molecule, acceptor atom, score
      P1  H  7997  8009       L1     3  0.64
      P1  H 10752 10765       L1     1  0.94

> <Gold.Chemscore.Hbond.Weighted>
-6.0749

> <Gold.Chemscore.Metal.Weighted>
-0.0000

> <Gold.Chemscore.Lipo.Weighted>
-6.2060

> <Gold.Chemscore.Internal_Hbond.Weighted>
0.0000

> <Gold.Chemscore.DEClash.Weighted>
0.0024

> <Gold.Chemscore.DEInternal.Weighted>
2.7809

> <Gold.Chemscore.Rot.Weighted>
5.3159

> <Gold.Chemscore.Internal.Correction.Weighted>
   9.000000E+99

> <Gold.Protein.RotatedTorsions>
[ 6907 6896 6895 6894 ] final  -47.34 input  -60.11 | X-H torsion
[ 7974 7965 7964 7962 ] final    3.80 input  175.53 | X-H torsion
[ 8008 7997 7996 7995 ] final -157.56 input   59.86 | X-H torsion
[ 10167 10162 10161 10158 ] final  -49.93 input  -65.29 | X-H torsion
[ 10718 10713 10712 10709 ] final   11.38 input   66.30 | X-H torsion
[ 10763 10752 10751 10750 ] final -125.95 input  -60.55 | X-H torsion
[ 11005 11000 10999 10996 ] final   39.10 input  -57.11 | X-H torsion

> <Gold.Protein.ActiveResidues>
 VAL166  LYS551  ARG553  GLY616  TRP617  ASP618  TYR619  PRO620  LYS621  CYS622 
 ASP623  PHE694  ASN695  SER759  ASP760  ASP761  ALA762  ILE779  LEU786  VAL792 
 PHE793  MET794  SER795  GLU796  ALA797  LYS798  CYS799  TRP800  GLU811  SER814 

> <Gold.Protein.RotatedAtoms>
  150.9018  134.8430  159.7364 H   0  0  0  0  0  0  0  0  0  0  0  0  # atno 6907 bound_to 6896
  152.4896  134.4491  159.9578 H   0  0  0  0  0  0  0  0  0  0  0  0  # atno 6908 bound_to 6896
  151.4542  133.3570  159.2835 H   0  0  0  0  0  0  0  0  0  0  0  0  # atno 6909 bound_to 6896
  146.2445  140.0631  142.8367 H   0  0  0  0  0  0  0  0  0  0  0  0  # atno 7974 bound_to 7965
  155.7343  140.0806  157.2275 H   0  0  0  0  0  0  0  0  0  0  0  0  # atno 8008 bound_to 7997
  154.4029  140.1589  156.2599 H   0  0  0  0  0  0  0  0  0  0  0  0  # atno 8009 bound_to 7997
  155.9080  140.3405  155.6079 H   0  0  0  0  0  0  0  0  0  0  0  0  # atno 8010 bound_to 7997
  140.6662  143.2678  151.4286 H   0  0  0  0  0  0  0  0  0  0  0  0  # atno 10167 bound_to 10162
  156.9947  130.6056  149.5689 H   0  0  0  0  0  0  0  0  0  0  0  0  # atno 10718 bound_to 10713
  154.8741  135.4012  154.3352 H   0  0  0  0  0  0  0  0  0  0  0  0  # atno 10763 bound_to 10752
  153.4159  135.7022  153.6332 H   0  0  0  0  0  0  0  0  0  0  0  0  # atno 10764 bound_to 10752
  153.5015  135.3726  155.2512 H   0  0  0  0  0  0  0  0  0  0  0  0  # atno 10765 bound_to 10752
  140.2061  134.3811  155.8072 H   0  0  0  0  0  0  0  0  0  0  0  0  # atno 11005 bound_to 11000
  145.0882  140.9267  143.4785 LP  0  0  0  0  0  0  0  0  0  0  0  0  # atno 17320 bound_to 7965
  145.0798  139.2968  143.5789 LP  0  0  0  0  0  0  0  0  0  0  0  0  # atno 17321 bound_to 7965
  139.5911  144.1496  152.2089 LP  0  0  0  0  0  0  0  0  0  0  0  0  # atno 17342 bound_to 10162
  140.0851  144.5668  150.7094 LP  0  0  0  0  0  0  0  0  0  0  0  0  # atno 17343 bound_to 10162
  156.0194  130.5288  150.8230 LP  0  0  0  0  0  0  0  0  0  0  0  0  # atno 17370 bound_to 10713
  157.5433  131.0941  150.9797 LP  0  0  0  0  0  0  0  0  0  0  0  0  # atno 17371 bound_to 10713
  141.2227  133.7119  156.8340 LP  0  0  0  0  0  0  0  0  0  0  0  0  # atno 17394 bound_to 11000
  140.2001  134.8903  157.3159 LP  0  0  0  0  0  0  0  0  0  0  0  0  # atno 17395 bound_to 11000

$$$$
