AV-unprocessed.smi:221|AV-procd|sdf|1688|dock9
  -GOLD-   2262020133D 1   1.00000     0.00000
 Structure written by MMmdl.
 50 53  0  0  0  0  0  0  0  0  1 V2000
  151.3775  144.0988  156.8836 N   0  0  0  0  0  0  0  0  0  0  0  0
  151.9220  144.0774  158.1023 C   0  0  0  0  0  0  0  0  0  0  0  0
  152.5302  145.0415  158.5641 O   0  0  0  0  0  0  0  0  0  0  0  0
  151.7397  142.7917  158.9213 C   0  0  2  0  0  0  0  0  0  0  0  0
  152.3558  142.9161  160.3281 C   0  0  0  0  0  0  0  0  0  0  0  0
  152.8273  141.5019  160.6371 C   0  0  2  0  0  0  0  0  0  0  0  0
  153.7781  141.4704  161.5705 F   0  0  0  0  0  0  0  0  0  0  0  0
  153.3207  141.0276  159.2764 C   0  0  0  0  0  0  0  0  0  0  0  0
  152.4236  141.6476  158.3031 N   0  0  0  0  0  0  0  0  0  0  0  0
  151.6045  140.8388  157.5866 C   0  0  0  0  0  0  0  0  0  0  0  0
  151.2060  141.2030  156.3387 N   0  0  0  0  0  0  0  0  0  0  0  0
  150.4266  140.3900  155.6196 C   0  0  0  0  0  0  0  0  0  0  0  0
  149.9432  139.1904  155.9488 N   0  0  0  0  0  0  0  0  0  0  0  0
  150.3445  138.8196  157.1987 C   0  0  0  0  0  0  0  0  0  0  0  0
  151.1739  139.5753  158.0739 C   0  0  0  0  0  0  0  0  0  0  0  0
  151.3815  138.8739  159.2539 N   0  0  0  0  0  0  0  0  0  0  0  0
  150.7150  137.7649  159.0858 C   0  0  0  0  0  0  0  0  0  0  0  0
  150.0363  137.6604  157.8911 N   0  0  0  0  0  0  0  0  0  0  0  0
  149.2304  136.5356  157.4373 C   0  0  0  0  0  0  0  0  0  0  0  0
  149.9014  135.6780  156.3267 C   0  0  2  0  0  0  0  0  0  0  0  0
  150.2215  136.5812  155.1122 C   0  0  0  0  0  0  0  0  0  0  0  0
  149.0353  137.0617  154.5131 O   0  0  0  0  0  0  0  0  0  0  0  0
  149.0513  134.4509  155.8725 C   0  0  2  0  0  0  0  0  0  0  0  0
  148.8995  133.3141  156.8742 C   0  0  0  0  0  0  0  0  0  0  0  0
  150.2035  132.5381  156.7232 C   0  0  0  0  0  0  0  0  0  0  0  0
  150.6054  132.7406  155.3730 O   0  0  0  0  0  0  0  0  0  0  0  0
  149.7193  133.6577  154.7387 C   0  0  0  0  0  0  0  0  0  0  0  0
  150.6737  142.5738  159.0248 H   0  0  0  0  0  0  0  0  0  0  0  0
  151.9956  140.8858  160.9816 H   0  0  0  0  0  0  0  0  0  0  0  0
  151.4794  144.9200  156.3051 H   0  0  0  0  0  0  0  0  0  0  0  0
  150.8743  143.2935  156.5406 H   0  0  0  0  0  0  0  0  0  0  0  0
  153.2136  143.5918  160.3244 H   0  0  0  0  0  0  0  0  0  0  0  0
  151.6446  143.2874  161.0663 H   0  0  0  0  0  0  0  0  0  0  0  0
  154.3251  141.4077  159.0851 H   0  0  0  0  0  0  0  0  0  0  0  0
  153.3785  139.9399  159.2165 H   0  0  0  0  0  0  0  0  0  0  0  0
  150.1518  140.7519  154.6398 H   0  0  0  0  0  0  0  0  0  0  0  0
  150.6973  136.9912  159.8393 H   0  0  0  0  0  0  0  0  0  0  0  0
  148.9650  135.9083  158.2889 H   0  0  0  0  0  0  0  0  0  0  0  0
  148.2923  136.9630  157.0828 H   0  0  0  0  0  0  0  0  0  0  0  0
  150.8546  135.2997  156.6972 H   0  0  0  0  0  0  0  0  0  0  0  0
  150.8102  137.4515  155.3960 H   0  0  0  0  0  0  0  0  0  0  0  0
  150.8074  136.0373  154.3705 H   0  0  0  0  0  0  0  0  0  0  0  0
  149.1520  137.0638  153.5752 H   0  0  0  0  0  0  0  0  0  0  0  0
  148.0654  134.8043  155.5679 H   0  0  0  0  0  0  0  0  0  0  0  0
  148.6832  133.6145  157.8946 H   0  0  0  0  0  0  0  0  0  0  0  0
  148.0707  132.6760  156.5634 H   0  0  0  0  0  0  0  0  0  0  0  0
  150.9723  132.9405  157.3833 H   0  0  0  0  0  0  0  0  0  0  0  0
  150.0825  131.4784  156.9487 H   0  0  0  0  0  0  0  0  0  0  0  0
  148.9685  133.0838  154.1933 H   0  0  0  0  0  0  0  0  0  0  0  0
  150.2521  134.2665  154.0100 H   0  0  0  0  0  0  0  0  0  0  0  0
  1  2  1  0  0  0  0
  1 30  1  0  0  0  0
  1 31  1  0  0  0  0
  2  3  2  0  0  0  0
  2  4  1  0  0  0  0
  4 28  1  0  0  0  0
  4  9  1  0  0  0  0
  4  5  1  0  0  0  0
  5  6  1  0  0  0  0
  5 32  1  0  0  0  0
  5 33  1  0  0  0  0
  6 29  1  0  0  0  0
  6  7  1  0  0  0  0
  6  8  1  0  0  0  0
  8  9  1  0  0  0  0
  8 34  1  0  0  0  0
  8 35  1  0  0  0  0
  9 10  1  0  0  0  0
 10 15  1  0  0  0  0
 10 11  2  0  0  0  0
 11 12  1  0  0  0  0
 12 13  2  0  0  0  0
 12 36  1  0  0  0  0
 13 14  1  0  0  0  0
 14 18  1  0  0  0  0
 14 15  2  0  0  0  0
 15 16  1  0  0  0  0
 16 17  2  0  0  0  0
 17 18  1  0  0  0  0
 17 37  1  0  0  0  0
 18 19  1  0  0  0  0
 19 20  1  0  0  0  0
 19 38  1  0  0  0  0
 19 39  1  0  0  0  0
 20 21  1  0  0  0  0
 20 23  1  0  0  0  0
 20 40  1  0  0  0  0
 21 22  1  0  0  0  0
 21 41  1  0  0  0  0
 21 42  1  0  0  0  0
 22 43  1  0  0  0  0
 23 27  1  0  0  0  0
 23 24  1  0  0  0  0
 23 44  1  0  0  0  0
 24 25  1  0  0  0  0
 24 45  1  0  0  0  0
 24 46  1  0  0  0  0
 25 26  1  0  0  0  0
 25 47  1  0  0  0  0
 25 48  1  0  0  0  0
 26 27  1  0  0  0  0
 27 49  1  0  0  0  0
 27 50  1  0  0  0  0
M  END
> <s_m_source_file>
AV-unprocessed.smi

> <i_m_source_file_index>
221

> <i_lp_mmshare_version>
43012

> <i_f3d_flags>
0

> <s_epik_input>
W05IMl1DKD1PKVtDQEBIXTFbQ0gyXVtDQEBIXShGKVtDSDJdTjFjKG5bY0hdbjIpYyhjMjMpbltjSF1uM1tDSDJdW0NASF0oW0NIMl1bT0hdKVtDQEBIXTRbQ0gyXVtDSDJdT1tDSDJdNA==

> <s_epik_cmdline>
J2VwaWtfcHl0aG9uJywgJy1waCcsICc3LjAnLCAnLXRuJywgJzgnLCAnLW1hJywgJzIwMCcsICctbWV0YWxfYmluZGluZycsICctaW1hZScsICc8aW5maWxlLm1hZT4nLCAnLW9tYWUnLCAnPG91dGZpbGUubWFlPic=

> <r_lp_tautomer_probability>
1

> <r_epik_Ionization_Penalty>
0.000818822

> <r_epik_Ionization_Penalty_Charging>
0

> <r_epik_Ionization_Penalty_Neutral>
0.000818822

> <r_epik_State_Penalty>
0.000440551

> <r_epik_Charging_Adjusted_Penalty>
0.000440551

> <i_epik_Tot_Q>
0

> <i_epik_Tot_abs_Q>
0

> <r_epik_Metal_State_Penalty>
-0

> <b_epik_Metal_Only>
0

> <s_lp_Force_Field>
OPLS_2005

> <r_lp_Energy>
54.2939

> <b_lp_Chiralities_Consistent>
1

> <s_lp_Variant>
AV-unprocessed.smi:221-3

> <Gold.Version>
5.8.1

> <Gold.Id.Protein>
6NUR|6NUR_protein|mol2

> <Gold.PLP.Fitness>
41.9410

> <Gold.PLP.PLP>
-40.3879

> <Gold.PLP.part.hbond>
-2.0000

> <Gold.PLP.part.metal>
0.0000

> <Gold.PLP.part.buried>
-5.6554

> <Gold.PLP.part.nonpolar>
-32.5254

> <Gold.PLP.part.repulsive>
0.0934

> <Gold.PLP.ligand.clash>
0.0000

> <Gold.PLP.ligand.torsion>
0.8320

> <Gold.PLP.Chemscore.Hbond>
1.0000

> <Gold.PLP.Chemscore.CHOScore>
0.0000

> <Gold.PLP.Chemscore.Metal>
0.0000

> <Gold.Chemscore.Hbonds>
donor molecule, donor type, donor heavy atom, donor atom, acceptor molecule, acceptor atom, score
      L1  H    22    43       P1  7948  1.00

> <Gold.PLP.Chemscore.Internal.Correction>
0.2171

> <Gold.Rescore>
     Score         DG    S(hbond)    S(metal)    S(lipo)     H(rot)  DE(clash)    DE(int)     intcor
      3.88      -8.50       1.29        0.00      70.30       3.72       0.01       4.61       ----

> <Gold.Chemscore.Fitness>
3.8769

> <Gold.Chemscore.DG>
-8.5038

> <Gold.Chemscore.ZeroCoef>
-5.4800

> <Gold.Chemscore.Hbond>
1.2943

> <Gold.Chemscore.Metal>
0.0000

> <Gold.Chemscore.Lipo>
70.2958

> <Gold.Chemscore.Internal_Hbond>
0.0000

> <Gold.Chemscore.DEClash>
0.0144

> <Gold.Chemscore.DEInternal>
4.6125

> <Gold.Chemscore.Rot>
3.7202

> <Gold.Chemscore.Internal.Correction>
   9.000000E+99

> <Gold.Chemscore.Hbonds>
donor molecule, donor type, donor heavy atom, donor atom, acceptor molecule, acceptor atom, score
      L1  H    22    43       P1  7948  0.96

> <Gold.Chemscore.Hbond.Weighted>
-4.3229

> <Gold.Chemscore.Metal.Weighted>
-0.0000

> <Gold.Chemscore.Lipo.Weighted>
-8.2246

> <Gold.Chemscore.Internal_Hbond.Weighted>
0.0000

> <Gold.Chemscore.DEClash.Weighted>
0.0144

> <Gold.Chemscore.DEInternal.Weighted>
4.6125

> <Gold.Chemscore.Rot.Weighted>
9.5237

> <Gold.Chemscore.Internal.Correction.Weighted>
   9.000000E+99

> <Gold.Protein.RotatedTorsions>
[ 6907 6896 6895 6894 ] final  120.95 input  -60.11 | X-H torsion
[ 7974 7965 7964 7962 ] final  173.28 input  175.53 | X-H torsion
[ 8008 7997 7996 7995 ] final   95.46 input   59.86 | X-H torsion
[ 10167 10162 10161 10158 ] final  -21.85 input  -65.29 | X-H torsion
[ 10718 10713 10712 10709 ] final  -76.35 input   66.30 | X-H torsion
[ 10763 10752 10751 10750 ] final   74.09 input  -60.55 | X-H torsion
[ 11005 11000 10999 10996 ] final    3.88 input  -57.11 | X-H torsion

> <Gold.Protein.ActiveResidues>
 VAL166  LYS551  ARG553  GLY616  TRP617  ASP618  TYR619  PRO620  LYS621  CYS622 
 ASP623  PHE694  ASN695  SER759  ASP760  ASP761  ALA762  ILE779  LEU786  VAL792 
 PHE793  MET794  SER795  GLU796  ALA797  LYS798  CYS799  TRP800  GLU811  SER814 

> <Gold.Protein.RotatedAtoms>
  152.4359  133.7360  159.6613 H   0  0  0  0  0  0  0  0  0  0  0  0  # atno 6907 bound_to 6896
  150.8243  133.8188  159.3131 H   0  0  0  0  0  0  0  0  0  0  0  0  # atno 6908 bound_to 6896
  151.5861  135.1058  160.0080 H   0  0  0  0  0  0  0  0  0  0  0  0  # atno 6909 bound_to 6896
  144.7247  139.9624  143.6435 H   0  0  0  0  0  0  0  0  0  0  0  0  # atno 7974 bound_to 7965
  156.0691  140.3286  155.7554 H   0  0  0  0  0  0  0  0  0  0  0  0  # atno 8008 bound_to 7997
  155.5334  140.0595  157.2902 H   0  0  0  0  0  0  0  0  0  0  0  0  # atno 8009 bound_to 7997
  154.4521  140.1923  156.0507 H   0  0  0  0  0  0  0  0  0  0  0  0  # atno 8010 bound_to 7997
  140.7284  143.4589  151.0408 H   0  0  0  0  0  0  0  0  0  0  0  0  # atno 10167 bound_to 10162
  156.0178  130.4463  150.3180 H   0  0  0  0  0  0  0  0  0  0  0  0  # atno 10718 bound_to 10713
  153.0564  135.5039  154.7990 H   0  0  0  0  0  0  0  0  0  0  0  0  # atno 10763 bound_to 10752
  154.6813  135.2969  154.9611 H   0  0  0  0  0  0  0  0  0  0  0  0  # atno 10764 bound_to 10752
  154.0397  135.6718  153.4841 H   0  0  0  0  0  0  0  0  0  0  0  0  # atno 10765 bound_to 10752
  140.5881  133.9949  155.8077 H   0  0  0  0  0  0  0  0  0  0  0  0  # atno 11005 bound_to 11000
  146.0627  139.3620  143.0571 LP  0  0  0  0  0  0  0  0  0  0  0  0  # atno 17320 bound_to 7965
  145.8071  140.9743  143.0968 LP  0  0  0  0  0  0  0  0  0  0  0  0  # atno 17321 bound_to 7965
  139.8272  143.7740  152.3179 LP  0  0  0  0  0  0  0  0  0  0  0  0  # atno 17342 bound_to 10162
  139.7843  144.7433  151.0044 LP  0  0  0  0  0  0  0  0  0  0  0  0  # atno 17343 bound_to 10162
  157.1281  131.0264  151.2981 LP  0  0  0  0  0  0  0  0  0  0  0  0  # atno 17370 bound_to 10713
  157.4573  130.7633  149.7204 LP  0  0  0  0  0  0  0  0  0  0  0  0  # atno 17371 bound_to 10713
  141.0953  133.9854  157.3171 LP  0  0  0  0  0  0  0  0  0  0  0  0  # atno 17394 bound_to 11000
  139.9286  135.0201  156.8323 LP  0  0  0  0  0  0  0  0  0  0  0  0  # atno 17395 bound_to 11000

$$$$
