AV-unprocessed.smi:2510|AV-procd|sdf|9872|dock8
  -GOLD-   2272013503D 1   1.00000     0.00000
 Structure written by MMmdl.
 48 49  0  0  0  0  0  0  0  0  1 V2000
  149.4716  141.6610  154.6660 C   0  0  0  0  0  0  0  0  0  0  0  0
  148.7720  140.8515  155.7727 C   0  0  0  0  0  0  0  0  0  0  0  0
  149.3229  139.4204  156.0381 C   0  0  0  0  0  0  0  0  0  0  0  0
  148.5241  138.7573  157.1770 C   0  0  0  0  0  0  0  0  0  0  0  0
  147.0052  138.9811  157.1061 C   0  0  0  0  0  0  0  0  0  0  0  0
  149.5821  138.5119  154.8022 C   0  0  1  0  0  0  0  0  0  0  0  0
  148.8027  138.8263  153.6097 N   0  0  0  0  0  0  0  0  0  0  0  0
  147.4698  138.7089  153.5101 C   0  0  0  0  0  0  0  0  0  0  0  0
  146.7501  138.3420  154.4389 O   0  0  0  0  0  0  0  0  0  0  0  0
  146.8540  139.0500  152.1514 C   0  0  0  0  0  0  0  0  0  0  0  0
  146.3145  137.8095  151.4901 C   0  0  0  0  0  0  0  0  0  0  0  0
  145.6407  136.7112  152.1022 C   0  0  0  0  0  0  0  0  0  0  0  0
  145.3509  135.8712  151.0643 C   0  0  0  0  0  0  0  0  0  0  0  0
  144.6501  134.5563  151.0247 C   0  0  0  0  0  0  0  0  0  0  0  0
  145.8490  136.4730  149.9319 N   0  0  0  0  0  0  0  0  0  0  0  0
  146.4425  137.6552  150.1787 N   0  0  0  0  0  0  0  0  0  0  0  0
  151.0125  139.0548  154.7111 C   0  0  2  0  0  0  0  0  0  0  0  0
  152.1159  138.1304  154.2130 C   0  0  0  0  0  0  0  0  0  0  0  0
  150.8635  139.3330  156.2134 C   0  0  1  0  0  0  0  0  0  0  0  0
  151.4414  140.5511  156.6602 O   0  0  0  0  0  0  0  0  0  0  0  0
  151.1411  140.8510  158.0116 C   0  0  0  0  0  0  0  0  0  0  0  0
  145.7926  136.0931  148.9976 H   0  0  0  0  0  0  0  0  0  0  0  0
  149.1404  142.6993  154.6841 H   0  0  0  0  0  0  0  0  0  0  0  0
  149.2426  141.2703  153.6751 H   0  0  0  0  0  0  0  0  0  0  0  0
  150.5527  141.6605  154.7787 H   0  0  0  0  0  0  0  0  0  0  0  0
  148.8157  141.4418  156.6880 H   0  0  0  0  0  0  0  0  0  0  0  0
  147.7104  140.8061  155.5292 H   0  0  0  0  0  0  0  0  0  0  0  0
  148.7377  137.6904  157.2345 H   0  0  0  0  0  0  0  0  0  0  0  0
  148.8658  139.1519  158.1344 H   0  0  0  0  0  0  0  0  0  0  0  0
  146.5130  138.5451  157.9753 H   0  0  0  0  0  0  0  0  0  0  0  0
  146.5675  138.5210  156.2207 H   0  0  0  0  0  0  0  0  0  0  0  0
  146.7609  140.0434  157.0877 H   0  0  0  0  0  0  0  0  0  0  0  0
  149.5853  137.4497  155.0607 H   0  0  0  0  0  0  0  0  0  0  0  0
  149.3133  139.1467  152.7992 H   0  0  0  0  0  0  0  0  0  0  0  0
  146.0677  139.7933  152.2900 H   0  0  0  0  0  0  0  0  0  0  0  0
  147.6104  139.5154  151.5183 H   0  0  0  0  0  0  0  0  0  0  0  0
  145.3992  136.5692  153.1451 H   0  0  0  0  0  0  0  0  0  0  0  0
  144.2728  134.2858  152.0112 H   0  0  0  0  0  0  0  0  0  0  0  0
  145.3258  133.7673  150.6945 H   0  0  0  0  0  0  0  0  0  0  0  0
  143.8038  134.5886  150.3383 H   0  0  0  0  0  0  0  0  0  0  0  0
  151.0251  139.9994  154.1639 H   0  0  0  0  0  0  0  0  0  0  0  0
  152.1681  137.2165  154.8052 H   0  0  0  0  0  0  0  0  0  0  0  0
  153.0925  138.6110  154.2608 H   0  0  0  0  0  0  0  0  0  0  0  0
  151.9449  137.8403  153.1761 H   0  0  0  0  0  0  0  0  0  0  0  0
  151.1556  138.4777  156.8279 H   0  0  0  0  0  0  0  0  0  0  0  0
  151.5744  141.8158  158.2752 H   0  0  0  0  0  0  0  0  0  0  0  0
  151.5576  140.1044  158.6870 H   0  0  0  0  0  0  0  0  0  0  0  0
  150.0641  140.9109  158.1734 H   0  0  0  0  0  0  0  0  0  0  0  0
  1  2  1  0  0  0  0
  1 23  1  0  0  0  0
  1 24  1  0  0  0  0
  1 25  1  0  0  0  0
  2  3  1  0  0  0  0
  2 26  1  0  0  0  0
  2 27  1  0  0  0  0
  3 19  1  0  0  0  0
  3  4  1  0  0  0  0
  3  6  1  0  0  0  0
  4  5  1  0  0  0  0
  4 28  1  0  0  0  0
  4 29  1  0  0  0  0
  5 30  1  0  0  0  0
  5 31  1  0  0  0  0
  5 32  1  0  0  0  0
  6  7  1  0  0  0  0
  6 17  1  0  0  0  0
  6 33  1  0  0  0  0
  7  8  1  0  0  0  0
  7 34  1  0  0  0  0
  8  9  2  0  0  0  0
  8 10  1  0  0  0  0
 10 11  1  0  0  0  0
 10 35  1  0  0  0  0
 10 36  1  0  0  0  0
 11 16  2  0  0  0  0
 11 12  1  0  0  0  0
 12 13  2  0  0  0  0
 12 37  1  0  0  0  0
 13 14  1  0  0  0  0
 13 15  1  0  0  0  0
 14 38  1  0  0  0  0
 14 39  1  0  0  0  0
 14 40  1  0  0  0  0
 15 22  1  0  0  0  0
 15 16  1  0  0  0  0
 17 18  1  0  0  0  0
 17 19  1  0  0  0  0
 17 41  1  0  0  0  0
 18 42  1  0  0  0  0
 18 43  1  0  0  0  0
 18 44  1  0  0  0  0
 19 20  1  0  0  0  0
 19 45  1  0  0  0  0
 20 21  1  0  0  0  0
 21 46  1  0  0  0  0
 21 47  1  0  0  0  0
 21 48  1  0  0  0  0
M  END
> <s_m_source_file>
AV-unprocessed.smi

> <i_m_source_file_index>
2510

> <i_lp_mmshare_version>
43012

> <i_f3d_flags>
0

> <s_epik_input>
W0NIM11PW0NAQEhdMVtDQEhdKFtDSDNdKVtDQEBIXShDMShbQ0gyXVtDSDNdKVtDSDJdW0NIM10pW05IXUMoPU8pW0NIMl1jMltjSF1jKFtDSDNdKVtuSF1uMg==

> <s_epik_cmdline>
J2VwaWtfcHl0aG9uJywgJy1waCcsICc3LjAnLCAnLXRuJywgJzgnLCAnLW1hJywgJzIwMCcsICctbWV0YWxfYmluZGluZycsICctaW1hZScsICc8aW5maWxlLm1hZT4nLCAnLW9tYWUnLCAnPG91dGZpbGUubWFlPic=

> <r_lp_tautomer_probability>
0.5

> <r_epik_Ionization_Penalty>
9.73156e-05

> <r_epik_Ionization_Penalty_Charging>
0

> <r_epik_Ionization_Penalty_Neutral>
9.73156e-05

> <r_epik_State_Penalty>
0.41068

> <r_epik_Charging_Adjusted_Penalty>
0.41068

> <i_epik_Tot_Q>
0

> <i_epik_Tot_abs_Q>
0

> <r_epik_Metal_State_Penalty>
0.410699

> <b_epik_Metal_Only>
0

> <s_lp_Force_Field>
OPLS_2005

> <r_lp_Energy>
23.9763

> <b_lp_Chiralities_Consistent>
1

> <s_lp_Variant>
AV-unprocessed.smi:2510-3

> <Gold.Version>
5.8.1

> <Gold.Id.Protein>
6NUR|6NUR_protein|mol2

> <Gold.PLP.Fitness>
38.5585

> <Gold.PLP.PLP>
-31.4771

> <Gold.PLP.part.hbond>
-4.6167

> <Gold.PLP.part.metal>
0.0000

> <Gold.PLP.part.buried>
0.4693

> <Gold.PLP.part.nonpolar>
-29.6963

> <Gold.PLP.part.repulsive>
3.7415

> <Gold.PLP.ligand.clash>
0.0000

> <Gold.PLP.ligand.torsion>
0.8907

> <Gold.PLP.Chemscore.Hbond>
2.7520

> <Gold.PLP.Chemscore.CHOScore>
0.0000

> <Gold.PLP.Chemscore.Metal>
0.0000

> <Gold.Chemscore.Hbonds>
donor molecule, donor type, donor heavy atom, donor atom, acceptor molecule, acceptor atom, score
      L1  H     7    34       P1  7957  1.00
      L1  H    15    22       P1  7921  1.00
      P1  H  7954  7966       L1    16  0.75

> <Gold.PLP.Chemscore.Internal.Correction>
0.6067

> <Gold.Rescore>
     Score         DG    S(hbond)    S(metal)    S(lipo)     H(rot)  DE(clash)    DE(int)     intcor
     12.92     -19.46       2.67        0.00      82.82       1.81       2.22       4.32       ----

> <Gold.Chemscore.Fitness>
12.9168

> <Gold.Chemscore.DG>
-19.4568

> <Gold.Chemscore.ZeroCoef>
-5.4800

> <Gold.Chemscore.Hbond>
2.6708

> <Gold.Chemscore.Metal>
0.0000

> <Gold.Chemscore.Lipo>
82.8242

> <Gold.Chemscore.Internal_Hbond>
0.0000

> <Gold.Chemscore.DEClash>
2.2230

> <Gold.Chemscore.DEInternal>
4.3170

> <Gold.Chemscore.Rot>
1.8102

> <Gold.Chemscore.Internal.Correction>
   9.000000E+99

> <Gold.Chemscore.Hbonds>
donor molecule, donor type, donor heavy atom, donor atom, acceptor molecule, acceptor atom, score
      L1  H     7    34       P1  7957  0.99
      L1  H    15    22       P1  7921  0.98
      P1  H  7954  7966       L1    16  0.36

> <Gold.Chemscore.Hbond.Weighted>
-8.9205

> <Gold.Chemscore.Metal.Weighted>
-0.0000

> <Gold.Chemscore.Lipo.Weighted>
-9.6904

> <Gold.Chemscore.Internal_Hbond.Weighted>
0.0000

> <Gold.Chemscore.DEClash.Weighted>
2.2230

> <Gold.Chemscore.DEInternal.Weighted>
4.3170

> <Gold.Chemscore.Rot.Weighted>
4.6341

> <Gold.Chemscore.Internal.Correction.Weighted>
   9.000000E+99

> <Gold.Protein.RotatedTorsions>
[ 6907 6896 6895 6894 ] final  -57.86 input  -60.11 | X-H torsion
[ 7974 7965 7964 7962 ] final  133.42 input  175.53 | X-H torsion
[ 8008 7997 7996 7995 ] final  -23.91 input   59.86 | X-H torsion
[ 10167 10162 10161 10158 ] final   42.22 input  -65.29 | X-H torsion
[ 10718 10713 10712 10709 ] final   26.12 input   66.30 | X-H torsion
[ 10763 10752 10751 10750 ] final  -96.19 input  -60.55 | X-H torsion
[ 11005 11000 10999 10996 ] final   67.33 input  -57.11 | X-H torsion

> <Gold.Protein.ActiveResidues>
 VAL166  LYS551  ARG553  GLY616  TRP617  ASP618  TYR619  PRO620  LYS621  CYS622 
 ASP623  PHE694  ASN695  SER759  ASP760  ASP761  ALA762  ILE779  LEU786  VAL792 
 PHE793  MET794  SER795  GLU796  ALA797  LYS798  CYS799  TRP800  GLU811  SER814 

> <Gold.Protein.RotatedAtoms>
  150.8052  134.7172  159.6637 H   0  0  0  0  0  0  0  0  0  0  0  0  # atno 6907 bound_to 6896
  152.4171  134.6019  160.0012 H   0  0  0  0  0  0  0  0  0  0  0  0  # atno 6908 bound_to 6896
  151.6245  133.3299  159.3131 H   0  0  0  0  0  0  0  0  0  0  0  0  # atno 6909 bound_to 6896
  144.9867  139.4448  143.5359 H   0  0  0  0  0  0  0  0  0  0  0  0  # atno 7974 bound_to 7965
  154.4558  140.1968  156.0383 H   0  0  0  0  0  0  0  0  0  0  0  0  # atno 8008 bound_to 7997
  156.0743  140.3280  155.7587 H   0  0  0  0  0  0  0  0  0  0  0  0  # atno 8009 bound_to 7997
  155.5213  140.0570  157.2897 H   0  0  0  0  0  0  0  0  0  0  0  0  # atno 8010 bound_to 7997
  140.3565  144.2283  150.6141 H   0  0  0  0  0  0  0  0  0  0  0  0  # atno 10167 bound_to 10162
  157.2026  130.6897  149.6194 H   0  0  0  0  0  0  0  0  0  0  0  0  # atno 10718 bound_to 10713
  154.7217  135.5092  153.8823 H   0  0  0  0  0  0  0  0  0  0  0  0  # atno 10763 bound_to 10752
  153.0868  135.6648  153.9941 H   0  0  0  0  0  0  0  0  0  0  0  0  # atno 10764 bound_to 10752
  153.9762  135.3033  155.3403 H   0  0  0  0  0  0  0  0  0  0  0  0  # atno 10765 bound_to 10752
  139.9777  134.6795  156.0321 H   0  0  0  0  0  0  0  0  0  0  0  0  # atno 11005 bound_to 11000
  146.3421  139.9174  142.8771 LP  0  0  0  0  0  0  0  0  0  0  0  0  # atno 17320 bound_to 7965
  145.2343  140.9985  143.3972 LP  0  0  0  0  0  0  0  0  0  0  0  0  # atno 17321 bound_to 7965
  140.5168  143.2276  151.8450 LP  0  0  0  0  0  0  0  0  0  0  0  0  # atno 17342 bound_to 10162
  139.4819  144.4884  151.9216 LP  0  0  0  0  0  0  0  0  0  0  0  0  # atno 17343 bound_to 10162
  155.9699  130.4578  150.5974 LP  0  0  0  0  0  0  0  0  0  0  0  0  # atno 17370 bound_to 10713
  157.3752  131.0772  151.1524 LP  0  0  0  0  0  0  0  0  0  0  0  0  # atno 17371 bound_to 10713
  141.1453  133.6557  156.3848 LP  0  0  0  0  0  0  0  0  0  0  0  0  # atno 17394 bound_to 11000
  140.5160  134.6350  157.5301 LP  0  0  0  0  0  0  0  0  0  0  0  0  # atno 17395 bound_to 11000

$$$$
