#       Name:                AV-unprocessed.smi:2764
#       Creating user name   scv26
#       Creation time:       Fri Mar 27 15:09:20 2020


#       File generated by GOLD software.
#

@<TRIPOS>MOLECULE
AV-unprocessed.smi:2764
    52    54     1
SMALL
NO_CHARGES


@<TRIPOS>ATOM
      1 ****        -0.5795   3.7146   1.1453 O.2            1 S1                 0.0000
      2 ****        -1.1281   2.6129   1.1683 C.2            1 S1                 0.0000
      3 ****        -2.4559   2.4018   1.1423 N.am           1 S1                 0.0000
      4 ****        -3.4978   3.3660   1.0977 C.ar           1 S1                 0.0000
      5 ****        -4.8060   2.8315   1.0778 C.ar           1 S1                 0.0000
      6 ****        -5.9108   3.7043   1.0368 C.ar           1 S1                 0.0000
      7 ****        -5.6760   5.0906   1.0172 C.ar           1 S1                 0.0000
      8 ****        -6.7059   5.9688   0.9789 F              1 S1                 0.0000
      9 ****        -4.3432   5.5413   1.0378 C.ar           1 S1                 0.0000
     10 ****        -3.2835   4.7055   1.0765 N.ar           1 S1                 0.0000
     11 ****        -0.4544   1.4545   1.2193 N.am           1 S1                 0.0000
     12 ****         1.0015   1.3227   1.2736 C.3            1 S1                 0.0000
     13 ****         1.6542   1.5551  -0.1022 C.3            1 S1                 0.0000
     14 ****         1.3372   0.4170  -1.0879 C.3            1 S1                 0.0000
     15 ****         1.7382  -0.9077  -0.5433 N.4            1 S1                 1.0000
     16 ****         1.5418  -1.9946  -1.5398 C.3            1 S1                 0.0000
     17 ****         2.4786  -3.2044  -1.3304 C.3            1 S1                 0.0000
     18 ****         2.6080  -4.0650  -2.5750 C.3            1 S1                 0.0000
     19 ****         3.0819  -5.3904  -1.9992 C.3            1 S1                 0.0000
     20 ****         2.3160  -5.5277  -0.8135 O.3            1 S1                 0.0000
     21 ****         2.0197  -4.2371  -0.2872 C.3            1 S1                 0.0000
     22 ****         1.0848  -1.1766   0.7660 C.3            1 S1                 0.0000
     23 ****         1.3938  -0.0701   1.7914 C.3            1 S1                 0.0000
     24 ****        -2.7584   1.4392   1.1634 H              1 S1                 0.0000
     25 ****        -4.9673   1.7633   1.0949 H              1 S1                 0.0000
     26 ****        -6.9188   3.3161   1.0219 H              1 S1                 0.0000
     27 ****        -4.1208   6.5980   1.0236 H              1 S1                 0.0000
     28 ****        -0.9896   0.5989   1.2401 H              1 S1                 0.0000
     29 ****         1.3809   2.0673   1.9761 H              1 S1                 0.0000
     30 ****         1.3399   2.5114  -0.5219 H              1 S1                 0.0000
     31 ****         2.7356   1.6251   0.0233 H              1 S1                 0.0000
     32 ****         0.2722   0.4071  -1.3253 H              1 S1                 0.0000
     33 ****         1.8659   0.6076  -2.0228 H              1 S1                 0.0000
     34 ****         0.4949  -2.2993  -1.5788 H              1 S1                 0.0000
     35 ****         1.7677  -1.5885  -2.5269 H              1 S1                 0.0000
     36 ****         3.4783  -2.8542  -1.0675 H              1 S1                 0.0000
     37 ****         1.6371  -4.1966  -3.0552 H              1 S1                 0.0000
     38 ****         3.2990  -3.6524  -3.3105 H              1 S1                 0.0000
     39 ****         2.9264  -6.2284  -2.6789 H              1 S1                 0.0000
     40 ****         4.1415  -5.3448  -1.7429 H              1 S1                 0.0000
     41 ****         2.5350  -4.0969   0.6633 H              1 S1                 0.0000
     42 ****         0.9466  -4.1803  -0.1017 H              1 S1                 0.0000
     43 ****         0.0073  -1.2732   0.6241 H              1 S1                 0.0000
     44 ****         1.4317  -2.1218   1.1762 H              1 S1                 0.0000
     45 ****         2.4616  -0.0807   2.0147 H              1 S1                 0.0000
     46 ****         0.8864  -0.2804   2.7339 H              1 S1                 0.0000
     47 ****         2.7321  -0.8497  -0.3725 H              1 S1                 0.0000
     48 ****        -1.1316   4.5473   1.1039 LP             1 S1                 0.0000
     49 ****         0.4183   3.7769   1.1680 LP             1 S1                 0.0000
     50 ****        -2.3521   5.0693   1.0894 LP             1 S1                 0.0000
     51 ****         2.8367  -6.0512  -0.1391 LP             1 S1                 0.0000
     52 ****         1.4632  -6.0068  -1.0212 LP             1 S1                 0.0000
@<TRIPOS>BOND
    1    1    2 2     
    2    2    3 am    
    3    2   11 am    
    4    3    4 1     
    5    3   24 1     
    6    4   10 ar    
    7    4    5 ar    
    8    5    6 ar    
    9    5   25 1     
   10    6    7 ar    
   11    6   26 1     
   12    7    8 1     
   13    7    9 ar    
   14    9   10 ar    
   15    9   27 1     
   16   11   12 1     
   17   11   28 1     
   18   12   23 1     
   19   12   13 1     
   20   12   29 1     
   21   13   14 1     
   22   13   30 1     
   23   13   31 1     
   24   14   15 1     
   25   14   32 1     
   26   14   33 1     
   27   15   16 1     
   28   15   22 1     
   29   15   47 1     
   30   16   17 1     
   31   16   34 1     
   32   16   35 1     
   33   17   21 1     
   34   17   18 1     
   35   17   36 1     
   36   18   19 1     
   37   18   37 1     
   38   18   38 1     
   39   19   20 1     
   40   19   39 1     
   41   19   40 1     
   42   20   21 1     
   43   21   41 1     
   44   21   42 1     
   45   22   23 1     
   46   22   43 1     
   47   22   44 1     
   48   23   45 1     
   49   23   46 1     
   50    1   48 1     
   51    1   49 1     
   52   10   50 1     
   53   20   51 1     
   54   20   52 1     
@<TRIPOS>SUBSTRUCTURE
      1 S1             1
@<TRIPOS>SET
LONE_PAIRS      STATIC     ATOMS    <user>   **** ""
5 48 49 50 51 52
DONOR_HYDROGENS      STATIC     ATOMS    <user>   **** ""
3 24 28 47
ATOM$BLUE        STATIC     ATOMS    COLORGROUP SYSTEM
5 48 49 50 51 52
ATOM$RED        STATIC     ATOMS    COLORGROUP SYSTEM
3 24 28 47
