#       Name:                AV-unprocessed.smi:2094
#       Creating user name   scv26
#       Creation time:       Fri Mar 27 11:27:36 2020


#       File generated by GOLD software.
#

@<TRIPOS>MOLECULE
AV-unprocessed.smi:2094
    39    40     1
SMALL
NO_CHARGES


@<TRIPOS>ATOM
      1 ****        -1.3210   1.7950  -1.0584 O.2            1 S1                 0.0000
      2 ****        -2.1555   0.8894  -1.0663 C.2            1 S1                 0.0000
      3 ****        -1.8300  -0.4104  -1.0131 N.am           1 S1                 0.0000
      4 ****        -0.4663  -0.9236  -0.9528 C.3            1 S1                 0.0000
      5 ****         0.1375  -0.7655   0.4564 C.3            1 S1                 0.0000
      6 ****         1.5148  -1.3120   0.5469 N.4            1 S1                 1.0000
      7 ****         1.8839  -1.6714   1.9415 C.3            1 S1                 0.0000
      8 ****         3.2603  -2.3560   1.9970 C.3            1 S1                 0.0000
      9 ****         4.3400  -1.4725   1.3595 C.3            1 S1                 0.0000
     10 ****         3.9252  -1.0884  -0.0665 C.3            1 S1                 0.0000
     11 ****         2.5364  -0.4277  -0.0770 C.3            1 S1                 0.0000
     12 ****        -3.4880   1.0581  -1.1271 N.am           1 S1                 0.0000
     13 ****        -4.2160   2.2757  -1.1807 C.2            1 S1                 0.0000
     14 ****        -3.6567   3.4914  -1.1568 N.2            1 S1                 0.0000
     15 ****        -4.6120   4.5090  -1.2199 C.2            1 S1                 0.0000
     16 ****        -5.9026   4.0465  -1.2906 C.2            1 S1                 0.0000
     17 ****        -5.9703   2.3045  -1.2805 S.3            1 S1                 0.0000
     18 ****        -2.5760  -1.0910  -1.0266 H              1 S1                 0.0000
     19 ****        -0.4889  -1.9777  -1.2305 H              1 S1                 0.0000
     20 ****         0.1355  -0.4172  -1.7078 H              1 S1                 0.0000
     21 ****         0.1403   0.2789   0.7722 H              1 S1                 0.0000
     22 ****        -0.5082  -1.2957   1.1584 H              1 S1                 0.0000
     23 ****         1.8842  -0.7731   2.5612 H              1 S1                 0.0000
     24 ****         1.1353  -2.3452   2.3600 H              1 S1                 0.0000
     25 ****         3.5244  -2.5785   3.0313 H              1 S1                 0.0000
     26 ****         3.2151  -3.3137   1.4766 H              1 S1                 0.0000
     27 ****         4.4818  -0.5716   1.9581 H              1 S1                 0.0000
     28 ****         5.2973  -1.9944   1.3478 H              1 S1                 0.0000
     29 ****         4.6627  -0.4117  -0.4993 H              1 S1                 0.0000
     30 ****         3.9132  -1.9780  -0.6978 H              1 S1                 0.0000
     31 ****         2.2657  -0.1982  -1.1067 H              1 S1                 0.0000
     32 ****         2.5709   0.5233   0.4573 H              1 S1                 0.0000
     33 ****        -4.0486   0.2188  -1.1349 H              1 S1                 0.0000
     34 ****        -4.2848   5.5381  -1.2089 H              1 S1                 0.0000
     35 ****        -6.8138   4.6230  -1.3474 H              1 S1                 0.0000
     36 ****         1.5144  -2.1770   0.0255 H              1 S1                 0.0000
     37 ****        -0.3464   1.5764  -1.0105 LP             1 S1                 0.0000
     38 ****        -1.6180   2.7489  -1.0999 LP             1 S1                 0.0000
     39 ****        -2.6714   3.6524  -1.1004 LP             1 S1                 0.0000
@<TRIPOS>BOND
    1    1    2 2     
    2    2    3 am    
    3    2   12 am    
    4    3    4 1     
    5    3   18 1     
    6    4    5 1     
    7    4   19 1     
    8    4   20 1     
    9    5    6 1     
   10    5   21 1     
   11    5   22 1     
   12    6   11 1     
   13    6    7 1     
   14    6   36 1     
   15    7    8 1     
   16    7   23 1     
   17    7   24 1     
   18    8    9 1     
   19    8   25 1     
   20    8   26 1     
   21    9   10 1     
   22    9   27 1     
   23    9   28 1     
   24   10   11 1     
   25   10   29 1     
   26   10   30 1     
   27   11   31 1     
   28   11   32 1     
   29   12   13 1     
   30   12   33 1     
   31   13   17 1     
   32   13   14 2     
   33   14   15 1     
   34   15   16 2     
   35   15   34 1     
   36   16   17 1     
   37   16   35 1     
   38    1   37 1     
   39    1   38 1     
   40   14   39 1     
@<TRIPOS>SUBSTRUCTURE
      1 S1             1
@<TRIPOS>SET
LONE_PAIRS      STATIC     ATOMS    <user>   **** ""
3 37 38 39
DONOR_HYDROGENS      STATIC     ATOMS    <user>   **** ""
3 18 36 33
ATOM$BLUE        STATIC     ATOMS    COLORGROUP SYSTEM
3 37 38 39
ATOM$RED        STATIC     ATOMS    COLORGROUP SYSTEM
3 18 36 33
