#       Name:                AV-unprocessed.smi:3250
#       Creating user name   scv26
#       Creation time:       Fri Mar 27 18:32:12 2020


#       File generated by GOLD software.
#

@<TRIPOS>MOLECULE
AV-unprocessed.smi:3250
    45    46     1
SMALL
NO_CHARGES


@<TRIPOS>ATOM
      1 ****        -3.2733   2.7854  -0.5522 C.3            1 S1                 0.0000
      2 ****        -2.3155   1.6023  -0.3549 C.3            1 S1                 0.0000
      3 ****        -2.4719   0.9616   0.9782 N.4            1 S1                 1.0000
      4 ****        -1.9304   1.7498   2.1147 C.3            1 S1                 0.0000
      5 ****        -0.3965   1.6364   2.2003 C.3            1 S1                 0.0000
      6 ****        -0.0190   0.2662   2.2629 O.3            1 S1                 0.0000
      7 ****        -0.4237  -0.4645   1.1096 C.3            1 S1                 0.0000
      8 ****         0.1079  -1.9021   1.2405 C.3            1 S1                 0.0000
      9 ****         1.5580  -1.9725   1.1144 N.pl3          1 S1                 0.0000
     10 ****         2.2443  -1.8424  -0.0803 C.ar           1 S1                 0.0000
     11 ****         3.5824  -1.9209  -0.0405 N.pl3          1 S1                 1.0000
     12 ****         4.2994  -1.7907  -1.1842 C.ar           1 S1                 0.0000
     13 ****         3.6471  -1.5708  -2.4109 C.ar           1 S1                 0.0000
     14 ****         2.2450  -1.4987  -2.3822 C.ar           1 S1                 0.0000
     15 ****         1.5482  -1.2778  -3.5523 O.3            1 S1                 0.0000
     16 ****         0.1278  -1.2012  -3.4886 C.3            1 S1                 0.0000
     17 ****         1.5665  -1.6371  -1.2189 N.ar           1 S1                 0.0000
     18 ****        -1.9642  -0.4318   1.0284 C.3            1 S1                 0.0000
     19 ****        -3.2018   3.1695  -1.5699 H              1 S1                 0.0000
     20 ****        -3.0472   3.6125   0.1201 H              1 S1                 0.0000
     21 ****        -4.3087   2.4875  -0.3850 H              1 S1                 0.0000
     22 ****        -2.5366   0.8675  -1.1300 H              1 S1                 0.0000
     23 ****        -1.2852   1.9178  -0.5193 H              1 S1                 0.0000
     24 ****        -2.2361   2.7936   2.0563 H              1 S1                 0.0000
     25 ****        -2.3670   1.3586   3.0347 H              1 S1                 0.0000
     26 ****         0.0888   2.1224   1.3530 H              1 S1                 0.0000
     27 ****        -0.0359   2.1401   3.0974 H              1 S1                 0.0000
     28 ****        -0.0041  -0.0004   0.2161 H              1 S1                 0.0000
     29 ****        -0.1820  -2.3233   2.2035 H              1 S1                 0.0000
     30 ****        -0.3411  -2.5398   0.4780 H              1 S1                 0.0000
     31 ****         2.1047  -2.0453   1.9603 H              1 S1                 0.0000
     32 ****         5.3720  -1.8647  -1.0792 H              1 S1                 0.0000
     33 ****         4.1995  -1.4619  -3.3328 H              1 S1                 0.0000
     34 ****        -0.2686  -1.0170  -4.4870 H              1 S1                 0.0000
     35 ****        -0.2008  -0.3830  -2.8458 H              1 S1                 0.0000
     36 ****        -0.3057  -2.1352  -3.1281 H              1 S1                 0.0000
     37 ****        -2.3872  -0.9187   1.9084 H              1 S1                 0.0000
     38 ****        -2.3206  -0.9973   0.1665 H              1 S1                 0.0000
     39 ****        -3.4700   0.8972   1.1220 H              1 S1                 0.0000
     40 ****         4.0723  -2.0782   0.8408 H              1 S1                 0.0000
     41 ****        -0.4428  -0.1466   3.0691 LP             1 S1                 0.0000
     42 ****         0.9761   0.2112   2.3444 LP             1 S1                 0.0000
     43 ****         1.7766  -2.0236  -4.1781 LP             1 S1                 0.0000
     44 ****         1.8746  -0.4122  -3.9322 LP             1 S1                 0.0000
     45 ****         0.5679  -1.5866  -1.2089 LP             1 S1                 0.0000
@<TRIPOS>BOND
    1    1    2 1     
    2    1   19 1     
    3    1   20 1     
    4    1   21 1     
    5    2    3 1     
    6    2   22 1     
    7    2   23 1     
    8    3   18 1     
    9    3    4 1     
   10    3   39 1     
   11    4    5 1     
   12    4   24 1     
   13    4   25 1     
   14    5    6 1     
   15    5   26 1     
   16    5   27 1     
   17    6    7 1     
   18    7    8 1     
   19    7   18 1     
   20    7   28 1     
   21    8    9 1     
   22    8   29 1     
   23    8   30 1     
   24    9   10 1     
   25    9   31 1     
   26   10   17 ar    
   27   10   11 ar    
   28   11   12 ar    
   29   11   40 1     
   30   12   13 ar    
   31   12   32 1     
   32   13   14 ar    
   33   13   33 1     
   34   14   15 1     
   35   14   17 ar    
   36   15   16 1     
   37   16   34 1     
   38   16   35 1     
   39   16   36 1     
   40   18   37 1     
   41   18   38 1     
   42    6   41 1     
   43    6   42 1     
   44   15   43 1     
   45   15   44 1     
   46   17   45 1     
@<TRIPOS>SUBSTRUCTURE
      1 S1             1
@<TRIPOS>SET
LONE_PAIRS      STATIC     ATOMS    <user>   **** ""
5 41 42 43 44 45
DONOR_HYDROGENS      STATIC     ATOMS    <user>   **** ""
3 39 31 40
ATOM$BLUE        STATIC     ATOMS    COLORGROUP SYSTEM
5 41 42 43 44 45
ATOM$RED        STATIC     ATOMS    COLORGROUP SYSTEM
3 39 31 40
