AV-unprocessed.smi:1645|AV-procd|sdf|6613|dock1
  -GOLD-   22720 7313D 1   1.00000     0.00000
 Structure written by MMmdl.
 56 59  0  0  0  0  0  0  0  0  3 V2000
  146.5457  137.8004  155.2500 O   0  0  0  0  0  0  0  0  0  0  0  0
  147.3282  137.4450  154.3690 C   0  0  0  0  0  0  0  0  0  0  0  0
  148.6200  137.8071  154.2853 N   0  0  0  0  0  0  0  0  0  0  0  0
  149.3391  138.7200  155.1043 C   0  0  0  0  0  0  0  0  0  0  0  0
  150.6721  139.0135  154.7503 C   0  0  0  0  0  0  0  0  0  0  0  0
  151.4180  139.9315  155.5177 C   0  0  0  0  0  0  0  0  0  0  0  0
  150.8222  140.5656  156.6372 C   0  0  0  0  0  0  0  0  0  0  0  0
  151.4888  141.4991  157.4639 N   0  0  0  0  0  0  0  0  0  0  0  0
  151.8894  141.0194  158.7912 C   0  0  0  0  0  0  0  0  0  0  0  0
  152.9431  141.9395  159.4305 C   0  0  0  0  0  0  0  0  0  0  0  0
  152.4688  143.3986  159.4436 C   0  0  0  0  0  0  0  0  0  0  0  0
  152.1082  143.8391  158.0189 C   0  0  0  0  0  0  0  0  0  0  0  0
  151.0637  142.8989  157.3934 C   0  0  0  0  0  0  0  0  0  0  0  0
  149.5362  140.2551  156.9318 N   0  3  0  0  0  0  0  0  0  0  0  0
  148.7865  139.3809  156.2265 C   0  0  0  0  0  0  0  0  0  0  0  0
  146.9900  136.6149  153.3721 N   0  0  0  0  0  0  0  0  0  0  0  0
  145.6651  136.0330  153.1749 C   0  0  1  0  0  0  0  0  0  0  0  0
  144.5942  137.0697  152.8560 C   0  0  0  0  0  0  0  0  0  0  0  0
  143.4946  136.2120  152.2277 C   0  0  0  0  0  0  0  0  0  0  0  0
  144.1933  135.1348  151.4898 N   0  3  2  0  0  0  0  0  0  0  0  0
  143.4813  133.8338  151.4715 C   0  0  0  0  0  0  0  0  0  0  0  0
  144.2840  132.7886  150.6750 C   0  0  0  0  0  0  0  0  0  0  0  0
  145.7558  132.6842  151.1269 C   0  0  0  0  0  0  0  0  0  0  0  0
  146.0898  133.6531  152.2723 C   0  0  0  0  0  0  0  0  0  0  0  0
  145.6067  135.0881  151.9621 C   0  0  2  0  0  0  0  0  0  0  0  0
  149.1596  137.3626  153.5570 H   0  0  0  0  0  0  0  0  0  0  0  0
  151.1274  138.5389  153.8932 H   0  0  0  0  0  0  0  0  0  0  0  0
  152.4342  140.1411  155.2201 H   0  0  0  0  0  0  0  0  0  0  0  0
  151.0029  140.9735  159.4250 H   0  0  0  0  0  0  0  0  0  0  0  0
  152.2978  140.0099  158.7497 H   0  0  0  0  0  0  0  0  0  0  0  0
  153.1603  141.6071  160.4460 H   0  0  0  0  0  0  0  0  0  0  0  0
  153.8785  141.8650  158.8744 H   0  0  0  0  0  0  0  0  0  0  0  0
  151.5996  143.5004  160.0947 H   0  0  0  0  0  0  0  0  0  0  0  0
  153.2462  144.0440  159.8537 H   0  0  0  0  0  0  0  0  0  0  0  0
  151.7305  144.8618  158.0269 H   0  0  0  0  0  0  0  0  0  0  0  0
  153.0076  143.8459  157.4015 H   0  0  0  0  0  0  0  0  0  0  0  0
  150.9149  143.1983  156.3557 H   0  0  0  0  0  0  0  0  0  0  0  0
  150.1068  143.0076  157.9057 H   0  0  0  0  0  0  0  0  0  0  0  0
  147.7753  139.2631  156.5853 H   0  0  0  0  0  0  0  0  0  0  0  0
  147.6986  136.3732  152.6943 H   0  0  0  0  0  0  0  0  0  0  0  0
  145.3485  135.4991  154.0738 H   0  0  0  0  0  0  0  0  0  0  0  0
  144.2529  137.6153  153.7364 H   0  0  0  0  0  0  0  0  0  0  0  0
  144.9649  137.7939  152.1288 H   0  0  0  0  0  0  0  0  0  0  0  0
  142.8796  135.7814  153.0196 H   0  0  0  0  0  0  0  0  0  0  0  0
  142.8392  136.7858  151.5720 H   0  0  0  0  0  0  0  0  0  0  0  0
  143.3197  133.4853  152.4930 H   0  0  0  0  0  0  0  0  0  0  0  0
  142.4950  133.9666  151.0252 H   0  0  0  0  0  0  0  0  0  0  0  0
  143.7993  131.8153  150.7583 H   0  0  0  0  0  0  0  0  0  0  0  0
  144.2553  133.0471  149.6156 H   0  0  0  0  0  0  0  0  0  0  0  0
  145.9834  131.6624  151.4319 H   0  0  0  0  0  0  0  0  0  0  0  0
  146.4062  132.8965  150.2775 H   0  0  0  0  0  0  0  0  0  0  0  0
  145.6260  133.2937  153.1920 H   0  0  0  0  0  0  0  0  0  0  0  0
  147.1643  133.6492  152.4570 H   0  0  0  0  0  0  0  0  0  0  0  0
  146.2090  135.4995  151.1503 H   0  0  0  0  0  0  0  0  0  0  0  0
  144.2452  135.4373  150.5275 H   0  0  0  0  0  0  0  0  0  0  0  0
  149.1051  140.7118  157.7356 H   0  0  0  0  0  0  0  0  0  0  0  0
  1  2  2  0  0  0  0
  2  3  1  0  0  0  0
  2 16  1  0  0  0  0
  3  4  1  0  0  0  0
  3 26  1  0  0  0  0
  4 15  1  0  0  0  0
  4  5  2  0  0  0  0
  5  6  1  0  0  0  0
  5 27  1  0  0  0  0
  6  7  2  0  0  0  0
  6 28  1  0  0  0  0
  7  8  1  0  0  0  0
  7 14  1  0  0  0  0
  8 13  1  0  0  0  0
  8  9  1  0  0  0  0
  9 10  1  0  0  0  0
  9 29  1  0  0  0  0
  9 30  1  0  0  0  0
 10 11  1  0  0  0  0
 10 31  1  0  0  0  0
 10 32  1  0  0  0  0
 11 12  1  0  0  0  0
 11 33  1  0  0  0  0
 11 34  1  0  0  0  0
 12 13  1  0  0  0  0
 12 35  1  0  0  0  0
 12 36  1  0  0  0  0
 13 37  1  0  0  0  0
 13 38  1  0  0  0  0
 14 15  2  0  0  0  0
 14 56  1  0  0  0  0
 15 39  1  0  0  0  0
 16 17  1  0  0  0  0
 16 40  1  0  0  0  0
 17 25  1  0  0  0  0
 17 18  1  0  0  0  0
 17 41  1  0  0  0  0
 18 19  1  0  0  0  0
 18 42  1  0  0  0  0
 18 43  1  0  0  0  0
 19 20  1  0  0  0  0
 19 44  1  0  0  0  0
 19 45  1  0  0  0  0
 20 25  1  0  0  0  0
 20 21  1  0  0  0  0
 20 55  1  0  0  0  0
 21 22  1  0  0  0  0
 21 46  1  0  0  0  0
 21 47  1  0  0  0  0
 22 23  1  0  0  0  0
 22 48  1  0  0  0  0
 22 49  1  0  0  0  0
 23 24  1  0  0  0  0
 23 50  1  0  0  0  0
 23 51  1  0  0  0  0
 24 25  1  0  0  0  0
 24 52  1  0  0  0  0
 24 53  1  0  0  0  0
 25 54  1  0  0  0  0
M  CHG  1  14   1
M  CHG  1  20   1
M  END
> <s_m_source_file>
AV-unprocessed.smi

> <i_m_source_file_index>
1645

> <i_lp_mmshare_version>
43012

> <i_f3d_flags>
0

> <s_epik_input>
W0NIMl0xW0NIMl1bQ0gyXVtDSDJdW0NASF0oTjEyKVtDQEBIXShbQ0gyXVtDSDJdMilbTkhdQyg9TylbTkhdYzNbY0hdW2NIXWMobltjSF0zKU40W0NIMl1bQ0gyXVtDSDJdW0NIMl1bQ0gyXTQ=

> <s_epik_cmdline>
J2VwaWtfcHl0aG9uJywgJy1waCcsICc3LjAnLCAnLXRuJywgJzgnLCAnLW1hJywgJzIwMCcsICctbWV0YWxfYmluZGluZycsICctaW1hZScsICc8aW5maWxlLm1hZT4nLCAnLW9tYWUnLCAnPG91dGZpbGUubWFlPic=

> <r_lp_tautomer_probability>
0.999994

> <r_epik_Ionization_Penalty>
1.26838

> <r_epik_Ionization_Penalty_Charging>
1.26836

> <r_epik_Ionization_Penalty_Neutral>
1.95562e-05

> <r_epik_State_Penalty>
1.33841

> <r_epik_Charging_Adjusted_Penalty>
2.60677

> <i_epik_Tot_Q>
2

> <i_epik_Tot_abs_Q>
2

> <r_epik_Metal_State_Penalty>
1.40601

> <b_epik_Metal_Only>
0

> <s_lp_Force_Field>
OPLS_2005

> <r_lp_Energy>
63.6988

> <b_lp_Chiralities_Consistent>
1

> <s_lp_Variant>
AV-unprocessed.smi:1645-14

> <Gold.Version>
5.8.1

> <Gold.Id.Protein>
6NUR|6NUR_protein|mol2

> <Gold.PLP.Fitness>
47.8546

> <Gold.PLP.PLP>
-42.3441

> <Gold.PLP.part.hbond>
-1.9619

> <Gold.PLP.part.metal>
0.0000

> <Gold.PLP.part.buried>
-5.6580

> <Gold.PLP.part.nonpolar>
-35.9821

> <Gold.PLP.part.repulsive>
0.0782

> <Gold.PLP.ligand.clash>
0.0000

> <Gold.PLP.ligand.torsion>
0.2772

> <Gold.PLP.Chemscore.Hbond>
1.8477

> <Gold.PLP.Chemscore.CHOScore>
0.0000

> <Gold.PLP.Chemscore.Metal>
0.0000

> <Gold.Chemscore.Hbonds>
donor molecule, donor type, donor heavy atom, donor atom, acceptor molecule, acceptor atom, score
      L1  H     3    26       P1  7948  0.86
      L1  H    16    40       P1  7948  0.94

> <Gold.PLP.Chemscore.Internal.Correction>
0.5218

> <Gold.Rescore>
     Score         DG    S(hbond)    S(metal)    S(lipo)     H(rot)  DE(clash)    DE(int)     intcor
     20.43     -22.03       1.88        0.00     113.75       1.18       0.10       1.51       ----

> <Gold.Chemscore.Fitness>
20.4314

> <Gold.Chemscore.DG>
-22.0333

> <Gold.Chemscore.ZeroCoef>
-5.4800

> <Gold.Chemscore.Hbond>
1.8783

> <Gold.Chemscore.Metal>
0.0000

> <Gold.Chemscore.Lipo>
113.7532

> <Gold.Chemscore.Internal_Hbond>
0.0000

> <Gold.Chemscore.DEClash>
0.0966

> <Gold.Chemscore.DEInternal>
1.5054

> <Gold.Chemscore.Rot>
1.1833

> <Gold.Chemscore.Internal.Correction>
   9.000000E+99

> <Gold.Chemscore.Hbonds>
donor molecule, donor type, donor heavy atom, donor atom, acceptor molecule, acceptor atom, score
      L1  H     3    26       P1  7948  0.79
      L1  H    16    40       P1  7948  0.90

> <Gold.Chemscore.Hbond.Weighted>
-6.2735

> <Gold.Chemscore.Metal.Weighted>
-0.0000

> <Gold.Chemscore.Lipo.Weighted>
-13.3091

> <Gold.Chemscore.Internal_Hbond.Weighted>
0.0000

> <Gold.Chemscore.DEClash.Weighted>
0.0966

> <Gold.Chemscore.DEInternal.Weighted>
1.5054

> <Gold.Chemscore.Rot.Weighted>
3.0293

> <Gold.Chemscore.Internal.Correction.Weighted>
   9.000000E+99

> <Gold.Protein.RotatedTorsions>
[ 6907 6896 6895 6894 ] final  -38.81 input  -60.11 | X-H torsion
[ 7974 7965 7964 7962 ] final   72.64 input  175.53 | X-H torsion
[ 8008 7997 7996 7995 ] final   66.31 input   59.86 | X-H torsion
[ 10167 10162 10161 10158 ] final -116.23 input  -65.29 | X-H torsion
[ 10718 10713 10712 10709 ] final -112.47 input   66.30 | X-H torsion
[ 10763 10752 10751 10750 ] final  -91.06 input  -60.55 | X-H torsion
[ 11005 11000 10999 10996 ] final   84.09 input  -57.11 | X-H torsion

> <Gold.Protein.ActiveResidues>
 VAL166  LYS551  ARG553  GLY616  TRP617  ASP618  TYR619  PRO620  LYS621  CYS622 
 ASP623  PHE694  ASN695  SER759  ASP760  ASP761  ALA762  ILE779  LEU786  VAL792 
 PHE793  MET794  SER795  GLU796  ALA797  LYS798  CYS799  TRP800  GLU811  SER814 

> <Gold.Protein.RotatedAtoms>
  150.9979  134.9298  159.7936 H   0  0  0  0  0  0  0  0  0  0  0  0  # atno 6907 bound_to 6896
  152.5270  134.3193  159.9152 H   0  0  0  0  0  0  0  0  0  0  0  0  # atno 6908 bound_to 6896
  151.3199  133.4003  159.2688 H   0  0  0  0  0  0  0  0  0  0  0  0  # atno 6909 bound_to 6896
  145.7509  139.2759  143.1432 H   0  0  0  0  0  0  0  0  0  0  0  0  # atno 7974 bound_to 7965
  155.6753  140.3497  155.4834 H   0  0  0  0  0  0  0  0  0  0  0  0  # atno 8008 bound_to 7997
  155.9653  140.1145  157.0883 H   0  0  0  0  0  0  0  0  0  0  0  0  # atno 8009 bound_to 7997
  154.4153  140.1167  156.5220 H   0  0  0  0  0  0  0  0  0  0  0  0  # atno 8010 bound_to 7997
  140.0815  143.4784  152.1923 H   0  0  0  0  0  0  0  0  0  0  0  0  # atno 10167 bound_to 10162
  156.0707  130.5921  150.8512 H   0  0  0  0  0  0  0  0  0  0  0  0  # atno 10718 bound_to 10713
  154.6722  135.5282  153.8152 H   0  0  0  0  0  0  0  0  0  0  0  0  # atno 10763 bound_to 10752
  153.0508  135.6531  154.0707 H   0  0  0  0  0  0  0  0  0  0  0  0  # atno 10764 bound_to 10752
  154.0605  135.2962  155.3305 H   0  0  0  0  0  0  0  0  0  0  0  0  # atno 10765 bound_to 10752
  139.9011  134.8192  156.2398 H   0  0  0  0  0  0  0  0  0  0  0  0  # atno 11005 bound_to 11000
  146.0358  140.8214  142.9853 LP  0  0  0  0  0  0  0  0  0  0  0  0  # atno 17320 bound_to 7965
  144.6850  140.2836  143.7288 LP  0  0  0  0  0  0  0  0  0  0  0  0  # atno 17321 bound_to 7965
  139.5777  144.7495  151.3722 LP  0  0  0  0  0  0  0  0  0  0  0  0  # atno 17342 bound_to 10162
  140.7075  143.7475  150.7508 LP  0  0  0  0  0  0  0  0  0  0  0  0  # atno 17343 bound_to 10162
  157.5777  131.0946  150.9320 LP  0  0  0  0  0  0  0  0  0  0  0  0  # atno 17370 bound_to 10713
  156.9523  130.5424  149.5283 LP  0  0  0  0  0  0  0  0  0  0  0  0  # atno 17371 bound_to 10713
  141.0292  133.6998  156.1400 LP  0  0  0  0  0  0  0  0  0  0  0  0  # atno 17394 bound_to 11000
  140.7121  134.4450  157.5581 LP  0  0  0  0  0  0  0  0  0  0  0  0  # atno 17395 bound_to 11000

$$$$
