AV-unprocessed.smi:3062|AV-procd|sdf|11683|dock3
  -GOLD-   2272017 83D 1   1.00000     0.00000
 Structure written by MMmdl.
 39 40  0  0  0  0  0  0  0  0  1 V2000
  153.2224  143.0038  159.7883 C   0  0  0  0  0  0  0  0  0  0  0  0
  152.5945  141.7159  159.3281 C   0  0  0  0  0  0  0  0  0  0  0  0
  151.7039  141.8047  158.3956 N   0  0  0  0  0  0  0  0  0  0  0  0
  151.0666  140.6845  157.9008 N   0  0  0  0  0  0  0  0  0  0  0  0
  150.0915  140.9741  156.8429 C   0  0  0  0  0  0  0  0  0  0  0  0
  150.3472  140.1351  155.5721 C   0  0  2  0  0  0  0  0  0  0  0  0
  151.7022  140.2308  155.1809 O   0  0  0  0  0  0  0  0  0  0  0  0
  149.4780  140.5704  154.3810 C   0  0  0  0  0  0  0  0  0  0  0  0
  148.2742  139.8126  154.3518 O   0  0  0  0  0  0  0  0  0  0  0  0
  147.3108  140.2911  153.4229 C   0  0  0  0  0  0  0  0  0  0  0  0
  146.7209  139.1239  152.6925 C   0  0  0  0  0  0  0  0  0  0  0  0
  146.7723  138.8779  151.3440 C   0  0  0  0  0  0  0  0  0  0  0  0
  146.0942  137.6824  150.9636 C   0  0  0  0  0  0  0  0  0  0  0  0
  145.5256  137.0331  152.0267 C   0  0  0  0  0  0  0  0  0  0  0  0
  145.8081  137.8835  153.5206 S   0  0  0  0  0  0  0  0  0  0  0  0
  151.2992  139.4083  158.3217 C   0  0  0  0  0  0  0  0  0  0  0  0
  150.7133  138.4357  157.8438 O   0  0  0  0  0  0  0  0  0  0  0  0
  152.3074  139.3145  159.3802 C   0  0  0  0  0  0  0  0  0  0  0  0
  152.5809  137.9955  159.8524 C   0  0  0  0  0  0  0  0  0  0  0  0
  152.7909  136.9180  160.2199 N   0  0  0  0  0  0  0  0  0  0  0  0
  152.9393  140.4079  159.8759 C   0  0  0  0  0  0  0  0  0  0  0  0
  153.9946  140.3651  160.9726 C   0  0  0  0  0  0  0  0  0  0  0  0
  154.3066  142.9690  159.6780 H   0  0  0  0  0  0  0  0  0  0  0  0
  152.9942  143.1914  160.8378 H   0  0  0  0  0  0  0  0  0  0  0  0
  152.8623  143.8594  159.2147 H   0  0  0  0  0  0  0  0  0  0  0  0
  149.0896  140.7662  157.2232 H   0  0  0  0  0  0  0  0  0  0  0  0
  150.0830  142.0389  156.6013 H   0  0  0  0  0  0  0  0  0  0  0  0
  150.1401  139.0825  155.7668 H   0  0  0  0  0  0  0  0  0  0  0  0
  152.2297  139.7710  155.8159 H   0  0  0  0  0  0  0  0  0  0  0  0
  149.2608  141.6389  154.4264 H   0  0  0  0  0  0  0  0  0  0  0  0
  150.0391  140.3995  153.4611 H   0  0  0  0  0  0  0  0  0  0  0  0
  146.5251  140.8054  153.9760 H   0  0  0  0  0  0  0  0  0  0  0  0
  147.7467  141.0173  152.7350 H   0  0  0  0  0  0  0  0  0  0  0  0
  147.2713  139.5088  150.6234 H   0  0  0  0  0  0  0  0  0  0  0  0
  146.0464  137.3466  149.9382 H   0  0  0  0  0  0  0  0  0  0  0  0
  144.9570  136.1148  152.0233 H   0  0  0  0  0  0  0  0  0  0  0  0
  154.1654  139.3546  161.3428 H   0  0  0  0  0  0  0  0  0  0  0  0
  153.6904  140.9772  161.8222 H   0  0  0  0  0  0  0  0  0  0  0  0
  154.9471  140.7430  160.5998 H   0  0  0  0  0  0  0  0  0  0  0  0
  1  2  1  0  0  0  0
  1 23  1  0  0  0  0
  1 24  1  0  0  0  0
  1 25  1  0  0  0  0
  2 21  1  0  0  0  0
  2  3  2  0  0  0  0
  3  4  1  0  0  0  0
  4  5  1  0  0  0  0
  4 16  1  0  0  0  0
  5  6  1  0  0  0  0
  5 26  1  0  0  0  0
  5 27  1  0  0  0  0
  6  7  1  0  0  0  0
  6  8  1  0  0  0  0
  6 28  1  0  0  0  0
  7 29  1  0  0  0  0
  8  9  1  0  0  0  0
  8 30  1  0  0  0  0
  8 31  1  0  0  0  0
  9 10  1  0  0  0  0
 10 11  1  0  0  0  0
 10 32  1  0  0  0  0
 10 33  1  0  0  0  0
 11 15  1  0  0  0  0
 11 12  2  0  0  0  0
 12 13  1  0  0  0  0
 12 34  1  0  0  0  0
 13 14  2  0  0  0  0
 13 35  1  0  0  0  0
 14 15  1  0  0  0  0
 14 36  1  0  0  0  0
 16 17  2  0  0  0  0
 16 18  1  0  0  0  0
 18 19  1  0  0  0  0
 18 21  2  0  0  0  0
 19 20  3  0  0  0  0
 21 22  1  0  0  0  0
 22 37  1  0  0  0  0
 22 38  1  0  0  0  0
 22 39  1  0  0  0  0
M  END
> <s_m_source_file>
AV-unprocessed.smi

> <i_m_source_file_index>
3062

> <i_lp_mmshare_version>
43012

> <i_f3d_flags>
0

> <s_epik_input>
TiNDYyhjMVtDSDNdKWMoPU8pbihuYzFbQ0gzXSlbQ0gyXVtDQEhdKFtPSF0pW0NIMl1PW0NIMl1jMltjSF1bY0hdW2NIXXMy

> <s_epik_cmdline>
J2VwaWtfcHl0aG9uJywgJy1waCcsICc3LjAnLCAnLXRuJywgJzgnLCAnLW1hJywgJzIwMCcsICctbWV0YWxfYmluZGluZycsICctaW1hZScsICc8aW5maWxlLm1hZT4nLCAnLW9tYWUnLCAnPG91dGZpbGUubWFlPic=

> <r_lp_tautomer_probability>
1

> <r_epik_Ionization_Penalty>
6.86395e-08

> <r_epik_Ionization_Penalty_Charging>
2.24757e-10

> <r_epik_Ionization_Penalty_Neutral>
6.84147e-08

> <r_epik_State_Penalty>
-0

> <r_epik_Charging_Adjusted_Penalty>
2.24757e-10

> <i_epik_Tot_Q>
0

> <i_epik_Tot_abs_Q>
0

> <r_epik_Metal_State_Penalty>
-0

> <b_epik_Metal_Only>
0

> <s_lp_Force_Field>
OPLS_2005

> <r_lp_Energy>
26.0533

> <b_lp_Chiralities_Consistent>
1

> <s_lp_Variant>
AV-unprocessed.smi:3062-1

> <Gold.Version>
5.8.1

> <Gold.Id.Protein>
6NUR|6NUR_protein|mol2

> <Gold.PLP.Fitness>
43.5574

> <Gold.PLP.PLP>
-39.5675

> <Gold.PLP.part.hbond>
-1.9549

> <Gold.PLP.part.metal>
0.0000

> <Gold.PLP.part.buried>
2.1283

> <Gold.PLP.part.nonpolar>
-39.8240

> <Gold.PLP.part.repulsive>
0.1138

> <Gold.PLP.ligand.clash>
0.0000

> <Gold.PLP.ligand.torsion>
0.8723

> <Gold.PLP.Chemscore.Hbond>
1.8873

> <Gold.PLP.Chemscore.CHOScore>
0.0000

> <Gold.PLP.Chemscore.Metal>
0.0000

> <Gold.Chemscore.Hbonds>
donor molecule, donor type, donor heavy atom, donor atom, acceptor molecule, acceptor atom, score
      P1  H  6896  6908       L1    20  1.00
      P1  H  7989  7998       L1     7  0.90

> <Gold.PLP.Chemscore.Internal.Correction>
0.0727

> <Gold.Rescore>
     Score         DG    S(hbond)    S(metal)    S(lipo)     H(rot)  DE(clash)    DE(int)     intcor
     13.70     -16.83       1.77        0.00     101.39       2.51       1.31       1.81       ----

> <Gold.Chemscore.Fitness>
13.7037

> <Gold.Chemscore.DG>
-16.8299

> <Gold.Chemscore.ZeroCoef>
-5.4800

> <Gold.Chemscore.Hbond>
1.7717

> <Gold.Chemscore.Metal>
0.0000

> <Gold.Chemscore.Lipo>
101.3923

> <Gold.Chemscore.Internal_Hbond>
0.0000

> <Gold.Chemscore.DEClash>
1.3114

> <Gold.Chemscore.DEInternal>
1.8147

> <Gold.Chemscore.Rot>
2.5119

> <Gold.Chemscore.Internal.Correction>
   9.000000E+99

> <Gold.Chemscore.Hbonds>
donor molecule, donor type, donor heavy atom, donor atom, acceptor molecule, acceptor atom, score
      P1  H  6896  6908       L1    20  0.94
      P1  H  7989  7998       L1     7  0.44

> <Gold.Chemscore.Hbond.Weighted>
-5.9174

> <Gold.Chemscore.Metal.Weighted>
-0.0000

> <Gold.Chemscore.Lipo.Weighted>
-11.8629

> <Gold.Chemscore.Internal_Hbond.Weighted>
0.0000

> <Gold.Chemscore.DEClash.Weighted>
1.3114

> <Gold.Chemscore.DEInternal.Weighted>
1.8147

> <Gold.Chemscore.Rot.Weighted>
6.4305

> <Gold.Chemscore.Internal.Correction.Weighted>
   9.000000E+99

> <Gold.Protein.RotatedTorsions>
[ 6907 6896 6895 6894 ] final  -91.52 input  -60.11 | X-H torsion
[ 7974 7965 7964 7962 ] final -174.83 input  175.53 | X-H torsion
[ 8008 7997 7996 7995 ] final  -31.71 input   59.86 | X-H torsion
[ 10167 10162 10161 10158 ] final  -86.48 input  -65.29 | X-H torsion
[ 10718 10713 10712 10709 ] final  139.31 input   66.30 | X-H torsion
[ 10763 10752 10751 10750 ] final   12.69 input  -60.55 | X-H torsion
[ 11005 11000 10999 10996 ] final  161.38 input  -57.11 | X-H torsion

> <Gold.Protein.ActiveResidues>
 VAL166  LYS551  ARG553  GLY616  TRP617  ASP618  TYR619  PRO620  LYS621  CYS622 
 ASP623  PHE694  ASN695  SER759  ASP760  ASP761  ALA762  ILE779  LEU786  VAL792 
 PHE793  MET794  SER795  GLU796  ALA797  LYS798  CYS799  TRP800  GLU811  SER814 

> <Gold.Protein.RotatedAtoms>
  150.6893  134.2265  159.4417 H   0  0  0  0  0  0  0  0  0  0  0  0  # atno 6907 bound_to 6896
  152.0218  134.9816  160.0580 H   0  0  0  0  0  0  0  0  0  0  0  0  # atno 6908 bound_to 6896
  152.1390  133.4417  159.4794 H   0  0  0  0  0  0  0  0  0  0  0  0  # atno 6909 bound_to 6896
  144.7130  140.1412  143.6391 H   0  0  0  0  0  0  0  0  0  0  0  0  # atno 7974 bound_to 7965
  154.4204  140.1757  156.1610 H   0  0  0  0  0  0  0  0  0  0  0  0  # atno 8008 bound_to 7997
  155.9838  140.3375  155.6663 H   0  0  0  0  0  0  0  0  0  0  0  0  # atno 8009 bound_to 7997
  155.6465  140.0685  157.2592 H   0  0  0  0  0  0  0  0  0  0  0  0  # atno 8010 bound_to 7997
  140.3937  143.2693  151.9232 H   0  0  0  0  0  0  0  0  0  0  0  0  # atno 10167 bound_to 10162
  157.4158  131.1033  151.0406 H   0  0  0  0  0  0  0  0  0  0  0  0  # atno 10718 bound_to 10713
  153.1797  135.6826  153.8495 H   0  0  0  0  0  0  0  0  0  0  0  0  # atno 10763 bound_to 10752
  153.7831  135.3179  155.3369 H   0  0  0  0  0  0  0  0  0  0  0  0  # atno 10764 bound_to 10752
  154.8051  135.4753  154.0468 H   0  0  0  0  0  0  0  0  0  0  0  0  # atno 10765 bound_to 10752
  140.2152  134.8237  157.3163 H   0  0  0  0  0  0  0  0  0  0  0  0  # atno 11005 bound_to 11000
  145.9200  139.2540  143.1387 LP  0  0  0  0  0  0  0  0  0  0  0  0  # atno 17320 bound_to 7965
  145.9630  140.8821  143.0201 LP  0  0  0  0  0  0  0  0  0  0  0  0  # atno 17321 bound_to 7965
  139.4788  144.5702  151.8100 LP  0  0  0  0  0  0  0  0  0  0  0  0  # atno 17342 bound_to 10162
  140.4813  144.1446  150.5933 LP  0  0  0  0  0  0  0  0  0  0  0  0  # atno 17343 bound_to 10162
  157.1355  130.6120  149.5541 LP  0  0  0  0  0  0  0  0  0  0  0  0  # atno 17370 bound_to 10713
  155.9864  130.4899  150.7080 LP  0  0  0  0  0  0  0  0  0  0  0  0  # atno 17371 bound_to 10713
  140.1908  134.4374  155.7717 LP  0  0  0  0  0  0  0  0  0  0  0  0  # atno 17394 bound_to 11000
  141.2225  133.7026  156.8023 LP  0  0  0  0  0  0  0  0  0  0  0  0  # atno 17395 bound_to 11000

$$$$
