#       Name:                AV-unprocessed.smi:2980
#       Creating user name   scv26
#       Creation time:       Fri Mar 27 16:29:15 2020


#       File generated by GOLD software.
#

@<TRIPOS>MOLECULE
AV-unprocessed.smi:2980
    43    44     1
SMALL
NO_CHARGES


@<TRIPOS>ATOM
      1 ****        -2.1886   1.4925  -3.2222 C.3            1 S1                 0.0000
      2 ****        -2.5345   1.3265  -1.7409 C.3            1 S1                 0.0000
      3 ****        -1.8499   0.1919  -1.2401 O.3            1 S1                 0.0000
      4 ****        -2.0967  -0.0399   0.1370 C.3            1 S1                 0.0000
      5 ****        -1.3065  -1.2701   0.6053 C.3            1 S1                 0.0000
      6 ****         0.1411  -1.1287   0.3759 N.pl3          1 S1                 0.0000
      7 ****         1.1127  -0.5768   1.1608 C.2            1 S1                 0.0000
      8 ****         0.9421   0.0629   2.5012 C.3            1 S1                 0.0000
      9 ****         0.9073   1.5961   2.3943 C.3            1 S1                 0.0000
     10 ****         0.7209   2.2912   3.7505 C.3            1 S1                 0.0000
     11 ****        -0.5711   2.0376   4.2607 O.3            1 S1                 0.0000
     12 ****         2.2904  -0.6908   0.4842 N.pl3          1 S1                 1.0000
     13 ****         2.0735  -1.3175  -0.7428 C.ar           1 S1                 0.0000
     14 ****         2.9579  -1.6466  -1.7653 C.ar           1 S1                 0.0000
     15 ****         2.4076  -2.2800  -2.8987 C.ar           1 S1                 0.0000
     16 ****         1.0287  -2.5612  -2.9848 C.ar           1 S1                 0.0000
     17 ****         0.1425  -2.2234  -1.9410 C.ar           1 S1                 0.0000
     18 ****         0.6945  -1.5997  -0.8218 C.ar           1 S1                 0.0000
     19 ****        -2.6967   2.3587  -3.6463 H              1 S1                 0.0000
     20 ****        -2.4889   0.6146  -3.7944 H              1 S1                 0.0000
     21 ****        -1.1160   1.6322  -3.3601 H              1 S1                 0.0000
     22 ****        -2.2405   2.2197  -1.1880 H              1 S1                 0.0000
     23 ****        -3.6114   1.2002  -1.6204 H              1 S1                 0.0000
     24 ****        -1.8043   0.8340   0.7206 H              1 S1                 0.0000
     25 ****        -3.1627  -0.2002   0.3045 H              1 S1                 0.0000
     26 ****        -1.4664  -1.4349   1.6704 H              1 S1                 0.0000
     27 ****        -1.6620  -2.1719   0.1071 H              1 S1                 0.0000
     28 ****         0.0299  -0.3069   2.9682 H              1 S1                 0.0000
     29 ****         1.7652  -0.2482   3.1453 H              1 S1                 0.0000
     30 ****         1.8418   1.9414   1.9503 H              1 S1                 0.0000
     31 ****         0.1148   1.9078   1.7126 H              1 S1                 0.0000
     32 ****         1.4695   1.9533   4.4679 H              1 S1                 0.0000
     33 ****         0.8431   3.3691   3.6397 H              1 S1                 0.0000
     34 ****        -0.6633   2.4893   5.0860 H              1 S1                 0.0000
     35 ****         4.0140  -1.4290  -1.7024 H              1 S1                 0.0000
     36 ****         3.0552  -2.5534  -3.7190 H              1 S1                 0.0000
     37 ****         0.6417  -3.0446  -3.8700 H              1 S1                 0.0000
     38 ****        -0.9128  -2.4379  -2.0220 H              1 S1                 0.0000
     39 ****         3.1780  -0.3576   0.8375 H              1 S1                 0.0000
     40 ****        -0.8679   0.3294  -1.3693 LP             1 S1                 0.0000
     41 ****        -2.1447  -0.6120  -1.7566 LP             1 S1                 0.0000
     42 ****        -0.6917   1.0546   4.3993 LP             1 S1                 0.0000
     43 ****        -1.2593   2.3702   3.6159 LP             1 S1                 0.0000
@<TRIPOS>BOND
    1    1    2 1     
    2    1   19 1     
    3    1   20 1     
    4    1   21 1     
    5    2    3 1     
    6    2   22 1     
    7    2   23 1     
    8    3    4 1     
    9    4    5 1     
   10    4   24 1     
   11    4   25 1     
   12    5    6 1     
   13    5   26 1     
   14    5   27 1     
   15    6   18 1     
   16    6    7 1     
   17    7    8 1     
   18    7   12 2     
   19    8    9 1     
   20    8   28 1     
   21    8   29 1     
   22    9   10 1     
   23    9   30 1     
   24    9   31 1     
   25   10   11 1     
   26   10   32 1     
   27   10   33 1     
   28   11   34 1     
   29   12   13 1     
   30   12   39 1     
   31   13   18 ar    
   32   13   14 ar    
   33   14   15 ar    
   34   14   35 1     
   35   15   16 ar    
   36   15   36 1     
   37   16   17 ar    
   38   16   37 1     
   39   17   18 ar    
   40   17   38 1     
   41    3   40 1     
   42    3   41 1     
   43   11   42 1     
   44   11   43 1     
@<TRIPOS>SUBSTRUCTURE
      1 S1             1
@<TRIPOS>SET
LONE_PAIRS      STATIC     ATOMS    <user>   **** ""
4 40 41 42 43
DONOR_HYDROGENS      STATIC     ATOMS    <user>   **** ""
2 34 39
ATOM$BLUE        STATIC     ATOMS    COLORGROUP SYSTEM
4 40 41 42 43
ATOM$RED        STATIC     ATOMS    COLORGROUP SYSTEM
2 34 39
