AV-unprocessed.smi:2260|AV-procd|sdf|9133|dock4
  -GOLD-   2272012343D 1   1.00000     0.00000
 Structure written by MMmdl.
 43 44  0  0  0  0  0  0  0  0  2 V2000
  146.7526  142.0785  154.1192 C   0  0  0  0  0  0  0  0  0  0  0  0
  147.5511  140.7867  154.0793 C   0  0  0  0  0  0  0  0  0  0  0  0
  147.1029  139.6082  153.6334 C   0  0  0  0  0  0  0  0  0  0  0  0
  148.3159  138.3519  153.7045 S   0  0  0  0  0  0  0  0  0  0  0  0
  149.5038  139.5240  154.3797 C   0  0  0  0  0  0  0  0  0  0  0  0
  150.6614  139.2178  154.6606 O   0  0  0  0  0  0  0  0  0  0  0  0
  148.8841  140.7655  154.5091 N   0  0  0  0  0  0  0  0  0  0  0  0
  149.5930  141.9272  155.0530 C   0  0  0  0  0  0  0  0  0  0  0  0
  150.3284  141.5713  156.3540 C   0  0  0  0  0  0  0  0  0  0  0  0
  149.8680  142.4254  157.4682 N   0  3  0  0  0  0  0  0  0  0  0  0
  150.7859  142.5147  158.6294 C   0  0  1  0  0  0  0  0  0  0  0  0
  151.8425  141.3850  158.5934 C   0  0  0  0  0  0  0  0  0  0  0  0
  152.7968  141.4613  159.7927 C   0  0  0  0  0  0  0  0  0  0  0  0
  153.4671  142.8368  159.8830 C   0  0  0  0  0  0  0  0  0  0  0  0
  152.4167  143.9592  159.9252 C   0  0  0  0  0  0  0  0  0  0  0  0
  151.4321  143.9325  158.7271 C   0  0  0  0  0  0  0  0  0  0  0  0
  152.1736  144.3283  157.4271 C   0  0  0  0  0  0  0  0  0  0  0  0
  150.3377  144.9876  158.9985 C   0  0  0  0  0  0  0  0  0  0  0  0
  145.9266  142.0316  153.4090 H   0  0  0  0  0  0  0  0  0  0  0  0
  147.3574  142.9453  153.8550 H   0  0  0  0  0  0  0  0  0  0  0  0
  146.3340  142.2326  155.1139 H   0  0  0  0  0  0  0  0  0  0  0  0
  146.1142  139.4025  153.2499 H   0  0  0  0  0  0  0  0  0  0  0  0
  150.2868  142.3337  154.3169 H   0  0  0  0  0  0  0  0  0  0  0  0
  148.8797  142.7310  155.2443 H   0  0  0  0  0  0  0  0  0  0  0  0
  150.1492  140.5255  156.6073 H   0  0  0  0  0  0  0  0  0  0  0  0
  151.4026  141.6888  156.2152 H   0  0  0  0  0  0  0  0  0  0  0  0
  149.6858  143.3574  157.1245 H   0  0  0  0  0  0  0  0  0  0  0  0
  150.1839  142.3718  159.5289 H   0  0  0  0  0  0  0  0  0  0  0  0
  151.3591  140.4086  158.6037 H   0  0  0  0  0  0  0  0  0  0  0  0
  152.4139  141.4275  157.6658 H   0  0  0  0  0  0  0  0  0  0  0  0
  152.2432  141.2657  160.7121 H   0  0  0  0  0  0  0  0  0  0  0  0
  153.5548  140.6810  159.7167 H   0  0  0  0  0  0  0  0  0  0  0  0
  154.0908  142.8833  160.7763 H   0  0  0  0  0  0  0  0  0  0  0  0
  154.1412  142.9783  159.0380 H   0  0  0  0  0  0  0  0  0  0  0  0
  151.8563  143.8664  160.8569 H   0  0  0  0  0  0  0  0  0  0  0  0
  152.9210  144.9249  159.9779 H   0  0  0  0  0  0  0  0  0  0  0  0
  152.6522  145.3027  157.5311 H   0  0  0  0  0  0  0  0  0  0  0  0
  151.4931  144.4003  156.5783 H   0  0  0  0  0  0  0  0  0  0  0  0
  152.9527  143.6172  157.1558 H   0  0  0  0  0  0  0  0  0  0  0  0
  150.7706  145.9797  159.1320 H   0  0  0  0  0  0  0  0  0  0  0  0
  149.7733  144.7558  159.9025 H   0  0  0  0  0  0  0  0  0  0  0  0
  149.6245  145.0569  158.1767 H   0  0  0  0  0  0  0  0  0  0  0  0
  148.9989  142.0343  157.8031 H   0  0  0  0  0  0  0  0  0  0  0  0
  1  2  1  0  0  0  0
  1 19  1  0  0  0  0
  1 20  1  0  0  0  0
  1 21  1  0  0  0  0
  2  7  1  0  0  0  0
  2  3  2  0  0  0  0
  3  4  1  0  0  0  0
  3 22  1  0  0  0  0
  4  5  1  0  0  0  0
  5  6  2  0  0  0  0
  5  7  1  0  0  0  0
  7  8  1  0  0  0  0
  8  9  1  0  0  0  0
  8 23  1  0  0  0  0
  8 24  1  0  0  0  0
  9 10  1  0  0  0  0
  9 25  1  0  0  0  0
  9 26  1  0  0  0  0
 10 11  1  0  0  0  0
 10 27  1  0  0  0  0
 10 43  1  0  0  0  0
 11 16  1  0  0  0  0
 11 12  1  0  0  0  0
 11 28  1  0  0  0  0
 12 13  1  0  0  0  0
 12 29  1  0  0  0  0
 12 30  1  0  0  0  0
 13 14  1  0  0  0  0
 13 31  1  0  0  0  0
 13 32  1  0  0  0  0
 14 15  1  0  0  0  0
 14 33  1  0  0  0  0
 14 34  1  0  0  0  0
 15 16  1  0  0  0  0
 15 35  1  0  0  0  0
 15 36  1  0  0  0  0
 16 17  1  0  0  0  0
 16 18  1  0  0  0  0
 17 37  1  0  0  0  0
 17 38  1  0  0  0  0
 17 39  1  0  0  0  0
 18 40  1  0  0  0  0
 18 41  1  0  0  0  0
 18 42  1  0  0  0  0
M  CHG  1  10   1
M  END
> <s_m_source_file>
AV-unprocessed.smi

> <i_m_source_file_index>
2260

> <i_lp_mmshare_version>
43012

> <i_f3d_flags>
0

> <s_epik_input>
W0NIM11jMVtjSF1zYyg9TyluMVtDSDJdW0NIMl1bTkhdW0NAQEhdKEMyKFtDSDNdKVtDSDNdKVtDSDJdW0NIMl1bQ0gyXVtDSDJdMg==

> <s_epik_cmdline>
J2VwaWtfcHl0aG9uJywgJy1waCcsICc3LjAnLCAnLXRuJywgJzgnLCAnLW1hJywgJzIwMCcsICctbWV0YWxfYmluZGluZycsICctaW1hZScsICc8aW5maWxlLm1hZT4nLCAnLW9tYWUnLCAnPG91dGZpbGUubWFlPic=

> <r_epik_Ionization_Penalty>
0.0114277

> <r_epik_Ionization_Penalty_Charging>
0.0114277

> <r_epik_Ionization_Penalty_Neutral>
2.57259e-08

> <r_epik_State_Penalty>
0.0087935

> <r_epik_Charging_Adjusted_Penalty>
0.0202212

> <i_epik_Tot_Q>
1

> <i_epik_Tot_abs_Q>
1

> <r_epik_Metal_State_Penalty>
0.0087935

> <b_epik_Metal_Only>
0

> <s_lp_Force_Field>
OPLS_2005

> <r_lp_Energy>
26.3159

> <b_lp_Chiralities_Consistent>
1

> <s_lp_Variant>
AV-unprocessed.smi:2260-2

> <Gold.Version>
5.8.1

> <Gold.Id.Protein>
6NUR|6NUR_protein|mol2

> <Gold.PLP.Fitness>
48.2776

> <Gold.PLP.PLP>
-40.8649

> <Gold.PLP.part.hbond>
-2.0000

> <Gold.PLP.part.metal>
0.0000

> <Gold.PLP.part.buried>
2.7269

> <Gold.PLP.part.nonpolar>
-40.8533

> <Gold.PLP.part.repulsive>
0.1512

> <Gold.PLP.ligand.clash>
1.4564

> <Gold.PLP.ligand.torsion>
1.2606

> <Gold.PLP.Chemscore.Hbond>
2.7920

> <Gold.PLP.Chemscore.CHOScore>
1.0000

> <Gold.PLP.Chemscore.Metal>
0.0000

> <Gold.Chemscore.Hbonds>
donor molecule, donor type, donor heavy atom, donor atom, acceptor molecule, acceptor atom, score
      L1  H    10    27       P1  8028  1.43
      P1  H  7989  7998       L1     6  0.39
      L1  C     3    22       P1 10175  0.40

> <Gold.PLP.Chemscore.Internal.Correction>
0.0143

> <Gold.Rescore>
     Score         DG    S(hbond)    S(metal)    S(lipo)     H(rot)  DE(clash)    DE(int)     intcor
     16.89     -21.10       1.67        0.00     118.25       1.48       1.71       2.50       ----

> <Gold.Chemscore.Fitness>
16.8922

> <Gold.Chemscore.DG>
-21.1008

> <Gold.Chemscore.ZeroCoef>
-5.4800

> <Gold.Chemscore.Hbond>
1.6678

> <Gold.Chemscore.Metal>
0.0000

> <Gold.Chemscore.Lipo>
118.2501

> <Gold.Chemscore.Internal_Hbond>
0.0000

> <Gold.Chemscore.DEClash>
1.7100

> <Gold.Chemscore.DEInternal>
2.4987

> <Gold.Chemscore.Rot>
1.4785

> <Gold.Chemscore.Internal.Correction>
   9.000000E+99

> <Gold.Chemscore.Hbonds>
donor molecule, donor type, donor heavy atom, donor atom, acceptor molecule, acceptor atom, score
      L1  H    10    27       P1  8028  0.66
      P1  H  7989  7998       L1     6  0.06

> <Gold.Chemscore.Hbond.Weighted>
-5.5706

> <Gold.Chemscore.Metal.Weighted>
-0.0000

> <Gold.Chemscore.Lipo.Weighted>
-13.8353

> <Gold.Chemscore.Internal_Hbond.Weighted>
0.0000

> <Gold.Chemscore.DEClash.Weighted>
1.7100

> <Gold.Chemscore.DEInternal.Weighted>
2.4987

> <Gold.Chemscore.Rot.Weighted>
3.7850

> <Gold.Chemscore.Internal.Correction.Weighted>
   9.000000E+99

> <Gold.Protein.RotatedTorsions>
[ 6907 6896 6895 6894 ] final  -51.22 input  -60.11 | X-H torsion
[ 7974 7965 7964 7962 ] final   16.80 input  175.53 | X-H torsion
[ 8008 7997 7996 7995 ] final   47.14 input   59.86 | X-H torsion
[ 10167 10162 10161 10158 ] final  -68.05 input  -65.29 | X-H torsion
[ 10718 10713 10712 10709 ] final  -10.02 input   66.30 | X-H torsion
[ 10763 10752 10751 10750 ] final -173.70 input  -60.55 | X-H torsion
[ 11005 11000 10999 10996 ] final    7.66 input  -57.11 | X-H torsion

> <Gold.Protein.ActiveResidues>
 VAL166  LYS551  ARG553  GLY616  TRP617  ASP618  TYR619  PRO620  LYS621  CYS622 
 ASP623  PHE694  ASN695  SER759  ASP760  ASP761  ALA762  ILE779  LEU786  VAL792 
 PHE793  MET794  SER795  GLU796  ALA797  LYS798  CYS799  TRP800  GLU811  SER814 

> <Gold.Protein.RotatedAtoms>
  150.8632  134.7989  159.7098 H   0  0  0  0  0  0  0  0  0  0  0  0  # atno 6907 bound_to 6896
  152.4662  134.5066  159.9751 H   0  0  0  0  0  0  0  0  0  0  0  0  # atno 6908 bound_to 6896
  151.5167  133.3436  159.2930 H   0  0  0  0  0  0  0  0  0  0  0  0  # atno 6909 bound_to 6896
  146.2238  139.8695  142.8590 H   0  0  0  0  0  0  0  0  0  0  0  0  # atno 7974 bound_to 7965
  155.3641  140.3420  155.4241 H   0  0  0  0  0  0  0  0  0  0  0  0  # atno 8008 bound_to 7997
  156.1698  140.1628  156.8502 H   0  0  0  0  0  0  0  0  0  0  0  0  # atno 8009 bound_to 7997
  154.5221  140.0764  156.8174 H   0  0  0  0  0  0  0  0  0  0  0  0  # atno 8010 bound_to 7997
  140.5536  143.2312  151.6863 H   0  0  0  0  0  0  0  0  0  0  0  0  # atno 10167 bound_to 10162
  156.6796  130.5033  149.5975 H   0  0  0  0  0  0  0  0  0  0  0  0  # atno 10718 bound_to 10713
  154.6048  135.2858  155.0497 H   0  0  0  0  0  0  0  0  0  0  0  0  # atno 10763 bound_to 10752
  154.1748  135.6466  153.5022 H   0  0  0  0  0  0  0  0  0  0  0  0  # atno 10764 bound_to 10752
  153.0171  135.5409  154.6780 H   0  0  0  0  0  0  0  0  0  0  0  0  # atno 10765 bound_to 10752
  140.5458  134.0331  155.7919 H   0  0  0  0  0  0  0  0  0  0  0  0  # atno 11005 bound_to 11000
  145.2622  141.0081  143.3820 LP  0  0  0  0  0  0  0  0  0  0  0  0  # atno 17320 bound_to 7965
  144.9289  139.4322  143.6505 LP  0  0  0  0  0  0  0  0  0  0  0  0  # atno 17321 bound_to 7965
  139.5038  144.3777  152.0407 LP  0  0  0  0  0  0  0  0  0  0  0  0  # atno 17342 bound_to 10162
  140.2896  144.3768  150.6092 LP  0  0  0  0  0  0  0  0  0  0  0  0  # atno 17343 bound_to 10162
  156.1877  130.6540  151.1026 LP  0  0  0  0  0  0  0  0  0  0  0  0  # atno 17370 bound_to 10713
  157.7048  131.0761  150.6702 LP  0  0  0  0  0  0  0  0  0  0  0  0  # atno 17371 bound_to 10713
  141.1201  133.9476  157.2747 LP  0  0  0  0  0  0  0  0  0  0  0  0  # atno 17394 bound_to 11000
  139.9481  135.0180  156.8911 LP  0  0  0  0  0  0  0  0  0  0  0  0  # atno 17395 bound_to 11000

$$$$
