AV-unprocessed.smi:1721|AV-procd|sdf|6940|dock4
  -GOLD-   22720 8143D 1   1.00000     0.00000
 Structure written by MMmdl.
 44 46  0  0  0  0  0  0  0  0  2 V2000
  151.8245  138.2492  154.6021 C   0  0  0  0  0  0  0  0  0  0  0  0
  150.4730  138.2072  154.1568 O   0  0  0  0  0  0  0  0  0  0  0  0
  149.6846  139.3288  154.3321 C   0  0  0  0  0  0  0  0  0  0  0  0
  150.2514  140.4343  154.8775 N   0  0  0  0  0  0  0  0  0  0  0  0
  149.4853  141.5300  155.0517 C   0  0  0  0  0  0  0  0  0  0  0  0
  148.1259  141.5823  154.6955 C   0  0  0  0  0  0  0  0  0  0  0  0
  147.5354  140.4375  154.1291 C   0  0  0  0  0  0  0  0  0  0  0  0
  148.3263  139.2770  153.9377 C   0  0  0  0  0  0  0  0  0  0  0  0
  147.8493  138.0559  153.3794 N   0  0  0  0  0  0  0  0  0  0  0  0
  146.6344  137.4865  153.4604 C   0  0  0  0  0  0  0  0  0  0  0  0
  145.6640  137.9418  154.0638 O   0  0  0  0  0  0  0  0  0  0  0  0
  146.6016  136.3274  152.7876 N   0  0  0  0  0  0  0  0  0  0  0  0
  145.4352  135.4568  152.6700 C   0  0  1  0  0  0  0  0  0  0  0  0
  144.3381  136.0433  151.7646 C   0  0  0  0  0  0  0  0  0  0  0  0
  143.7433  134.8379  151.0099 C   0  0  0  0  0  0  0  0  0  0  0  0
  144.4387  133.6548  151.5518 N   0  3  1  0  0  0  0  0  0  0  0  0
  144.5085  132.4577  150.6859 C   0  0  0  0  0  0  0  0  0  0  0  0
  145.1898  131.3107  151.4589 C   0  0  0  0  0  0  0  0  0  0  0  0
  146.5566  131.7388  152.0304 C   0  0  0  0  0  0  0  0  0  0  0  0
  146.4359  133.0412  152.8452 C   0  0  0  0  0  0  0  0  0  0  0  0
  145.7623  134.1260  151.9874 C   0  0  2  0  0  0  0  0  0  0  0  0
  152.3031  137.2935  154.3898 H   0  0  0  0  0  0  0  0  0  0  0  0
  151.8851  138.4173  155.6784 H   0  0  0  0  0  0  0  0  0  0  0  0
  152.3920  139.0246  154.0857 H   0  0  0  0  0  0  0  0  0  0  0  0
  149.9702  142.3899  155.4896 H   0  0  0  0  0  0  0  0  0  0  0  0
  147.5476  142.4805  154.8542 H   0  0  0  0  0  0  0  0  0  0  0  0
  146.4929  140.4847  153.8610 H   0  0  0  0  0  0  0  0  0  0  0  0
  148.5329  137.5496  152.8353 H   0  0  0  0  0  0  0  0  0  0  0  0
  147.4444  136.0277  152.3192 H   0  0  0  0  0  0  0  0  0  0  0  0
  144.9998  135.2637  153.6529 H   0  0  0  0  0  0  0  0  0  0  0  0
  143.5835  136.5686  152.3509 H   0  0  0  0  0  0  0  0  0  0  0  0
  144.7515  136.7564  151.0495 H   0  0  0  0  0  0  0  0  0  0  0  0
  142.6661  134.7494  151.1529 H   0  0  0  0  0  0  0  0  0  0  0  0
  143.9372  134.9326  149.9403 H   0  0  0  0  0  0  0  0  0  0  0  0
  143.5023  132.1638  150.3853 H   0  0  0  0  0  0  0  0  0  0  0  0
  145.0641  132.6886  149.7755 H   0  0  0  0  0  0  0  0  0  0  0  0
  144.5424  130.9945  152.2780 H   0  0  0  0  0  0  0  0  0  0  0  0
  145.3107  130.4424  150.8105 H   0  0  0  0  0  0  0  0  0  0  0  0
  146.9700  130.9441  152.6522 H   0  0  0  0  0  0  0  0  0  0  0  0
  147.2610  131.8881  151.2110 H   0  0  0  0  0  0  0  0  0  0  0  0
  145.8542  132.8617  153.7504 H   0  0  0  0  0  0  0  0  0  0  0  0
  147.4246  133.3689  153.1666 H   0  0  0  0  0  0  0  0  0  0  0  0
  146.3722  134.3180  151.1014 H   0  0  0  0  0  0  0  0  0  0  0  0
  143.9415  133.3904  152.3904 H   0  0  0  0  0  0  0  0  0  0  0  0
  1  2  1  0  0  0  0
  1 22  1  0  0  0  0
  1 23  1  0  0  0  0
  1 24  1  0  0  0  0
  2  3  1  0  0  0  0
  3  8  1  0  0  0  0
  3  4  2  0  0  0  0
  4  5  1  0  0  0  0
  5  6  2  0  0  0  0
  5 25  1  0  0  0  0
  6  7  1  0  0  0  0
  6 26  1  0  0  0  0
  7  8  2  0  0  0  0
  7 27  1  0  0  0  0
  8  9  1  0  0  0  0
  9 10  1  0  0  0  0
  9 28  1  0  0  0  0
 10 11  2  0  0  0  0
 10 12  1  0  0  0  0
 12 13  1  0  0  0  0
 12 29  1  0  0  0  0
 13 21  1  0  0  0  0
 13 14  1  0  0  0  0
 13 30  1  0  0  0  0
 14 15  1  0  0  0  0
 14 31  1  0  0  0  0
 14 32  1  0  0  0  0
 15 16  1  0  0  0  0
 15 33  1  0  0  0  0
 15 34  1  0  0  0  0
 16 21  1  0  0  0  0
 16 17  1  0  0  0  0
 16 44  1  0  0  0  0
 17 18  1  0  0  0  0
 17 35  1  0  0  0  0
 17 36  1  0  0  0  0
 18 19  1  0  0  0  0
 18 37  1  0  0  0  0
 18 38  1  0  0  0  0
 19 20  1  0  0  0  0
 19 39  1  0  0  0  0
 19 40  1  0  0  0  0
 20 21  1  0  0  0  0
 20 41  1  0  0  0  0
 20 42  1  0  0  0  0
 21 43  1  0  0  0  0
M  CHG  1  16   1
M  END
> <s_m_source_file>
AV-unprocessed.smi

> <i_m_source_file_index>
1721

> <i_lp_mmshare_version>
43012

> <i_f3d_flags>
0

> <s_epik_input>
W0NIM11PYzFuW2NIXVtjSF1bY0hdYzFbTkhdQyg9TylbTkhdW0NASF0oW0NIMl1bQ0gyXTIpW0NAQEhdKE4yMylbQ0gyXVtDSDJdW0NIMl1bQ0gyXTM=

> <s_epik_cmdline>
J2VwaWtfcHl0aG9uJywgJy1waCcsICc3LjAnLCAnLXRuJywgJzgnLCAnLW1hJywgJzIwMCcsICctbWV0YWxfYmluZGluZycsICctaW1hZScsICc8aW5maWxlLm1hZT4nLCAnLW9tYWUnLCAnPG91dGZpbGUubWFlPic=

> <r_lp_tautomer_probability>
1

> <r_epik_Ionization_Penalty>
0.00104793

> <r_epik_Ionization_Penalty_Charging>
0.000974069

> <r_epik_Ionization_Penalty_Neutral>
7.38649e-05

> <r_epik_State_Penalty>
0.000633842

> <r_epik_Charging_Adjusted_Penalty>
0.00160791

> <i_epik_Tot_Q>
1

> <i_epik_Tot_abs_Q>
1

> <r_epik_Metal_State_Penalty>
-0

> <b_epik_Metal_Only>
0

> <s_lp_Force_Field>
OPLS_2005

> <r_lp_Energy>
37.3569

> <b_lp_Chiralities_Consistent>
1

> <s_lp_Variant>
AV-unprocessed.smi:1721-6

> <Gold.Version>
5.8.1

> <Gold.Id.Protein>
6NUR|6NUR_protein|mol2

> <Gold.PLP.Fitness>
43.7313

> <Gold.PLP.PLP>
-32.6974

> <Gold.PLP.part.hbond>
-2.9437

> <Gold.PLP.part.metal>
0.0000

> <Gold.PLP.part.buried>
-0.9026

> <Gold.PLP.part.nonpolar>
-28.5583

> <Gold.PLP.part.repulsive>
0.5306

> <Gold.PLP.ligand.clash>
0.0000

> <Gold.PLP.ligand.torsion>
0.3095

> <Gold.PLP.Chemscore.Hbond>
2.9280

> <Gold.PLP.Chemscore.CHOScore>
0.9525

> <Gold.PLP.Chemscore.Metal>
0.0000

> <Gold.Chemscore.Hbonds>
donor molecule, donor type, donor heavy atom, donor atom, acceptor molecule, acceptor atom, score
      L1  H     9    28       P1  7948  1.00
      L1  H    12    29       P1  7948  1.00
      P1  H  7989  7998       L1     4  1.00
      L1  C     5    25       P1  8028  0.78

> <Gold.PLP.Chemscore.Internal.Correction>
0.0113

> <Gold.Rescore>
     Score         DG    S(hbond)    S(metal)    S(lipo)     H(rot)  DE(clash)    DE(int)     intcor
     18.25     -19.13       2.16        0.00      82.20       1.25       0.66       0.22       ----

> <Gold.Chemscore.Fitness>
18.2534

> <Gold.Chemscore.DG>
-19.1291

> <Gold.Chemscore.ZeroCoef>
-5.4800

> <Gold.Chemscore.Hbond>
2.1631

> <Gold.Chemscore.Metal>
0.0000

> <Gold.Chemscore.Lipo>
82.2044

> <Gold.Chemscore.Internal_Hbond>
0.0000

> <Gold.Chemscore.DEClash>
0.6561

> <Gold.Chemscore.DEInternal>
0.2197

> <Gold.Chemscore.Rot>
1.2474

> <Gold.Chemscore.Internal.Correction>
   9.000000E+99

> <Gold.Chemscore.Hbonds>
donor molecule, donor type, donor heavy atom, donor atom, acceptor molecule, acceptor atom, score
      L1  H     9    28       P1  7948  0.96
      L1  H    12    29       P1  7948  0.95
      P1  H  7989  7998       L1     4  0.17

> <Gold.Chemscore.Hbond.Weighted>
-7.2246

> <Gold.Chemscore.Metal.Weighted>
-0.0000

> <Gold.Chemscore.Lipo.Weighted>
-9.6179

> <Gold.Chemscore.Internal_Hbond.Weighted>
0.0000

> <Gold.Chemscore.DEClash.Weighted>
0.6561

> <Gold.Chemscore.DEInternal.Weighted>
0.2197

> <Gold.Chemscore.Rot.Weighted>
3.1934

> <Gold.Chemscore.Internal.Correction.Weighted>
   9.000000E+99

> <Gold.Protein.RotatedTorsions>
[ 6907 6896 6895 6894 ] final  -95.79 input  -60.11 | X-H torsion
[ 7974 7965 7964 7962 ] final -176.45 input  175.53 | X-H torsion
[ 8008 7997 7996 7995 ] final   34.88 input   59.86 | X-H torsion
[ 10167 10162 10161 10158 ] final  163.19 input  -65.29 | X-H torsion
[ 10718 10713 10712 10709 ] final  140.67 input   66.30 | X-H torsion
[ 10763 10752 10751 10750 ] final   69.58 input  -60.55 | X-H torsion
[ 11005 11000 10999 10996 ] final   -8.16 input  -57.11 | X-H torsion

> <Gold.Protein.ActiveResidues>
 VAL166  LYS551  ARG553  GLY616  TRP617  ASP618  TYR619  PRO620  LYS621  CYS622 
 ASP623  PHE694  ASN695  SER759  ASP760  ASP761  ALA762  ILE779  LEU786  VAL792 
 PHE793  MET794  SER795  GLU796  ALA797  LYS798  CYS799  TRP800  GLU811  SER814 

> <Gold.Protein.RotatedAtoms>
  150.6972  134.1603  159.4173 H   0  0  0  0  0  0  0  0  0  0  0  0  # atno 6907 bound_to 6896
  151.9584  135.0133  160.0555 H   0  0  0  0  0  0  0  0  0  0  0  0  # atno 6908 bound_to 6896
  152.1949  133.4764  159.5064 H   0  0  0  0  0  0  0  0  0  0  0  0  # atno 6909 bound_to 6896
  144.7127  140.1168  143.6407 H   0  0  0  0  0  0  0  0  0  0  0  0  # atno 7974 bound_to 7965
  155.1620  140.3284  155.4409 H   0  0  0  0  0  0  0  0  0  0  0  0  # atno 8008 bound_to 7997
  156.2539  140.1958  156.6678 H   0  0  0  0  0  0  0  0  0  0  0  0  # atno 8009 bound_to 7997
  154.6398  140.0572  156.9818 H   0  0  0  0  0  0  0  0  0  0  0  0  # atno 8010 bound_to 7997
  139.4870  144.4362  151.9009 H   0  0  0  0  0  0  0  0  0  0  0  0  # atno 10167 bound_to 10162
  157.4006  131.1016  151.0555 H   0  0  0  0  0  0  0  0  0  0  0  0  # atno 10718 bound_to 10713
  153.0295  135.5205  154.7310 H   0  0  0  0  0  0  0  0  0  0  0  0  # atno 10763 bound_to 10752
  154.6338  135.2903  155.0188 H   0  0  0  0  0  0  0  0  0  0  0  0  # atno 10764 bound_to 10752
  154.1130  135.6619  153.4941 H   0  0  0  0  0  0  0  0  0  0  0  0  # atno 10765 bound_to 10752
  140.7205  133.8832  155.8817 H   0  0  0  0  0  0  0  0  0  0  0  0  # atno 11005 bound_to 11000
  145.9406  139.2666  143.1271 LP  0  0  0  0  0  0  0  0  0  0  0  0  # atno 17320 bound_to 7965
  145.9428  140.8967  143.0299 LP  0  0  0  0  0  0  0  0  0  0  0  0  # atno 17321 bound_to 7965
  140.3812  144.2733  150.5908 LP  0  0  0  0  0  0  0  0  0  0  0  0  # atno 17342 bound_to 10162
  140.5231  143.2261  151.8357 LP  0  0  0  0  0  0  0  0  0  0  0  0  # atno 17343 bound_to 10162
  157.1555  130.6203  149.5595 LP  0  0  0  0  0  0  0  0  0  0  0  0  # atno 17370 bound_to 10713
  155.9822  130.4834  150.6870 LP  0  0  0  0  0  0  0  0  0  0  0  0  # atno 17371 bound_to 10713
  141.0007  134.1154  157.4320 LP  0  0  0  0  0  0  0  0  0  0  0  0  # atno 17394 bound_to 11000
  139.8849  135.0067  156.6401 LP  0  0  0  0  0  0  0  0  0  0  0  0  # atno 17395 bound_to 11000

$$$$
