AV-unprocessed.smi:1464|AV-procd|sdf|5936|dock2
  -GOLD-   22720 6 13D 1   1.00000     0.00000
 Structure written by MMmdl.
 40 41  0  0  0  0  0  0  0  0  2 V2000
  152.7909  143.2738  162.4314 C   0  0  0  0  0  0  0  0  0  0  0  0
  152.0321  143.5292  161.1184 C   0  0  1  0  0  0  0  0  0  0  0  0
  152.2012  144.9837  160.6342 C   0  0  0  0  0  0  0  0  0  0  0  0
  151.3602  145.2609  159.3781 C   0  0  0  0  0  0  0  0  0  0  0  0
  151.6701  144.2557  158.2590 C   0  0  0  0  0  0  0  0  0  0  0  0
  151.4932  142.8049  158.7470 C   0  0  1  0  0  0  0  0  0  0  0  0
  151.7601  141.8772  157.6502 N   0  0  0  0  0  0  0  0  0  0  0  0
  151.7887  140.5395  157.7537 C   0  0  0  0  0  0  0  0  0  0  0  0
  151.5526  139.9393  158.8032 O   0  0  0  0  0  0  0  0  0  0  0  0
  152.1244  139.7718  156.4659 C   0  0  0  0  0  0  0  0  0  0  0  0
  150.9632  139.5593  155.5896 N   0  0  0  0  0  0  0  0  0  0  0  0
  150.3520  140.7943  155.1056 N   0  5  0  0  0  0  0  0  0  0  0  0
  149.2504  140.7218  154.3123 C   0  0  0  0  0  0  0  0  0  0  0  0
  148.6694  141.7172  153.8859 O   0  0  0  0  0  0  0  0  0  0  0  0
  148.7505  139.4048  153.9541 C   0  0  0  0  0  0  0  0  0  0  0  0
  149.3553  138.2811  154.3872 C   0  0  0  0  0  0  0  0  0  0  0  0
  150.5342  138.3112  155.2443 C   0  0  0  0  0  0  0  0  0  0  0  0
  151.0996  137.2884  155.6327 O   0  0  0  0  0  0  0  0  0  0  0  0
  152.3683  142.5094  159.9974 C   0  0  1  0  0  0  0  0  0  0  0  0
  153.8786  142.4165  159.6763 C   0  0  0  0  0  0  0  0  0  0  0  0
  153.8560  143.4821  162.3317 H   0  0  0  0  0  0  0  0  0  0  0  0
  152.6786  142.2390  162.7562 H   0  0  0  0  0  0  0  0  0  0  0  0
  152.4102  143.9112  163.2297 H   0  0  0  0  0  0  0  0  0  0  0  0
  150.9747  143.3957  161.3531 H   0  0  0  0  0  0  0  0  0  0  0  0
  151.9048  145.6743  161.4244 H   0  0  0  0  0  0  0  0  0  0  0  0
  153.2513  145.1918  160.4275 H   0  0  0  0  0  0  0  0  0  0  0  0
  150.3006  145.2056  159.6309 H   0  0  0  0  0  0  0  0  0  0  0  0
  151.5403  146.2772  159.0265 H   0  0  0  0  0  0  0  0  0  0  0  0
  151.0121  144.4459  157.4102 H   0  0  0  0  0  0  0  0  0  0  0  0
  152.6868  144.4122  157.8968 H   0  0  0  0  0  0  0  0  0  0  0  0
  150.4449  142.6885  159.0300 H   0  0  0  0  0  0  0  0  0  0  0  0
  151.9611  142.2840  156.7484 H   0  0  0  0  0  0  0  0  0  0  0  0
  152.9076  140.3229  155.9424 H   0  0  0  0  0  0  0  0  0  0  0  0
  152.5638  138.8045  156.7172 H   0  0  0  0  0  0  0  0  0  0  0  0
  147.8772  139.3254  153.3238 H   0  0  0  0  0  0  0  0  0  0  0  0
  148.9515  137.3236  154.0936 H   0  0  0  0  0  0  0  0  0  0  0  0
  152.0772  141.5256  160.3689 H   0  0  0  0  0  0  0  0  0  0  0  0
  154.2803  143.3624  159.3152 H   0  0  0  0  0  0  0  0  0  0  0  0
  154.0805  141.6625  158.9157 H   0  0  0  0  0  0  0  0  0  0  0  0
  154.4565  142.1256  160.5527 H   0  0  0  0  0  0  0  0  0  0  0  0
  1  2  1  0  0  0  0
  1 21  1  0  0  0  0
  1 22  1  0  0  0  0
  1 23  1  0  0  0  0
  2 19  1  0  0  0  0
  2  3  1  0  0  0  0
  2 24  1  0  0  0  0
  3  4  1  0  0  0  0
  3 25  1  0  0  0  0
  3 26  1  0  0  0  0
  4  5  1  0  0  0  0
  4 27  1  0  0  0  0
  4 28  1  0  0  0  0
  5  6  1  0  0  0  0
  5 29  1  0  0  0  0
  5 30  1  0  0  0  0
  6  7  1  0  0  0  0
  6 19  1  0  0  0  0
  6 31  1  0  0  0  0
  7  8  1  0  0  0  0
  7 32  1  0  0  0  0
  8  9  2  0  0  0  0
  8 10  1  0  0  0  0
 10 33  1  0  0  0  0
 10 34  1  0  0  0  0
 10 11  1  0  0  0  0
 11 12  1  0  0  0  0
 11 17  1  0  0  0  0
 12 13  1  0  0  0  0
 13 14  2  0  0  0  0
 13 15  1  0  0  0  0
 15 35  1  0  0  0  0
 15 16  2  0  0  0  0
 16 36  1  0  0  0  0
 16 17  1  0  0  0  0
 17 18  2  0  0  0  0
 19 20  1  0  0  0  0
 19 37  1  0  0  0  0
 20 38  1  0  0  0  0
 20 39  1  0  0  0  0
 20 40  1  0  0  0  0
M  CHG  1  12  -1
M  END
> <s_m_source_file>
AV-unprocessed.smi

> <i_m_source_file_index>
1464

> <i_lp_mmshare_version>
43012

> <i_f3d_flags>
0

> <s_epik_input>
W0NIM11bQ0BASF0xW0NIMl1bQ0gyXVtDSDJdW0NASF0oW0NASF0xW0NIM10pW05IXUMoPU8pW0NIMl1uMltuSF1jKD1PKVtjSF1bY0hdYzI9Tw==

> <s_epik_cmdline>
J2VwaWtfcHl0aG9uJywgJy1waCcsICc3LjAnLCAnLXRuJywgJzgnLCAnLW1hJywgJzIwMCcsICctbWV0YWxfYmluZGluZycsICctaW1hZScsICc8aW5maWxlLm1hZT4nLCAnLW9tYWUnLCAnPG91dGZpbGUubWFlPic=

> <r_lp_tautomer_probability>
1

> <r_epik_Ionization_Penalty>
0.101366

> <r_epik_Ionization_Penalty_Charging>
0.101366

> <r_epik_Ionization_Penalty_Neutral>
1.90469e-08

> <r_epik_State_Penalty>
0.035861

> <r_epik_Charging_Adjusted_Penalty>
0.137227

> <i_epik_Tot_Q>
-1

> <i_epik_Tot_abs_Q>
1

> <r_epik_Metal_State_Penalty>
0.035861

> <b_epik_Metal_Only>
0

> <s_lp_Force_Field>
OPLS_2005

> <r_lp_Energy>
30.1614

> <b_lp_Chiralities_Consistent>
1

> <s_lp_Variant>
AV-unprocessed.smi:1464-2

> <Gold.Version>
5.8.1

> <Gold.Id.Protein>
6NUR|6NUR_protein|mol2

> <Gold.PLP.Fitness>
45.3929

> <Gold.PLP.PLP>
-43.4107

> <Gold.PLP.part.hbond>
-2.0000

> <Gold.PLP.part.metal>
0.0000

> <Gold.PLP.part.buried>
-2.1827

> <Gold.PLP.part.nonpolar>
-39.1871

> <Gold.PLP.part.repulsive>
0.4005

> <Gold.PLP.ligand.clash>
0.0000

> <Gold.PLP.ligand.torsion>
0.3962

> <Gold.PLP.Chemscore.Hbond>
0.9187

> <Gold.PLP.Chemscore.CHOScore>
0.0000

> <Gold.PLP.Chemscore.Metal>
0.0000

> <Gold.Chemscore.Hbonds>
donor molecule, donor type, donor heavy atom, donor atom, acceptor molecule, acceptor atom, score
      P1  H  7989  7998       L1    12  0.34
      P1  H  8011  8017       L1    14  0.57

> <Gold.PLP.Chemscore.Internal.Correction>
0.0184

> <Gold.Rescore>
     Score         DG    S(hbond)    S(metal)    S(lipo)     H(rot)  DE(clash)    DE(int)     intcor
     15.46     -18.11       1.17        0.00     110.45       1.64       1.12       1.54       ----

> <Gold.Chemscore.Fitness>
15.4552

> <Gold.Chemscore.DG>
-18.1097

> <Gold.Chemscore.ZeroCoef>
-5.4800

> <Gold.Chemscore.Hbond>
1.1721

> <Gold.Chemscore.Metal>
0.0000

> <Gold.Chemscore.Lipo>
110.4511

> <Gold.Chemscore.Internal_Hbond>
0.0000

> <Gold.Chemscore.DEClash>
1.1183

> <Gold.Chemscore.DEInternal>
1.5362

> <Gold.Chemscore.Rot>
1.6438

> <Gold.Chemscore.Internal.Correction>
   9.000000E+99

> <Gold.Chemscore.Hbonds>
donor molecule, donor type, donor heavy atom, donor atom, acceptor molecule, acceptor atom, score
      P1  H  8011  8017       L1    14  0.32

> <Gold.Chemscore.Hbond.Weighted>
-3.9149

> <Gold.Chemscore.Metal.Weighted>
-0.0000

> <Gold.Chemscore.Lipo.Weighted>
-12.9228

> <Gold.Chemscore.Internal_Hbond.Weighted>
0.0000

> <Gold.Chemscore.DEClash.Weighted>
1.1183

> <Gold.Chemscore.DEInternal.Weighted>
1.5362

> <Gold.Chemscore.Rot.Weighted>
4.2080

> <Gold.Chemscore.Internal.Correction.Weighted>
   9.000000E+99

> <Gold.Protein.RotatedTorsions>
[ 6907 6896 6895 6894 ] final  -99.19 input  -60.11 | X-H torsion
[ 7974 7965 7964 7962 ] final  -91.85 input  175.53 | X-H torsion
[ 8008 7997 7996 7995 ] final  147.41 input   59.86 | X-H torsion
[ 10167 10162 10161 10158 ] final -139.16 input  -65.29 | X-H torsion
[ 10718 10713 10712 10709 ] final  -69.27 input   66.30 | X-H torsion
[ 10763 10752 10751 10750 ] final -178.67 input  -60.55 | X-H torsion
[ 11005 11000 10999 10996 ] final  167.25 input  -57.11 | X-H torsion

> <Gold.Protein.ActiveResidues>
 VAL166  LYS551  ARG553  GLY616  TRP617  ASP618  TYR619  PRO620  LYS621  CYS622 
 ASP623  PHE694  ASN695  SER759  ASP760  ASP761  ALA762  ILE779  LEU786  VAL792 
 PHE793  MET794  SER795  GLU796  ALA797  LYS798  CYS799  TRP800  GLU811  SER814 

> <Gold.Protein.RotatedAtoms>
  150.7071  134.1079  159.3989 H   0  0  0  0  0  0  0  0  0  0  0  0  # atno 6907 bound_to 6896
  151.9066  135.0354  160.0520 H   0  0  0  0  0  0  0  0  0  0  0  0  # atno 6908 bound_to 6896
  152.2370  133.5069  159.5285 H   0  0  0  0  0  0  0  0  0  0  0  0  # atno 6909 bound_to 6896
  145.4076  140.9542  143.2252 H   0  0  0  0  0  0  0  0  0  0  0  0  # atno 7974 bound_to 7965
  156.2825  140.2156  156.5534 H   0  0  0  0  0  0  0  0  0  0  0  0  # atno 8008 bound_to 7997
  154.7272  140.0498  157.0716 H   0  0  0  0  0  0  0  0  0  0  0  0  # atno 8009 bound_to 7997
  155.0400  140.3144  155.4731 H   0  0  0  0  0  0  0  0  0  0  0  0  # atno 8010 bound_to 7997
  139.8406  143.7326  152.2663 H   0  0  0  0  0  0  0  0  0  0  0  0  # atno 10167 bound_to 10162
  156.0464  130.4309  150.2122 H   0  0  0  0  0  0  0  0  0  0  0  0  # atno 10718 bound_to 10713
  154.5447  135.2808  155.1063 H   0  0  0  0  0  0  0  0  0  0  0  0  # atno 10763 bound_to 10752
  154.2532  135.6335  153.5251 H   0  0  0  0  0  0  0  0  0  0  0  0  # atno 10764 bound_to 10752
  152.9987  135.5588  154.5996 H   0  0  0  0  0  0  0  0  0  0  0  0  # atno 10765 bound_to 10752
  140.2748  134.7797  157.3707 H   0  0  0  0  0  0  0  0  0  0  0  0  # atno 11005 bound_to 11000
  144.8331  139.5595  143.6934 LP  0  0  0  0  0  0  0  0  0  0  0  0  # atno 17320 bound_to 7965
  146.2721  139.6661  142.9289 LP  0  0  0  0  0  0  0  0  0  0  0  0  # atno 17321 bound_to 7965
  139.7562  144.7520  151.0432 LP  0  0  0  0  0  0  0  0  0  0  0  0  # atno 17342 bound_to 10162
  140.7798  143.4803  151.0027 LP  0  0  0  0  0  0  0  0  0  0  0  0  # atno 17343 bound_to 10162
  157.0211  130.9980  151.3339 LP  0  0  0  0  0  0  0  0  0  0  0  0  # atno 17370 bound_to 10713
  157.5343  130.8079  149.7954 LP  0  0  0  0  0  0  0  0  0  0  0  0  # atno 17371 bound_to 10713
  140.1338  134.5060  155.8084 LP  0  0  0  0  0  0  0  0  0  0  0  0  # atno 17394 bound_to 11000
  141.2172  133.6800  156.7088 LP  0  0  0  0  0  0  0  0  0  0  0  0  # atno 17395 bound_to 11000

$$$$
