AV-unprocessed.smi:247|AV-procd|sdf|1888|dock7
  -GOLD-   2262020543D 1   1.00000     0.00000
 Structure written by MMmdl.
 61 65  0  0  0  0  0  0  0  0  1 V2000
  145.0325  138.6918  160.5860 O   0  0  0  0  0  0  0  0  0  0  0  0
  144.4490  137.5748  161.2274 C   0  0  0  0  0  0  0  0  0  0  0  0
  145.4177  136.3681  161.3722 C   0  0  0  0  0  0  0  0  0  0  0  0
  145.7752  135.8489  159.9436 C   0  0  0  0  0  0  0  0  0  0  0  0
  146.5644  136.7652  159.1317 N   0  0  0  0  0  0  0  0  0  0  0  0
  146.1323  137.4713  158.0302 C   0  0  0  0  0  0  0  0  0  0  0  0
  147.0270  138.2395  157.4715 N   0  0  0  0  0  0  0  0  0  0  0  0
  148.1554  138.0666  158.2610 C   0  0  0  0  0  0  0  0  0  0  0  0
  149.4672  138.6052  158.2337 C   0  0  0  0  0  0  0  0  0  0  0  0
  149.8485  139.4954  157.2910 N   0  0  0  0  0  0  0  0  0  0  0  0
  149.6792  139.0425  155.9142 C   0  0  0  0  0  0  0  0  0  0  0  0
  150.8557  139.6175  155.1123 C   0  0  0  0  0  0  0  0  0  0  0  0
  151.4822  140.6526  156.0445 C   0  0  0  0  0  0  0  0  0  0  0  0
  151.1883  140.0577  157.4240 C   0  0  1  0  0  0  0  0  0  0  0  0
  151.3419  141.0103  158.6417 C   0  0  2  0  0  0  0  0  0  0  0  0
  150.4642  142.2810  158.5454 C   0  0  0  0  0  0  0  0  0  0  0  0
  150.5967  143.0646  159.7261 O   0  0  0  0  0  0  0  0  0  0  0  0
  151.9188  143.5525  159.9213 C   0  0  0  0  0  0  0  0  0  0  0  0
  152.8820  142.3709  160.1052 C   0  0  0  0  0  0  0  0  0  0  0  0
  152.8068  141.4218  158.9006 C   0  0  1  0  0  0  0  0  0  0  0  0
  153.6074  140.2882  159.1708 O   0  0  0  0  0  0  0  0  0  0  0  0
  150.3403  138.2079  159.1964 N   0  0  0  0  0  0  0  0  0  0  0  0
  149.9481  137.3373  160.1320 C   0  0  0  0  0  0  0  0  0  0  0  0
  148.7562  136.7547  160.2841 N   0  0  0  0  0  0  0  0  0  0  0  0
  147.8821  137.1506  159.3142 C   0  0  0  0  0  0  0  0  0  0  0  0
  146.6771  136.7980  162.1684 C   0  0  0  0  0  0  0  0  0  0  0  0
  147.5680  135.6004  162.5438 C   0  0  0  0  0  0  0  0  0  0  0  0
  146.8149  134.6579  163.2972 O   0  0  0  0  0  0  0  0  0  0  0  0
  145.7215  134.1098  162.5710 C   0  0  0  0  0  0  0  0  0  0  0  0
  144.7363  135.2249  162.1687 C   0  0  0  0  0  0  0  0  0  0  0  0
  144.8856  138.6145  159.6557 H   0  0  0  0  0  0  0  0  0  0  0  0
  144.0946  137.8969  162.2071 H   0  0  0  0  0  0  0  0  0  0  0  0
  143.5689  137.2967  160.6481 H   0  0  0  0  0  0  0  0  0  0  0  0
  146.3237  134.9094  159.9871 H   0  0  0  0  0  0  0  0  0  0  0  0
  144.8602  135.6206  159.3956 H   0  0  0  0  0  0  0  0  0  0  0  0
  145.1256  137.3946  157.6462 H   0  0  0  0  0  0  0  0  0  0  0  0
  149.6394  137.9554  155.8287 H   0  0  0  0  0  0  0  0  0  0  0  0
  148.7353  139.4373  155.5377 H   0  0  0  0  0  0  0  0  0  0  0  0
  151.5778  138.8265  154.9059 H   0  0  0  0  0  0  0  0  0  0  0  0
  150.5454  140.0437  154.1578 H   0  0  0  0  0  0  0  0  0  0  0  0
  152.5473  140.7951  155.8591 H   0  0  0  0  0  0  0  0  0  0  0  0
  150.9815  141.6108  155.9082 H   0  0  0  0  0  0  0  0  0  0  0  0
  151.8800  139.2251  157.5622 H   0  0  0  0  0  0  0  0  0  0  0  0
  151.0047  140.4631  159.5237 H   0  0  0  0  0  0  0  0  0  0  0  0
  150.7271  142.8892  157.6797 H   0  0  0  0  0  0  0  0  0  0  0  0
  149.4135  142.0147  158.4356 H   0  0  0  0  0  0  0  0  0  0  0  0
  152.2198  144.1746  159.0771 H   0  0  0  0  0  0  0  0  0  0  0  0
  151.9322  144.1883  160.8068 H   0  0  0  0  0  0  0  0  0  0  0  0
  153.9012  142.7356  160.2384 H   0  0  0  0  0  0  0  0  0  0  0  0
  152.6189  141.8359  161.0190 H   0  0  0  0  0  0  0  0  0  0  0  0
  153.2125  141.9259  158.0227 H   0  0  0  0  0  0  0  0  0  0  0  0
  153.3119  139.8960  159.9783 H   0  0  0  0  0  0  0  0  0  0  0  0
  150.6961  137.0705  160.8641 H   0  0  0  0  0  0  0  0  0  0  0  0
  147.2540  137.5447  161.6243 H   0  0  0  0  0  0  0  0  0  0  0  0
  146.3790  137.2855  163.0972 H   0  0  0  0  0  0  0  0  0  0  0  0
  147.9962  135.1230  161.6621 H   0  0  0  0  0  0  0  0  0  0  0  0
  148.4064  135.9402  163.1520 H   0  0  0  0  0  0  0  0  0  0  0  0
  146.0850  133.5570  161.7048 H   0  0  0  0  0  0  0  0  0  0  0  0
  145.2151  133.3838  163.2071 H   0  0  0  0  0  0  0  0  0  0  0  0
  144.2979  135.6150  163.0876 H   0  0  0  0  0  0  0  0  0  0  0  0
  143.9082  134.8026  161.5984 H   0  0  0  0  0  0  0  0  0  0  0  0
  1  2  1  0  0  0  0
  1 31  1  0  0  0  0
  2  3  1  0  0  0  0
  2 32  1  0  0  0  0
  2 33  1  0  0  0  0
  3 30  1  0  0  0  0
  3  4  1  0  0  0  0
  3 26  1  0  0  0  0
  4  5  1  0  0  0  0
  4 34  1  0  0  0  0
  4 35  1  0  0  0  0
  5 25  1  0  0  0  0
  5  6  1  0  0  0  0
  6  7  2  0  0  0  0
  6 36  1  0  0  0  0
  7  8  1  0  0  0  0
  8 25  2  0  0  0  0
  8  9  1  0  0  0  0
  9 10  1  0  0  0  0
  9 22  2  0  0  0  0
 10 14  1  0  0  0  0
 10 11  1  0  0  0  0
 11 12  1  0  0  0  0
 11 37  1  0  0  0  0
 11 38  1  0  0  0  0
 12 13  1  0  0  0  0
 12 39  1  0  0  0  0
 12 40  1  0  0  0  0
 13 14  1  0  0  0  0
 13 41  1  0  0  0  0
 13 42  1  0  0  0  0
 14 15  1  0  0  0  0
 14 43  1  0  0  0  0
 15 20  1  0  0  0  0
 15 16  1  0  0  0  0
 15 44  1  0  0  0  0
 16 17  1  0  0  0  0
 16 45  1  0  0  0  0
 16 46  1  0  0  0  0
 17 18  1  0  0  0  0
 18 19  1  0  0  0  0
 18 47  1  0  0  0  0
 18 48  1  0  0  0  0
 19 20  1  0  0  0  0
 19 49  1  0  0  0  0
 19 50  1  0  0  0  0
 20 21  1  0  0  0  0
 20 51  1  0  0  0  0
 21 52  1  0  0  0  0
 22 23  1  0  0  0  0
 23 24  2  0  0  0  0
 23 53  1  0  0  0  0
 24 25  1  0  0  0  0
 26 27  1  0  0  0  0
 26 54  1  0  0  0  0
 26 55  1  0  0  0  0
 27 28  1  0  0  0  0
 27 56  1  0  0  0  0
 27 57  1  0  0  0  0
 28 29  1  0  0  0  0
 29 30  1  0  0  0  0
 29 58  1  0  0  0  0
 29 59  1  0  0  0  0
 30 60  1  0  0  0  0
 30 61  1  0  0  0  0
M  END
> <s_m_source_file>
AV-unprocessed.smi

> <i_m_source_file_index>
247

> <i_lp_mmshare_version>
43012

> <i_f3d_flags>
0

> <s_epik_input>
W0NIMl0xW0NIMl1PW0NIMl1bQ0gyXUMxKFtDSDJdW09IXSlbQ0gyXW4oW2NIXW4yKWMoYzIzKW5bY0hdbmMzTjRbQ0gyXVtDSDJdW0NIMl1bQ0BIXTRbQ0BASF01W0NIMl1PW0NIMl1bQ0gyXVtDQEhdNVtPSF0=

> <s_epik_cmdline>
J2VwaWtfcHl0aG9uJywgJy1waCcsICc3LjAnLCAnLXRuJywgJzgnLCAnLW1hJywgJzIwMCcsICctbWV0YWxfYmluZGluZycsICctaW1hZScsICc8aW5maWxlLm1hZT4nLCAnLW9tYWUnLCAnPG91dGZpbGUubWFlPic=

> <r_lp_tautomer_probability>
1

> <r_epik_Ionization_Penalty>
0.00362597

> <r_epik_Ionization_Penalty_Charging>
0

> <r_epik_Ionization_Penalty_Neutral>
0.00362597

> <r_epik_State_Penalty>
0.00241433

> <r_epik_Charging_Adjusted_Penalty>
0.00241433

> <i_epik_Tot_Q>
0

> <i_epik_Tot_abs_Q>
0

> <r_epik_Metal_State_Penalty>
-0

> <b_epik_Metal_Only>
0

> <s_lp_Force_Field>
OPLS_2005

> <r_lp_Energy>
58.6296

> <b_lp_Chiralities_Consistent>
1

> <s_lp_Variant>
AV-unprocessed.smi:247-1

> <Gold.Version>
5.8.1

> <Gold.Id.Protein>
6NUR|6NUR_protein|mol2

> <Gold.PLP.Fitness>
48.2096

> <Gold.PLP.PLP>
-44.3126

> <Gold.PLP.part.hbond>
-4.8835

> <Gold.PLP.part.metal>
0.0000

> <Gold.PLP.part.buried>
-4.0682

> <Gold.PLP.part.nonpolar>
-34.3486

> <Gold.PLP.part.repulsive>
0.0199

> <Gold.PLP.ligand.clash>
0.0000

> <Gold.PLP.ligand.torsion>
0.2151

> <Gold.PLP.Chemscore.Hbond>
1.3840

> <Gold.PLP.Chemscore.CHOScore>
0.0000

> <Gold.PLP.Chemscore.Metal>
0.0000

> <Gold.Chemscore.Hbonds>
donor molecule, donor type, donor heavy atom, donor atom, acceptor molecule, acceptor atom, score
      P1  H  6934  6947       L1     1  0.29
      P1  H  7997  8008       L1    21  0.28

> <Gold.PLP.Chemscore.Internal.Correction>
0.1753

> <Gold.Rescore>
     Score         DG    S(hbond)    S(metal)    S(lipo)     H(rot)  DE(clash)    DE(int)     intcor
      7.41     -12.67       0.92        0.00     105.70       3.23       0.31       4.96       ----

> <Gold.Chemscore.Fitness>
7.4063

> <Gold.Chemscore.DG>
-12.6727

> <Gold.Chemscore.ZeroCoef>
-5.4800

> <Gold.Chemscore.Hbond>
0.9250

> <Gold.Chemscore.Metal>
0.0000

> <Gold.Chemscore.Lipo>
105.6973

> <Gold.Chemscore.Internal_Hbond>
0.0000

> <Gold.Chemscore.DEClash>
0.3068

> <Gold.Chemscore.DEInternal>
4.9596

> <Gold.Chemscore.Rot>
3.2278

> <Gold.Chemscore.Internal.Correction>
   9.000000E+99

> <Gold.Chemscore.Hbonds>
donor molecule, donor type, donor heavy atom, donor atom, acceptor molecule, acceptor atom, score
      P1  H  6934  6947       L1     1  0.19
      P1  H  7997  8008       L1    21  0.11

> <Gold.Chemscore.Hbond.Weighted>
-3.0895

> <Gold.Chemscore.Metal.Weighted>
-0.0000

> <Gold.Chemscore.Lipo.Weighted>
-12.3666

> <Gold.Chemscore.Internal_Hbond.Weighted>
0.0000

> <Gold.Chemscore.DEClash.Weighted>
0.3068

> <Gold.Chemscore.DEInternal.Weighted>
4.9596

> <Gold.Chemscore.Rot.Weighted>
8.2633

> <Gold.Chemscore.Internal.Correction.Weighted>
   9.000000E+99

> <Gold.Protein.RotatedTorsions>
[ 6907 6896 6895 6894 ] final   98.24 input  -60.11 | X-H torsion
[ 7974 7965 7964 7962 ] final  131.87 input  175.53 | X-H torsion
[ 8008 7997 7996 7995 ] final -105.49 input   59.86 | X-H torsion
[ 10167 10162 10161 10158 ] final  102.94 input  -65.29 | X-H torsion
[ 10718 10713 10712 10709 ] final   39.21 input   66.30 | X-H torsion
[ 10763 10752 10751 10750 ] final   93.93 input  -60.55 | X-H torsion
[ 11005 11000 10999 10996 ] final -140.97 input  -57.11 | X-H torsion

> <Gold.Protein.ActiveResidues>
 VAL166  LYS551  ARG553  GLY616  TRP617  ASP618  TYR619  PRO620  LYS621  CYS622 
 ASP623  PHE694  ASN695  SER759  ASP760  ASP761  ALA762  ILE779  LEU786  VAL792 
 PHE793  MET794  SER795  GLU796  ALA797  LYS798  CYS799  TRP800  GLU811  SER814 

> <Gold.Protein.RotatedAtoms>
  152.5412  134.0611  159.8152 H   0  0  0  0  0  0  0  0  0  0  0  0  # atno 6907 bound_to 6896
  151.0739  133.5436  159.2632 H   0  0  0  0  0  0  0  0  0  0  0  0  # atno 6908 bound_to 6896
  151.2289  135.0555  159.9033 H   0  0  0  0  0  0  0  0  0  0  0  0  # atno 6909 bound_to 6896
  145.0028  139.4295  143.5284 H   0  0  0  0  0  0  0  0  0  0  0  0  # atno 7974 bound_to 7965
  154.9006  140.0413  157.1890 H   0  0  0  0  0  0  0  0  0  0  0  0  # atno 8008 bound_to 7997
  154.8448  140.2920  155.5615 H   0  0  0  0  0  0  0  0  0  0  0  0  # atno 8009 bound_to 7997
  156.2994  140.2476  156.3397 H   0  0  0  0  0  0  0  0  0  0  0  0  # atno 8010 bound_to 7997
  139.7306  144.7037  151.0728 H   0  0  0  0  0  0  0  0  0  0  0  0  # atno 10167 bound_to 10162
  157.3679  130.7685  149.7096 H   0  0  0  0  0  0  0  0  0  0  0  0  # atno 10718 bound_to 10713
  153.2359  135.4308  155.0645 H   0  0  0  0  0  0  0  0  0  0  0  0  # atno 10763 bound_to 10752
  154.8318  135.3391  154.6720 H   0  0  0  0  0  0  0  0  0  0  0  0  # atno 10764 bound_to 10752
  153.7146  135.7021  153.5085 H   0  0  0  0  0  0  0  0  0  0  0  0  # atno 10765 bound_to 10752
  140.8370  134.2448  157.4829 H   0  0  0  0  0  0  0  0  0  0  0  0  # atno 11005 bound_to 11000
  146.3455  139.9426  142.8739 LP  0  0  0  0  0  0  0  0  0  0  0  0  # atno 17320 bound_to 7965
  145.2130  140.9903  143.4090 LP  0  0  0  0  0  0  0  0  0  0  0  0  # atno 17321 bound_to 7965
  140.7770  143.5048  150.9726 LP  0  0  0  0  0  0  0  0  0  0  0  0  # atno 17342 bound_to 10162
  139.8736  143.7161  152.3164 LP  0  0  0  0  0  0  0  0  0  0  0  0  # atno 17343 bound_to 10162
  155.9749  130.4095  150.3884 LP  0  0  0  0  0  0  0  0  0  0  0  0  # atno 17370 bound_to 10713
  157.1971  131.0429  151.2670 LP  0  0  0  0  0  0  0  0  0  0  0  0  # atno 17371 bound_to 10713
  139.8704  134.9616  156.4401 LP  0  0  0  0  0  0  0  0  0  0  0  0  # atno 17394 bound_to 11000
  140.8936  133.7830  155.9600 LP  0  0  0  0  0  0  0  0  0  0  0  0  # atno 17395 bound_to 11000

$$$$
