AV-unprocessed.smi:3191|AV-procd|sdf|12197|dock3
  -GOLD-   2272018 33D 1   1.00000     0.00000
 Structure written by MMmdl.
 36 37  0  0  0  0  0  0  0  0  2 V2000
  146.2892  141.7990  153.5606 C   0  0  0  0  0  0  0  0  0  0  0  0
  147.2367  140.6820  153.5585 N   0  0  0  0  0  0  0  0  0  0  0  0
  146.9581  139.5134  152.9674 C   0  0  0  0  0  0  0  0  0  0  0  0
  148.0213  138.7269  153.1465 N   0  3  0  0  0  0  0  0  0  0  0  0
  148.9837  139.3936  153.8535 C   0  0  0  0  0  0  0  0  0  0  0  0
  148.4918  140.6489  154.1225 C   0  0  0  0  0  0  0  0  0  0  0  0
  149.0792  141.8178  154.8526 C   0  0  0  0  0  0  0  0  0  0  0  0
  150.2168  141.4182  155.8099 C   0  0  0  0  0  0  0  0  0  0  0  0
  150.5067  142.4776  156.7689 N   0  0  0  0  0  0  0  0  0  0  0  0
  151.3451  142.3664  157.8109 C   0  0  0  0  0  0  0  0  0  0  0  0
  151.9654  141.3314  158.0574 O   0  0  0  0  0  0  0  0  0  0  0  0
  151.4595  143.6174  158.6265 C   0  0  2  0  0  0  0  0  0  0  0  0
  152.7519  144.4034  158.5419 C   0  0  0  0  0  0  0  0  0  0  0  0
  152.4054  143.6799  159.8242 C   0  0  0  0  0  0  0  0  0  0  0  0
  151.9618  144.4775  161.0379 C   0  0  0  0  0  0  0  0  0  0  0  0
  153.2590  142.4989  160.2698 C   0  0  0  0  0  0  0  0  0  0  0  0
  150.5419  144.1971  158.7182 H   0  0  0  0  0  0  0  0  0  0  0  0
  145.3590  141.5064  153.0716 H   0  0  0  0  0  0  0  0  0  0  0  0
  146.7295  142.6409  153.0258 H   0  0  0  0  0  0  0  0  0  0  0  0
  146.0796  142.0891  154.5904 H   0  0  0  0  0  0  0  0  0  0  0  0
  146.0534  139.2545  152.4465 H   0  0  0  0  0  0  0  0  0  0  0  0
  149.9289  138.9355  154.1068 H   0  0  0  0  0  0  0  0  0  0  0  0
  149.4440  142.5350  154.1164 H   0  0  0  0  0  0  0  0  0  0  0  0
  148.2847  142.3154  155.4101 H   0  0  0  0  0  0  0  0  0  0  0  0
  149.9385  140.5254  156.3706 H   0  0  0  0  0  0  0  0  0  0  0  0
  151.1211  141.1690  155.2518 H   0  0  0  0  0  0  0  0  0  0  0  0
  150.0337  143.3598  156.6337 H   0  0  0  0  0  0  0  0  0  0  0  0
  153.5670  144.0045  157.9406 H   0  0  0  0  0  0  0  0  0  0  0  0
  152.6663  145.4880  158.5253 H   0  0  0  0  0  0  0  0  0  0  0  0
  152.8272  144.8612  161.5791 H   0  0  0  0  0  0  0  0  0  0  0  0
  151.3785  143.8494  161.7119 H   0  0  0  0  0  0  0  0  0  0  0  0
  151.3445  145.3255  160.7401 H   0  0  0  0  0  0  0  0  0  0  0  0
  154.0164  142.8245  160.9834 H   0  0  0  0  0  0  0  0  0  0  0  0
  153.7812  142.0400  159.4313 H   0  0  0  0  0  0  0  0  0  0  0  0
  152.6364  141.7427  160.7485 H   0  0  0  0  0  0  0  0  0  0  0  0
  148.1011  137.7767  152.8061 H   0  0  0  0  0  0  0  0  0  0  0  0
  1  2  1  0  0  0  0
  1 18  1  0  0  0  0
  1 19  1  0  0  0  0
  1 20  1  0  0  0  0
  2  6  1  0  0  0  0
  2  3  1  0  0  0  0
  3  4  2  0  0  0  0
  3 21  1  0  0  0  0
  4  5  1  0  0  0  0
  4 36  1  0  0  0  0
  5  6  2  0  0  0  0
  5 22  1  0  0  0  0
  6  7  1  0  0  0  0
  7  8  1  0  0  0  0
  7 23  1  0  0  0  0
  7 24  1  0  0  0  0
  8  9  1  0  0  0  0
  8 25  1  0  0  0  0
  8 26  1  0  0  0  0
  9 10  1  0  0  0  0
  9 27  1  0  0  0  0
 10 11  2  0  0  0  0
 10 12  1  0  0  0  0
 12 17  1  0  0  0  0
 12 14  1  0  0  0  0
 12 13  1  0  0  0  0
 13 14  1  0  0  0  0
 13 28  1  0  0  0  0
 13 29  1  0  0  0  0
 14 15  1  0  0  0  0
 14 16  1  0  0  0  0
 15 30  1  0  0  0  0
 15 31  1  0  0  0  0
 15 32  1  0  0  0  0
 16 33  1  0  0  0  0
 16 34  1  0  0  0  0
 16 35  1  0  0  0  0
M  CHG  1   4   1
M  END
> <s_m_source_file>
AV-unprocessed.smi

> <i_m_source_file_index>
3191

> <i_lp_mmshare_version>
43012

> <i_f3d_flags>
0

> <s_epik_input>
W0NIM11uMVtjSF1uW2NIXWMxW0NIMl1bQ0gyXVtOSF1DKD1PKVtDQEBIXShbQ0gyXTIpQzIoW0NIM10pW0NIM10=

> <s_epik_cmdline>
J2VwaWtfcHl0aG9uJywgJy1waCcsICc3LjAnLCAnLXRuJywgJzgnLCAnLW1hJywgJzIwMCcsICctbWV0YWxfYmluZGluZycsICctaW1hZScsICc8aW5maWxlLm1hZT4nLCAnLW9tYWUnLCAnPG91dGZpbGUubWFlPic=

> <r_lp_tautomer_probability>
1

> <r_epik_Ionization_Penalty>
0.153817

> <r_epik_Ionization_Penalty_Charging>
0

> <r_epik_Ionization_Penalty_Neutral>
0.153817

> <r_epik_State_Penalty>
0.14311

> <r_epik_Charging_Adjusted_Penalty>
0.14311

> <i_epik_Tot_Q>
1

> <i_epik_Tot_abs_Q>
1

> <r_epik_Metal_State_Penalty>
0.464688

> <b_epik_Metal_Only>
0

> <s_lp_Force_Field>
OPLS_2005

> <r_lp_Energy>
13.3662

> <b_lp_Chiralities_Consistent>
1

> <s_lp_Variant>
AV-unprocessed.smi:3191-2

> <Gold.Version>
5.8.1

> <Gold.Id.Protein>
6NUR|6NUR_protein|mol2

> <Gold.PLP.Fitness>
49.2490

> <Gold.PLP.PLP>
-38.8585

> <Gold.PLP.part.hbond>
-3.0000

> <Gold.PLP.part.metal>
0.0000

> <Gold.PLP.part.buried>
1.3573

> <Gold.PLP.part.nonpolar>
-38.3559

> <Gold.PLP.part.repulsive>
0.0926

> <Gold.PLP.ligand.clash>
0.0000

> <Gold.PLP.ligand.torsion>
0.5003

> <Gold.PLP.Chemscore.Hbond>
3.0000

> <Gold.PLP.Chemscore.CHOScore>
0.7656

> <Gold.PLP.Chemscore.Metal>
0.0000

> <Gold.Chemscore.Hbonds>
donor molecule, donor type, donor heavy atom, donor atom, acceptor molecule, acceptor atom, score
      L1  H     4    36       P1  7948  2.00
      L1  H     9    27       P1  8028  1.00
      L1  C     3    21       P1 10175  0.67

> <Gold.PLP.Chemscore.Internal.Correction>
0.0944

> <Gold.Rescore>
     Score         DG    S(hbond)    S(metal)    S(lipo)     H(rot)  DE(clash)    DE(int)     intcor
     16.20     -18.92       1.97        0.00      97.15       1.76       0.82       1.90       ----

> <Gold.Chemscore.Fitness>
16.1971

> <Gold.Chemscore.DG>
-18.9202

> <Gold.Chemscore.ZeroCoef>
-5.4800

> <Gold.Chemscore.Hbond>
1.9669

> <Gold.Chemscore.Metal>
0.0000

> <Gold.Chemscore.Lipo>
97.1479

> <Gold.Chemscore.Internal_Hbond>
0.0000

> <Gold.Chemscore.DEClash>
0.8218

> <Gold.Chemscore.DEInternal>
1.9013

> <Gold.Chemscore.Rot>
1.7561

> <Gold.Chemscore.Internal.Correction>
   9.000000E+99

> <Gold.Chemscore.Hbonds>
donor molecule, donor type, donor heavy atom, donor atom, acceptor molecule, acceptor atom, score
      L1  H     4    36       P1  7948  0.95
      L1  H     9    27       P1  8028  0.92

> <Gold.Chemscore.Hbond.Weighted>
-6.5695

> <Gold.Chemscore.Metal.Weighted>
-0.0000

> <Gold.Chemscore.Lipo.Weighted>
-11.3663

> <Gold.Chemscore.Internal_Hbond.Weighted>
0.0000

> <Gold.Chemscore.DEClash.Weighted>
0.8218

> <Gold.Chemscore.DEInternal.Weighted>
1.9013

> <Gold.Chemscore.Rot.Weighted>
4.4956

> <Gold.Chemscore.Internal.Correction.Weighted>
   9.000000E+99

> <Gold.Protein.RotatedTorsions>
[ 6907 6896 6895 6894 ] final  -68.28 input  -60.11 | X-H torsion
[ 7974 7965 7964 7962 ] final -164.61 input  175.53 | X-H torsion
[ 8008 7997 7996 7995 ] final  168.43 input   59.86 | X-H torsion
[ 10167 10162 10161 10158 ] final  -78.73 input  -65.29 | X-H torsion
[ 10718 10713 10712 10709 ] final -156.93 input   66.30 | X-H torsion
[ 10763 10752 10751 10750 ] final   76.33 input  -60.55 | X-H torsion
[ 11005 11000 10999 10996 ] final    5.03 input  -57.11 | X-H torsion

> <Gold.Protein.ActiveResidues>
 VAL166  LYS551  ARG553  GLY616  TRP617  ASP618  TYR619  PRO620  LYS621  CYS622 
 ASP623  PHE694  ASN695  SER759  ASP760  ASP761  ALA762  ILE779  LEU786  VAL792 
 PHE793  MET794  SER795  GLU796  ALA797  LYS798  CYS799  TRP800  GLU811  SER814 

> <Gold.Protein.RotatedAtoms>
  150.7364  134.5762  159.5914 H   0  0  0  0  0  0  0  0  0  0  0  0  # atno 6907 bound_to 6896
  152.3188  134.7404  160.0328 H   0  0  0  0  0  0  0  0  0  0  0  0  # atno 6908 bound_to 6896
  151.7927  133.3325  159.3540 H   0  0  0  0  0  0  0  0  0  0  0  0  # atno 6909 bound_to 6896
  144.7292  140.2935  143.6216 H   0  0  0  0  0  0  0  0  0  0  0  0  # atno 7974 bound_to 7965
  156.1547  140.1591  156.8711 H   0  0  0  0  0  0  0  0  0  0  0  0  # atno 8008 bound_to 7997
  154.5104  140.0802  156.8015 H   0  0  0  0  0  0  0  0  0  0  0  0  # atno 8009 bound_to 7997
  155.3826  140.3406  155.4250 H   0  0  0  0  0  0  0  0  0  0  0  0  # atno 8010 bound_to 7997
  140.4656  143.2441  151.8282 H   0  0  0  0  0  0  0  0  0  0  0  0  # atno 10167 bound_to 10162
  156.5333  130.8530  151.2723 H   0  0  0  0  0  0  0  0  0  0  0  0  # atno 10718 bound_to 10713
  153.0717  135.4955  154.8320 H   0  0  0  0  0  0  0  0  0  0  0  0  # atno 10763 bound_to 10752
  154.7032  135.3005  154.9312 H   0  0  0  0  0  0  0  0  0  0  0  0  # atno 10764 bound_to 10752
  154.0029  135.6764  153.4813 H   0  0  0  0  0  0  0  0  0  0  0  0  # atno 10765 bound_to 10752
  140.5753  134.0064  155.8025 H   0  0  0  0  0  0  0  0  0  0  0  0  # atno 11005 bound_to 11000
  145.7831  139.1899  143.2146 LP  0  0  0  0  0  0  0  0  0  0  0  0  # atno 17320 bound_to 7965
  146.0817  140.7756  142.9638 LP  0  0  0  0  0  0  0  0  0  0  0  0  # atno 17321 bound_to 7965
  139.4811  144.4954  151.9130 LP  0  0  0  0  0  0  0  0  0  0  0  0  # atno 17342 bound_to 10162
  140.4040  144.2456  150.5891 LP  0  0  0  0  0  0  0  0  0  0  0  0  # atno 17343 bound_to 10162
  157.7418  130.9877  150.2471 LP  0  0  0  0  0  0  0  0  0  0  0  0  # atno 17370 bound_to 10713
  156.3040  130.3762  149.7724 LP  0  0  0  0  0  0  0  0  0  0  0  0  # atno 17371 bound_to 10713
  141.1030  133.9738  157.3045 LP  0  0  0  0  0  0  0  0  0  0  0  0  # atno 17394 bound_to 11000
  139.9342  135.0198  156.8502 LP  0  0  0  0  0  0  0  0  0  0  0  0  # atno 17395 bound_to 11000

$$$$
