#       Name:                AV-unprocessed.smi:2614
#       Creating user name   scv26
#       Creation time:       Fri Mar 27 14:22:12 2020


#       File generated by GOLD software.
#

@<TRIPOS>MOLECULE
AV-unprocessed.smi:2614
    26    27     1
SMALL
NO_CHARGES


@<TRIPOS>ATOM
      1 ****        -3.6446   0.8743  -0.4576 C.3            1 S1                 0.0000
      2 ****        -2.1549   0.8858  -0.4081 C.2            1 S1                 0.0000
      3 ****        -1.4176   2.0320  -0.4821 N.2            1 S1                 0.0000
      4 ****        -0.1910   1.5285  -0.4006 C.2            1 S1                 0.0000
      5 ****         1.0608   2.3425  -0.4380 C.3            1 S1                 0.0000
      6 ****        -0.1821   0.1937  -0.2802 N.pl3          1 S1                 0.0000
      7 ****         0.9161  -0.7265  -0.1786 C.3            1 S1                 0.0000
      8 ****         0.7064  -2.2268   0.0401 C.3            1 S1                 0.0000
      9 ****         1.9326  -2.2200   0.8272 N.4            1 S1                 1.0000
     10 ****         1.7498  -0.7992   1.0987 C.3            1 S1                 0.0000
     11 ****        -1.4630  -0.2450  -0.2901 N.2            1 S1                 0.0000
     12 ****        -4.0386   1.8910  -0.4734 H              1 S1                 0.0000
     13 ****        -4.0486   0.3622   0.4160 H              1 S1                 0.0000
     14 ****        -3.9878   0.3569  -1.3537 H              1 S1                 0.0000
     15 ****         0.8236   3.4021  -0.5382 H              1 S1                 0.0000
     16 ****         1.6780   2.0442  -1.2857 H              1 S1                 0.0000
     17 ****         1.6298   2.2003   0.4807 H              1 S1                 0.0000
     18 ****         1.5502  -0.5513  -1.0508 H              1 S1                 0.0000
     19 ****        -0.1634  -2.4750   0.6518 H              1 S1                 0.0000
     20 ****         0.7612  -2.8355  -0.8628 H              1 S1                 0.0000
     21 ****         1.8960  -2.8046   1.6502 H              1 S1                 0.0000
     22 ****         2.6733  -0.2198   1.0798 H              1 S1                 0.0000
     23 ****         1.1714  -0.6238   2.0080 H              1 S1                 0.0000
     24 ****         2.7435  -2.3858   0.2483 H              1 S1                 0.0000
     25 ****        -1.7163   2.9821  -0.5722 LP             1 S1                 0.0000
     26 ****        -1.8036  -1.1830  -0.2251 LP             1 S1                 0.0000
@<TRIPOS>BOND
    1    1    2 1     
    2    1   12 1     
    3    1   13 1     
    4    1   14 1     
    5    2   11 2     
    6    2    3 1     
    7    3    4 2     
    8    4    5 1     
    9    4    6 1     
   10    5   15 1     
   11    5   16 1     
   12    5   17 1     
   13    6    7 1     
   14    6   11 1     
   15    7   10 1     
   16    7    8 1     
   17    7   18 1     
   18    8    9 1     
   19    8   19 1     
   20    8   20 1     
   21    9   10 1     
   22    9   21 1     
   23    9   24 1     
   24   10   22 1     
   25   10   23 1     
   26    3   25 1     
   27   11   26 1     
@<TRIPOS>SUBSTRUCTURE
      1 S1             1
@<TRIPOS>SET
LONE_PAIRS      STATIC     ATOMS    <user>   **** ""
2 25 26
DONOR_HYDROGENS      STATIC     ATOMS    <user>   **** ""
2 21 24
ATOM$BLUE        STATIC     ATOMS    COLORGROUP SYSTEM
2 25 26
ATOM$RED        STATIC     ATOMS    COLORGROUP SYSTEM
2 21 24
