AV-unprocessed.smi:3273|AV-procd|sdf|12521|dock2
  -GOLD-   2272018433D 1   1.00000     0.00000
 Structure written by MMmdl.
 41 42  0  0  0  0  0  0  0  0  1 V2000
  146.7400  130.7326  155.2642 C   0  0  0  0  0  0  0  0  0  0  0  0
  147.7944  130.2661  154.2402 C   0  0  0  0  0  0  0  0  0  0  0  0
  148.1704  128.8030  154.5427 C   0  0  0  0  0  0  0  0  0  0  0  0
  149.0282  131.2181  154.1966 C   0  0  1  0  0  0  0  0  0  0  0  0
  148.6923  132.6437  153.6856 C   0  0  0  0  0  0  0  0  0  0  0  0
  148.0281  132.6334  152.3840 N   0  0  0  0  0  0  0  0  0  0  0  0
  146.8189  133.1544  152.1246 C   0  0  0  0  0  0  0  0  0  0  0  0
  146.1506  133.7670  152.9575 O   0  0  0  0  0  0  0  0  0  0  0  0
  146.2712  132.9348  150.7146 C   0  0  0  0  0  0  0  0  0  0  0  0
  144.8893  133.5418  150.5456 C   0  0  0  0  0  0  0  0  0  0  0  0
  143.6575  132.8229  151.0461 C   0  0  0  0  0  0  0  0  0  0  0  0
  143.8936  132.9659  149.5627 C   0  0  0  0  0  0  0  0  0  0  0  0
  149.7721  131.2791  155.5084 C   0  0  0  0  0  0  0  0  0  0  0  0
  150.8906  130.6113  155.9311 C   0  0  0  0  0  0  0  0  0  0  0  0
  151.0794  131.0501  157.2692 C   0  0  0  0  0  0  0  0  0  0  0  0
  150.1578  131.9148  157.6519 N   0  0  0  0  0  0  0  0  0  0  0  0
  149.3510  132.0524  156.5781 N   0  0  0  0  0  0  0  0  0  0  0  0
  148.2085  132.9423  156.6698 C   0  0  0  0  0  0  0  0  0  0  0  0
  147.1592  130.7742  156.2699 H   0  0  0  0  0  0  0  0  0  0  0  0
  145.8896  130.0508  155.2898 H   0  0  0  0  0  0  0  0  0  0  0  0
  146.3431  131.7200  155.0310 H   0  0  0  0  0  0  0  0  0  0  0  0
  147.3167  130.2762  153.2597 H   0  0  0  0  0  0  0  0  0  0  0  0
  148.7376  128.7221  155.4704 H   0  0  0  0  0  0  0  0  0  0  0  0
  148.7639  128.3613  153.7429 H   0  0  0  0  0  0  0  0  0  0  0  0
  147.2796  128.1826  154.6452 H   0  0  0  0  0  0  0  0  0  0  0  0
  149.7053  130.7883  153.4577 H   0  0  0  0  0  0  0  0  0  0  0  0
  148.0793  133.1677  154.4199 H   0  0  0  0  0  0  0  0  0  0  0  0
  149.5944  133.2477  153.6000 H   0  0  0  0  0  0  0  0  0  0  0  0
  148.5053  132.1533  151.6347 H   0  0  0  0  0  0  0  0  0  0  0  0
  146.9595  133.3894  150.0011 H   0  0  0  0  0  0  0  0  0  0  0  0
  146.2246  131.8711  150.4774 H   0  0  0  0  0  0  0  0  0  0  0  0
  144.8780  134.6261  150.6421 H   0  0  0  0  0  0  0  0  0  0  0  0
  143.7858  131.8333  151.4798 H   0  0  0  0  0  0  0  0  0  0  0  0
  142.8704  133.4281  151.4910 H   0  0  0  0  0  0  0  0  0  0  0  0
  143.2676  133.6682  149.0160 H   0  0  0  0  0  0  0  0  0  0  0  0
  144.1804  132.0716  149.0128 H   0  0  0  0  0  0  0  0  0  0  0  0
  151.4821  129.9036  155.3695 H   0  0  0  0  0  0  0  0  0  0  0  0
  151.8500  130.7643  157.9696 H   0  0  0  0  0  0  0  0  0  0  0  0
  147.2874  132.3759  156.5349 H   0  0  0  0  0  0  0  0  0  0  0  0
  148.2755  133.7087  155.8976 H   0  0  0  0  0  0  0  0  0  0  0  0
  148.1781  133.4308  157.6446 H   0  0  0  0  0  0  0  0  0  0  0  0
  1  2  1  0  0  0  0
  1 19  1  0  0  0  0
  1 20  1  0  0  0  0
  1 21  1  0  0  0  0
  2  3  1  0  0  0  0
  2  4  1  0  0  0  0
  2 22  1  0  0  0  0
  3 23  1  0  0  0  0
  3 24  1  0  0  0  0
  3 25  1  0  0  0  0
  4  5  1  0  0  0  0
  4 13  1  0  0  0  0
  4 26  1  0  0  0  0
  5  6  1  0  0  0  0
  5 27  1  0  0  0  0
  5 28  1  0  0  0  0
  6  7  1  0  0  0  0
  6 29  1  0  0  0  0
  7  8  2  0  0  0  0
  7  9  1  0  0  0  0
  9 10  1  0  0  0  0
  9 30  1  0  0  0  0
  9 31  1  0  0  0  0
 10 12  1  0  0  0  0
 10 11  1  0  0  0  0
 10 32  1  0  0  0  0
 11 12  1  0  0  0  0
 11 33  1  0  0  0  0
 11 34  1  0  0  0  0
 12 35  1  0  0  0  0
 12 36  1  0  0  0  0
 13 17  1  0  0  0  0
 13 14  2  0  0  0  0
 14 15  1  0  0  0  0
 14 37  1  0  0  0  0
 15 16  2  0  0  0  0
 15 38  1  0  0  0  0
 16 17  1  0  0  0  0
 17 18  1  0  0  0  0
 18 39  1  0  0  0  0
 18 40  1  0  0  0  0
 18 41  1  0  0  0  0
M  END
> <s_m_source_file>
AV-unprocessed.smi

> <i_m_source_file_index>
3273

> <i_lp_mmshare_version>
43012

> <i_f3d_flags>
0

> <s_epik_input>
W0NIM11uMW5bY0hdW2NIXWMxW0NASF0oW0NIXShbQ0gzXSlbQ0gzXSlbQ0gyXVtOSF1DKD1PKVtDSDJdW0NIXTJbQ0gyXVtDSDJdMg==

> <s_epik_cmdline>
J2VwaWtfcHl0aG9uJywgJy1waCcsICc3LjAnLCAnLXRuJywgJzgnLCAnLW1hJywgJzIwMCcsICctbWV0YWxfYmluZGluZycsICctaW1hZScsICc8aW5maWxlLm1hZT4nLCAnLW9tYWUnLCAnPG91dGZpbGUubWFlPic=

> <r_lp_tautomer_probability>
1

> <r_epik_Ionization_Penalty>
0.00116261

> <r_epik_Ionization_Penalty_Charging>
0

> <r_epik_Ionization_Penalty_Neutral>
0.00116261

> <r_epik_State_Penalty>
-0

> <r_epik_Charging_Adjusted_Penalty>
0

> <i_epik_Tot_Q>
0

> <i_epik_Tot_abs_Q>
0

> <r_epik_Metal_State_Penalty>
-0

> <b_epik_Metal_Only>
0

> <s_lp_Force_Field>
OPLS_2005

> <r_lp_Energy>
15.0656

> <b_lp_Chiralities_Consistent>
1

> <s_lp_Variant>
AV-unprocessed.smi:3273-2

> <Gold.Version>
5.8.1

> <Gold.Id.Protein>
6NUR|6NUR_protein|mol2

> <Gold.PLP.Fitness>
38.2244

> <Gold.PLP.PLP>
-32.9573

> <Gold.PLP.part.hbond>
-2.0000

> <Gold.PLP.part.metal>
0.0000

> <Gold.PLP.part.buried>
-5.0666

> <Gold.PLP.part.nonpolar>
-26.7157

> <Gold.PLP.part.repulsive>
0.1172

> <Gold.PLP.ligand.clash>
0.0000

> <Gold.PLP.ligand.torsion>
0.7588

> <Gold.PLP.Chemscore.Hbond>
2.0000

> <Gold.PLP.Chemscore.CHOScore>
0.0000

> <Gold.PLP.Chemscore.Metal>
0.0000

> <Gold.Chemscore.Hbonds>
donor molecule, donor type, donor heavy atom, donor atom, acceptor molecule, acceptor atom, score
      L1  H     6    29       P1 10747  1.00
      P1  H  6896  6909       L1    16  0.06

> <Gold.PLP.Chemscore.Internal.Correction>
0.7847

> <Gold.Rescore>
     Score         DG    S(hbond)    S(metal)    S(lipo)     H(rot)  DE(clash)    DE(int)     intcor
     14.40     -16.38       1.87        0.00      75.62       1.64       0.00       1.97       ----

> <Gold.Chemscore.Fitness>
14.4011

> <Gold.Chemscore.DG>
-16.3777

> <Gold.Chemscore.ZeroCoef>
-5.4800

> <Gold.Chemscore.Hbond>
1.8731

> <Gold.Chemscore.Metal>
0.0000

> <Gold.Chemscore.Lipo>
75.6210

> <Gold.Chemscore.Internal_Hbond>
0.0000

> <Gold.Chemscore.DEClash>
0.0038

> <Gold.Chemscore.DEInternal>
1.9729

> <Gold.Chemscore.Rot>
1.6430

> <Gold.Chemscore.Internal.Correction>
   9.000000E+99

> <Gold.Chemscore.Hbonds>
donor molecule, donor type, donor heavy atom, donor atom, acceptor molecule, acceptor atom, score
      L1  H     6    29       P1 10747  0.99
      P1  H  6896  6909       L1    16  0.06

> <Gold.Chemscore.Hbond.Weighted>
-6.2562

> <Gold.Chemscore.Metal.Weighted>
-0.0000

> <Gold.Chemscore.Lipo.Weighted>
-8.8477

> <Gold.Chemscore.Internal_Hbond.Weighted>
0.0000

> <Gold.Chemscore.DEClash.Weighted>
0.0038

> <Gold.Chemscore.DEInternal.Weighted>
1.9729

> <Gold.Chemscore.Rot.Weighted>
4.2062

> <Gold.Chemscore.Internal.Correction.Weighted>
   9.000000E+99

> <Gold.Protein.RotatedTorsions>
[ 6907 6896 6895 6894 ] final  -36.13 input  -60.11 | X-H torsion
[ 7974 7965 7964 7962 ] final  -90.32 input  175.53 | X-H torsion
[ 8008 7997 7996 7995 ] final -117.97 input   59.86 | X-H torsion
[ 10167 10162 10161 10158 ] final  -48.97 input  -65.29 | X-H torsion
[ 10718 10713 10712 10709 ] final -178.97 input   66.30 | X-H torsion
[ 10763 10752 10751 10750 ] final  -80.55 input  -60.55 | X-H torsion
[ 11005 11000 10999 10996 ] final   11.51 input  -57.11 | X-H torsion

> <Gold.Protein.ActiveResidues>
 VAL166  LYS551  ARG553  GLY616  TRP617  ASP618  TYR619  PRO620  LYS621  CYS622 
 ASP623  PHE694  ASN695  SER759  ASP760  ASP761  ALA762  ILE779  LEU786  VAL792 
 PHE793  MET794  SER795  GLU796  ALA797  LYS798  CYS799  TRP800  GLU811  SER814 

> <Gold.Protein.RotatedAtoms>
  151.0310  134.9539  159.8110 H   0  0  0  0  0  0  0  0  0  0  0  0  # atno 6907 bound_to 6896
  152.5345  134.2780  159.9006 H   0  0  0  0  0  0  0  0  0  0  0  0  # atno 6908 bound_to 6896
  151.2789  133.4177  159.2660 H   0  0  0  0  0  0  0  0  0  0  0  0  # atno 6909 bound_to 6896
  145.4280  140.9554  143.2144 H   0  0  0  0  0  0  0  0  0  0  0  0  # atno 7974 bound_to 7965
  155.0921  140.0395  157.2672 H   0  0  0  0  0  0  0  0  0  0  0  0  # atno 8008 bound_to 7997
  154.6823  140.2636  155.6870 H   0  0  0  0  0  0  0  0  0  0  0  0  # atno 8009 bound_to 7997
  156.2699  140.2776  156.1372 H   0  0  0  0  0  0  0  0  0  0  0  0  # atno 8010 bound_to 7997
  140.6707  143.2717  151.4147 H   0  0  0  0  0  0  0  0  0  0  0  0  # atno 10167 bound_to 10162
  156.8522  130.9723  151.3091 H   0  0  0  0  0  0  0  0  0  0  0  0  # atno 10718 bound_to 10713
  154.5526  135.5657  153.6936 H   0  0  0  0  0  0  0  0  0  0  0  0  # atno 10763 bound_to 10752
  152.9994  135.6254  154.2353 H   0  0  0  0  0  0  0  0  0  0  0  0  # atno 10764 bound_to 10752
  154.2288  135.2866  155.2877 H   0  0  0  0  0  0  0  0  0  0  0  0  # atno 10765 bound_to 10752
  140.5025  134.0732  155.7797 H   0  0  0  0  0  0  0  0  0  0  0  0  # atno 11005 bound_to 11000
  144.8201  139.5806  143.6990 LP  0  0  0  0  0  0  0  0  0  0  0  0  # atno 17320 bound_to 7965
  146.2622  139.6436  142.9354 LP  0  0  0  0  0  0  0  0  0  0  0  0  # atno 17321 bound_to 7965
  139.5974  144.1369  152.2159 LP  0  0  0  0  0  0  0  0  0  0  0  0  # atno 17342 bound_to 10162
  140.0742  144.5754  150.7169 LP  0  0  0  0  0  0  0  0  0  0  0  0  # atno 17343 bound_to 10162
  157.6297  130.8719  149.9252 LP  0  0  0  0  0  0  0  0  0  0  0  0  # atno 17370 bound_to 10713
  156.0822  130.3672  150.0558 LP  0  0  0  0  0  0  0  0  0  0  0  0  # atno 17371 bound_to 10713
  141.1428  133.9108  157.2286 LP  0  0  0  0  0  0  0  0  0  0  0  0  # atno 17394 bound_to 11000
  139.9705  135.0129  156.9500 LP  0  0  0  0  0  0  0  0  0  0  0  0  # atno 17395 bound_to 11000

$$$$
