AV-unprocessed.smi:1763|AV-procd|sdf|7130|dock2
  -GOLD-   22720 8363D 1   1.00000     0.00000
 Structure written by MMmdl.
 42 43  0  0  0  0  0  0  0  0  3 V2000
  143.6453  135.1902  152.9188 C   0  0  0  0  0  0  0  0  0  0  0  0
  144.4387  136.3083  152.4220 N   0  5  0  0  0  0  0  0  0  0  0  0
  145.1174  137.1664  153.2329 C   0  0  0  0  0  0  0  0  0  0  0  0
  145.1011  137.2978  154.4608 O   0  0  0  0  0  0  0  0  0  0  0  0
  146.0276  138.0917  152.4161 C   0  0  0  0  0  0  0  0  0  0  0  0
  146.6837  139.0928  153.2957 N   0  3  2  0  0  0  0  0  0  0  0  0
  147.0621  140.3296  152.5682 C   0  0  0  0  0  0  0  0  0  0  0  0
  147.5873  141.4024  153.5370 C   0  0  0  0  0  0  0  0  0  0  0  0
  148.7739  140.8754  154.3598 C   0  0  1  0  0  0  0  0  0  0  0  0
  149.1929  141.8826  155.3302 N   0  0  0  0  0  0  0  0  0  0  0  0
  150.1317  141.7038  156.2712 C   0  0  0  0  0  0  0  0  0  0  0  0
  150.7606  140.6541  156.4096 O   0  0  0  0  0  0  0  0  0  0  0  0
  150.2801  142.8063  157.0270 N   0  0  0  0  0  0  0  0  0  0  0  0
  151.1544  143.0034  158.1291 C   0  0  0  0  0  0  0  0  0  0  0  0
  151.2787  144.3428  158.5625 C   0  0  0  0  0  0  0  0  0  0  0  0
  152.1196  144.6433  159.6516 C   0  0  0  0  0  0  0  0  0  0  0  0
  152.8169  143.5955  160.2789 C   0  0  0  0  0  0  0  0  0  0  0  0
  152.6383  142.2904  159.7841 C   0  0  0  0  0  0  0  0  0  0  0  0
  151.8320  142.0001  158.7413 N   0  0  0  0  0  0  0  0  0  0  0  0
  148.3705  139.5699  155.0696 C   0  0  0  0  0  0  0  0  0  0  0  0
  147.8261  138.5376  154.0690 C   0  0  0  0  0  0  0  0  0  0  0  0
  143.2226  134.6010  152.1052 H   0  0  0  0  0  0  0  0  0  0  0  0
  142.8043  135.5190  153.5300 H   0  0  0  0  0  0  0  0  0  0  0  0
  144.2298  134.5010  153.5288 H   0  0  0  0  0  0  0  0  0  0  0  0
  146.7766  137.5160  151.8697 H   0  0  0  0  0  0  0  0  0  0  0  0
  145.4108  138.5892  151.6655 H   0  0  0  0  0  0  0  0  0  0  0  0
  147.8175  140.0948  151.8165 H   0  0  0  0  0  0  0  0  0  0  0  0
  146.1951  140.7233  152.0365 H   0  0  0  0  0  0  0  0  0  0  0  0
  147.8838  142.2902  152.9770 H   0  0  0  0  0  0  0  0  0  0  0  0
  146.7803  141.7118  154.2032 H   0  0  0  0  0  0  0  0  0  0  0  0
  149.5989  140.6689  153.6748 H   0  0  0  0  0  0  0  0  0  0  0  0
  148.7253  142.7765  155.2889 H   0  0  0  0  0  0  0  0  0  0  0  0
  149.6914  143.5925  156.7952 H   0  0  0  0  0  0  0  0  0  0  0  0
  150.7355  145.1361  158.0696 H   0  0  0  0  0  0  0  0  0  0  0  0
  152.2269  145.6603  159.9989 H   0  0  0  0  0  0  0  0  0  0  0  0
  153.4711  143.7862  161.1168 H   0  0  0  0  0  0  0  0  0  0  0  0
  153.1548  141.4574  160.2375 H   0  0  0  0  0  0  0  0  0  0  0  0
  149.2254  139.1492  155.6003 H   0  0  0  0  0  0  0  0  0  0  0  0
  147.6098  139.7768  155.8240 H   0  0  0  0  0  0  0  0  0  0  0  0
  147.5147  137.6453  154.6127 H   0  0  0  0  0  0  0  0  0  0  0  0
  148.6158  138.2285  153.3823 H   0  0  0  0  0  0  0  0  0  0  0  0
  145.9747  139.3600  153.9647 H   0  0  0  0  0  0  0  0  0  0  0  0
  1  2  1  0  0  0  0
  1 22  1  0  0  0  0
  1 23  1  0  0  0  0
  1 24  1  0  0  0  0
  2  3  1  0  0  0  0
  3  4  2  0  0  0  0
  3  5  1  0  0  0  0
  5  6  1  0  0  0  0
  5 25  1  0  0  0  0
  5 26  1  0  0  0  0
  6 21  1  0  0  0  0
  6  7  1  0  0  0  0
  6 42  1  0  0  0  0
  7  8  1  0  0  0  0
  7 27  1  0  0  0  0
  7 28  1  0  0  0  0
  8  9  1  0  0  0  0
  8 29  1  0  0  0  0
  8 30  1  0  0  0  0
  9 10  1  0  0  0  0
  9 20  1  0  0  0  0
  9 31  1  0  0  0  0
 10 11  1  0  0  0  0
 10 32  1  0  0  0  0
 11 12  2  0  0  0  0
 11 13  1  0  0  0  0
 13 14  1  0  0  0  0
 13 33  1  0  0  0  0
 14 19  1  0  0  0  0
 14 15  2  0  0  0  0
 15 16  1  0  0  0  0
 15 34  1  0  0  0  0
 16 17  2  0  0  0  0
 16 35  1  0  0  0  0
 17 18  1  0  0  0  0
 17 36  1  0  0  0  0
 18 19  2  0  0  0  0
 18 37  1  0  0  0  0
 20 21  1  0  0  0  0
 20 38  1  0  0  0  0
 20 39  1  0  0  0  0
 21 40  1  0  0  0  0
 21 41  1  0  0  0  0
M  CHG  1   2  -1
M  CHG  1   6   1
M  END
> <s_m_source_file>
AV-unprocessed.smi

> <i_m_source_file_index>
1763

> <i_lp_mmshare_version>
43012

> <i_f3d_flags>
0

> <s_epik_input>
W0NIM11bTkhdQyg9TylbQ0gyXU4xW0NIMl1bQ0gyXVtDSF0oW0NIMl1bQ0gyXTEpW05IXUMoPU8pW05IXWMyW2NIXVtjSF1bY0hdW2NIXW4y

> <s_epik_cmdline>
J2VwaWtfcHl0aG9uJywgJy1waCcsICc3LjAnLCAnLXRuJywgJzgnLCAnLW1hJywgJzIwMCcsICctbWV0YWxfYmluZGluZycsICctaW1hZScsICc8aW5maWxlLm1hZT4nLCAnLW9tYWUnLCAnPG91dGZpbGUubWFlPic=

> <r_epik_Ionization_Penalty>
6.1395

> <r_epik_Ionization_Penalty_Charging>
6.13946

> <r_epik_Ionization_Penalty_Neutral>
3.77655e-05

> <r_epik_State_Penalty>
6.9595

> <r_epik_Charging_Adjusted_Penalty>
13.099

> <i_epik_Tot_Q>
0

> <i_epik_Tot_abs_Q>
2

> <r_epik_Metal_State_Penalty>
2.8914

> <b_epik_Metal_Only>
1

> <s_lp_Force_Field>
OPLS_2005

> <r_lp_Energy>
11.9175

> <b_lp_Chiralities_Consistent>
1

> <s_lp_Variant>
AV-unprocessed.smi:1763-4

> <Gold.Version>
5.8.1

> <Gold.Id.Protein>
6NUR|6NUR_protein|mol2

> <Gold.PLP.Fitness>
42.1212

> <Gold.PLP.PLP>
-36.8091

> <Gold.PLP.part.hbond>
-2.0000

> <Gold.PLP.part.metal>
0.0000

> <Gold.PLP.part.buried>
-5.3404

> <Gold.PLP.part.nonpolar>
-31.2470

> <Gold.PLP.part.repulsive>
0.4253

> <Gold.PLP.ligand.clash>
0.0000

> <Gold.PLP.ligand.torsion>
0.3225

> <Gold.PLP.Chemscore.Hbond>
1.9600

> <Gold.PLP.Chemscore.CHOScore>
0.0000

> <Gold.PLP.Chemscore.Metal>
0.0000

> <Gold.Chemscore.Hbonds>
donor molecule, donor type, donor heavy atom, donor atom, acceptor molecule, acceptor atom, score
      L1  H    10    32       P1  8028  0.93
      L1  H    13    33       P1  8028  1.00

> <Gold.PLP.Chemscore.Internal.Correction>
0.0772

> <Gold.Rescore>
     Score         DG    S(hbond)    S(metal)    S(lipo)     H(rot)  DE(clash)    DE(int)     intcor
     15.47     -18.22       1.83        0.00      93.25       1.67       0.18       2.58       ----

> <Gold.Chemscore.Fitness>
15.4686

> <Gold.Chemscore.DG>
-18.2232

> <Gold.Chemscore.ZeroCoef>
-5.4800

> <Gold.Chemscore.Hbond>
1.8311

> <Gold.Chemscore.Metal>
0.0000

> <Gold.Chemscore.Lipo>
93.2508

> <Gold.Chemscore.Internal_Hbond>
0.0000

> <Gold.Chemscore.DEClash>
0.1780

> <Gold.Chemscore.DEInternal>
2.5766

> <Gold.Chemscore.Rot>
1.6730

> <Gold.Chemscore.Internal.Correction>
   9.000000E+99

> <Gold.Chemscore.Hbonds>
donor molecule, donor type, donor heavy atom, donor atom, acceptor molecule, acceptor atom, score
      L1  H    10    32       P1  8028  0.88
      L1  H    13    33       P1  8028  0.97

> <Gold.Chemscore.Hbond.Weighted>
-6.1158

> <Gold.Chemscore.Metal.Weighted>
-0.0000

> <Gold.Chemscore.Lipo.Weighted>
-10.9103

> <Gold.Chemscore.Internal_Hbond.Weighted>
0.0000

> <Gold.Chemscore.DEClash.Weighted>
0.1780

> <Gold.Chemscore.DEInternal.Weighted>
2.5766

> <Gold.Chemscore.Rot.Weighted>
4.2830

> <Gold.Chemscore.Internal.Correction.Weighted>
   9.000000E+99

> <Gold.Protein.RotatedTorsions>
[ 6907 6896 6895 6894 ] final    9.28 input  -60.11 | X-H torsion
[ 7974 7965 7964 7962 ] final -159.90 input  175.53 | X-H torsion
[ 8008 7997 7996 7995 ] final   49.85 input   59.86 | X-H torsion
[ 10167 10162 10161 10158 ] final  171.35 input  -65.29 | X-H torsion
[ 10718 10713 10712 10709 ] final  154.03 input   66.30 | X-H torsion
[ 10763 10752 10751 10750 ] final -139.84 input  -60.55 | X-H torsion
[ 11005 11000 10999 10996 ] final  142.28 input  -57.11 | X-H torsion

> <Gold.Protein.ActiveResidues>
 VAL166  LYS551  ARG553  GLY616  TRP617  ASP618  TYR619  PRO620  LYS621  CYS622 
 ASP623  PHE694  ASN695  SER759  ASP760  ASP761  ALA762  ILE779  LEU786  VAL792 
 PHE793  MET794  SER795  GLU796  ALA797  LYS798  CYS799  TRP800  GLU811  SER814 

> <Gold.Protein.RotatedAtoms>
  151.7197  135.0896  160.0281 H   0  0  0  0  0  0  0  0  0  0  0  0  # atno 6907 bound_to 6896
  152.3610  133.6292  159.6023 H   0  0  0  0  0  0  0  0  0  0  0  0  # atno 6908 bound_to 6896
  150.7604  133.9340  159.3477 H   0  0  0  0  0  0  0  0  0  0  0  0  # atno 6909 bound_to 6896
  144.7447  140.3619  143.6094 H   0  0  0  0  0  0  0  0  0  0  0  0  # atno 7974 bound_to 7965
  155.4090  140.3441  155.4262 H   0  0  0  0  0  0  0  0  0  0  0  0  # atno 8008 bound_to 7997
  156.1459  140.1556  156.8878 H   0  0  0  0  0  0  0  0  0  0  0  0  # atno 8009 bound_to 7997
  154.5010  140.0814  156.7779 H   0  0  0  0  0  0  0  0  0  0  0  0  # atno 8010 bound_to 7997
  139.5044  144.3495  151.9937 H   0  0  0  0  0  0  0  0  0  0  0  0  # atno 10167 bound_to 10162
  157.2370  131.0751  151.1817 H   0  0  0  0  0  0  0  0  0  0  0  0  # atno 10718 bound_to 10713
  154.8597  135.3571  154.5611 H   0  0  0  0  0  0  0  0  0  0  0  0  # atno 10763 bound_to 10752
  153.6226  135.7005  153.5309 H   0  0  0  0  0  0  0  0  0  0  0  0  # atno 10764 bound_to 10752
  153.3116  135.4177  155.1301 H   0  0  0  0  0  0  0  0  0  0  0  0  # atno 10765 bound_to 10752
  140.0465  134.9278  157.0939 H   0  0  0  0  0  0  0  0  0  0  0  0  # atno 11005 bound_to 11000
  145.7168  139.1699  143.2507 LP  0  0  0  0  0  0  0  0  0  0  0  0  # atno 17320 bound_to 7965
  146.1306  140.7190  142.9414 LP  0  0  0  0  0  0  0  0  0  0  0  0  # atno 17321 bound_to 7965
  140.2932  144.3730  150.6082 LP  0  0  0  0  0  0  0  0  0  0  0  0  # atno 17342 bound_to 10162
  140.5930  143.2167  151.7217 LP  0  0  0  0  0  0  0  0  0  0  0  0  # atno 17343 bound_to 10162
  157.3419  130.7037  149.6386 LP  0  0  0  0  0  0  0  0  0  0  0  0  # atno 17370 bound_to 10713
  155.9672  130.4277  150.4757 LP  0  0  0  0  0  0  0  0  0  0  0  0  # atno 17371 bound_to 10713
  140.3985  134.2108  155.7164 LP  0  0  0  0  0  0  0  0  0  0  0  0  # atno 17394 bound_to 11000
  141.1909  133.8206  157.0898 LP  0  0  0  0  0  0  0  0  0  0  0  0  # atno 17395 bound_to 11000

$$$$
