AV-unprocessed.smi:91|AV-procd|sdf|839|dock2
  -GOLD-   2262017273D 1   1.00000     0.00000
 Structure written by MMmdl.
 60 63  0  0  0  0  0  0  0  0  1 V2000
  154.2844  136.9617  164.4622 C   0  0  0  0  0  0  0  0  0  0  0  0
  153.8261  136.3572  163.2659 O   0  0  0  0  0  0  0  0  0  0  0  0
  154.8005  136.3802  162.2346 C   0  0  0  0  0  0  0  0  0  0  0  0
  155.2863  137.8179  162.0059 C   0  0  2  0  0  0  0  0  0  0  0  0
  154.1604  138.7672  161.5554 C   0  0  0  0  0  0  0  0  0  0  0  0
  154.7142  140.0744  161.2367 N   0  0  0  0  0  0  0  0  0  0  0  0
  153.7728  141.0114  160.9986 C   0  0  0  0  0  0  0  0  0  0  0  0
  153.4809  141.9423  161.9450 N   0  0  0  0  0  0  0  0  0  0  0  0
  152.5485  142.8689  161.7025 C   0  0  0  0  0  0  0  0  0  0  0  0
  151.8052  143.0389  160.6061 N   0  0  0  0  0  0  0  0  0  0  0  0
  152.1000  142.1040  159.6571 C   0  0  0  0  0  0  0  0  0  0  0  0
  153.0650  141.0652  159.7703 C   0  0  0  0  0  0  0  0  0  0  0  0
  153.0901  140.3058  158.6076 N   0  0  0  0  0  0  0  0  0  0  0  0
  152.1843  140.8618  157.8490 C   0  0  0  0  0  0  0  0  0  0  0  0
  151.5370  141.9436  158.4031 N   0  0  0  0  0  0  0  0  0  0  0  0
  150.4894  142.7373  157.7841 C   0  0  0  0  0  0  0  0  0  0  0  0
  149.1633  141.9598  157.5929 C   0  0  1  0  0  0  0  0  0  0  0  0
  147.9403  142.6970  158.1920 C   0  0  0  0  0  0  0  0  0  0  0  0
  148.1818  143.1057  159.5227 O   0  0  0  0  0  0  0  0  0  0  0  0
  148.9420  141.5693  156.1093 C   0  0  1  0  0  0  0  0  0  0  0  0
  150.0099  140.6642  155.5205 C   0  0  0  0  0  0  0  0  0  0  0  0
  149.3096  140.1085  154.2861 C   0  0  0  0  0  0  0  0  0  0  0  0
  147.9375  139.9985  154.6457 O   0  0  0  0  0  0  0  0  0  0  0  0
  147.6884  140.7278  155.8439 C   0  0  0  0  0  0  0  0  0  0  0  0
  155.7613  140.0009  160.2256 C   0  0  0  0  0  0  0  0  0  0  0  0
  156.8955  139.0548  160.6782 C   0  0  0  0  0  0  0  0  0  0  0  0
  157.8363  138.7695  159.4976 C   0  0  0  0  0  0  0  0  0  0  0  0
  157.7113  139.6498  161.8456 C   0  0  0  0  0  0  0  0  0  0  0  0
  156.3352  137.7861  161.0358 O   0  0  0  0  0  0  0  0  0  0  0  0
  153.4999  136.9191  165.2178 H   0  0  0  0  0  0  0  0  0  0  0  0
  154.5410  138.0096  164.3017 H   0  0  0  0  0  0  0  0  0  0  0  0
  155.1592  136.4430  164.8563 H   0  0  0  0  0  0  0  0  0  0  0  0
  155.6437  135.7468  162.5142 H   0  0  0  0  0  0  0  0  0  0  0  0
  154.3830  135.9777  161.3103 H   0  0  0  0  0  0  0  0  0  0  0  0
  155.6937  138.1760  162.9514 H   0  0  0  0  0  0  0  0  0  0  0  0
  153.6555  138.3675  160.6748 H   0  0  0  0  0  0  0  0  0  0  0  0
  153.4109  138.8603  162.3427 H   0  0  0  0  0  0  0  0  0  0  0  0
  152.3716  143.5735  162.5015 H   0  0  0  0  0  0  0  0  0  0  0  0
  151.9572  140.4931  156.8591 H   0  0  0  0  0  0  0  0  0  0  0  0
  150.3217  143.6269  158.3922 H   0  0  0  0  0  0  0  0  0  0  0  0
  150.8677  143.0901  156.8247 H   0  0  0  0  0  0  0  0  0  0  0  0
  149.2625  141.0309  158.1564 H   0  0  0  0  0  0  0  0  0  0  0  0
  147.6888  143.5762  157.5991 H   0  0  0  0  0  0  0  0  0  0  0  0
  147.0525  142.0648  158.1756 H   0  0  0  0  0  0  0  0  0  0  0  0
  148.6190  143.9440  159.5045 H   0  0  0  0  0  0  0  0  0  0  0  0
  148.8872  142.4722  155.4989 H   0  0  0  0  0  0  0  0  0  0  0  0
  150.9336  141.1884  155.2739 H   0  0  0  0  0  0  0  0  0  0  0  0
  150.2490  139.8537  156.2105 H   0  0  0  0  0  0  0  0  0  0  0  0
  149.3959  140.8085  153.4538 H   0  0  0  0  0  0  0  0  0  0  0  0
  149.7187  139.1495  153.9675 H   0  0  0  0  0  0  0  0  0  0  0  0
  147.5245  140.0104  156.6491 H   0  0  0  0  0  0  0  0  0  0  0  0
  146.7902  141.3387  155.7495 H   0  0  0  0  0  0  0  0  0  0  0  0
  155.3289  139.6357  159.2926 H   0  0  0  0  0  0  0  0  0  0  0  0
  156.1567  140.9980  160.0247 H   0  0  0  0  0  0  0  0  0  0  0  0
  158.3032  139.6846  159.1318 H   0  0  0  0  0  0  0  0  0  0  0  0
  157.2983  138.3165  158.6641 H   0  0  0  0  0  0  0  0  0  0  0  0
  158.6330  138.0826  159.7849 H   0  0  0  0  0  0  0  0  0  0  0  0
  158.2295  140.5574  161.5349 H   0  0  0  0  0  0  0  0  0  0  0  0
  158.4650  138.9449  162.1973 H   0  0  0  0  0  0  0  0  0  0  0  0
  157.0874  139.9188  162.6973 H   0  0  0  0  0  0  0  0  0  0  0  0
  1  2  1  0  0  0  0
  1 30  1  0  0  0  0
  1 31  1  0  0  0  0
  1 32  1  0  0  0  0
  2  3  1  0  0  0  0
  3  4  1  0  0  0  0
  3 33  1  0  0  0  0
  3 34  1  0  0  0  0
  4 29  1  0  0  0  0
  4  5  1  0  0  0  0
  4 35  1  0  0  0  0
  5  6  1  0  0  0  0
  5 36  1  0  0  0  0
  5 37  1  0  0  0  0
  6  7  1  0  0  0  0
  6 25  1  0  0  0  0
  7 12  1  0  0  0  0
  7  8  2  0  0  0  0
  8  9  1  0  0  0  0
  9 10  2  0  0  0  0
  9 38  1  0  0  0  0
 10 11  1  0  0  0  0
 11 15  1  0  0  0  0
 11 12  2  0  0  0  0
 12 13  1  0  0  0  0
 13 14  2  0  0  0  0
 14 15  1  0  0  0  0
 14 39  1  0  0  0  0
 15 16  1  0  0  0  0
 16 17  1  0  0  0  0
 16 40  1  0  0  0  0
 16 41  1  0  0  0  0
 17 18  1  0  0  0  0
 17 20  1  0  0  0  0
 17 42  1  0  0  0  0
 18 19  1  0  0  0  0
 18 43  1  0  0  0  0
 18 44  1  0  0  0  0
 19 45  1  0  0  0  0
 20 24  1  0  0  0  0
 20 21  1  0  0  0  0
 20 46  1  0  0  0  0
 21 22  1  0  0  0  0
 21 47  1  0  0  0  0
 21 48  1  0  0  0  0
 22 23  1  0  0  0  0
 22 49  1  0  0  0  0
 22 50  1  0  0  0  0
 23 24  1  0  0  0  0
 24 51  1  0  0  0  0
 24 52  1  0  0  0  0
 25 26  1  0  0  0  0
 25 53  1  0  0  0  0
 25 54  1  0  0  0  0
 26 27  1  0  0  0  0
 26 28  1  0  0  0  0
 26 29  1  0  0  0  0
 27 55  1  0  0  0  0
 27 56  1  0  0  0  0
 27 57  1  0  0  0  0
 28 58  1  0  0  0  0
 28 59  1  0  0  0  0
 28 60  1  0  0  0  0
M  END
> <s_m_source_file>
AV-unprocessed.smi

> <i_m_source_file_index>
91

> <i_lp_mmshare_version>
43012

> <i_f3d_flags>
0

> <s_epik_input>
W0NIM11PW0NIMl1bQ0BASF0oTzEpW0NIMl1OKFtDSDJdQzEoW0NIM10pW0NIM10pYyhuW2NIXW4yKWMoYzIzKW5bY0hdbjNbQ0gyXVtDQEhdKFtDSDJdW09IXSlbQ0BASF00W0NIMl1bQ0gyXU9bQ0gyXTQ=

> <s_epik_cmdline>
J2VwaWtfcHl0aG9uJywgJy1waCcsICc3LjAnLCAnLXRuJywgJzgnLCAnLW1hJywgJzIwMCcsICctbWV0YWxfYmluZGluZycsICctaW1hZScsICc8aW5maWxlLm1hZT4nLCAnLW9tYWUnLCAnPG91dGZpbGUubWFlPic=

> <r_lp_tautomer_probability>
1

> <r_epik_Ionization_Penalty>
8.63591e-05

> <r_epik_Ionization_Penalty_Charging>
0

> <r_epik_Ionization_Penalty_Neutral>
8.63591e-05

> <r_epik_State_Penalty>
-0

> <r_epik_Charging_Adjusted_Penalty>
0

> <i_epik_Tot_Q>
0

> <i_epik_Tot_abs_Q>
0

> <r_epik_Metal_State_Penalty>
-0

> <b_epik_Metal_Only>
0

> <s_lp_Force_Field>
OPLS_2005

> <r_lp_Energy>
46.8468

> <b_lp_Chiralities_Consistent>
1

> <s_lp_Variant>
AV-unprocessed.smi:91-7

> <Gold.Version>
5.8.1

> <Gold.Id.Protein>
6NUR|6NUR_protein|mol2

> <Gold.PLP.Fitness>
44.6884

> <Gold.PLP.PLP>
-42.8712

> <Gold.PLP.part.hbond>
-1.9441

> <Gold.PLP.part.metal>
0.0000

> <Gold.PLP.part.buried>
-5.9611

> <Gold.PLP.part.nonpolar>
-34.7147

> <Gold.PLP.part.repulsive>
0.1907

> <Gold.PLP.ligand.clash>
0.0000

> <Gold.PLP.ligand.torsion>
1.0736

> <Gold.PLP.Chemscore.Hbond>
1.1201

> <Gold.PLP.Chemscore.CHOScore>
0.0000

> <Gold.PLP.Chemscore.Metal>
0.0000

> <Gold.Chemscore.Hbonds>
donor molecule, donor type, donor heavy atom, donor atom, acceptor molecule, acceptor atom, score
      P1  H  6933  6944       L1    19  0.58
      P1  H  7997  8010       L1    13  0.45

> <Gold.PLP.Chemscore.Internal.Correction>
0.6042

> <Gold.Rescore>
     Score         DG    S(hbond)    S(metal)    S(lipo)     H(rot)  DE(clash)    DE(int)     intcor
      8.38     -10.75       1.03        0.00      82.01       3.03       1.31       1.06       ----

> <Gold.Chemscore.Fitness>
8.3790

> <Gold.Chemscore.DG>
-10.7508

> <Gold.Chemscore.ZeroCoef>
-5.4800

> <Gold.Chemscore.Hbond>
1.0266

> <Gold.Chemscore.Metal>
0.0000

> <Gold.Chemscore.Lipo>
82.0072

> <Gold.Chemscore.Internal_Hbond>
0.0000

> <Gold.Chemscore.DEClash>
1.3145

> <Gold.Chemscore.DEInternal>
1.0572

> <Gold.Chemscore.Rot>
3.0284

> <Gold.Chemscore.Internal.Correction>
   9.000000E+99

> <Gold.Chemscore.Hbonds>
donor molecule, donor type, donor heavy atom, donor atom, acceptor molecule, acceptor atom, score
      P1  H  6933  6944       L1    19  0.31
      P1  H  7997  8010       L1    13  0.16

> <Gold.Chemscore.Hbond.Weighted>
-3.4287

> <Gold.Chemscore.Metal.Weighted>
-0.0000

> <Gold.Chemscore.Lipo.Weighted>
-9.5948

> <Gold.Chemscore.Internal_Hbond.Weighted>
0.0000

> <Gold.Chemscore.DEClash.Weighted>
1.3145

> <Gold.Chemscore.DEInternal.Weighted>
1.0572

> <Gold.Chemscore.Rot.Weighted>
7.7528

> <Gold.Chemscore.Internal.Correction.Weighted>
   9.000000E+99

> <Gold.Protein.RotatedTorsions>
[ 6907 6896 6895 6894 ] final    2.32 input  -60.11 | X-H torsion
[ 7974 7965 7964 7962 ] final -133.14 input  175.53 | X-H torsion
[ 8008 7997 7996 7995 ] final   20.32 input   59.86 | X-H torsion
[ 10167 10162 10161 10158 ] final -115.60 input  -65.29 | X-H torsion
[ 10718 10713 10712 10709 ] final  -19.13 input   66.30 | X-H torsion
[ 10763 10752 10751 10750 ] final  -85.76 input  -60.55 | X-H torsion
[ 11005 11000 10999 10996 ] final   43.98 input  -57.11 | X-H torsion

> <Gold.Protein.ActiveResidues>
 VAL166  LYS551  ARG553  GLY616  TRP617  ASP618  TYR619  PRO620  LYS621  CYS622 
 ASP623  PHE694  ASN695  SER759  ASP760  ASP761  ALA762  ILE779  LEU786  VAL792 
 PHE793  MET794  SER795  GLU796  ALA797  LYS798  CYS799  TRP800  GLU811  SER814 

> <Gold.Protein.RotatedAtoms>
  151.6070  135.1043  160.0072 H   0  0  0  0  0  0  0  0  0  0  0  0  # atno 6907 bound_to 6896
  152.4228  133.7141  159.6506 H   0  0  0  0  0  0  0  0  0  0  0  0  # atno 6908 bound_to 6896
  150.8116  133.8339  159.3201 H   0  0  0  0  0  0  0  0  0  0  0  0  # atno 6909 bound_to 6896
  144.9220  140.7026  143.4959 H   0  0  0  0  0  0  0  0  0  0  0  0  # atno 7974 bound_to 7965
  154.9339  140.3044  155.5154 H   0  0  0  0  0  0  0  0  0  0  0  0  # atno 8008 bound_to 7997
  156.3001  140.2349  156.4338 H   0  0  0  0  0  0  0  0  0  0  0  0  # atno 8009 bound_to 7997
  154.8211  140.0423  157.1400 H   0  0  0  0  0  0  0  0  0  0  0  0  # atno 8010 bound_to 7997
  140.0884  143.4723  152.1885 H   0  0  0  0  0  0  0  0  0  0  0  0  # atno 10167 bound_to 10162
  156.5499  130.4699  149.6457 H   0  0  0  0  0  0  0  0  0  0  0  0  # atno 10718 bound_to 10713
  154.6148  135.5473  153.7512 H   0  0  0  0  0  0  0  0  0  0  0  0  # atno 10763 bound_to 10752
  153.0211  135.6398  154.1526 H   0  0  0  0  0  0  0  0  0  0  0  0  # atno 10764 bound_to 10752
  154.1463  135.2905  155.3127 H   0  0  0  0  0  0  0  0  0  0  0  0  # atno 10765 bound_to 10752
  140.1594  134.4360  155.8328 H   0  0  0  0  0  0  0  0  0  0  0  0  # atno 11005 bound_to 11000
  145.3280  139.1768  143.4552 LP  0  0  0  0  0  0  0  0  0  0  0  0  # atno 17320 bound_to 7965
  146.3209  140.3306  142.8640 LP  0  0  0  0  0  0  0  0  0  0  0  0  # atno 17321 bound_to 7965
  139.5739  144.7477  151.3817 LP  0  0  0  0  0  0  0  0  0  0  0  0  # atno 17342 bound_to 10162
  140.7041  143.7557  150.7453 LP  0  0  0  0  0  0  0  0  0  0  0  0  # atno 17343 bound_to 10162
  156.2894  130.7116  151.1961 LP  0  0  0  0  0  0  0  0  0  0  0  0  # atno 17370 bound_to 10713
  157.7389  131.0535  150.5263 LP  0  0  0  0  0  0  0  0  0  0  0  0  # atno 17371 bound_to 10713
  141.2208  133.6907  156.7566 LP  0  0  0  0  0  0  0  0  0  0  0  0  # atno 17394 bound_to 11000
  140.2508  134.8542  157.3665 LP  0  0  0  0  0  0  0  0  0  0  0  0  # atno 17395 bound_to 11000

$$$$
