AV-unprocessed.smi:2802|AV-procd|sdf|10804|dock1
  -GOLD-   2272015233D 1   1.00000     0.00000
 Structure written by MMmdl.
 47 48  0  0  0  0  0  0  0  0  1 V2000
  145.6995  133.8541  155.1936 C   0  0  0  0  0  0  0  0  0  0  0  0
  145.6353  134.5316  153.8166 C   0  0  1  0  0  0  0  0  0  0  0  0
  145.0552  133.5778  152.7590 C   0  0  0  0  0  0  0  0  0  0  0  0
  144.9912  134.1959  151.3449 C   0  0  0  0  0  0  0  0  0  0  0  0
  146.3966  134.2619  150.7063 C   0  0  0  0  0  0  0  0  0  0  0  0
  144.1442  133.2683  150.4482 C   0  0  0  0  0  0  0  0  0  0  0  0
  144.2976  135.5880  151.3913 C   0  0  0  0  0  0  0  0  0  0  0  0
  144.7088  136.5834  152.5245 C   0  0  1  0  0  0  0  0  0  0  0  0
  146.0351  137.3338  152.2066 C   0  0  0  0  0  0  0  0  0  0  0  0
  146.2073  137.5545  150.8193 O   0  0  0  0  0  0  0  0  0  0  0  0
  143.6234  137.5642  152.6968 N   0  0  0  0  0  0  0  0  0  0  0  0
  142.3670  137.3601  153.1321 C   0  0  0  0  0  0  0  0  0  0  0  0
  141.9359  136.2619  153.4860 O   0  0  0  0  0  0  0  0  0  0  0  0
  141.4752  138.6072  153.1658 C   0  0  0  0  0  0  0  0  0  0  0  0
  140.1778  138.3712  153.9219 C   0  0  0  0  0  0  0  0  0  0  0  0
  139.8153  139.1890  155.0125 C   0  0  0  0  0  0  0  0  0  0  0  0
  138.6040  138.9295  155.6817 C   0  0  0  0  0  0  0  0  0  0  0  0
  137.8047  137.8597  155.2311 C   0  0  0  0  0  0  0  0  0  0  0  0
  138.1414  137.0699  154.1885 N   0  0  0  0  0  0  0  0  0  0  0  0
  139.3048  137.3256  153.5522 C   0  0  0  0  0  0  0  0  0  0  0  0
  144.8011  135.8234  153.8733 C   0  0  0  0  0  0  0  0  0  0  0  0
  144.7068  133.5681  155.5427 H   0  0  0  0  0  0  0  0  0  0  0  0
  146.1356  134.5195  155.9391 H   0  0  0  0  0  0  0  0  0  0  0  0
  146.3125  132.9530  155.1599 H   0  0  0  0  0  0  0  0  0  0  0  0
  146.6592  134.7853  153.5452 H   0  0  0  0  0  0  0  0  0  0  0  0
  145.6367  132.6552  152.7325 H   0  0  0  0  0  0  0  0  0  0  0  0
  144.0511  133.2867  153.0718 H   0  0  0  0  0  0  0  0  0  0  0  0
  146.3720  134.7778  149.7460 H   0  0  0  0  0  0  0  0  0  0  0  0
  146.7890  133.2609  150.5239 H   0  0  0  0  0  0  0  0  0  0  0  0
  147.1315  134.7621  151.3294 H   0  0  0  0  0  0  0  0  0  0  0  0
  144.0673  133.6597  149.4331 H   0  0  0  0  0  0  0  0  0  0  0  0
  143.1294  133.1520  150.8303 H   0  0  0  0  0  0  0  0  0  0  0  0
  144.5795  132.2703  150.3823 H   0  0  0  0  0  0  0  0  0  0  0  0
  144.3923  136.0663  150.4158 H   0  0  0  0  0  0  0  0  0  0  0  0
  143.2283  135.4013  151.5079 H   0  0  0  0  0  0  0  0  0  0  0  0
  146.0717  138.3093  152.6810 H   0  0  0  0  0  0  0  0  0  0  0  0
  146.8983  136.7803  152.5762 H   0  0  0  0  0  0  0  0  0  0  0  0
  145.3626  137.7392  150.4379 H   0  0  0  0  0  0  0  0  0  0  0  0
  143.8557  138.5105  152.4329 H   0  0  0  0  0  0  0  0  0  0  0  0
  142.0259  139.4279  153.6271 H   0  0  0  0  0  0  0  0  0  0  0  0
  141.2441  138.9152  152.1450 H   0  0  0  0  0  0  0  0  0  0  0  0
  140.4539  139.9992  155.3331 H   0  0  0  0  0  0  0  0  0  0  0  0
  138.2953  139.5347  156.5212 H   0  0  0  0  0  0  0  0  0  0  0  0
  136.8696  137.6327  155.7216 H   0  0  0  0  0  0  0  0  0  0  0  0
  139.5470  136.6750  152.7246 H   0  0  0  0  0  0  0  0  0  0  0  0
  143.7949  135.5553  154.2019 H   0  0  0  0  0  0  0  0  0  0  0  0
  145.1927  136.4807  154.6506 H   0  0  0  0  0  0  0  0  0  0  0  0
  1  2  1  0  0  0  0
  1 22  1  0  0  0  0
  1 23  1  0  0  0  0
  1 24  1  0  0  0  0
  2 21  1  0  0  0  0
  2  3  1  0  0  0  0
  2 25  1  0  0  0  0
  3  4  1  0  0  0  0
  3 26  1  0  0  0  0
  3 27  1  0  0  0  0
  4  5  1  0  0  0  0
  4  6  1  0  0  0  0
  4  7  1  0  0  0  0
  5 28  1  0  0  0  0
  5 29  1  0  0  0  0
  5 30  1  0  0  0  0
  6 31  1  0  0  0  0
  6 32  1  0  0  0  0
  6 33  1  0  0  0  0
  7  8  1  0  0  0  0
  7 34  1  0  0  0  0
  7 35  1  0  0  0  0
  8  9  1  0  0  0  0
  8 11  1  0  0  0  0
  8 21  1  0  0  0  0
  9 10  1  0  0  0  0
  9 36  1  0  0  0  0
  9 37  1  0  0  0  0
 10 38  1  0  0  0  0
 11 12  1  0  0  0  0
 11 39  1  0  0  0  0
 12 13  2  0  0  0  0
 12 14  1  0  0  0  0
 14 15  1  0  0  0  0
 14 40  1  0  0  0  0
 14 41  1  0  0  0  0
 15 20  1  0  0  0  0
 15 16  2  0  0  0  0
 16 17  1  0  0  0  0
 16 42  1  0  0  0  0
 17 18  2  0  0  0  0
 17 43  1  0  0  0  0
 18 19  1  0  0  0  0
 18 44  1  0  0  0  0
 19 20  2  0  0  0  0
 20 45  1  0  0  0  0
 21 46  1  0  0  0  0
 21 47  1  0  0  0  0
M  END
> <s_m_source_file>
AV-unprocessed.smi

> <i_m_source_file_index>
2802

> <i_lp_mmshare_version>
43012

> <i_f3d_flags>
0

> <s_epik_input>
W0NIM11DMShbQ0gzXSlbQ0gyXVtDQEBIXShbQ0gzXSlbQ0gyXVtDQF0oW0NIMl0xKShbQ0gyXVtPSF0pW05IXUMoPU8pW0NIMl1jMltjSF1bY0hdW2NIXW5bY0hdMg==

> <s_epik_cmdline>
J2VwaWtfcHl0aG9uJywgJy1waCcsICc3LjAnLCAnLXRuJywgJzgnLCAnLW1hJywgJzIwMCcsICctbWV0YWxfYmluZGluZycsICctaW1hZScsICc8aW5maWxlLm1hZT4nLCAnLW9tYWUnLCAnPG91dGZpbGUubWFlPic=

> <r_epik_Ionization_Penalty>
0.004793

> <r_epik_Ionization_Penalty_Charging>
0

> <r_epik_Ionization_Penalty_Neutral>
0.004793

> <r_epik_State_Penalty>
0.00347421

> <r_epik_Charging_Adjusted_Penalty>
0.00347421

> <i_epik_Tot_Q>
0

> <i_epik_Tot_abs_Q>
0

> <r_epik_Metal_State_Penalty>
-0

> <b_epik_Metal_Only>
0

> <s_lp_Force_Field>
OPLS_2005

> <r_lp_Energy>
22.6817

> <b_lp_Chiralities_Consistent>
1

> <s_lp_Variant>
AV-unprocessed.smi:2802-2

> <Gold.Version>
5.8.1

> <Gold.Id.Protein>
6NUR|6NUR_protein|mol2

> <Gold.PLP.Fitness>
38.4306

> <Gold.PLP.PLP>
-28.6399

> <Gold.PLP.part.hbond>
-4.5591

> <Gold.PLP.part.metal>
0.0000

> <Gold.PLP.part.buried>
-1.0831

> <Gold.PLP.part.nonpolar>
-22.3533

> <Gold.PLP.part.repulsive>
0.2802

> <Gold.PLP.ligand.clash>
0.0000

> <Gold.PLP.ligand.torsion>
0.6960

> <Gold.PLP.Chemscore.Hbond>
2.7070

> <Gold.PLP.Chemscore.CHOScore>
1.0000

> <Gold.PLP.Chemscore.Metal>
0.0000

> <Gold.Chemscore.Hbonds>
donor molecule, donor type, donor heavy atom, donor atom, acceptor molecule, acceptor atom, score
      L1  H    10    38       P1 10171  1.00
      L1  H    11    39       P1 10175  1.00
      P1  H  7954  7966       L1    10  0.62
      L1  C    20    45       P1 10187  1.00

> <Gold.PLP.Chemscore.Internal.Correction>
0.0616

> <Gold.Rescore>
     Score         DG    S(hbond)    S(metal)    S(lipo)     H(rot)  DE(clash)    DE(int)     intcor
     14.04     -19.08       2.77        0.00      81.09       2.00       1.97       3.07       ----

> <Gold.Chemscore.Fitness>
14.0431

> <Gold.Chemscore.DG>
-19.0817

> <Gold.Chemscore.ZeroCoef>
-5.4800

> <Gold.Chemscore.Hbond>
2.7666

> <Gold.Chemscore.Metal>
0.0000

> <Gold.Chemscore.Lipo>
81.0925

> <Gold.Chemscore.Internal_Hbond>
0.0000

> <Gold.Chemscore.DEClash>
1.9681

> <Gold.Chemscore.DEInternal>
3.0704

> <Gold.Chemscore.Rot>
2.0026

> <Gold.Chemscore.Internal.Correction>
   9.000000E+99

> <Gold.Chemscore.Hbonds>
donor molecule, donor type, donor heavy atom, donor atom, acceptor molecule, acceptor atom, score
      L1  H    10    38       P1 10171  1.00
      L1  H    11    39       P1 10175  0.97
      P1  H  7954  7966       L1    10  0.60

> <Gold.Chemscore.Hbond.Weighted>
-9.2405

> <Gold.Chemscore.Metal.Weighted>
-0.0000

> <Gold.Chemscore.Lipo.Weighted>
-9.4878

> <Gold.Chemscore.Internal_Hbond.Weighted>
0.0000

> <Gold.Chemscore.DEClash.Weighted>
1.9681

> <Gold.Chemscore.DEInternal.Weighted>
3.0704

> <Gold.Chemscore.Rot.Weighted>
5.1267

> <Gold.Chemscore.Internal.Correction.Weighted>
   9.000000E+99

> <Gold.Protein.RotatedTorsions>
[ 6907 6896 6895 6894 ] final  153.12 input  -60.11 | X-H torsion
[ 7974 7965 7964 7962 ] final  155.89 input  175.53 | X-H torsion
[ 8008 7997 7996 7995 ] final   70.66 input   59.86 | X-H torsion
[ 10167 10162 10161 10158 ] final  179.42 input  -65.29 | X-H torsion
[ 10718 10713 10712 10709 ] final  -22.43 input   66.30 | X-H torsion
[ 10763 10752 10751 10750 ] final -146.23 input  -60.55 | X-H torsion
[ 11005 11000 10999 10996 ] final  149.43 input  -57.11 | X-H torsion

> <Gold.Protein.ActiveResidues>
 VAL166  LYS551  ARG553  GLY616  TRP617  ASP618  TYR619  PRO620  LYS621  CYS622 
 ASP623  PHE694  ASN695  SER759  ASP760  ASP761  ALA762  ILE779  LEU786  VAL792 
 PHE793  MET794  SER795  GLU796  ALA797  LYS798  CYS799  TRP800  GLU811  SER814 

> <Gold.Protein.RotatedAtoms>
  152.0772  133.4135  159.4484 H   0  0  0  0  0  0  0  0  0  0  0  0  # atno 6907 bound_to 6896
  150.6862  134.3024  159.4721 H   0  0  0  0  0  0  0  0  0  0  0  0  # atno 6908 bound_to 6896
  152.0862  134.9437  160.0623 H   0  0  0  0  0  0  0  0  0  0  0  0  # atno 6909 bound_to 6896
  144.7997  139.7129  143.6187 H   0  0  0  0  0  0  0  0  0  0  0  0  # atno 7974 bound_to 7965
  155.7422  140.3490  155.5109 H   0  0  0  0  0  0  0  0  0  0  0  0  # atno 8008 bound_to 7997
  155.9083  140.1046  157.1319 H   0  0  0  0  0  0  0  0  0  0  0  0  # atno 8009 bound_to 7997
  154.4052  140.1272  156.4512 H   0  0  0  0  0  0  0  0  0  0  0  0  # atno 8010 bound_to 7997
  139.5335  144.2564  152.0743 H   0  0  0  0  0  0  0  0  0  0  0  0  # atno 10167 bound_to 10162
  156.5046  130.4596  149.6681 H   0  0  0  0  0  0  0  0  0  0  0  0  # atno 10718 bound_to 10713
  154.8346  135.3392  154.6629 H   0  0  0  0  0  0  0  0  0  0  0  0  # atno 10763 bound_to 10752
  153.7245  135.6956  153.5009 H   0  0  0  0  0  0  0  0  0  0  0  0  # atno 10764 bound_to 10752
  153.2357  135.4401  155.0596 H   0  0  0  0  0  0  0  0  0  0  0  0  # atno 10765 bound_to 10752
  140.1044  134.8963  157.1844 H   0  0  0  0  0  0  0  0  0  0  0  0  # atno 11005 bound_to 11000
  146.2275  139.5750  142.9577 LP  0  0  0  0  0  0  0  0  0  0  0  0  # atno 17320 bound_to 7965
  145.5585  141.0407  143.2239 LP  0  0  0  0  0  0  0  0  0  0  0  0  # atno 17321 bound_to 7965
  140.2031  144.4638  150.6422 LP  0  0  0  0  0  0  0  0  0  0  0  0  # atno 17342 bound_to 10162
  140.6528  143.2229  151.6037 LP  0  0  0  0  0  0  0  0  0  0  0  0  # atno 17343 bound_to 10162
  156.3299  130.7326  151.2253 LP  0  0  0  0  0  0  0  0  0  0  0  0  # atno 17370 bound_to 10713
  157.7458  131.0433  150.4735 LP  0  0  0  0  0  0  0  0  0  0  0  0  # atno 17371 bound_to 10713
  140.3176  134.2953  155.7253 LP  0  0  0  0  0  0  0  0  0  0  0  0  # atno 17394 bound_to 11000
  141.2114  133.7689  156.9865 LP  0  0  0  0  0  0  0  0  0  0  0  0  # atno 17395 bound_to 11000

$$$$
