AV-unprocessed.smi:759|AV-procd|sdf|3623|dock4
  -GOLD-   22720 1 13D 1   1.00000     0.00000
 Structure written by MMmdl.
 24 25  0  0  0  0  0  0  0  0  2 V2000
  151.2002  142.3329  157.3139 C   0  0  0  0  0  0  0  0  0  0  0  0
  151.6218  141.0947  157.5749 N   0  0  0  0  0  0  0  0  0  0  0  0
  151.0302  140.3065  156.6011 N   0  0  0  0  0  0  0  0  0  0  0  0
  150.3105  141.1454  155.8444 C   0  0  0  0  0  0  0  0  0  0  0  0
  149.4921  140.7406  154.6567 C   0  0  2  0  0  0  0  0  0  0  0  0
  148.0214  141.1812  154.7898 C   0  0  0  0  0  0  0  0  0  0  0  0
  147.2104  140.7313  153.5647 C   0  0  0  0  0  0  0  0  0  0  0  0
  147.3558  139.2179  153.3342 C   0  0  0  0  0  0  0  0  0  0  0  0
  148.7809  138.8441  153.2035 N   0  3  0  0  0  0  0  0  0  0  0  0
  149.5897  139.2253  154.3825 C   0  0  0  0  0  0  0  0  0  0  0  0
  150.3869  142.4210  156.2551 N   0  0  0  0  0  0  0  0  0  0  0  0
  149.9437  143.2411  155.8670 H   0  0  0  0  0  0  0  0  0  0  0  0
  151.4906  143.1888  157.9054 H   0  0  0  0  0  0  0  0  0  0  0  0
  149.9087  141.2558  153.7892 H   0  0  0  0  0  0  0  0  0  0  0  0
  147.5830  140.7512  155.6916 H   0  0  0  0  0  0  0  0  0  0  0  0
  147.9594  142.2646  154.8999 H   0  0  0  0  0  0  0  0  0  0  0  0
  146.1593  140.9888  153.6983 H   0  0  0  0  0  0  0  0  0  0  0  0
  147.5511  141.2714  152.6803 H   0  0  0  0  0  0  0  0  0  0  0  0
  146.9126  138.6627  154.1621 H   0  0  0  0  0  0  0  0  0  0  0  0
  146.8253  138.9199  152.4295 H   0  0  0  0  0  0  0  0  0  0  0  0
  148.8466  137.8448  153.0711 H   0  0  0  0  0  0  0  0  0  0  0  0
  150.6264  138.9370  154.2053 H   0  0  0  0  0  0  0  0  0  0  0  0
  149.2438  138.6553  155.2461 H   0  0  0  0  0  0  0  0  0  0  0  0
  149.1604  139.3061  152.3894 H   0  0  0  0  0  0  0  0  0  0  0  0
  1 11  1  0  0  0  0
  1  2  2  0  0  0  0
  1 13  1  0  0  0  0
  2  3  1  0  0  0  0
  3  4  2  0  0  0  0
  4  5  1  0  0  0  0
  4 11  1  0  0  0  0
  5 10  1  0  0  0  0
  5  6  1  0  0  0  0
  5 14  1  0  0  0  0
  6  7  1  0  0  0  0
  6 15  1  0  0  0  0
  6 16  1  0  0  0  0
  7  8  1  0  0  0  0
  7 17  1  0  0  0  0
  7 18  1  0  0  0  0
  8  9  1  0  0  0  0
  8 19  1  0  0  0  0
  8 20  1  0  0  0  0
  9 10  1  0  0  0  0
  9 21  1  0  0  0  0
  9 24  1  0  0  0  0
 10 22  1  0  0  0  0
 10 23  1  0  0  0  0
 11 12  1  0  0  0  0
M  CHG  1   9   1
M  END
> <s_m_source_file>
AV-unprocessed.smi

> <i_m_source_file_index>
759

> <i_lp_mmshare_version>
43012

> <i_f3d_flags>
0

> <s_epik_input>
W25IXTFbY0hdbm5jMVtDQEBIXTJbQ0gyXVtDSDJdW0NIMl1bTkhdW0NIMl0y

> <s_epik_cmdline>
J2VwaWtfcHl0aG9uJywgJy1waCcsICc3LjAnLCAnLXRuJywgJzgnLCAnLW1hJywgJzIwMCcsICctbWV0YWxfYmluZGluZycsICctaW1hZScsICc8aW5maWxlLm1hZT4nLCAnLW9tYWUnLCAnPG91dGZpbGUubWFlPic=

> <r_lp_tautomer_probability>
0.0517155

> <r_epik_Ionization_Penalty>
0.0333069

> <r_epik_Ionization_Penalty_Charging>
0.000426856

> <r_epik_Ionization_Penalty_Neutral>
0.03288

> <r_epik_State_Penalty>
2.11054

> <r_epik_Charging_Adjusted_Penalty>
2.11097

> <i_epik_Tot_Q>
1

> <i_epik_Tot_abs_Q>
1

> <r_epik_Metal_State_Penalty>
2.37626

> <b_epik_Metal_Only>
0

> <s_lp_Force_Field>
OPLS_2005

> <r_lp_Energy>
13.742

> <b_lp_Chiralities_Consistent>
1

> <s_lp_Variant>
AV-unprocessed.smi:759-5

> <Gold.Version>
5.8.1

> <Gold.Id.Protein>
6NUR|6NUR_protein|mol2

> <Gold.PLP.Fitness>
33.4211

> <Gold.PLP.PLP>
-21.7024

> <Gold.PLP.part.hbond>
-2.9180

> <Gold.PLP.part.metal>
0.0000

> <Gold.PLP.part.buried>
-3.6857

> <Gold.PLP.part.nonpolar>
-16.0860

> <Gold.PLP.part.repulsive>
0.1865

> <Gold.PLP.ligand.clash>
0.0000

> <Gold.PLP.ligand.torsion>
0.0199

> <Gold.PLP.Chemscore.Hbond>
3.9103

> <Gold.PLP.Chemscore.CHOScore>
0.0000

> <Gold.PLP.Chemscore.Metal>
0.0000

> <Gold.Chemscore.Hbonds>
donor molecule, donor type, donor heavy atom, donor atom, acceptor molecule, acceptor atom, score
      L1  H     9    21       P1  7948  1.98
      L1  H     9    24       P1  7957  0.91
      L1  H    11    12       P1  8028  1.00

> <Gold.PLP.Chemscore.Internal.Correction>
0.0278

> <Gold.Rescore>
     Score         DG    S(hbond)    S(metal)    S(lipo)     H(rot)  DE(clash)    DE(int)     intcor
     16.41     -16.43       2.89        0.00      32.84       1.00       0.00       0.02       ----

> <Gold.Chemscore.Fitness>
16.4079

> <Gold.Chemscore.DG>
-16.4260

> <Gold.Chemscore.ZeroCoef>
-5.4800

> <Gold.Chemscore.Hbond>
2.8933

> <Gold.Chemscore.Metal>
0.0000

> <Gold.Chemscore.Lipo>
32.8415

> <Gold.Chemscore.Internal_Hbond>
0.0000

> <Gold.Chemscore.DEClash>
0.0000

> <Gold.Chemscore.DEInternal>
0.0181

> <Gold.Chemscore.Rot>
1.0000

> <Gold.Chemscore.Internal.Correction>
   9.000000E+99

> <Gold.Chemscore.Hbonds>
donor molecule, donor type, donor heavy atom, donor atom, acceptor molecule, acceptor atom, score
      L1  H     9    21       P1  7948  0.91
      L1  H     9    24       P1  7957  0.87
      L1  H    11    12       P1  8028  1.00

> <Gold.Chemscore.Hbond.Weighted>
-9.6636

> <Gold.Chemscore.Metal.Weighted>
-0.0000

> <Gold.Chemscore.Lipo.Weighted>
-3.8425

> <Gold.Chemscore.Internal_Hbond.Weighted>
0.0000

> <Gold.Chemscore.DEClash.Weighted>
0.0000

> <Gold.Chemscore.DEInternal.Weighted>
0.0181

> <Gold.Chemscore.Rot.Weighted>
2.5600

> <Gold.Chemscore.Internal.Correction.Weighted>
   9.000000E+99

> <Gold.Protein.RotatedTorsions>
[ 6907 6896 6895 6894 ] final -157.25 input  -60.11 | X-H torsion
[ 7974 7965 7964 7962 ] final -156.26 input  175.53 | X-H torsion
[ 8008 7997 7996 7995 ] final  138.35 input   59.86 | X-H torsion
[ 10167 10162 10161 10158 ] final   84.33 input  -65.29 | X-H torsion
[ 10718 10713 10712 10709 ] final  -95.14 input   66.30 | X-H torsion
[ 10763 10752 10751 10750 ] final    4.41 input  -60.55 | X-H torsion
[ 11005 11000 10999 10996 ] final   14.48 input  -57.11 | X-H torsion

> <Gold.Protein.ActiveResidues>
 VAL166  LYS551  ARG553  GLY616  TRP617  ASP618  TYR619  PRO620  LYS621  CYS622 
 ASP623  PHE694  ASN695  SER759  ASP760  ASP761  ALA762  ILE779  LEU786  VAL792 
 PHE793  MET794  SER795  GLU796  ALA797  LYS798  CYS799  TRP800  GLU811  SER814 

> <Gold.Protein.RotatedAtoms>
  151.3000  133.4127  159.2638 H   0  0  0  0  0  0  0  0  0  0  0  0  # atno 6907 bound_to 6896
  151.0204  134.9465  159.8066 H   0  0  0  0  0  0  0  0  0  0  0  0  # atno 6908 bound_to 6896
  152.5323  134.2963  159.9114 H   0  0  0  0  0  0  0  0  0  0  0  0  # atno 6909 bound_to 6896
  144.7601  140.4134  143.5983 H   0  0  0  0  0  0  0  0  0  0  0  0  # atno 7974 bound_to 7965
  156.2998  140.2396  156.4059 H   0  0  0  0  0  0  0  0  0  0  0  0  # atno 8008 bound_to 7997
  154.8485  140.0425  157.1608 H   0  0  0  0  0  0  0  0  0  0  0  0  # atno 8009 bound_to 7997
  154.9024  140.2979  155.5314 H   0  0  0  0  0  0  0  0  0  0  0  0  # atno 8010 bound_to 7997
  139.9091  144.6282  150.8556 H   0  0  0  0  0  0  0  0  0  0  0  0  # atno 10167 bound_to 10162
  156.0038  130.5097  150.6032 H   0  0  0  0  0  0  0  0  0  0  0  0  # atno 10718 bound_to 10713
  153.2716  135.6932  153.7475 H   0  0  0  0  0  0  0  0  0  0  0  0  # atno 10763 bound_to 10752
  153.6496  135.3379  155.3097 H   0  0  0  0  0  0  0  0  0  0  0  0  # atno 10764 bound_to 10752
  154.8466  135.4451  154.1740 H   0  0  0  0  0  0  0  0  0  0  0  0  # atno 10765 bound_to 10752
  140.4690  134.1050  155.7729 H   0  0  0  0  0  0  0  0  0  0  0  0  # atno 11005 bound_to 11000
  145.6647  139.1588  143.2788 LP  0  0  0  0  0  0  0  0  0  0  0  0  # atno 17320 bound_to 7965
  146.1655  140.6725  142.9257 LP  0  0  0  0  0  0  0  0  0  0  0  0  # atno 17321 bound_to 7965
  140.7689  143.3379  151.2270 LP  0  0  0  0  0  0  0  0  0  0  0  0  # atno 17342 bound_to 10162
  139.6958  143.9616  152.2882 LP  0  0  0  0  0  0  0  0  0  0  0  0  # atno 17343 bound_to 10162
  157.3878  131.0791  151.1421 LP  0  0  0  0  0  0  0  0  0  0  0  0  # atno 17370 bound_to 10713
  157.2122  130.6443  149.5778 LP  0  0  0  0  0  0  0  0  0  0  0  0  # atno 17371 bound_to 10713
  141.1586  133.8836  157.1910 LP  0  0  0  0  0  0  0  0  0  0  0  0  # atno 17394 bound_to 11000
  139.9897  135.0069  156.9946 LP  0  0  0  0  0  0  0  0  0  0  0  0  # atno 17395 bound_to 11000

$$$$
