AV-unprocessed.smi:3125|AV-procd|sdf|11906|dock3
  -GOLD-   2272017293D 1   1.00000     0.00000
 Structure written by MMmdl.
 29 30  0  0  0  0  0  0  0  0  3 V2000
  152.7275  141.9543  159.9899 C   0  0  0  0  0  0  0  0  0  0  0  0
  152.1213  143.0246  159.1956 N   0  0  0  0  0  0  0  0  0  0  0  0
  152.2208  144.3700  159.4427 C   0  0  0  0  0  0  0  0  0  0  0  0
  151.5109  145.0046  158.4582 C   0  0  0  0  0  0  0  0  0  0  0  0
  151.0062  144.0213  157.6521 N   0  3  0  0  0  0  0  0  0  0  0  0
  151.3739  142.8125  158.0974 C   0  0  0  0  0  0  0  0  0  0  0  0
  151.0001  141.5010  157.4622 C   0  0  2  0  0  0  0  0  0  0  0  0
  152.2078  140.5501  157.3598 C   0  0  0  0  0  0  0  0  0  0  0  0
  151.7943  139.2271  156.6965 C   0  0  0  0  0  0  0  0  0  0  0  0
  151.1299  139.4788  155.3327 C   0  0  0  0  0  0  0  0  0  0  0  0
  149.9792  140.3974  155.4736 N   0  3  0  0  0  0  0  0  0  0  0  0
  150.3466  141.6977  156.0779 C   0  0  0  0  0  0  0  0  0  0  0  0
  153.2855  142.3872  160.8210 H   0  0  0  0  0  0  0  0  0  0  0  0
  153.4085  141.3792  159.3616 H   0  0  0  0  0  0  0  0  0  0  0  0
  151.9434  141.3059  160.3818 H   0  0  0  0  0  0  0  0  0  0  0  0
  152.7770  144.7679  160.2798 H   0  0  0  0  0  0  0  0  0  0  0  0
  151.3324  146.0544  158.2754 H   0  0  0  0  0  0  0  0  0  0  0  0
  150.2633  141.0348  158.1161 H   0  0  0  0  0  0  0  0  0  0  0  0
  153.0044  141.0142  156.7769 H   0  0  0  0  0  0  0  0  0  0  0  0
  152.6197  140.3548  158.3509 H   0  0  0  0  0  0  0  0  0  0  0  0
  152.6655  138.5825  156.5743 H   0  0  0  0  0  0  0  0  0  0  0  0
  151.1023  138.6911  157.3476 H   0  0  0  0  0  0  0  0  0  0  0  0
  151.8488  139.9071  154.6327 H   0  0  0  0  0  0  0  0  0  0  0  0
  150.7849  138.5393  154.9002 H   0  0  0  0  0  0  0  0  0  0  0  0
  149.5775  140.5604  154.5608 H   0  0  0  0  0  0  0  0  0  0  0  0
  149.4478  142.3092  156.1661 H   0  0  0  0  0  0  0  0  0  0  0  0
  151.0241  142.2223  155.4025 H   0  0  0  0  0  0  0  0  0  0  0  0
  149.2854  139.9532  156.0583 H   0  0  0  0  0  0  0  0  0  0  0  0
  150.4369  144.1850  156.8310 H   0  0  0  0  0  0  0  0  0  0  0  0
  1  2  1  0  0  0  0
  1 13  1  0  0  0  0
  1 14  1  0  0  0  0
  1 15  1  0  0  0  0
  2  6  1  0  0  0  0
  2  3  1  0  0  0  0
  3  4  2  0  0  0  0
  3 16  1  0  0  0  0
  4  5  1  0  0  0  0
  4 17  1  0  0  0  0
  5  6  2  0  0  0  0
  5 29  1  0  0  0  0
  6  7  1  0  0  0  0
  7 12  1  0  0  0  0
  7  8  1  0  0  0  0
  7 18  1  0  0  0  0
  8  9  1  0  0  0  0
  8 19  1  0  0  0  0
  8 20  1  0  0  0  0
  9 10  1  0  0  0  0
  9 21  1  0  0  0  0
  9 22  1  0  0  0  0
 10 11  1  0  0  0  0
 10 23  1  0  0  0  0
 10 24  1  0  0  0  0
 11 12  1  0  0  0  0
 11 25  1  0  0  0  0
 11 28  1  0  0  0  0
 12 26  1  0  0  0  0
 12 27  1  0  0  0  0
M  CHG  1   5   1
M  CHG  1  11   1
M  END
> <s_m_source_file>
AV-unprocessed.smi

> <i_m_source_file_index>
3125

> <i_lp_mmshare_version>
43012

> <i_f3d_flags>
0

> <s_epik_input>
W0NIM11uMVtjSF1bY0hdbmMxW0NAQEhdMltDSDJdW0NIMl1bQ0gyXVtOSF1bQ0gyXTI=

> <s_epik_cmdline>
J2VwaWtfcHl0aG9uJywgJy1waCcsICc3LjAnLCAnLXRuJywgJzgnLCAnLW1hJywgJzIwMCcsICctbWV0YWxfYmluZGluZycsICctaW1hZScsICc8aW5maWxlLm1hZT4nLCAnLW9tYWUnLCAnPG91dGZpbGUubWFlPic=

> <r_lp_tautomer_probability>
1

> <r_epik_Ionization_Penalty>
0.803551

> <r_epik_Ionization_Penalty_Charging>
0.000747377

> <r_epik_Ionization_Penalty_Neutral>
0.802804

> <r_epik_State_Penalty>
0.360941

> <r_epik_Charging_Adjusted_Penalty>
0.361688

> <i_epik_Tot_Q>
2

> <i_epik_Tot_abs_Q>
2

> <r_epik_Metal_State_Penalty>
3.98724

> <b_epik_Metal_Only>
0

> <s_lp_Force_Field>
OPLS_2005

> <r_lp_Energy>
24.5109

> <b_lp_Chiralities_Consistent>
1

> <s_lp_Variant>
AV-unprocessed.smi:3125-1

> <Gold.Version>
5.8.1

> <Gold.Id.Protein>
6NUR|6NUR_protein|mol2

> <Gold.PLP.Fitness>
35.0588

> <Gold.PLP.PLP>
-29.6115

> <Gold.PLP.part.hbond>
-1.0000

> <Gold.PLP.part.metal>
0.0000

> <Gold.PLP.part.buried>
-3.8241

> <Gold.PLP.part.nonpolar>
-24.8926

> <Gold.PLP.part.repulsive>
0.1276

> <Gold.PLP.ligand.clash>
0.0000

> <Gold.PLP.ligand.torsion>
0.2874

> <Gold.PLP.Chemscore.Hbond>
2.0000

> <Gold.PLP.Chemscore.CHOScore>
0.0000

> <Gold.PLP.Chemscore.Metal>
0.0000

> <Gold.Chemscore.Hbonds>
donor molecule, donor type, donor heavy atom, donor atom, acceptor molecule, acceptor atom, score
      L1  H     5    29       P1  8028  2.00

> <Gold.PLP.Chemscore.Internal.Correction>
0.0220

> <Gold.Rescore>
     Score         DG    S(hbond)    S(metal)    S(lipo)     H(rot)  DE(clash)    DE(int)     intcor
     14.13     -14.36       0.98        0.00      69.84       1.00       0.12       0.11       ----

> <Gold.Chemscore.Fitness>
14.1276

> <Gold.Chemscore.DG>
-14.3649

> <Gold.Chemscore.ZeroCoef>
-5.4800

> <Gold.Chemscore.Hbond>
0.9801

> <Gold.Chemscore.Metal>
0.0000

> <Gold.Chemscore.Lipo>
69.8411

> <Gold.Chemscore.Internal_Hbond>
0.0000

> <Gold.Chemscore.DEClash>
0.1229

> <Gold.Chemscore.DEInternal>
0.1143

> <Gold.Chemscore.Rot>
1.0000

> <Gold.Chemscore.Internal.Correction>
   9.000000E+99

> <Gold.Chemscore.Hbonds>
donor molecule, donor type, donor heavy atom, donor atom, acceptor molecule, acceptor atom, score
      L1  H     5    29       P1  8028  0.95

> <Gold.Chemscore.Hbond.Weighted>
-3.2735

> <Gold.Chemscore.Metal.Weighted>
-0.0000

> <Gold.Chemscore.Lipo.Weighted>
-8.1714

> <Gold.Chemscore.Internal_Hbond.Weighted>
0.0000

> <Gold.Chemscore.DEClash.Weighted>
0.1229

> <Gold.Chemscore.DEInternal.Weighted>
0.1143

> <Gold.Chemscore.Rot.Weighted>
2.5600

> <Gold.Chemscore.Internal.Correction.Weighted>
   9.000000E+99

> <Gold.Protein.RotatedTorsions>
[ 6907 6896 6895 6894 ] final  125.31 input  -60.11 | X-H torsion
[ 7974 7965 7964 7962 ] final  -60.34 input  175.53 | X-H torsion
[ 8008 7997 7996 7995 ] final   50.72 input   59.86 | X-H torsion
[ 10167 10162 10161 10158 ] final  166.63 input  -65.29 | X-H torsion
[ 10718 10713 10712 10709 ] final -167.57 input   66.30 | X-H torsion
[ 10763 10752 10751 10750 ] final -131.44 input  -60.55 | X-H torsion
[ 11005 11000 10999 10996 ] final   63.90 input  -57.11 | X-H torsion

> <Gold.Protein.ActiveResidues>
 VAL166  LYS551  ARG553  GLY616  TRP617  ASP618  TYR619  PRO620  LYS621  CYS622 
 ASP623  PHE694  ASN695  SER759  ASP760  ASP761  ALA762  ILE779  LEU786  VAL792 
 PHE793  MET794  SER795  GLU796  ALA797  LYS798  CYS799  TRP800  GLU811  SER814 

> <Gold.Protein.RotatedAtoms>
  152.4003  133.6808  159.6310 H   0  0  0  0  0  0  0  0  0  0  0  0  # atno 6907 bound_to 6896
  150.7895  133.8802  159.3292 H   0  0  0  0  0  0  0  0  0  0  0  0  # atno 6908 bound_to 6896
  151.6569  135.0996  160.0223 H   0  0  0  0  0  0  0  0  0  0  0  0  # atno 6909 bound_to 6896
  145.8167  140.8565  143.0154 H   0  0  0  0  0  0  0  0  0  0  0  0  # atno 7974 bound_to 7965
  155.4234  140.3447  155.4273 H   0  0  0  0  0  0  0  0  0  0  0  0  # atno 8008 bound_to 7997
  156.1379  140.1533  156.8997 H   0  0  0  0  0  0  0  0  0  0  0  0  # atno 8009 bound_to 7997
  154.4947  140.0831  156.7651 H   0  0  0  0  0  0  0  0  0  0  0  0  # atno 8010 bound_to 7997
  139.4928  144.4007  151.9412 H   0  0  0  0  0  0  0  0  0  0  0  0  # atno 10167 bound_to 10162
  156.6843  130.9134  151.3061 H   0  0  0  0  0  0  0  0  0  0  0  0  # atno 10718 bound_to 10713
  154.8750  135.3830  154.4247 H   0  0  0  0  0  0  0  0  0  0  0  0  # atno 10763 bound_to 10752
  153.4947  135.7030  153.5870 H   0  0  0  0  0  0  0  0  0  0  0  0  # atno 10764 bound_to 10752
  153.4228  135.3897  155.2088 H   0  0  0  0  0  0  0  0  0  0  0  0  # atno 10765 bound_to 10752
  139.9994  134.6466  155.9956 H   0  0  0  0  0  0  0  0  0  0  0  0  # atno 11005 bound_to 11000
  144.6752  140.0474  143.7479 LP  0  0  0  0  0  0  0  0  0  0  0  0  # atno 17320 bound_to 7965
  145.9719  139.2876  143.1093 LP  0  0  0  0  0  0  0  0  0  0  0  0  # atno 17321 bound_to 7965
  140.3446  144.3162  150.5960 LP  0  0  0  0  0  0  0  0  0  0  0  0  # atno 17342 bound_to 10162
  140.5537  143.2202  151.7884 LP  0  0  0  0  0  0  0  0  0  0  0  0  # atno 17343 bound_to 10162
  157.7032  130.9356  150.0850 LP  0  0  0  0  0  0  0  0  0  0  0  0  # atno 17370 bound_to 10713
  156.1844  130.3651  149.8992 LP  0  0  0  0  0  0  0  0  0  0  0  0  # atno 17371 bound_to 10713
  141.1630  133.6538  156.4383 LP  0  0  0  0  0  0  0  0  0  0  0  0  # atno 17394 bound_to 11000
  140.4757  134.6712  157.5149 LP  0  0  0  0  0  0  0  0  0  0  0  0  # atno 17395 bound_to 11000

$$$$
