AV-unprocessed.smi:830|AV-procd|sdf|3872|dock6
  -GOLD-   22720 1323D 1   1.00000     0.00000
 Structure written by MMmdl.
 53 55  0  0  0  0  0  0  0  0  2 V2000
  155.4623  137.3992  159.0530 C   0  0  0  0  0  0  0  0  0  0  0  0
  154.0804  137.2205  159.7035 C   0  0  2  0  0  0  0  0  0  0  0  0
  153.1439  138.2240  159.2008 N   0  0  0  0  0  0  0  0  0  0  0  0
  153.3867  139.5378  159.0946 C   0  0  0  0  0  0  0  0  0  0  0  0
  154.4459  140.0659  159.4321 O   0  0  0  0  0  0  0  0  0  0  0  0
  152.3217  140.1874  158.5958 N   0  0  0  0  0  0  0  0  0  0  0  0
  152.1679  141.5843  158.3666 C   0  0  0  0  0  0  0  0  0  0  0  0
  152.8479  142.5422  159.1626 C   0  0  0  0  0  0  0  0  0  0  0  0
  152.6577  143.9164  158.9256 C   0  0  0  0  0  0  0  0  0  0  0  0
  151.7931  144.3148  157.8920 C   0  0  0  0  0  0  0  0  0  0  0  0
  151.1774  143.3804  157.1390 N   0  3  0  0  0  0  0  0  0  0  0  0
  151.3310  142.0431  157.3074 C   0  0  0  0  0  0  0  0  0  0  0  0
  150.6298  141.1850  156.4293 N   0  0  0  0  0  0  0  0  0  0  0  0
  149.5702  140.3183  156.9323 C   0  0  0  0  0  0  0  0  0  0  0  0
  148.8371  139.8261  155.6874 C   0  0  0  0  0  0  0  0  0  0  0  0
  148.9150  141.0368  154.7622 C   0  0  0  0  0  0  0  0  0  0  0  0
  150.2736  141.6624  155.0967 C   0  0  0  0  0  0  0  0  0  0  0  0
  154.1248  137.2269  161.2358 C   0  0  0  0  0  0  0  0  0  0  0  0
  153.4566  138.0378  161.8793 O   0  0  0  0  0  0  0  0  0  0  0  0
  154.9323  136.3219  161.8098 N   0  0  0  0  0  0  0  0  0  0  0  0
  155.1293  136.1648  163.2480 C   0  0  0  0  0  0  0  0  0  0  0  0
  153.8409  135.6523  163.9173 C   0  0  0  0  0  0  0  0  0  0  0  0
  153.2776  136.8350  164.7053 C   0  0  0  0  0  0  0  0  0  0  0  0
  154.5141  137.6232  165.1260 C   0  0  0  0  0  0  0  0  0  0  0  0
  155.4606  137.5090  163.9297 C   0  0  0  0  0  0  0  0  0  0  0  0
  156.1678  136.6491  159.4118 H   0  0  0  0  0  0  0  0  0  0  0  0
  155.8810  138.3817  159.2744 H   0  0  0  0  0  0  0  0  0  0  0  0
  155.4055  137.2989  157.9686 H   0  0  0  0  0  0  0  0  0  0  0  0
  153.7029  136.2374  159.4143 H   0  0  0  0  0  0  0  0  0  0  0  0
  152.2443  137.8790  158.8987 H   0  0  0  0  0  0  0  0  0  0  0  0
  151.4914  139.6303  158.4572 H   0  0  0  0  0  0  0  0  0  0  0  0
  153.5208  142.2445  159.9522 H   0  0  0  0  0  0  0  0  0  0  0  0
  153.1670  144.6529  159.5298 H   0  0  0  0  0  0  0  0  0  0  0  0
  151.5833  145.3442  157.6400 H   0  0  0  0  0  0  0  0  0  0  0  0
  149.9741  139.4920  157.5179 H   0  0  0  0  0  0  0  0  0  0  0  0
  148.8821  140.8836  157.5619 H   0  0  0  0  0  0  0  0  0  0  0  0
  149.3727  138.9847  155.2454 H   0  0  0  0  0  0  0  0  0  0  0  0
  147.8144  139.5086  155.8931 H   0  0  0  0  0  0  0  0  0  0  0  0
  148.8175  140.7753  153.7082 H   0  0  0  0  0  0  0  0  0  0  0  0
  148.1165  141.7375  155.0100 H   0  0  0  0  0  0  0  0  0  0  0  0
  150.2319  142.7513  155.0460 H   0  0  0  0  0  0  0  0  0  0  0  0
  151.0261  141.3162  154.3878 H   0  0  0  0  0  0  0  0  0  0  0  0
  155.4492  135.6975  161.2078 H   0  0  0  0  0  0  0  0  0  0  0  0
  155.9289  135.4433  163.4272 H   0  0  0  0  0  0  0  0  0  0  0  0
  153.1154  135.2467  163.2105 H   0  0  0  0  0  0  0  0  0  0  0  0
  154.0929  134.8490  164.6112 H   0  0  0  0  0  0  0  0  0  0  0  0
  152.6543  137.4488  164.0537 H   0  0  0  0  0  0  0  0  0  0  0  0
  152.6684  136.5227  165.5540 H   0  0  0  0  0  0  0  0  0  0  0  0
  154.2864  138.6578  165.3840 H   0  0  0  0  0  0  0  0  0  0  0  0
  154.9679  137.1538  165.9997 H   0  0  0  0  0  0  0  0  0  0  0  0
  156.5067  137.5692  164.2312 H   0  0  0  0  0  0  0  0  0  0  0  0
  155.2739  138.3421  163.2499 H   0  0  0  0  0  0  0  0  0  0  0  0
  150.5640  143.7012  156.3898 H   0  0  0  0  0  0  0  0  0  0  0  0
  1  2  1  0  0  0  0
  1 26  1  0  0  0  0
  1 27  1  0  0  0  0
  1 28  1  0  0  0  0
  2  3  1  0  0  0  0
  2 18  1  0  0  0  0
  2 29  1  0  0  0  0
  3  4  1  0  0  0  0
  3 30  1  0  0  0  0
  4  5  2  0  0  0  0
  4  6  1  0  0  0  0
  6  7  1  0  0  0  0
  6 31  1  0  0  0  0
  7 12  1  0  0  0  0
  7  8  2  0  0  0  0
  8  9  1  0  0  0  0
  8 32  1  0  0  0  0
  9 10  2  0  0  0  0
  9 33  1  0  0  0  0
 10 11  1  0  0  0  0
 10 34  1  0  0  0  0
 11 12  2  0  0  0  0
 11 53  1  0  0  0  0
 12 13  1  0  0  0  0
 13 17  1  0  0  0  0
 13 14  1  0  0  0  0
 14 15  1  0  0  0  0
 14 35  1  0  0  0  0
 14 36  1  0  0  0  0
 15 16  1  0  0  0  0
 15 37  1  0  0  0  0
 15 38  1  0  0  0  0
 16 17  1  0  0  0  0
 16 39  1  0  0  0  0
 16 40  1  0  0  0  0
 17 41  1  0  0  0  0
 17 42  1  0  0  0  0
 18 19  2  0  0  0  0
 18 20  1  0  0  0  0
 20 21  1  0  0  0  0
 20 43  1  0  0  0  0
 21 25  1  0  0  0  0
 21 22  1  0  0  0  0
 21 44  1  0  0  0  0
 22 23  1  0  0  0  0
 22 45  1  0  0  0  0
 22 46  1  0  0  0  0
 23 24  1  0  0  0  0
 23 47  1  0  0  0  0
 23 48  1  0  0  0  0
 24 25  1  0  0  0  0
 24 49  1  0  0  0  0
 24 50  1  0  0  0  0
 25 51  1  0  0  0  0
 25 52  1  0  0  0  0
M  CHG  1  11   1
M  END
> <s_m_source_file>
AV-unprocessed.smi

> <i_m_source_file_index>
830

> <i_lp_mmshare_version>
43012

> <i_f3d_flags>
0

> <s_epik_input>
W0NIMl0xW0NIMl1bQ0gyXVtDSDJdW0NIXTFbTkhdQyg9TylbQ0BIXShbQ0gzXSlbTkhdQyg9TylbTkhdYzJbY0hdW2NIXVtjSF1uYzJOM1tDSDJdW0NIMl1bQ0gyXVtDSDJdMw==

> <s_epik_cmdline>
J2VwaWtfcHl0aG9uJywgJy1waCcsICc3LjAnLCAnLXRuJywgJzgnLCAnLW1hJywgJzIwMCcsICctbWV0YWxfYmluZGluZycsICctaW1hZScsICc8aW5maWxlLm1hZT4nLCAnLW9tYWUnLCAnPG91dGZpbGUubWFlPic=

> <r_lp_tautomer_probability>
0.999994

> <r_epik_Ionization_Penalty>
1.21091

> <r_epik_Ionization_Penalty_Charging>
1.21089

> <r_epik_Ionization_Penalty_Neutral>
1.88713e-05

> <r_epik_State_Penalty>
1.27732

> <r_epik_Charging_Adjusted_Penalty>
2.48821

> <i_epik_Tot_Q>
1

> <i_epik_Tot_abs_Q>
1

> <r_epik_Metal_State_Penalty>
1.3505

> <b_epik_Metal_Only>
0

> <s_lp_Force_Field>
OPLS_2005

> <r_lp_Energy>
52.1076

> <b_lp_Chiralities_Consistent>
1

> <s_lp_Variant>
AV-unprocessed.smi:830-3

> <Gold.Version>
5.8.1

> <Gold.Id.Protein>
6NUR|6NUR_protein|mol2

> <Gold.PLP.Fitness>
47.8388

> <Gold.PLP.PLP>
-40.3192

> <Gold.PLP.part.hbond>
-2.0000

> <Gold.PLP.part.metal>
0.0000

> <Gold.PLP.part.buried>
-4.2411

> <Gold.PLP.part.nonpolar>
-33.1567

> <Gold.PLP.part.repulsive>
0.2809

> <Gold.PLP.ligand.clash>
0.0000

> <Gold.PLP.ligand.torsion>
0.8614

> <Gold.PLP.Chemscore.Hbond>
2.9272

> <Gold.PLP.Chemscore.CHOScore>
0.0000

> <Gold.PLP.Chemscore.Metal>
0.0000

> <Gold.Chemscore.Hbonds>
donor molecule, donor type, donor heavy atom, donor atom, acceptor molecule, acceptor atom, score
      L1  H    11    53       P1  8028  1.76
      P1  H  7997  8008       L1     5  0.33

> <Gold.PLP.Chemscore.Internal.Correction>
0.4608

> <Gold.Rescore>
     Score         DG    S(hbond)    S(metal)    S(lipo)     H(rot)  DE(clash)    DE(int)     intcor
     12.50     -18.48       1.40        0.00     107.67       1.67       0.00       5.97       ----

> <Gold.Chemscore.Fitness>
12.5045

> <Gold.Chemscore.DG>
-18.4814

> <Gold.Chemscore.ZeroCoef>
-5.4800

> <Gold.Chemscore.Hbond>
1.3992

> <Gold.Chemscore.Metal>
0.0000

> <Gold.Chemscore.Lipo>
107.6698

> <Gold.Chemscore.Internal_Hbond>
0.0000

> <Gold.Chemscore.DEClash>
0.0038

> <Gold.Chemscore.DEInternal>
5.9731

> <Gold.Chemscore.Rot>
1.6676

> <Gold.Chemscore.Internal.Correction>
   9.000000E+99

> <Gold.Chemscore.Hbonds>
donor molecule, donor type, donor heavy atom, donor atom, acceptor molecule, acceptor atom, score
      L1  H    11    53       P1  8028  0.83
      P1  H  7997  8008       L1     5  0.02

> <Gold.Chemscore.Hbond.Weighted>
-4.6732

> <Gold.Chemscore.Metal.Weighted>
-0.0000

> <Gold.Chemscore.Lipo.Weighted>
-12.5974

> <Gold.Chemscore.Internal_Hbond.Weighted>
0.0000

> <Gold.Chemscore.DEClash.Weighted>
0.0038

> <Gold.Chemscore.DEInternal.Weighted>
5.9731

> <Gold.Chemscore.Rot.Weighted>
4.2691

> <Gold.Chemscore.Internal.Correction.Weighted>
   9.000000E+99

> <Gold.Protein.RotatedTorsions>
[ 6907 6896 6895 6894 ] final   32.91 input  -60.11 | X-H torsion
[ 7974 7965 7964 7962 ] final -105.41 input  175.53 | X-H torsion
[ 8008 7997 7996 7995 ] final -125.84 input   59.86 | X-H torsion
[ 10167 10162 10161 10158 ] final   63.97 input  -65.29 | X-H torsion
[ 10718 10713 10712 10709 ] final  117.94 input   66.30 | X-H torsion
[ 10763 10752 10751 10750 ] final -144.12 input  -60.55 | X-H torsion
[ 11005 11000 10999 10996 ] final  151.72 input  -57.11 | X-H torsion

> <Gold.Protein.ActiveResidues>
 VAL166  LYS551  ARG553  GLY616  TRP617  ASP618  TYR619  PRO620  LYS621  CYS622 
 ASP623  PHE694  ASN695  SER759  ASP760  ASP761  ALA762  ILE779  LEU786  VAL792 
 PHE793  MET794  SER795  GLU796  ALA797  LYS798  CYS799  TRP800  GLU811  SER814 

> <Gold.Protein.RotatedAtoms>
  152.0811  134.9470  160.0573 H   0  0  0  0  0  0  0  0  0  0  0  0  # atno 6907 bound_to 6896
  152.0758  133.4124  159.4487 H   0  0  0  0  0  0  0  0  0  0  0  0  # atno 6908 bound_to 6896
  150.6836  134.2959  159.4729 H   0  0  0  0  0  0  0  0  0  0  0  0  # atno 6909 bound_to 6896
  145.2309  140.9170  143.3205 H   0  0  0  0  0  0  0  0  0  0  0  0  # atno 7974 bound_to 7965
  155.2199  140.0421  157.2946 H   0  0  0  0  0  0  0  0  0  0  0  0  # atno 8008 bound_to 7997
  154.5956  140.2438  155.7832 H   0  0  0  0  0  0  0  0  0  0  0  0  # atno 8009 bound_to 7997
  156.2288  140.2945  156.0144 H   0  0  0  0  0  0  0  0  0  0  0  0  # atno 8010 bound_to 7997
  140.1272  144.4677  150.6886 H   0  0  0  0  0  0  0  0  0  0  0  0  # atno 10167 bound_to 10162
  157.6063  131.1043  150.7686 H   0  0  0  0  0  0  0  0  0  0  0  0  # atno 10718 bound_to 10713
  154.8441  135.3449  154.6296 H   0  0  0  0  0  0  0  0  0  0  0  0  # atno 10763 bound_to 10752
  153.6905  135.6975  153.5096 H   0  0  0  0  0  0  0  0  0  0  0  0  # atno 10764 bound_to 10752
  153.2598  135.4326  155.0838 H   0  0  0  0  0  0  0  0  0  0  0  0  # atno 10765 bound_to 10752
  140.1244  134.8843  157.2117 H   0  0  0  0  0  0  0  0  0  0  0  0  # atno 11005 bound_to 11000
  144.9678  139.3912  143.6324 LP  0  0  0  0  0  0  0  0  0  0  0  0  # atno 17320 bound_to 7965
  146.3353  139.8761  142.8832 LP  0  0  0  0  0  0  0  0  0  0  0  0  # atno 17321 bound_to 7965
  140.6838  143.2339  151.5315 LP  0  0  0  0  0  0  0  0  0  0  0  0  # atno 17342 bound_to 10162
  139.5538  144.2327  152.1577 LP  0  0  0  0  0  0  0  0  0  0  0  0  # atno 17343 bound_to 10162
  156.8074  130.4941  149.5361 LP  0  0  0  0  0  0  0  0  0  0  0  0  # atno 17370 bound_to 10713
  156.1150  130.6068  151.0107 LP  0  0  0  0  0  0  0  0  0  0  0  0  # atno 17371 bound_to 10713
  140.2923  134.3226  155.7312 LP  0  0  0  0  0  0  0  0  0  0  0  0  # atno 17394 bound_to 11000
  141.2158  133.7542  156.9521 LP  0  0  0  0  0  0  0  0  0  0  0  0  # atno 17395 bound_to 11000

$$$$
