#       Name:                AV-unprocessed.smi:1412
#       Creating user name   scv26
#       Creation time:       Fri Mar 27 05:38:10 2020


#       File generated by GOLD software.
#

@<TRIPOS>MOLECULE
AV-unprocessed.smi:1412
    48    49     1
SMALL
NO_CHARGES


@<TRIPOS>ATOM
      1 ****        -2.6026  -1.1839  -1.4819 C.3            1 S1                 0.0000
      2 ****        -1.0742  -1.0747  -1.3311 C.3            1 S1                 0.0000
      3 ****        -0.5708  -0.4227  -0.0036 C.3            1 S1                 0.0000
      4 ****        -1.0167   1.0635  -0.0518 C.3            1 S1                 0.0000
      5 ****         0.9924  -0.4779   0.0087 C.3            1 S1                 0.0000
      6 ****         1.6198   0.1553  -1.1527 N.am           1 S1                 0.0000
      7 ****         2.1699   1.3774  -1.2000 C.2            1 S1                 0.0000
      8 ****         2.1932   2.0853  -0.1905 O.2            1 S1                 0.0000
      9 ****         2.6497   1.7084  -2.4201 N.pl3          1 S1                -1.0000
     10 ****         3.1953   2.9193  -2.6201 C.2            1 S1                 0.0000
     11 ****         4.5232   3.1170  -2.6273 N.2            1 S1                 0.0000
     12 ****         4.8769   4.4402  -2.8549 N.2            1 S1                 0.0000
     13 ****         3.8012   5.2085  -3.0236 C.2            1 S1                 0.0000
     14 ****         2.2590   4.3859  -2.9209 S.3            1 S1                 0.0000
     15 ****        -1.1629  -1.1012   1.1849 N.3            1 S1                 0.0000
     16 ****        -0.8622  -0.4735   2.4773 C.3            1 S1                 0.0000
     17 ****        -1.6255  -1.1419   3.6335 C.3            1 S1                 0.0000
     18 ****        -1.3232  -2.5316   3.6698 O.3            1 S1                 0.0000
     19 ****        -1.6498  -3.1906   2.4519 C.3            1 S1                 0.0000
     20 ****        -0.8842  -2.5387   1.2881 C.3            1 S1                 0.0000
     21 ****        -2.8576  -1.6718  -2.4228 H              1 S1                 0.0000
     22 ****        -3.0792  -0.2041  -1.4870 H              1 S1                 0.0000
     23 ****        -3.0499  -1.7714  -0.6803 H              1 S1                 0.0000
     24 ****        -0.6371  -2.0654  -1.4552 H              1 S1                 0.0000
     25 ****        -0.7057  -0.5082  -2.1870 H              1 S1                 0.0000
     26 ****        -0.8112   1.5216  -1.0198 H              1 S1                 0.0000
     27 ****        -0.4975   1.6698   0.6906 H              1 S1                 0.0000
     28 ****        -2.0859   1.1705   0.1319 H              1 S1                 0.0000
     29 ****         1.3951  -0.0434   0.9236 H              1 S1                 0.0000
     30 ****         1.3346  -1.5120   0.0019 H              1 S1                 0.0000
     31 ****         1.6291  -0.3820  -2.0072 H              1 S1                 0.0000
     32 ****         3.9164   6.2654  -3.2114 H              1 S1                 0.0000
     33 ****         0.2057  -0.5296   2.6868 H              1 S1                 0.0000
     34 ****        -1.1287   0.5818   2.4702 H              1 S1                 0.0000
     35 ****        -1.3420  -0.6915   4.5847 H              1 S1                 0.0000
     36 ****        -2.7011  -0.9988   3.5191 H              1 S1                 0.0000
     37 ****        -1.3852  -4.2446   2.5361 H              1 S1                 0.0000
     38 ****        -2.7263  -3.1428   2.2803 H              1 S1                 0.0000
     39 ****        -1.1636  -3.0587   0.3739 H              1 S1                 0.0000
     40 ****         0.1824  -2.7081   1.4352 H              1 S1                 0.0000
     41 ****         1.8014   1.7483   0.6656 LP             1 S1                 0.0000
     42 ****         2.6039   2.9963  -0.2280 LP             1 S1                 0.0000
     43 ****         2.5983   1.0521  -3.1729 LP             1 S1                 0.0000
     44 ****         5.1898   2.3856  -2.4834 LP             1 S1                 0.0000
     45 ****         5.8189   4.7741  -2.8880 LP             1 S1                 0.0000
     46 ****        -2.1376  -0.9822   0.9957 LP             1 S1                 0.0000
     47 ****        -1.8428  -2.9538   4.4126 LP             1 S1                 0.0000
     48 ****        -0.3445  -2.6428   3.8425 LP             1 S1                 0.0000
@<TRIPOS>BOND
    1    1    2 1     
    2    1   21 1     
    3    1   22 1     
    4    1   23 1     
    5    2    3 1     
    6    2   24 1     
    7    2   25 1     
    8    3    4 1     
    9    3    5 1     
   10    3   15 1     
   11    4   26 1     
   12    4   27 1     
   13    4   28 1     
   14    5    6 1     
   15    5   29 1     
   16    5   30 1     
   17    6    7 am    
   18    6   31 1     
   19    7    8 2     
   20    7    9 1     
   21    9   10 1     
   22   10   14 1     
   23   10   11 2     
   24   11   12 1     
   25   12   13 2     
   26   13   14 1     
   27   13   32 1     
   28   15   20 1     
   29   15   16 1     
   30   16   17 1     
   31   16   33 1     
   32   16   34 1     
   33   17   18 1     
   34   17   35 1     
   35   17   36 1     
   36   18   19 1     
   37   19   20 1     
   38   19   37 1     
   39   19   38 1     
   40   20   39 1     
   41   20   40 1     
   42    8   41 1     
   43    8   42 1     
   44    9   43 1     
   45   11   44 1     
   46   12   45 1     
   47   15   46 1     
   48   18   47 1     
   49   18   48 1     
@<TRIPOS>SUBSTRUCTURE
      1 S1             1
@<TRIPOS>SET
LONE_PAIRS      STATIC     ATOMS    <user>   **** ""
8 41 42 43 44 45 46 47 48
DONOR_HYDROGENS      STATIC     ATOMS    <user>   **** ""
1 31
ATOM$BLUE        STATIC     ATOMS    COLORGROUP SYSTEM
8 41 42 43 44 45 46 47 48
ATOM$RED        STATIC     ATOMS    COLORGROUP SYSTEM
1 31
