AV-unprocessed.smi:1714|AV-procd|sdf|6907|dock7
  -GOLD-   22720 8113D 1   1.00000     0.00000
 Structure written by MMmdl.
 45 46  0  0  0  0  0  0  0  0  1 V2000
  144.1461  135.2263  151.7966 C   0  0  0  0  0  0  0  0  0  0  0  0
  144.7742  133.9507  151.2585 C   0  0  0  0  0  0  0  0  0  0  0  0
  144.0073  133.0954  150.4390 C   0  0  0  0  0  0  0  0  0  0  0  0
  144.5901  131.9164  149.9437 C   0  0  0  0  0  0  0  0  0  0  0  0
  145.9237  131.6408  150.2920 C   0  0  0  0  0  0  0  0  0  0  0  0
  146.6634  132.4521  151.0753 N   0  0  0  0  0  0  0  0  0  0  0  0
  146.1156  133.5940  151.5612 C   0  0  0  0  0  0  0  0  0  0  0  0
  146.8356  134.4996  152.3895 N   0  0  0  0  0  0  0  0  0  0  0  0
  146.8748  134.5583  153.7319 C   0  0  0  0  0  0  0  0  0  0  0  0
  146.2607  133.8178  154.5004 O   0  0  0  0  0  0  0  0  0  0  0  0
  147.6764  135.5474  154.1451 N   0  0  0  0  0  0  0  0  0  0  0  0
  147.9156  135.8947  155.5419 C   0  0  0  0  0  0  0  0  0  0  0  0
  149.4305  136.0636  155.8506 C   0  0  0  0  0  0  0  0  0  0  0  0
  149.5724  136.1954  157.3861 C   0  0  0  0  0  0  0  0  0  0  0  0
  150.1077  134.7316  155.4383 C   0  0  0  0  0  0  0  0  0  0  0  0
  150.0173  137.2147  155.1077 N   0  0  0  0  0  0  0  0  0  0  0  0
  149.2571  138.4661  155.2110 C   0  0  0  0  0  0  0  0  0  0  0  0
  149.8474  139.5780  154.3274 C   0  0  0  0  0  0  0  0  0  0  0  0
  151.2106  139.7911  154.6717 O   0  0  0  0  0  0  0  0  0  0  0  0
  151.9966  138.6149  154.5255 C   0  0  0  0  0  0  0  0  0  0  0  0
  151.4254  137.4950  155.4116 C   0  0  0  0  0  0  0  0  0  0  0  0
  143.1148  135.3348  151.4593 H   0  0  0  0  0  0  0  0  0  0  0  0
  144.7033  136.0999  151.4569 H   0  0  0  0  0  0  0  0  0  0  0  0
  144.1433  135.2190  152.8870 H   0  0  0  0  0  0  0  0  0  0  0  0
  142.9841  133.3373  150.1915 H   0  0  0  0  0  0  0  0  0  0  0  0
  144.0300  131.2412  149.3139 H   0  0  0  0  0  0  0  0  0  0  0  0
  146.4105  130.7461  149.9326 H   0  0  0  0  0  0  0  0  0  0  0  0
  147.3879  135.1862  151.8979 H   0  0  0  0  0  0  0  0  0  0  0  0
  148.1417  136.1139  153.4508 H   0  0  0  0  0  0  0  0  0  0  0  0
  147.3585  136.8001  155.7851 H   0  0  0  0  0  0  0  0  0  0  0  0
  147.4867  135.1155  156.1748 H   0  0  0  0  0  0  0  0  0  0  0  0
  149.1450  135.3292  157.8928 H   0  0  0  0  0  0  0  0  0  0  0  0
  149.0525  137.0717  157.7731 H   0  0  0  0  0  0  0  0  0  0  0  0
  150.6135  136.2609  157.7013 H   0  0  0  0  0  0  0  0  0  0  0  0
  149.5780  133.8699  155.8463 H   0  0  0  0  0  0  0  0  0  0  0  0
  151.1312  134.6579  155.8055 H   0  0  0  0  0  0  0  0  0  0  0  0
  150.1361  134.6117  154.3546 H   0  0  0  0  0  0  0  0  0  0  0  0
  148.2218  138.3191  154.9096 H   0  0  0  0  0  0  0  0  0  0  0  0
  149.2405  138.8122  156.2445 H   0  0  0  0  0  0  0  0  0  0  0  0
  149.7672  139.3156  153.2712 H   0  0  0  0  0  0  0  0  0  0  0  0
  149.2952  140.5070  154.4696 H   0  0  0  0  0  0  0  0  0  0  0  0
  152.0142  138.3073  153.4787 H   0  0  0  0  0  0  0  0  0  0  0  0
  153.0249  138.8363  154.8113 H   0  0  0  0  0  0  0  0  0  0  0  0
  151.5360  137.7832  156.4569 H   0  0  0  0  0  0  0  0  0  0  0  0
  152.0399  136.6096  155.2594 H   0  0  0  0  0  0  0  0  0  0  0  0
  1  2  1  0  0  0  0
  1 22  1  0  0  0  0
  1 23  1  0  0  0  0
  1 24  1  0  0  0  0
  2  7  1  0  0  0  0
  2  3  2  0  0  0  0
  3  4  1  0  0  0  0
  3 25  1  0  0  0  0
  4  5  2  0  0  0  0
  4 26  1  0  0  0  0
  5  6  1  0  0  0  0
  5 27  1  0  0  0  0
  6  7  2  0  0  0  0
  7  8  1  0  0  0  0
  8  9  1  0  0  0  0
  8 28  1  0  0  0  0
  9 10  2  0  0  0  0
  9 11  1  0  0  0  0
 11 12  1  0  0  0  0
 11 29  1  0  0  0  0
 12 13  1  0  0  0  0
 12 30  1  0  0  0  0
 12 31  1  0  0  0  0
 13 14  1  0  0  0  0
 13 15  1  0  0  0  0
 13 16  1  0  0  0  0
 14 32  1  0  0  0  0
 14 33  1  0  0  0  0
 14 34  1  0  0  0  0
 15 35  1  0  0  0  0
 15 36  1  0  0  0  0
 15 37  1  0  0  0  0
 16 21  1  0  0  0  0
 16 17  1  0  0  0  0
 17 18  1  0  0  0  0
 17 38  1  0  0  0  0
 17 39  1  0  0  0  0
 18 19  1  0  0  0  0
 18 40  1  0  0  0  0
 18 41  1  0  0  0  0
 19 20  1  0  0  0  0
 20 21  1  0  0  0  0
 20 42  1  0  0  0  0
 20 43  1  0  0  0  0
 21 44  1  0  0  0  0
 21 45  1  0  0  0  0
M  END
> <s_m_source_file>
AV-unprocessed.smi

> <i_m_source_file_index>
1714

> <i_lp_mmshare_version>
43012

> <i_f3d_flags>
0

> <s_epik_input>
W0NIM11jMVtjSF1bY0hdW2NIXW5jMVtOSF1DKD1PKVtOSF1bQ0gyXUMoW0NIM10pKFtDSDNdKU4yW0NIMl1bQ0gyXU9bQ0gyXVtDSDJdMg==

> <s_epik_cmdline>
J2VwaWtfcHl0aG9uJywgJy1waCcsICc3LjAnLCAnLXRuJywgJzgnLCAnLW1hJywgJzIwMCcsICctbWV0YWxfYmluZGluZycsICctaW1hZScsICc8aW5maWxlLm1hZT4nLCAnLW9tYWUnLCAnPG91dGZpbGUubWFlPic=

> <r_epik_Ionization_Penalty>
0.26605

> <r_epik_Ionization_Penalty_Charging>
0

> <r_epik_Ionization_Penalty_Neutral>
0.26605

> <r_epik_State_Penalty>
0.257924

> <r_epik_Charging_Adjusted_Penalty>
0.257924

> <i_epik_Tot_Q>
0

> <i_epik_Tot_abs_Q>
0

> <r_epik_Metal_State_Penalty>
0.257922

> <b_epik_Metal_Only>
0

> <s_lp_Force_Field>
OPLS_2005

> <r_lp_Energy>
43.6145

> <b_lp_Chiralities_Consistent>
1

> <s_lp_Variant>
AV-unprocessed.smi:1714-1

> <Gold.Version>
5.8.1

> <Gold.Id.Protein>
6NUR|6NUR_protein|mol2

> <Gold.PLP.Fitness>
40.2390

> <Gold.PLP.PLP>
-32.2357

> <Gold.PLP.part.hbond>
-3.0000

> <Gold.PLP.part.metal>
0.0000

> <Gold.PLP.part.buried>
-5.4687

> <Gold.PLP.part.nonpolar>
-24.7134

> <Gold.PLP.part.repulsive>
1.4421

> <Gold.PLP.ligand.clash>
0.0000

> <Gold.PLP.ligand.torsion>
0.9664

> <Gold.PLP.Chemscore.Hbond>
2.7920

> <Gold.PLP.Chemscore.CHOScore>
0.4975

> <Gold.PLP.Chemscore.Metal>
0.0000

> <Gold.Chemscore.Hbonds>
donor molecule, donor type, donor heavy atom, donor atom, acceptor molecule, acceptor atom, score
      L1  H     8    28       P1  7948  0.96
      L1  H    11    29       P1  7948  0.98
      P1  H  7989  7998       L1    19  1.00
      L1  C     5    27       P1 10747  0.58

> <Gold.PLP.Chemscore.Internal.Correction>
0.0676

> <Gold.Rescore>
     Score         DG    S(hbond)    S(metal)    S(lipo)     H(rot)  DE(clash)    DE(int)     intcor
     16.53     -17.54       1.95        0.00      79.08       1.45       0.06       0.95       ----

> <Gold.Chemscore.Fitness>
16.5257

> <Gold.Chemscore.DG>
-17.5420

> <Gold.Chemscore.ZeroCoef>
-5.4800

> <Gold.Chemscore.Hbond>
1.9525

> <Gold.Chemscore.Metal>
0.0000

> <Gold.Chemscore.Lipo>
79.0781

> <Gold.Chemscore.Internal_Hbond>
0.0000

> <Gold.Chemscore.DEClash>
0.0642

> <Gold.Chemscore.DEInternal>
0.9521

> <Gold.Chemscore.Rot>
1.4498

> <Gold.Chemscore.Internal.Correction>
   9.000000E+99

> <Gold.Chemscore.Hbonds>
donor molecule, donor type, donor heavy atom, donor atom, acceptor molecule, acceptor atom, score
      L1  H     8    28       P1  7948  0.89
      L1  H    11    29       P1  7948  0.92
      P1  H  7989  7998       L1    19  0.17

> <Gold.Chemscore.Hbond.Weighted>
-6.5214

> <Gold.Chemscore.Metal.Weighted>
-0.0000

> <Gold.Chemscore.Lipo.Weighted>
-9.2521

> <Gold.Chemscore.Internal_Hbond.Weighted>
0.0000

> <Gold.Chemscore.DEClash.Weighted>
0.0642

> <Gold.Chemscore.DEInternal.Weighted>
0.9521

> <Gold.Chemscore.Rot.Weighted>
3.7116

> <Gold.Chemscore.Internal.Correction.Weighted>
   9.000000E+99

> <Gold.Protein.RotatedTorsions>
[ 6907 6896 6895 6894 ] final  123.63 input  -60.11 | X-H torsion
[ 7974 7965 7964 7962 ] final  146.99 input  175.53 | X-H torsion
[ 8008 7997 7996 7995 ] final  114.57 input   59.86 | X-H torsion
[ 10167 10162 10161 10158 ] final -174.91 input  -65.29 | X-H torsion
[ 10718 10713 10712 10709 ] final   23.60 input   66.30 | X-H torsion
[ 10763 10752 10751 10750 ] final  -88.35 input  -60.55 | X-H torsion
[ 11005 11000 10999 10996 ] final  -81.53 input  -57.11 | X-H torsion

> <Gold.Protein.ActiveResidues>
 VAL166  LYS551  ARG553  GLY616  TRP617  ASP618  TYR619  PRO620  LYS621  CYS622 
 ASP623  PHE694  ASN695  SER759  ASP760  ASP761  ALA762  ILE779  LEU786  VAL792 
 PHE793  MET794  SER795  GLU796  ALA797  LYS798  CYS799  TRP800  GLU811  SER814 

> <Gold.Protein.RotatedAtoms>
  152.4145  133.7017  159.6427 H   0  0  0  0  0  0  0  0  0  0  0  0  # atno 6907 bound_to 6896
  150.8023  133.8564  159.3228 H   0  0  0  0  0  0  0  0  0  0  0  0  # atno 6908 bound_to 6896
  151.6297  135.1026  160.0170 H   0  0  0  0  0  0  0  0  0  0  0  0  # atno 6909 bound_to 6896
  144.8627  139.5973  143.5923 H   0  0  0  0  0  0  0  0  0  0  0  0  # atno 7974 bound_to 7965
  156.2329  140.2956  156.0236 H   0  0  0  0  0  0  0  0  0  0  0  0  # atno 8008 bound_to 7997
  155.2174  140.0414  157.2960 H   0  0  0  0  0  0  0  0  0  0  0  0  # atno 8009 bound_to 7997
  154.6027  140.2431  155.7778 H   0  0  0  0  0  0  0  0  0  0  0  0  # atno 8010 bound_to 7997
  139.5609  144.1873  152.1236 H   0  0  0  0  0  0  0  0  0  0  0  0  # atno 10167 bound_to 10162
  157.1683  130.6748  149.6068 H   0  0  0  0  0  0  0  0  0  0  0  0  # atno 10718 bound_to 10713
  154.6436  135.5380  153.7818 H   0  0  0  0  0  0  0  0  0  0  0  0  # atno 10763 bound_to 10752
  153.0347  135.6465  154.1123 H   0  0  0  0  0  0  0  0  0  0  0  0  # atno 10764 bound_to 10752
  154.1046  135.2931  155.3224 H   0  0  0  0  0  0  0  0  0  0  0  0  # atno 10765 bound_to 10752
  141.1666  133.7201  156.8436 H   0  0  0  0  0  0  0  0  0  0  0  0  # atno 11005 bound_to 11000
  146.2872  139.7038  142.9187 LP  0  0  0  0  0  0  0  0  0  0  0  0  # atno 17320 bound_to 7965
  145.4281  141.0413  143.2926 LP  0  0  0  0  0  0  0  0  0  0  0  0  # atno 17321 bound_to 7965
  140.1386  144.5222  150.6758 LP  0  0  0  0  0  0  0  0  0  0  0  0  # atno 17342 bound_to 10162
  140.6888  143.2364  151.5188 LP  0  0  0  0  0  0  0  0  0  0  0  0  # atno 17343 bound_to 10162
  155.9742  130.4688  150.6371 LP  0  0  0  0  0  0  0  0  0  0  0  0  # atno 17370 bound_to 10713
  157.4067  131.0818  151.1259 LP  0  0  0  0  0  0  0  0  0  0  0  0  # atno 17371 bound_to 10713
  140.1966  134.8927  157.3121 LP  0  0  0  0  0  0  0  0  0  0  0  0  # atno 17394 bound_to 11000
  140.2233  134.3997  155.7556 LP  0  0  0  0  0  0  0  0  0  0  0  0  # atno 17395 bound_to 11000

$$$$
