AV-unprocessed.smi:2146|AV-procd|sdf|8739|dock10
  -GOLD-   2272011513D 1   1.00000     0.00000
 Structure written by MMmdl.
 44 45  0  0  0  0  0  0  0  0  1 V2000
  149.4666  138.4812  154.2893 C   0  0  0  0  0  0  0  0  0  0  0  0
  150.9581  138.3497  154.6934 C   0  0  1  0  0  0  0  0  0  0  0  0
  151.4668  139.7150  155.2397 C   0  0  0  0  0  0  0  0  0  0  0  0
  152.2726  139.5850  156.4517 N   0  0  0  0  0  0  0  0  0  0  0  0
  151.8214  139.7214  157.7083 C   0  0  0  0  0  0  0  0  0  0  0  0
  150.6422  139.9490  157.9819 O   0  0  0  0  0  0  0  0  0  0  0  0
  152.8738  139.5800  158.8167 C   0  0  0  0  0  0  0  0  0  0  0  0
  152.9813  140.7830  159.6581 N   0  0  0  0  0  0  0  0  0  0  0  0
  152.1461  141.8654  159.3196 C   0  0  0  0  0  0  0  0  0  0  0  0
  152.1306  143.0235  160.0062 C   0  0  0  0  0  0  0  0  0  0  0  0
  151.1654  144.1447  159.6546 C   0  0  0  0  0  0  0  0  0  0  0  0
  151.2900  145.1696  160.4980 F   0  0  0  0  0  0  0  0  0  0  0  0
  151.4144  144.5871  158.4228 F   0  0  0  0  0  0  0  0  0  0  0  0
  149.9019  143.7201  159.6948 F   0  0  0  0  0  0  0  0  0  0  0  0
  153.0119  143.1034  161.1546 C   0  0  0  0  0  0  0  0  0  0  0  0
  153.8072  142.0720  161.5007 C   0  0  0  0  0  0  0  0  0  0  0  0
  153.8217  140.8233  160.7352 C   0  0  0  0  0  0  0  0  0  0  0  0
  154.5412  139.8739  161.0455 O   0  0  0  0  0  0  0  0  0  0  0  0
  151.2000  137.2244  155.6276 N   0  0  0  0  0  0  0  0  0  0  0  0
  150.3316  137.2736  156.8101 C   0  0  0  0  0  0  0  0  0  0  0  0
  150.5599  136.0936  157.7706 C   0  0  0  0  0  0  0  0  0  0  0  0
  150.3702  134.8683  157.0775 O   0  0  0  0  0  0  0  0  0  0  0  0
  151.2516  134.7428  155.9705 C   0  0  0  0  0  0  0  0  0  0  0  0
  151.0286  135.9113  154.9947 C   0  0  0  0  0  0  0  0  0  0  0  0
  149.2930  139.3105  153.6050 H   0  0  0  0  0  0  0  0  0  0  0  0
  148.8339  138.6384  155.1633 H   0  0  0  0  0  0  0  0  0  0  0  0
  149.0981  137.6051  153.7584 H   0  0  0  0  0  0  0  0  0  0  0  0
  151.5153  138.1493  153.7767 H   0  0  0  0  0  0  0  0  0  0  0  0
  152.0044  140.2543  154.4581 H   0  0  0  0  0  0  0  0  0  0  0  0
  150.6352  140.3530  155.5334 H   0  0  0  0  0  0  0  0  0  0  0  0
  153.2556  139.3935  156.3223 H   0  0  0  0  0  0  0  0  0  0  0  0
  152.6367  138.6959  159.4104 H   0  0  0  0  0  0  0  0  0  0  0  0
  153.8444  139.3667  158.3649 H   0  0  0  0  0  0  0  0  0  0  0  0
  151.5041  141.6853  158.4690 H   0  0  0  0  0  0  0  0  0  0  0  0
  153.0373  144.0060  161.7471 H   0  0  0  0  0  0  0  0  0  0  0  0
  154.4508  142.1666  162.3630 H   0  0  0  0  0  0  0  0  0  0  0  0
  150.5095  138.1827  157.3812 H   0  0  0  0  0  0  0  0  0  0  0  0
  149.2854  137.2917  156.5010 H   0  0  0  0  0  0  0  0  0  0  0  0
  151.5645  136.1299  158.1952 H   0  0  0  0  0  0  0  0  0  0  0  0
  149.8589  136.1425  158.6040 H   0  0  0  0  0  0  0  0  0  0  0  0
  152.2855  134.7216  156.3187 H   0  0  0  0  0  0  0  0  0  0  0  0
  151.0627  133.7922  155.4718 H   0  0  0  0  0  0  0  0  0  0  0  0
  150.0299  135.8363  154.5620 H   0  0  0  0  0  0  0  0  0  0  0  0
  151.7389  135.7804  154.1808 H   0  0  0  0  0  0  0  0  0  0  0  0
  1  2  1  0  0  0  0
  1 25  1  0  0  0  0
  1 26  1  0  0  0  0
  1 27  1  0  0  0  0
  2  3  1  0  0  0  0
  2 19  1  0  0  0  0
  2 28  1  0  0  0  0
  3  4  1  0  0  0  0
  3 29  1  0  0  0  0
  3 30  1  0  0  0  0
  4  5  1  0  0  0  0
  4 31  1  0  0  0  0
  5  6  2  0  0  0  0
  5  7  1  0  0  0  0
  7  8  1  0  0  0  0
  7 32  1  0  0  0  0
  7 33  1  0  0  0  0
  8 17  1  0  0  0  0
  8  9  1  0  0  0  0
  9 10  2  0  0  0  0
  9 34  1  0  0  0  0
 10 11  1  0  0  0  0
 10 15  1  0  0  0  0
 11 12  1  0  0  0  0
 11 13  1  0  0  0  0
 11 14  1  0  0  0  0
 15 16  2  0  0  0  0
 15 35  1  0  0  0  0
 16 17  1  0  0  0  0
 16 36  1  0  0  0  0
 17 18  2  0  0  0  0
 19 24  1  0  0  0  0
 19 20  1  0  0  0  0
 20 21  1  0  0  0  0
 20 37  1  0  0  0  0
 20 38  1  0  0  0  0
 21 22  1  0  0  0  0
 21 39  1  0  0  0  0
 21 40  1  0  0  0  0
 22 23  1  0  0  0  0
 23 24  1  0  0  0  0
 23 41  1  0  0  0  0
 23 42  1  0  0  0  0
 24 43  1  0  0  0  0
 24 44  1  0  0  0  0
M  END
> <s_m_source_file>
AV-unprocessed.smi

> <i_m_source_file_index>
2146

> <i_lp_mmshare_version>
43012

> <i_f3d_flags>
0

> <s_epik_input>
W0NIMl0xW0NIMl1PW0NIMl1bQ0gyXU4xW0NASF0oW0NIM10pW0NIMl1bTkhdQyg9TylbQ0gyXW4yW2NIXWMoQyhGKShGKUYpW2NIXVtjSF1jMj1P

> <s_epik_cmdline>
J2VwaWtfcHl0aG9uJywgJy1waCcsICc3LjAnLCAnLXRuJywgJzgnLCAnLW1hJywgJzIwMCcsICctbWV0YWxfYmluZGluZycsICctaW1hZScsICc8aW5maWxlLm1hZT4nLCAnLW9tYWUnLCAnPG91dGZpbGUubWFlPic=

> <r_lp_tautomer_probability>
1

> <r_epik_Ionization_Penalty>
0.237382

> <r_epik_Ionization_Penalty_Charging>
1.80451e-08

> <r_epik_Ionization_Penalty_Neutral>
0.237382

> <r_epik_State_Penalty>
0.228245

> <r_epik_Charging_Adjusted_Penalty>
0.228245

> <i_epik_Tot_Q>
0

> <i_epik_Tot_abs_Q>
0

> <r_epik_Metal_State_Penalty>
0.22822

> <b_epik_Metal_Only>
0

> <s_lp_Force_Field>
OPLS_2005

> <r_lp_Energy>
40.9895

> <b_lp_Chiralities_Consistent>
1

> <s_lp_Variant>
AV-unprocessed.smi:2146-2

> <Gold.Version>
5.8.1

> <Gold.Id.Protein>
6NUR|6NUR_protein|mol2

> <Gold.PLP.Fitness>
45.1080

> <Gold.PLP.PLP>
-48.6951

> <Gold.PLP.part.hbond>
0.0000

> <Gold.PLP.part.metal>
0.0000

> <Gold.PLP.part.buried>
-5.5726

> <Gold.PLP.part.nonpolar>
-42.8937

> <Gold.PLP.part.repulsive>
0.1986

> <Gold.PLP.ligand.clash>
1.7440

> <Gold.PLP.ligand.torsion>
0.9715

> <Gold.PLP.Chemscore.Hbond>
0.0000

> <Gold.PLP.Chemscore.CHOScore>
0.0000

> <Gold.PLP.Chemscore.Metal>
0.0000

> <Gold.PLP.Chemscore.Internal.Correction>
0.1000

> <Gold.Rescore>
     Score         DG    S(hbond)    S(metal)    S(lipo)     H(rot)  DE(clash)    DE(int)     intcor
      8.82     -11.43       0.00        0.00      96.85       2.10       0.00       2.61       ----

> <Gold.Chemscore.Fitness>
8.8164

> <Gold.Chemscore.DG>
-11.4255

> <Gold.Chemscore.ZeroCoef>
-5.4800

> <Gold.Chemscore.Hbond>
0.0000

> <Gold.Chemscore.Metal>
0.0000

> <Gold.Chemscore.Lipo>
96.8505

> <Gold.Chemscore.Internal_Hbond>
0.0000

> <Gold.Chemscore.DEClash>
0.0015

> <Gold.Chemscore.DEInternal>
2.6077

> <Gold.Chemscore.Rot>
2.1039

> <Gold.Chemscore.Internal.Correction>
   9.000000E+99

> <Gold.Chemscore.Hbond.Weighted>
-0.0000

> <Gold.Chemscore.Metal.Weighted>
-0.0000

> <Gold.Chemscore.Lipo.Weighted>
-11.3315

> <Gold.Chemscore.Internal_Hbond.Weighted>
0.0000

> <Gold.Chemscore.DEClash.Weighted>
0.0015

> <Gold.Chemscore.DEInternal.Weighted>
2.6077

> <Gold.Chemscore.Rot.Weighted>
5.3860

> <Gold.Chemscore.Internal.Correction.Weighted>
   9.000000E+99

> <Gold.Protein.RotatedTorsions>
[ 6907 6896 6895 6894 ] final  -41.18 input  -60.11 | X-H torsion
[ 7974 7965 7964 7962 ] final -129.90 input  175.53 | X-H torsion
[ 8008 7997 7996 7995 ] final   58.49 input   59.86 | X-H torsion
[ 10167 10162 10161 10158 ] final  176.19 input  -65.29 | X-H torsion
[ 10718 10713 10712 10709 ] final -129.82 input   66.30 | X-H torsion
[ 10763 10752 10751 10750 ] final  114.03 input  -60.55 | X-H torsion
[ 11005 11000 10999 10996 ] final   16.02 input  -57.11 | X-H torsion

> <Gold.Protein.ActiveResidues>
 VAL166  LYS551  ARG553  GLY616  TRP617  ASP618  TYR619  PRO620  LYS621  CYS622 
 ASP623  PHE694  ASN695  SER759  ASP760  ASP761  ALA762  ILE779  LEU786  VAL792 
 PHE793  MET794  SER795  GLU796  ALA797  LYS798  CYS799  TRP800  GLU811  SER814 

> <Gold.Protein.RotatedAtoms>
  150.9697  134.9072  159.7780 H   0  0  0  0  0  0  0  0  0  0  0  0  # atno 6907 bound_to 6896
  152.5186  134.3558  159.9277 H   0  0  0  0  0  0  0  0  0  0  0  0  # atno 6908 bound_to 6896
  151.3567  133.3864  159.2720 H   0  0  0  0  0  0  0  0  0  0  0  0  # atno 6909 bound_to 6896
  144.9527  140.7362  143.4777 H   0  0  0  0  0  0  0  0  0  0  0  0  # atno 7974 bound_to 7965
  155.5508  140.3486  155.4468 H   0  0  0  0  0  0  0  0  0  0  0  0  # atno 8008 bound_to 7997
  156.0585  140.1334  156.9995 H   0  0  0  0  0  0  0  0  0  0  0  0  # atno 8009 bound_to 7997
  154.4468  140.0990  156.6466 H   0  0  0  0  0  0  0  0  0  0  0  0  # atno 8010 bound_to 7997
  139.5205  144.2944  152.0435 H   0  0  0  0  0  0  0  0  0  0  0  0  # atno 10167 bound_to 10162
  156.2084  130.6902  151.0621 H   0  0  0  0  0  0  0  0  0  0  0  0  # atno 10718 bound_to 10713
  153.5013  135.3637  155.2541 H   0  0  0  0  0  0  0  0  0  0  0  0  # atno 10763 bound_to 10752
  154.8747  135.4000  154.3475 H   0  0  0  0  0  0  0  0  0  0  0  0  # atno 10764 bound_to 10752
  153.4112  135.7078  153.6424 H   0  0  0  0  0  0  0  0  0  0  0  0  # atno 10765 bound_to 10752
  140.4518  134.1217  155.7703 H   0  0  0  0  0  0  0  0  0  0  0  0  # atno 11005 bound_to 11000
  145.2819  139.1915  143.4786 LP  0  0  0  0  0  0  0  0  0  0  0  0  # atno 17320 bound_to 7965
  146.3326  140.2782  142.8609 LP  0  0  0  0  0  0  0  0  0  0  0  0  # atno 17321 bound_to 7965
  140.2394  144.4285  150.6266 LP  0  0  0  0  0  0  0  0  0  0  0  0  # atno 17342 bound_to 10162
  140.6301  143.2186  151.6514 LP  0  0  0  0  0  0  0  0  0  0  0  0  # atno 17343 bound_to 10162
  157.7025  131.0770  150.6775 LP  0  0  0  0  0  0  0  0  0  0  0  0  # atno 17370 bound_to 10713
  156.6834  130.4574  149.5621 LP  0  0  0  0  0  0  0  0  0  0  0  0  # atno 17371 bound_to 10713
  141.1661  133.8700  157.1711 LP  0  0  0  0  0  0  0  0  0  0  0  0  # atno 17394 bound_to 11000
  140.0002  135.0031  157.0173 LP  0  0  0  0  0  0  0  0  0  0  0  0  # atno 17395 bound_to 11000

$$$$
