#       Name:                AV-unprocessed.smi:82
#       Creating user name   scv26
#       Creation time:       Thu Mar 26 17:17:54 2020


#       File generated by GOLD software.
#

@<TRIPOS>MOLECULE
AV-unprocessed.smi:82
    69    72     1
SMALL
NO_CHARGES


@<TRIPOS>ATOM
      1 ****        -8.3663   2.7058  -2.6991 C.3            1 S1                 0.0000
      2 ****        -7.5699   1.9047  -1.8436 O.3            1 S1                 0.0000
      3 ****        -6.1878   2.2005  -1.9524 C.3            1 S1                 0.0000
      4 ****        -5.4126   1.2596  -1.0152 C.3            1 S1                 0.0000
      5 ****        -3.9514   1.3933  -1.0720 N.3            1 S1                 0.0000
      6 ****        -3.3299   0.0809  -0.8710 C.3            1 S1                 0.0000
      7 ****        -1.8010   0.1222  -1.0000 C.3            1 S1                 0.0000
      8 ****        -1.2525   1.0811  -0.0476 N.3            1 S1                 0.0000
      9 ****         0.0915   1.0050   0.1283 C.ar           1 S1                 0.0000
     10 ****         0.8814   2.0654  -0.1917 N.ar           1 S1                 0.0000
     11 ****         2.2055   1.9958  -0.0263 C.ar           1 S1                 0.0000
     12 ****         2.9366   0.9801   0.4362 N.ar           1 S1                 0.0000
     13 ****         2.1515  -0.0858   0.7639 C.ar           1 S1                 0.0000
     14 ****         0.7339  -0.1546   0.6479 C.ar           1 S1                 0.0000
     15 ****         0.2825  -1.3863   1.1074 N.2            1 S1                 0.0000
     16 ****         1.3699  -2.0103   1.4692 C.2            1 S1                 0.0000
     17 ****         2.5410  -1.3147   1.2689 N.pl3          1 S1                 0.0000
     18 ****         3.8646  -1.7460   1.6142 C.3            1 S1                 0.0000
     19 ****         5.0473  -1.4950   0.6738 C.3            1 S1                 0.0000
     20 ****         5.6591  -2.8617   1.0556 C.3            1 S1                 0.0000
     21 ****         6.1517  -3.6907  -0.1409 C.3            1 S1                 0.0000
     22 ****         6.3162  -5.0513   0.2048 O.3            1 S1                 0.0000
     23 ****         6.8046  -2.8330   2.0918 C.3            1 S1                 0.0000
     24 ****         6.5070  -2.0548   3.2333 O.3            1 S1                 0.0000
     25 ****         4.2501  -3.2281   1.5722 C.3            1 S1                 0.0000
     26 ****        -1.8587   2.4067  -0.1642 C.3            1 S1                 0.0000
     27 ****        -3.3997   2.3244  -0.0624 C.3            1 S1                 0.0000
     28 ****        -3.9564   3.7576  -0.1186 C.3            1 S1                 0.0000
     29 ****        -9.4162   2.4396  -2.5780 H              1 S1                 0.0000
     30 ****        -8.0986   2.5524  -3.7454 H              1 S1                 0.0000
     31 ****        -8.2580   3.7648  -2.4614 H              1 S1                 0.0000
     32 ****        -5.8580   2.0458  -2.9810 H              1 S1                 0.0000
     33 ****        -6.0229   3.2494  -1.7161 H              1 S1                 0.0000
     34 ****        -5.7624   1.3700   0.0121 H              1 S1                 0.0000
     35 ****        -5.6973   0.2477  -1.3073 H              1 S1                 0.0000
     36 ****        -3.6036  -0.3147   0.1087 H              1 S1                 0.0000
     37 ****        -3.7143  -0.6254  -1.6078 H              1 S1                 0.0000
     38 ****        -1.3992  -0.8773  -0.8382 H              1 S1                 0.0000
     39 ****        -1.5169   0.4182  -2.0108 H              1 S1                 0.0000
     40 ****         2.7585   2.8799  -0.3076 H              1 S1                 0.0000
     41 ****         1.3453  -3.0046   1.8912 H              1 S1                 0.0000
     42 ****         4.0635  -1.3262   2.6009 H              1 S1                 0.0000
     43 ****         4.7378  -1.4427  -0.3713 H              1 S1                 0.0000
     44 ****         5.6543  -0.6290   0.9400 H              1 S1                 0.0000
     45 ****         5.4408  -3.6429  -0.9664 H              1 S1                 0.0000
     46 ****         7.0969  -3.3063  -0.5259 H              1 S1                 0.0000
     47 ****         6.5990  -5.5241  -0.5632 H              1 S1                 0.0000
     48 ****         7.0425  -3.8387   2.4389 H              1 S1                 0.0000
     49 ****         7.7168  -2.4327   1.6478 H              1 S1                 0.0000
     50 ****         7.2464  -2.0890   3.8209 H              1 S1                 0.0000
     51 ****         4.2343  -3.7244   2.5431 H              1 S1                 0.0000
     52 ****         3.6679  -3.7894   0.8394 H              1 S1                 0.0000
     53 ****        -1.4731   3.0490   0.6288 H              1 S1                 0.0000
     54 ****        -1.5694   2.8571  -1.1152 H              1 S1                 0.0000
     55 ****        -3.6363   1.9343   0.9292 H              1 S1                 0.0000
     56 ****        -3.4191   4.4136   0.5670 H              1 S1                 0.0000
     57 ****        -5.0029   3.7930   0.1825 H              1 S1                 0.0000
     58 ****        -3.8654   4.1829  -1.1186 H              1 S1                 0.0000
     59 ****        -7.7116   0.9436  -2.0807 LP             1 S1                 0.0000
     60 ****        -7.8576   2.0608  -0.8987 LP             1 S1                 0.0000
     61 ****        -3.7426   1.7692  -1.9748 LP             1 S1                 0.0000
     62 ****        -1.5528   0.7903   0.8609 LP             1 S1                 0.0000
     63 ****         0.4688   2.9017  -0.5527 LP             1 S1                 0.0000
     64 ****         3.9320   0.9981   0.5304 LP             1 S1                 0.0000
     65 ****        -0.6598  -1.7182   1.1508 LP             1 S1                 0.0000
     66 ****         5.4470  -5.4243   0.5294 LP             1 S1                 0.0000
     67 ****         7.0047  -5.1354   0.9252 LP             1 S1                 0.0000
     68 ****         5.6964  -2.4217   3.6896 LP             1 S1                 0.0000
     69 ****         6.3363  -1.1079   2.9608 LP             1 S1                 0.0000
@<TRIPOS>BOND
    1    1    2 1     
    2    1   29 1     
    3    1   30 1     
    4    1   31 1     
    5    2    3 1     
    6    3    4 1     
    7    3   32 1     
    8    3   33 1     
    9    4    5 1     
   10    4   34 1     
   11    4   35 1     
   12    5   27 1     
   13    5    6 1     
   14    6    7 1     
   15    6   36 1     
   16    6   37 1     
   17    7    8 1     
   18    7   38 1     
   19    7   39 1     
   20    8    9 1     
   21    8   26 1     
   22    9   14 ar    
   23    9   10 ar    
   24   10   11 ar    
   25   11   12 ar    
   26   11   40 1     
   27   12   13 ar    
   28   13   17 1     
   29   13   14 ar    
   30   14   15 1     
   31   15   16 2     
   32   16   17 1     
   33   16   41 1     
   34   17   18 1     
   35   18   25 1     
   36   18   19 1     
   37   18   42 1     
   38   19   20 1     
   39   19   43 1     
   40   19   44 1     
   41   20   21 1     
   42   20   23 1     
   43   20   25 1     
   44   21   22 1     
   45   21   45 1     
   46   21   46 1     
   47   22   47 1     
   48   23   24 1     
   49   23   48 1     
   50   23   49 1     
   51   24   50 1     
   52   25   51 1     
   53   25   52 1     
   54   26   27 1     
   55   26   53 1     
   56   26   54 1     
   57   27   28 1     
   58   27   55 1     
   59   28   56 1     
   60   28   57 1     
   61   28   58 1     
   62    2   59 1     
   63    2   60 1     
   64    5   61 1     
   65    8   62 1     
   66   10   63 1     
   67   12   64 1     
   68   15   65 1     
   69   22   66 1     
   70   22   67 1     
   71   24   68 1     
   72   24   69 1     
@<TRIPOS>SUBSTRUCTURE
      1 S1             1
@<TRIPOS>SET
LONE_PAIRS      STATIC     ATOMS    <user>   **** ""
11 59 60 61 62 63 64 65 66 67 68 69
DONOR_HYDROGENS      STATIC     ATOMS    <user>   **** ""
2 47 50
ATOM$BLUE        STATIC     ATOMS    COLORGROUP SYSTEM
11 59 60 61 62 63 64 65 66 67 68 69
ATOM$RED        STATIC     ATOMS    COLORGROUP SYSTEM
2 47 50
