AV-unprocessed.smi:2239|AV-procd|sdf|9056|dock1
  -GOLD-   2272012263D 1   1.00000     0.00000
 Structure written by MMmdl.
 33 34  0  0  0  0  0  0  0  0  1 V2000
  153.6103  141.0087  159.9949 C   0  0  0  0  0  0  0  0  0  0  0  0
  152.8699  142.2090  159.4434 C   0  0  0  0  0  0  0  0  0  0  0  0
  153.1150  143.5040  159.9403 C   0  0  0  0  0  0  0  0  0  0  0  0
  152.3897  144.5741  159.3867 C   0  0  0  0  0  0  0  0  0  0  0  0
  151.4560  144.3074  158.3666 C   0  0  0  0  0  0  0  0  0  0  0  0
  151.2702  142.9782  157.9246 C   0  0  0  0  0  0  0  0  0  0  0  0
  150.3044  142.8138  156.8962 N   0  0  0  0  0  0  0  0  0  0  0  0
  150.0089  141.6985  156.2055 C   0  0  0  0  0  0  0  0  0  0  0  0
  150.5625  140.6070  156.3424 O   0  0  0  0  0  0  0  0  0  0  0  0
  149.0161  141.9176  155.3310 N   0  0  0  0  0  0  0  0  0  0  0  0
  148.4477  140.9113  154.4395 C   0  0  0  0  0  0  0  0  0  0  0  0
  147.1659  141.3982  153.7387 C   0  0  0  0  0  0  0  0  0  0  0  0
  146.4851  142.5487  154.4580 C   0  0  0  0  0  0  0  0  0  0  0  0
  145.0507  142.4473  154.9231 C   0  0  0  0  0  0  0  0  0  0  0  0
  145.4099  143.3568  153.7714 C   0  0  0  0  0  0  0  0  0  0  0  0
  151.9746  141.9530  158.4655 N   0  0  0  0  0  0  0  0  0  0  0  0
  154.4181  141.3144  160.6605 H   0  0  0  0  0  0  0  0  0  0  0  0
  154.0425  140.4211  159.1844 H   0  0  0  0  0  0  0  0  0  0  0  0
  152.9279  140.3705  160.5568 H   0  0  0  0  0  0  0  0  0  0  0  0
  153.8375  143.6755  160.7247 H   0  0  0  0  0  0  0  0  0  0  0  0
  152.5457  145.5833  159.7382 H   0  0  0  0  0  0  0  0  0  0  0  0
  150.8908  145.1185  157.9309 H   0  0  0  0  0  0  0  0  0  0  0  0
  149.7718  143.6392  156.6653 H   0  0  0  0  0  0  0  0  0  0  0  0
  148.6189  142.8444  155.2825 H   0  0  0  0  0  0  0  0  0  0  0  0
  149.2005  140.6530  153.6946 H   0  0  0  0  0  0  0  0  0  0  0  0
  148.2441  139.9967  154.9987 H   0  0  0  0  0  0  0  0  0  0  0  0
  147.4117  141.7271  152.7287 H   0  0  0  0  0  0  0  0  0  0  0  0
  146.4606  140.5735  153.6275 H   0  0  0  0  0  0  0  0  0  0  0  0
  147.1548  143.1137  155.1035 H   0  0  0  0  0  0  0  0  0  0  0  0
  144.5036  141.5359  154.6901 H   0  0  0  0  0  0  0  0  0  0  0  0
  144.7977  142.9133  155.8731 H   0  0  0  0  0  0  0  0  0  0  0  0
  145.3945  144.4296  153.9533 H   0  0  0  0  0  0  0  0  0  0  0  0
  145.0989  143.0485  152.7752 H   0  0  0  0  0  0  0  0  0  0  0  0
  1  2  1  0  0  0  0
  1 17  1  0  0  0  0
  1 18  1  0  0  0  0
  1 19  1  0  0  0  0
  2 16  1  0  0  0  0
  2  3  2  0  0  0  0
  3  4  1  0  0  0  0
  3 20  1  0  0  0  0
  4  5  2  0  0  0  0
  4 21  1  0  0  0  0
  5  6  1  0  0  0  0
  5 22  1  0  0  0  0
  6  7  1  0  0  0  0
  6 16  2  0  0  0  0
  7  8  1  0  0  0  0
  7 23  1  0  0  0  0
  8  9  2  0  0  0  0
  8 10  1  0  0  0  0
 10 11  1  0  0  0  0
 10 24  1  0  0  0  0
 11 12  1  0  0  0  0
 11 25  1  0  0  0  0
 11 26  1  0  0  0  0
 12 13  1  0  0  0  0
 12 27  1  0  0  0  0
 12 28  1  0  0  0  0
 13 15  1  0  0  0  0
 13 14  1  0  0  0  0
 13 29  1  0  0  0  0
 14 15  1  0  0  0  0
 14 30  1  0  0  0  0
 14 31  1  0  0  0  0
 15 32  1  0  0  0  0
 15 33  1  0  0  0  0
M  END
> <s_m_source_file>
AV-unprocessed.smi

> <i_m_source_file_index>
2239

> <i_lp_mmshare_version>
43012

> <i_f3d_flags>
0

> <s_epik_input>
W0NIM11jMVtjSF1bY0hdW2NIXWMobjEpW05IXUMoPU8pW05IXVtDSDJdW0NIMl1bQ0hdMltDSDJdW0NIMl0y

> <s_epik_cmdline>
J2VwaWtfcHl0aG9uJywgJy1waCcsICc3LjAnLCAnLXRuJywgJzgnLCAnLW1hJywgJzIwMCcsICctbWV0YWxfYmluZGluZycsICctaW1hZScsICc8aW5maWxlLm1hZT4nLCAnLW9tYWUnLCAnPG91dGZpbGUubWFlPic=

> <r_lp_tautomer_probability>
1

> <r_epik_Ionization_Penalty>
8.79162e-05

> <r_epik_Ionization_Penalty_Charging>
0

> <r_epik_Ionization_Penalty_Neutral>
8.79162e-05

> <r_epik_State_Penalty>
-0

> <r_epik_Charging_Adjusted_Penalty>
0

> <i_epik_Tot_Q>
0

> <i_epik_Tot_abs_Q>
0

> <r_epik_Metal_State_Penalty>
-0

> <b_epik_Metal_Only>
0

> <s_lp_Force_Field>
OPLS_2005

> <r_lp_Energy>
14.6393

> <b_lp_Chiralities_Consistent>
1

> <s_lp_Variant>
AV-unprocessed.smi:2239-1

> <Gold.Version>
5.8.1

> <Gold.Id.Protein>
6NUR|6NUR_protein|mol2

> <Gold.PLP.Fitness>
46.6694

> <Gold.PLP.PLP>
-41.6349

> <Gold.PLP.part.hbond>
-2.0000

> <Gold.PLP.part.metal>
0.0000

> <Gold.PLP.part.buried>
-6.5421

> <Gold.PLP.part.nonpolar>
-34.6671

> <Gold.PLP.part.repulsive>
0.2217

> <Gold.PLP.ligand.clash>
0.0000

> <Gold.PLP.ligand.torsion>
0.7498

> <Gold.PLP.Chemscore.Hbond>
1.9920

> <Gold.PLP.Chemscore.CHOScore>
0.0000

> <Gold.PLP.Chemscore.Metal>
0.0000

> <Gold.Chemscore.Hbonds>
donor molecule, donor type, donor heavy atom, donor atom, acceptor molecule, acceptor atom, score
      L1  H     7    23       P1  8028  1.00
      L1  H    10    24       P1  8028  0.94

> <Gold.PLP.Chemscore.Internal.Correction>
0.5580

> <Gold.Rescore>
     Score         DG    S(hbond)    S(metal)    S(lipo)     H(rot)  DE(clash)    DE(int)     intcor
     17.33     -19.37       1.96        0.00      92.67       1.37       0.06       1.98       ----

> <Gold.Chemscore.Fitness>
17.3280

> <Gold.Chemscore.DG>
-19.3709

> <Gold.Chemscore.ZeroCoef>
-5.4800

> <Gold.Chemscore.Hbond>
1.9616

> <Gold.Chemscore.Metal>
0.0000

> <Gold.Chemscore.Lipo>
92.6666

> <Gold.Chemscore.Internal_Hbond>
0.0000

> <Gold.Chemscore.DEClash>
0.0594

> <Gold.Chemscore.DEInternal>
1.9836

> <Gold.Chemscore.Rot>
1.3682

> <Gold.Chemscore.Internal.Correction>
   9.000000E+99

> <Gold.Chemscore.Hbonds>
donor molecule, donor type, donor heavy atom, donor atom, acceptor molecule, acceptor atom, score
      L1  H     7    23       P1  8028  0.99
      L1  H    10    24       P1  8028  0.91

> <Gold.Chemscore.Hbond.Weighted>
-6.5516

> <Gold.Chemscore.Metal.Weighted>
-0.0000

> <Gold.Chemscore.Lipo.Weighted>
-10.8420

> <Gold.Chemscore.Internal_Hbond.Weighted>
0.0000

> <Gold.Chemscore.DEClash.Weighted>
0.0594

> <Gold.Chemscore.DEInternal.Weighted>
1.9836

> <Gold.Chemscore.Rot.Weighted>
3.5027

> <Gold.Chemscore.Internal.Correction.Weighted>
   9.000000E+99

> <Gold.Protein.RotatedTorsions>
[ 6907 6896 6895 6894 ] final   81.38 input  -60.11 | X-H torsion
[ 7974 7965 7964 7962 ] final   15.44 input  175.53 | X-H torsion
[ 8008 7997 7996 7995 ] final   -5.32 input   59.86 | X-H torsion
[ 10167 10162 10161 10158 ] final   84.30 input  -65.29 | X-H torsion
[ 10718 10713 10712 10709 ] final  146.52 input   66.30 | X-H torsion
[ 10763 10752 10751 10750 ] final  -25.49 input  -60.55 | X-H torsion
[ 11005 11000 10999 10996 ] final -149.78 input  -57.11 | X-H torsion

> <Gold.Protein.ActiveResidues>
 VAL166  LYS551  ARG553  GLY616  TRP617  ASP618  TYR619  PRO620  LYS621  CYS622 
 ASP623  PHE694  ASN695  SER759  ASP760  ASP761  ALA762  ILE779  LEU786  VAL792 
 PHE793  MET794  SER795  GLU796  ALA797  LYS798  CYS799  TRP800  GLU811  SER814 

> <Gold.Protein.RotatedAtoms>
  152.5266  134.3212  159.9148 H   0  0  0  0  0  0  0  0  0  0  0  0  # atno 6907 bound_to 6896
  151.3162  133.4053  159.2658 H   0  0  0  0  0  0  0  0  0  0  0  0  # atno 6908 bound_to 6896
  150.9997  134.9329  159.8004 H   0  0  0  0  0  0  0  0  0  0  0  0  # atno 6909 bound_to 6896
  146.2278  139.8894  142.8557 H   0  0  0  0  0  0  0  0  0  0  0  0  # atno 7974 bound_to 7965
  154.6051  140.2461  155.7741 H   0  0  0  0  0  0  0  0  0  0  0  0  # atno 8008 bound_to 7997
  156.2336  140.2958  156.0204 H   0  0  0  0  0  0  0  0  0  0  0  0  # atno 8009 bound_to 7997
  155.2145  140.0398  157.2929 H   0  0  0  0  0  0  0  0  0  0  0  0  # atno 8010 bound_to 7997
  139.9095  144.6280  150.8552 H   0  0  0  0  0  0  0  0  0  0  0  0  # atno 10167 bound_to 10162
  157.3322  131.0922  151.1153 H   0  0  0  0  0  0  0  0  0  0  0  0  # atno 10718 bound_to 10713
  153.7007  135.6956  153.5064 H   0  0  0  0  0  0  0  0  0  0  0  0  # atno 10763 bound_to 10752
  153.2344  135.4326  155.0630 H   0  0  0  0  0  0  0  0  0  0  0  0  # atno 10764 bound_to 10752
  154.8345  135.3492  154.6546 H   0  0  0  0  0  0  0  0  0  0  0  0  # atno 10765 bound_to 10752
  140.7471  134.3448  157.5134 H   0  0  0  0  0  0  0  0  0  0  0  0  # atno 11005 bound_to 11000
  145.2433  141.0017  143.3923 LP  0  0  0  0  0  0  0  0  0  0  0  0  # atno 17320 bound_to 7965
  144.9434  139.4163  143.6438 LP  0  0  0  0  0  0  0  0  0  0  0  0  # atno 17321 bound_to 7965
  140.7688  143.3376  151.2275 LP  0  0  0  0  0  0  0  0  0  0  0  0  # atno 17342 bound_to 10162
  139.6955  143.9620  152.2880 LP  0  0  0  0  0  0  0  0  0  0  0  0  # atno 17343 bound_to 10162
  157.2397  130.6563  149.5884 LP  0  0  0  0  0  0  0  0  0  0  0  0  # atno 17370 bound_to 10713
  155.9697  130.4572  150.5954 LP  0  0  0  0  0  0  0  0  0  0  0  0  # atno 17371 bound_to 10713
  139.8794  134.9118  156.3046 LP  0  0  0  0  0  0  0  0  0  0  0  0  # atno 17394 bound_to 11000
  140.9784  133.7283  156.0636 LP  0  0  0  0  0  0  0  0  0  0  0  0  # atno 17395 bound_to 11000

$$$$
