AV-unprocessed.smi:1047|AV-procd|sdf|4569|dock9
  -GOLD-   22720 3 23D 1   1.00000     0.00000
 Structure written by MMmdl.
 56 58  0  0  0  0  0  0  0  0  2 V2000
  143.5169  144.6334  162.0557 C   0  0  0  0  0  0  0  0  0  0  0  0
  143.7444  143.1202  161.9281 C   0  0  0  0  0  0  0  0  0  0  0  0
  144.2102  142.6751  160.6155 N   0  0  0  0  0  0  0  0  0  0  0  0
  144.2146  141.2190  160.5302 C   0  0  0  0  0  0  0  0  0  0  0  0
  144.7036  140.7270  159.1584 C   0  0  0  0  0  0  0  0  0  0  0  0
  145.9999  141.2560  158.9008 O   0  0  0  0  0  0  0  0  0  0  0  0
  146.0342  142.6812  158.9175 C   0  0  2  0  0  0  0  0  0  0  0  0
  147.4734  143.1282  158.6286 C   0  0  0  0  0  0  0  0  0  0  0  0
  147.9646  142.5621  157.3566 N   0  3  0  0  0  0  0  0  0  0  0  0
  149.0299  141.5545  157.5244 C   0  0  0  0  0  0  0  0  0  0  0  0
  150.2522  141.8700  156.6422 C   0  0  2  0  0  0  0  0  0  0  0  0
  149.8215  142.0190  155.3029 O   0  0  0  0  0  0  0  0  0  0  0  0
  151.3526  140.7874  156.7027 C   0  0  0  0  0  0  0  0  0  0  0  0
  151.9847  140.6724  158.0076 N   0  0  0  0  0  0  0  0  0  0  0  0
  152.5564  139.5736  158.5378 C   0  0  0  0  0  0  0  0  0  0  0  0
  153.0672  139.6819  159.7605 N   0  0  0  0  0  0  0  0  0  0  0  0
  152.8075  141.0090  160.0553 C   0  0  0  0  0  0  0  0  0  0  0  0
  153.0929  141.7634  161.2144 C   0  0  0  0  0  0  0  0  0  0  0  0
  152.7265  143.1253  161.3013 C   0  0  0  0  0  0  0  0  0  0  0  0
  153.0463  143.8965  162.5698 C   0  0  0  0  0  0  0  0  0  0  0  0
  152.0680  143.7546  160.2146 C   0  0  0  0  0  0  0  0  0  0  0  0
  151.6649  145.2170  160.2856 C   0  0  0  0  0  0  0  0  0  0  0  0
  151.7781  143.0166  159.0482 C   0  0  0  0  0  0  0  0  0  0  0  0
  152.1396  141.6593  158.9765 C   0  0  0  0  0  0  0  0  0  0  0  0
  145.5462  143.1726  160.2959 C   0  0  0  0  0  0  0  0  0  0  0  0
  143.0656  144.8716  163.0190 H   0  0  0  0  0  0  0  0  0  0  0  0
  142.8455  144.9972  161.2774 H   0  0  0  0  0  0  0  0  0  0  0  0
  144.4490  145.1941  161.9888 H   0  0  0  0  0  0  0  0  0  0  0  0
  144.4402  142.7904  162.7013 H   0  0  0  0  0  0  0  0  0  0  0  0
  142.7961  142.6288  162.1494 H   0  0  0  0  0  0  0  0  0  0  0  0
  144.8549  140.8044  161.3105 H   0  0  0  0  0  0  0  0  0  0  0  0
  143.2110  140.8332  160.7138 H   0  0  0  0  0  0  0  0  0  0  0  0
  144.7524  139.6383  159.1410 H   0  0  0  0  0  0  0  0  0  0  0  0
  144.0143  141.0314  158.3692 H   0  0  0  0  0  0  0  0  0  0  0  0
  145.3718  143.0690  158.1413 H   0  0  0  0  0  0  0  0  0  0  0  0
  147.5165  144.2162  158.5634 H   0  0  0  0  0  0  0  0  0  0  0  0
  148.1316  142.8283  159.4452 H   0  0  0  0  0  0  0  0  0  0  0  0
  147.1882  142.1254  156.8794 H   0  0  0  0  0  0  0  0  0  0  0  0
  149.3285  141.5480  158.5732 H   0  0  0  0  0  0  0  0  0  0  0  0
  148.6321  140.5642  157.2971 H   0  0  0  0  0  0  0  0  0  0  0  0
  150.6887  142.8179  156.9598 H   0  0  0  0  0  0  0  0  0  0  0  0
  149.5134  142.9044  155.1807 H   0  0  0  0  0  0  0  0  0  0  0  0
  150.9395  139.8145  156.4320 H   0  0  0  0  0  0  0  0  0  0  0  0
  152.1269  141.0039  155.9660 H   0  0  0  0  0  0  0  0  0  0  0  0
  152.5909  138.6378  157.9985 H   0  0  0  0  0  0  0  0  0  0  0  0
  153.5958  141.2843  162.0415 H   0  0  0  0  0  0  0  0  0  0  0  0
  153.6759  144.7583  162.3467 H   0  0  0  0  0  0  0  0  0  0  0  0
  153.5765  143.2744  163.2913 H   0  0  0  0  0  0  0  0  0  0  0  0
  152.1293  144.2494  163.0424 H   0  0  0  0  0  0  0  0  0  0  0  0
  151.1780  145.5414  159.3655 H   0  0  0  0  0  0  0  0  0  0  0  0
  152.5402  145.8482  160.4400 H   0  0  0  0  0  0  0  0  0  0  0  0
  150.9691  145.3818  161.1087 H   0  0  0  0  0  0  0  0  0  0  0  0
  151.2778  143.4861  158.2146 H   0  0  0  0  0  0  0  0  0  0  0  0
  145.5502  144.2624  160.2986 H   0  0  0  0  0  0  0  0  0  0  0  0
  146.2514  142.8557  161.0662 H   0  0  0  0  0  0  0  0  0  0  0  0
  148.3150  143.3134  156.7796 H   0  0  0  0  0  0  0  0  0  0  0  0
  1  2  1  0  0  0  0
  1 26  1  0  0  0  0
  1 27  1  0  0  0  0
  1 28  1  0  0  0  0
  2  3  1  0  0  0  0
  2 29  1  0  0  0  0
  2 30  1  0  0  0  0
  3 25  1  0  0  0  0
  3  4  1  0  0  0  0
  4  5  1  0  0  0  0
  4 31  1  0  0  0  0
  4 32  1  0  0  0  0
  5  6  1  0  0  0  0
  5 33  1  0  0  0  0
  5 34  1  0  0  0  0
  6  7  1  0  0  0  0
  7  8  1  0  0  0  0
  7 25  1  0  0  0  0
  7 35  1  0  0  0  0
  8  9  1  0  0  0  0
  8 36  1  0  0  0  0
  8 37  1  0  0  0  0
  9 10  1  0  0  0  0
  9 38  1  0  0  0  0
  9 56  1  0  0  0  0
 10 11  1  0  0  0  0
 10 39  1  0  0  0  0
 10 40  1  0  0  0  0
 11 12  1  0  0  0  0
 11 13  1  0  0  0  0
 11 41  1  0  0  0  0
 12 42  1  0  0  0  0
 13 14  1  0  0  0  0
 13 43  1  0  0  0  0
 13 44  1  0  0  0  0
 14 24  1  0  0  0  0
 14 15  1  0  0  0  0
 15 16  2  0  0  0  0
 15 45  1  0  0  0  0
 16 17  1  0  0  0  0
 17 24  2  0  0  0  0
 17 18  1  0  0  0  0
 18 19  2  0  0  0  0
 18 46  1  0  0  0  0
 19 20  1  0  0  0  0
 19 21  1  0  0  0  0
 20 47  1  0  0  0  0
 20 48  1  0  0  0  0
 20 49  1  0  0  0  0
 21 22  1  0  0  0  0
 21 23  2  0  0  0  0
 22 50  1  0  0  0  0
 22 51  1  0  0  0  0
 22 52  1  0  0  0  0
 23 24  1  0  0  0  0
 23 53  1  0  0  0  0
 25 54  1  0  0  0  0
 25 55  1  0  0  0  0
M  CHG  1   9   1
M  END
> <s_m_source_file>
AV-unprocessed.smi

> <i_m_source_file_index>
1047

> <i_lp_mmshare_version>
43012

> <i_f3d_flags>
0

> <s_epik_input>
W0NIM11bQ0gyXU4xW0NIMl1bQ0gyXU9bQ0BIXShbQ0gyXTEpW0NIMl1bTkhdW0NIMl1bQ0BIXShbT0hdKVtDSDJdbihbY0hdbjIpYyhjMjMpW2NIXWMoW0NIM10pYyhbY0hdMylbQ0gzXQ==

> <s_epik_cmdline>
J2VwaWtfcHl0aG9uJywgJy1waCcsICc3LjAnLCAnLXRuJywgJzgnLCAnLW1hJywgJzIwMCcsICctbWV0YWxfYmluZGluZycsICctaW1hZScsICc8aW5maWxlLm1hZT4nLCAnLW9tYWUnLCAnPG91dGZpbGUubWFlPic=

> <r_epik_Ionization_Penalty>
0.692425

> <r_epik_Ionization_Penalty_Charging>
0.0243549

> <r_epik_Ionization_Penalty_Neutral>
0.66807

> <r_epik_State_Penalty>
0.592789

> <r_epik_Charging_Adjusted_Penalty>
0.617144

> <i_epik_Tot_Q>
1

> <i_epik_Tot_abs_Q>
1

> <r_epik_Metal_State_Penalty>
0.508021

> <b_epik_Metal_Only>
0

> <s_lp_Force_Field>
OPLS_2005

> <r_lp_Energy>
30.0257

> <b_lp_Chiralities_Consistent>
1

> <s_lp_Variant>
AV-unprocessed.smi:1047-10

> <Gold.Version>
5.8.1

> <Gold.Id.Protein>
6NUR|6NUR_protein|mol2

> <Gold.PLP.Fitness>
53.8074

> <Gold.PLP.PLP>
-45.0349

> <Gold.PLP.part.hbond>
-3.0072

> <Gold.PLP.part.metal>
0.0000

> <Gold.PLP.part.buried>
-2.4577

> <Gold.PLP.part.nonpolar>
-39.1054

> <Gold.PLP.part.repulsive>
0.0465

> <Gold.PLP.ligand.clash>
0.0000

> <Gold.PLP.ligand.torsion>
1.1536

> <Gold.PLP.Chemscore.Hbond>
3.6720

> <Gold.PLP.Chemscore.CHOScore>
0.0000

> <Gold.PLP.Chemscore.Metal>
0.0000

> <Gold.Chemscore.Hbonds>
donor molecule, donor type, donor heavy atom, donor atom, acceptor molecule, acceptor atom, score
      L1  H     9    56       P1  8028  2.00
      L1  H    12    42       P1  8028  1.00
      P1  H  6934  6946       L1     6  0.64

> <Gold.PLP.Chemscore.Internal.Correction>
0.0636

> <Gold.Rescore>
     Score         DG    S(hbond)    S(metal)    S(lipo)     H(rot)  DE(clash)    DE(int)     intcor
     15.70     -17.80       1.29        0.00     125.50       2.60       0.28       1.82       ----

> <Gold.Chemscore.Fitness>
15.7004

> <Gold.Chemscore.DG>
-17.7998

> <Gold.Chemscore.ZeroCoef>
-5.4800

> <Gold.Chemscore.Hbond>
1.2890

> <Gold.Chemscore.Metal>
0.0000

> <Gold.Chemscore.Lipo>
125.4960

> <Gold.Chemscore.Internal_Hbond>
0.0000

> <Gold.Chemscore.DEClash>
0.2821

> <Gold.Chemscore.DEInternal>
1.8173

> <Gold.Chemscore.Rot>
2.6049

> <Gold.Chemscore.Internal.Correction>
   9.000000E+99

> <Gold.Chemscore.Hbonds>
donor molecule, donor type, donor heavy atom, donor atom, acceptor molecule, acceptor atom, score
      L1  H     9    56       P1  8028  0.26
      L1  H    12    42       P1  8028  0.97
      P1  H  6934  6946       L1     6  0.05

> <Gold.Chemscore.Hbond.Weighted>
-4.3052

> <Gold.Chemscore.Metal.Weighted>
-0.0000

> <Gold.Chemscore.Lipo.Weighted>
-14.6830

> <Gold.Chemscore.Internal_Hbond.Weighted>
0.0000

> <Gold.Chemscore.DEClash.Weighted>
0.2821

> <Gold.Chemscore.DEInternal.Weighted>
1.8173

> <Gold.Chemscore.Rot.Weighted>
6.6685

> <Gold.Chemscore.Internal.Correction.Weighted>
   9.000000E+99

> <Gold.Protein.RotatedTorsions>
[ 6907 6896 6895 6894 ] final    0.53 input  -60.11 | X-H torsion
[ 7974 7965 7964 7962 ] final   32.03 input  175.53 | X-H torsion
[ 8008 7997 7996 7995 ] final  -16.81 input   59.86 | X-H torsion
[ 10167 10162 10161 10158 ] final    2.06 input  -65.29 | X-H torsion
[ 10718 10713 10712 10709 ] final  -58.90 input   66.30 | X-H torsion
[ 10763 10752 10751 10750 ] final -178.79 input  -60.55 | X-H torsion
[ 11005 11000 10999 10996 ] final  -17.34 input  -57.11 | X-H torsion

> <Gold.Protein.ActiveResidues>
 VAL166  LYS551  ARG553  GLY616  TRP617  ASP618  TYR619  PRO620  LYS621  CYS622 
 ASP623  PHE694  ASN695  SER759  ASP760  ASP761  ALA762  ILE779  LEU786  VAL792 
 PHE793  MET794  SER795  GLU796  ALA797  LYS798  CYS799  TRP800  GLU811  SER814 

> <Gold.Protein.RotatedAtoms>
  151.5779  135.1060  160.0010 H   0  0  0  0  0  0  0  0  0  0  0  0  # atno 6907 bound_to 6896
  152.4369  133.7372  159.6631 H   0  0  0  0  0  0  0  0  0  0  0  0  # atno 6908 bound_to 6896
  150.8268  133.8089  159.3138 H   0  0  0  0  0  0  0  0  0  0  0  0  # atno 6909 bound_to 6896
  146.1513  139.6579  142.9097 H   0  0  0  0  0  0  0  0  0  0  0  0  # atno 7974 bound_to 7965
  154.5025  140.2159  155.9318 H   0  0  0  0  0  0  0  0  0  0  0  0  # atno 8008 bound_to 7997
  156.1452  140.3172  155.8525 H   0  0  0  0  0  0  0  0  0  0  0  0  # atno 8009 bound_to 7997
  155.4045  140.0486  157.3026 H   0  0  0  0  0  0  0  0  0  0  0  0  # atno 8010 bound_to 7997
  140.6653  143.7196  150.7815 H   0  0  0  0  0  0  0  0  0  0  0  0  # atno 10167 bound_to 10162
  156.1100  130.4176  150.0642 H   0  0  0  0  0  0  0  0  0  0  0  0  # atno 10718 bound_to 10713
  154.5433  135.2807  155.1076 H   0  0  0  0  0  0  0  0  0  0  0  0  # atno 10763 bound_to 10752
  154.2550  135.6332  153.5257 H   0  0  0  0  0  0  0  0  0  0  0  0  # atno 10764 bound_to 10752
  152.9984  135.5592  154.5978 H   0  0  0  0  0  0  0  0  0  0  0  0  # atno 10765 bound_to 10752
  140.8159  133.8105  155.9610 H   0  0  0  0  0  0  0  0  0  0  0  0  # atno 11005 bound_to 11000
  145.4817  141.0438  143.2642 LP  0  0  0  0  0  0  0  0  0  0  0  0  # atno 17320 bound_to 7965
  144.7907  139.6334  143.7114 LP  0  0  0  0  0  0  0  0  0  0  0  0  # atno 17321 bound_to 7965
  140.0872  143.4912  152.2498 LP  0  0  0  0  0  0  0  0  0  0  0  0  # atno 17342 bound_to 10162
  139.5900  144.7546  151.3425 LP  0  0  0  0  0  0  0  0  0  0  0  0  # atno 17343 bound_to 10162
  156.8607  130.9491  151.3618 LP  0  0  0  0  0  0  0  0  0  0  0  0  # atno 17370 bound_to 10713
  157.6281  130.8707  149.9225 LP  0  0  0  0  0  0  0  0  0  0  0  0  # atno 17371 bound_to 10713
  140.9150  134.2213  157.4962 LP  0  0  0  0  0  0  0  0  0  0  0  0  # atno 17394 bound_to 11000
  139.8711  134.9767  156.4930 LP  0  0  0  0  0  0  0  0  0  0  0  0  # atno 17395 bound_to 11000

$$$$
