AV-unprocessed.smi:1076|AV-procd|sdf|4700|dock4
  -GOLD-   22720 3223D 1   1.00000     0.00000
 Structure written by MMmdl.
 44 45  0  0  0  0  0  0  0  0  1 V2000
  151.5296  144.8121  158.4768 C   0  0  0  0  0  0  0  0  0  0  0  0
  151.4043  143.3175  158.5446 C   0  0  0  0  0  0  0  0  0  0  0  0
  150.6528  142.4659  157.6858 C   0  0  0  0  0  0  0  0  0  0  0  0
  150.7549  141.1876  158.0109 N   0  0  0  0  0  0  0  0  0  0  0  0
  151.5667  141.1779  159.0895 N   0  0  0  0  0  0  0  0  0  0  0  0
  151.9128  139.9173  159.7237 C   0  0  0  0  0  0  0  0  0  0  0  0
  151.2484  138.7029  159.0435 C   0  0  1  0  0  0  0  0  0  0  0  0
  152.2469  137.5403  158.9014 C   0  0  0  0  0  0  0  0  0  0  0  0
  150.1039  138.2817  159.8448 N   0  0  0  0  0  0  0  0  0  0  0  0
  149.2845  137.2960  159.1487 C   0  0  0  0  0  0  0  0  0  0  0  0
  148.9891  136.0756  160.0455 C   0  0  0  0  0  0  0  0  0  0  0  0
  147.7909  136.2386  161.0029 C   0  0  0  0  0  0  0  0  0  0  0  0
  147.1849  137.3113  161.0269 O   0  0  0  0  0  0  0  0  0  0  0  0
  147.4381  135.1985  161.7968 N   0  0  0  0  0  0  0  0  0  0  0  0
  148.1476  133.9155  161.7968 C   0  0  0  0  0  0  0  0  0  0  0  0
  147.1913  132.8271  161.2789 C   0  0  0  0  0  0  0  0  0  0  0  0
  146.0290  132.7829  162.1025 O   0  0  0  0  0  0  0  0  0  0  0  0
  145.3270  134.0226  162.1413 C   0  0  0  0  0  0  0  0  0  0  0  0
  146.2563  135.1336  162.6638 C   0  0  0  0  0  0  0  0  0  0  0  0
  151.9784  142.4491  159.4295 C   0  0  0  0  0  0  0  0  0  0  0  0
  150.5569  145.2932  158.3748 H   0  0  0  0  0  0  0  0  0  0  0  0
  152.1341  145.1250  157.6254 H   0  0  0  0  0  0  0  0  0  0  0  0
  151.9979  145.2219  159.3718 H   0  0  0  0  0  0  0  0  0  0  0  0
  150.0410  142.7382  156.8383 H   0  0  0  0  0  0  0  0  0  0  0  0
  152.9985  139.8160  159.6925 H   0  0  0  0  0  0  0  0  0  0  0  0
  151.6374  139.9670  160.7784 H   0  0  0  0  0  0  0  0  0  0  0  0
  150.9079  139.0065  158.0523 H   0  0  0  0  0  0  0  0  0  0  0  0
  153.1305  137.8546  158.3455 H   0  0  0  0  0  0  0  0  0  0  0  0
  151.8187  136.6938  158.3655 H   0  0  0  0  0  0  0  0  0  0  0  0
  152.5806  137.1827  159.8764 H   0  0  0  0  0  0  0  0  0  0  0  0
  149.5309  139.0881  160.0490 H   0  0  0  0  0  0  0  0  0  0  0  0
  148.3452  137.7635  158.8516 H   0  0  0  0  0  0  0  0  0  0  0  0
  149.7754  136.9645  158.2339 H   0  0  0  0  0  0  0  0  0  0  0  0
  148.8198  135.2105  159.4030 H   0  0  0  0  0  0  0  0  0  0  0  0
  149.8740  135.8590  160.6449 H   0  0  0  0  0  0  0  0  0  0  0  0
  149.0538  133.9285  161.1902 H   0  0  0  0  0  0  0  0  0  0  0  0
  148.4691  133.6814  162.8126 H   0  0  0  0  0  0  0  0  0  0  0  0
  146.9087  133.0185  160.2424 H   0  0  0  0  0  0  0  0  0  0  0  0
  147.6789  131.8527  161.3032 H   0  0  0  0  0  0  0  0  0  0  0  0
  144.9489  134.2676  161.1476 H   0  0  0  0  0  0  0  0  0  0  0  0
  144.4613  133.9159  162.7951 H   0  0  0  0  0  0  0  0  0  0  0  0
  146.5725  134.9087  163.6832 H   0  0  0  0  0  0  0  0  0  0  0  0
  145.6983  136.0662  162.7229 H   0  0  0  0  0  0  0  0  0  0  0  0
  152.6385  142.6288  160.2657 H   0  0  0  0  0  0  0  0  0  0  0  0
  1  2  1  0  0  0  0
  1 21  1  0  0  0  0
  1 22  1  0  0  0  0
  1 23  1  0  0  0  0
  2 20  2  0  0  0  0
  2  3  1  0  0  0  0
  3  4  2  0  0  0  0
  3 24  1  0  0  0  0
  4  5  1  0  0  0  0
  5  6  1  0  0  0  0
  5 20  1  0  0  0  0
  6  7  1  0  0  0  0
  6 25  1  0  0  0  0
  6 26  1  0  0  0  0
  7  8  1  0  0  0  0
  7  9  1  0  0  0  0
  7 27  1  0  0  0  0
  8 28  1  0  0  0  0
  8 29  1  0  0  0  0
  8 30  1  0  0  0  0
  9 10  1  0  0  0  0
  9 31  1  0  0  0  0
 10 11  1  0  0  0  0
 10 32  1  0  0  0  0
 10 33  1  0  0  0  0
 11 12  1  0  0  0  0
 11 34  1  0  0  0  0
 11 35  1  0  0  0  0
 12 13  2  0  0  0  0
 12 14  1  0  0  0  0
 14 19  1  0  0  0  0
 14 15  1  0  0  0  0
 15 16  1  0  0  0  0
 15 36  1  0  0  0  0
 15 37  1  0  0  0  0
 16 17  1  0  0  0  0
 16 38  1  0  0  0  0
 16 39  1  0  0  0  0
 17 18  1  0  0  0  0
 18 19  1  0  0  0  0
 18 40  1  0  0  0  0
 18 41  1  0  0  0  0
 19 42  1  0  0  0  0
 19 43  1  0  0  0  0
 20 44  1  0  0  0  0
M  END
> <s_m_source_file>
AV-unprocessed.smi

> <i_m_source_file_index>
1076

> <i_lp_mmshare_version>
43012

> <i_f3d_flags>
0

> <s_epik_input>
W0NIM11jMVtjSF1ubihbY0hdMSlbQ0gyXVtDQEhdKFtDSDNdKVtOSF1bQ0gyXVtDSDJdQyg9TylOMltDSDJdW0NIMl1PW0NIMl1bQ0gyXTI=

> <s_epik_cmdline>
J2VwaWtfcHl0aG9uJywgJy1waCcsICc3LjAnLCAnLXRuJywgJzgnLCAnLW1hJywgJzIwMCcsICctbWV0YWxfYmluZGluZycsICctaW1hZScsICc8aW5maWxlLm1hZT4nLCAnLW9tYWUnLCAnPG91dGZpbGUubWFlPic=

> <r_lp_tautomer_probability>
1

> <r_epik_Ionization_Penalty>
2.55707

> <r_epik_Ionization_Penalty_Charging>
0

> <r_epik_Ionization_Penalty_Neutral>
2.55707

> <r_epik_State_Penalty>
2.726

> <r_epik_Charging_Adjusted_Penalty>
2.726

> <i_epik_Tot_Q>
0

> <i_epik_Tot_abs_Q>
0

> <r_epik_Metal_State_Penalty>
2.72594

> <b_epik_Metal_Only>
0

> <s_lp_Force_Field>
OPLS_2005

> <r_lp_Energy>
22.7086

> <b_lp_Chiralities_Consistent>
1

> <s_lp_Variant>
AV-unprocessed.smi:1076-4

> <Gold.Version>
5.8.1

> <Gold.Id.Protein>
6NUR|6NUR_protein|mol2

> <Gold.PLP.Fitness>
45.3025

> <Gold.PLP.PLP>
-39.2845

> <Gold.PLP.part.hbond>
-3.0000

> <Gold.PLP.part.metal>
0.0000

> <Gold.PLP.part.buried>
-4.8474

> <Gold.PLP.part.nonpolar>
-31.7022

> <Gold.PLP.part.repulsive>
0.0745

> <Gold.PLP.ligand.clash>
0.0000

> <Gold.PLP.ligand.torsion>
1.1354

> <Gold.PLP.Chemscore.Hbond>
1.7440

> <Gold.PLP.Chemscore.CHOScore>
0.9928

> <Gold.PLP.Chemscore.Metal>
0.0000

> <Gold.Chemscore.Hbonds>
donor molecule, donor type, donor heavy atom, donor atom, acceptor molecule, acceptor atom, score
      P1  H  6931  6943       L1    13  0.15
      P1  H  6934  6947       L1    13  1.00
      L1  C     3    24       P1  8028  0.88

> <Gold.PLP.Chemscore.Internal.Correction>
0.0785

> <Gold.Rescore>
     Score         DG    S(hbond)    S(metal)    S(lipo)     H(rot)  DE(clash)    DE(int)     intcor
     13.83     -15.02       0.99        0.00      95.06       1.91       0.04       1.14       ----

> <Gold.Chemscore.Fitness>
13.8316

> <Gold.Chemscore.DG>
-15.0165

> <Gold.Chemscore.ZeroCoef>
-5.4800

> <Gold.Chemscore.Hbond>
0.9891

> <Gold.Chemscore.Metal>
0.0000

> <Gold.Chemscore.Lipo>
95.0603

> <Gold.Chemscore.Internal_Hbond>
0.0000

> <Gold.Chemscore.DEClash>
0.0441

> <Gold.Chemscore.DEInternal>
1.1408

> <Gold.Chemscore.Rot>
1.9098

> <Gold.Chemscore.Internal.Correction>
   9.000000E+99

> <Gold.Chemscore.Hbonds>
donor molecule, donor type, donor heavy atom, donor atom, acceptor molecule, acceptor atom, score
      P1  H  6931  6943       L1    13  0.01
      P1  H  6934  6947       L1    13  0.99

> <Gold.Chemscore.Hbond.Weighted>
-3.3035

> <Gold.Chemscore.Metal.Weighted>
-0.0000

> <Gold.Chemscore.Lipo.Weighted>
-11.1221

> <Gold.Chemscore.Internal_Hbond.Weighted>
0.0000

> <Gold.Chemscore.DEClash.Weighted>
0.0441

> <Gold.Chemscore.DEInternal.Weighted>
1.1408

> <Gold.Chemscore.Rot.Weighted>
4.8891

> <Gold.Chemscore.Internal.Correction.Weighted>
   9.000000E+99

> <Gold.Protein.RotatedTorsions>
[ 6907 6896 6895 6894 ] final   31.89 input  -60.11 | X-H torsion
[ 7974 7965 7964 7962 ] final   75.62 input  175.53 | X-H torsion
[ 8008 7997 7996 7995 ] final  -87.30 input   59.86 | X-H torsion
[ 10167 10162 10161 10158 ] final  179.73 input  -65.29 | X-H torsion
[ 10718 10713 10712 10709 ] final   54.90 input   66.30 | X-H torsion
[ 10763 10752 10751 10750 ] final  -45.00 input  -60.55 | X-H torsion
[ 11005 11000 10999 10996 ] final   58.13 input  -57.11 | X-H torsion

> <Gold.Protein.ActiveResidues>
 VAL166  LYS551  ARG553  GLY616  TRP617  ASP618  TYR619  PRO620  LYS621  CYS622 
 ASP623  PHE694  ASN695  SER759  ASP760  ASP761  ALA762  ILE779  LEU786  VAL792 
 PHE793  MET794  SER795  GLU796  ALA797  LYS798  CYS799  TRP800  GLU811  SER814 

> <Gold.Protein.RotatedAtoms>
  152.0667  134.9560  160.0574 H   0  0  0  0  0  0  0  0  0  0  0  0  # atno 6907 bound_to 6896
  152.0902  133.4191  159.4548 H   0  0  0  0  0  0  0  0  0  0  0  0  # atno 6908 bound_to 6896
  150.6837  134.2800  159.4667 H   0  0  0  0  0  0  0  0  0  0  0  0  # atno 6909 bound_to 6896
  145.7133  139.2622  143.1638 H   0  0  0  0  0  0  0  0  0  0  0  0  # atno 7974 bound_to 7965
  154.6617  140.0567  157.0070 H   0  0  0  0  0  0  0  0  0  0  0  0  # atno 8008 bound_to 7997
  155.1218  140.3248  155.4477 H   0  0  0  0  0  0  0  0  0  0  0  0  # atno 8009 bound_to 7997
  156.2621  140.1996  156.6340 H   0  0  0  0  0  0  0  0  0  0  0  0  # atno 8010 bound_to 7997
  139.5349  144.2526  152.0772 H   0  0  0  0  0  0  0  0  0  0  0  0  # atno 10167 bound_to 10162
  157.5298  130.8622  149.8672 H   0  0  0  0  0  0  0  0  0  0  0  0  # atno 10718 bound_to 10713
  154.0214  135.6669  153.4773 H   0  0  0  0  0  0  0  0  0  0  0  0  # atno 10763 bound_to 10752
  153.0579  135.5045  154.8020 H   0  0  0  0  0  0  0  0  0  0  0  0  # atno 10764 bound_to 10752
  154.6935  135.3065  154.9410 H   0  0  0  0  0  0  0  0  0  0  0  0  # atno 10765 bound_to 10752
  140.0401  134.5886  155.9393 H   0  0  0  0  0  0  0  0  0  0  0  0  # atno 11005 bound_to 11000
  146.0692  140.7887  142.9696 LP  0  0  0  0  0  0  0  0  0  0  0  0  # atno 17320 bound_to 7965
  144.6936  140.3316  143.7215 LP  0  0  0  0  0  0  0  0  0  0  0  0  # atno 17321 bound_to 7965
  140.1995  144.4672  150.6438 LP  0  0  0  0  0  0  0  0  0  0  0  0  # atno 17342 bound_to 10162
  140.6550  143.2235  151.5990 LP  0  0  0  0  0  0  0  0  0  0  0  0  # atno 17343 bound_to 10162
  156.0414  130.3738  150.1426 LP  0  0  0  0  0  0  0  0  0  0  0  0  # atno 17370 bound_to 10713
  156.9611  130.9805  151.3479 LP  0  0  0  0  0  0  0  0  0  0  0  0  # atno 17371 bound_to 10713
  141.1878  133.6561  156.5298 LP  0  0  0  0  0  0  0  0  0  0  0  0  # atno 17394 bound_to 11000
  140.4084  134.7295  157.4821 LP  0  0  0  0  0  0  0  0  0  0  0  0  # atno 17395 bound_to 11000

$$$$
