#       Name:                AV-unprocessed.smi:193
#       Creating user name   scv26
#       Creation time:       Thu Mar 26 19:35:21 2020


#       File generated by GOLD software.
#

@<TRIPOS>MOLECULE
AV-unprocessed.smi:193
    69    73     1
SMALL
NO_CHARGES


@<TRIPOS>ATOM
      1 ****        -2.8692  -3.8531   1.3879 C.3            1 S1                 0.0000
      2 ****        -2.5105  -2.3802   1.1438 C.3            1 S1                 0.0000
      3 ****        -1.7215  -1.8077   2.3404 C.3            1 S1                 0.0000
      4 ****        -0.8720  -0.6856   1.9337 N.pl3          1 S1                 0.0000
      5 ****         0.3375  -0.9594   1.3637 C.ar           1 S1                 0.0000
      6 ****         1.0674  -1.9741   1.8992 N.ar           1 S1                 0.0000
      7 ****         2.2629  -2.2988   1.4020 C.ar           1 S1                 0.0000
      8 ****         2.9168  -1.7468   0.3812 N.ar           1 S1                 0.0000
      9 ****         2.1999  -0.7273  -0.1696 C.ar           1 S1                 0.0000
     10 ****         0.9143  -0.2715   0.2493 C.ar           1 S1                 0.0000
     11 ****         0.5096   0.7716  -0.5791 N.2            1 S1                 0.0000
     12 ****         1.4913   0.9256  -1.4228 C.2            1 S1                 0.0000
     13 ****         2.5552   0.0747  -1.2405 N.pl3          1 S1                 0.0000
     14 ****         3.7766   0.0255  -2.0303 C.3            1 S1                 0.0000
     15 ****         4.9258   0.9191  -1.4862 C.3            1 S1                 0.0000
     16 ****         5.2608   0.4485  -0.1942 O.3            1 S1                 0.0000
     17 ****         6.1906   0.8093  -2.3604 C.3            1 S1                 0.0000
     18 ****         6.0297   1.5733  -3.6879 C.3            1 S1                 0.0000
     19 ****         5.6939   2.9334  -3.4332 O.3            1 S1                 0.0000
     20 ****         4.4636   3.0876  -2.7335 C.3            1 S1                 0.0000
     21 ****         4.5597   2.4128  -1.3542 C.3            1 S1                 0.0000
     22 ****        -1.5464   0.5817   1.6817 C.3            1 S1                 0.0000
     23 ****        -2.5420   0.5008   0.5106 C.3            1 S1                 0.0000
     24 ****        -3.7651  -0.1374   0.9871 N.3            1 S1                 0.0000
     25 ****        -4.9266   0.4463   0.3294 C.3            1 S1                 0.0000
     26 ****        -5.4325   1.7742   0.8476 C.3            1 S1                 0.0000
     27 ****        -6.2394   0.5208   1.0888 C.3            1 S1                 0.0000
     28 ****        -6.4094  -0.0145   2.4978 C.3            1 S1                 0.0000
     29 ****        -3.7892  -1.5871   0.7664 C.3            1 S1                 0.0000
     30 ****        -3.5173  -3.9645   2.2580 H              1 S1                 0.0000
     31 ****        -1.9748  -4.4525   1.5603 H              1 S1                 0.0000
     32 ****        -3.3873  -4.2788   0.5281 H              1 S1                 0.0000
     33 ****        -1.8486  -2.3715   0.2763 H              1 S1                 0.0000
     34 ****        -2.4116  -1.4756   3.1172 H              1 S1                 0.0000
     35 ****        -1.1252  -2.5903   2.8091 H              1 S1                 0.0000
     36 ****         2.7684  -3.1168   1.8938 H              1 S1                 0.0000
     37 ****         1.4682   1.6734  -2.2020 H              1 S1                 0.0000
     38 ****         4.1041  -1.0137  -2.0828 H              1 S1                 0.0000
     39 ****         3.5186   0.3049  -3.0513 H              1 S1                 0.0000
     40 ****         5.9725   0.9712   0.1421 H              1 S1                 0.0000
     41 ****         7.0443   1.2299  -1.8265 H              1 S1                 0.0000
     42 ****         6.4360  -0.2358  -2.5532 H              1 S1                 0.0000
     43 ****         6.9648   1.5449  -4.2471 H              1 S1                 0.0000
     44 ****         5.2727   1.1133  -4.3238 H              1 S1                 0.0000
     45 ****         4.2631   4.1523  -2.6131 H              1 S1                 0.0000
     46 ****         3.6415   2.6774  -3.3210 H              1 S1                 0.0000
     47 ****         3.6350   2.5512  -0.7947 H              1 S1                 0.0000
     48 ****         5.3316   2.9274  -0.7798 H              1 S1                 0.0000
     49 ****        -2.0671   0.8861   2.5907 H              1 S1                 0.0000
     50 ****        -0.8131   1.3678   1.5067 H              1 S1                 0.0000
     51 ****        -2.7644   1.5252   0.2095 H              1 S1                 0.0000
     52 ****        -2.1340   0.0019  -0.3692 H              1 S1                 0.0000
     53 ****        -5.0234   0.3138  -0.7470 H              1 S1                 0.0000
     54 ****        -4.9172   2.2168   1.6983 H              1 S1                 0.0000
     55 ****        -5.8162   2.4841   0.1176 H              1 S1                 0.0000
     56 ****        -7.1343   0.4087   0.4796 H              1 S1                 0.0000
     57 ****        -5.5117   0.1514   3.0941 H              1 S1                 0.0000
     58 ****        -6.6171  -1.0840   2.4695 H              1 S1                 0.0000
     59 ****        -7.2439   0.4870   2.9876 H              1 S1                 0.0000
     60 ****        -4.0138  -1.7907  -0.2819 H              1 S1                 0.0000
     61 ****        -4.6334  -1.9785   1.3349 H              1 S1                 0.0000
     62 ****         0.7029  -2.4850   2.6777 LP             1 S1                 0.0000
     63 ****         3.8169  -2.0422   0.0608 LP             1 S1                 0.0000
     64 ****        -0.3453   1.2886  -0.5363 LP             1 S1                 0.0000
     65 ****         5.5423  -0.5096  -0.2472 LP             1 S1                 0.0000
     66 ****         4.4682   0.5301   0.4100 LP             1 S1                 0.0000
     67 ****         5.6237   3.4124  -4.3082 LP             1 S1                 0.0000
     68 ****         6.4238   3.3436  -2.8863 LP             1 S1                 0.0000
     69 ****        -3.7909   0.0227   1.9739 LP             1 S1                 0.0000
@<TRIPOS>BOND
    1    1    2 1     
    2    1   30 1     
    3    1   31 1     
    4    1   32 1     
    5    2   29 1     
    6    2    3 1     
    7    2   33 1     
    8    3    4 1     
    9    3   34 1     
   10    3   35 1     
   11    4    5 1     
   12    4   22 1     
   13    5   10 ar    
   14    5    6 ar    
   15    6    7 ar    
   16    7    8 ar    
   17    7   36 1     
   18    8    9 ar    
   19    9   13 1     
   20    9   10 ar    
   21   10   11 1     
   22   11   12 2     
   23   12   13 1     
   24   12   37 1     
   25   13   14 1     
   26   14   15 1     
   27   14   38 1     
   28   14   39 1     
   29   15   21 1     
   30   15   16 1     
   31   15   17 1     
   32   16   40 1     
   33   17   18 1     
   34   17   41 1     
   35   17   42 1     
   36   18   19 1     
   37   18   43 1     
   38   18   44 1     
   39   19   20 1     
   40   20   21 1     
   41   20   45 1     
   42   20   46 1     
   43   21   47 1     
   44   21   48 1     
   45   22   23 1     
   46   22   49 1     
   47   22   50 1     
   48   23   24 1     
   49   23   51 1     
   50   23   52 1     
   51   24   25 1     
   52   24   29 1     
   53   25   27 1     
   54   25   26 1     
   55   25   53 1     
   56   26   27 1     
   57   26   54 1     
   58   26   55 1     
   59   27   28 1     
   60   27   56 1     
   61   28   57 1     
   62   28   58 1     
   63   28   59 1     
   64   29   60 1     
   65   29   61 1     
   66    6   62 1     
   67    8   63 1     
   68   11   64 1     
   69   16   65 1     
   70   16   66 1     
   71   19   67 1     
   72   19   68 1     
   73   24   69 1     
@<TRIPOS>SUBSTRUCTURE
      1 S1             1
@<TRIPOS>SET
LONE_PAIRS      STATIC     ATOMS    <user>   **** ""
8 62 63 64 65 66 67 68 69
DONOR_HYDROGENS      STATIC     ATOMS    <user>   **** ""
1 40
ATOM$BLUE        STATIC     ATOMS    COLORGROUP SYSTEM
8 62 63 64 65 66 67 68 69
ATOM$RED        STATIC     ATOMS    COLORGROUP SYSTEM
1 40
