AV-unprocessed.smi:34|AV-procd|sdf|218|dock1
  -GOLD-   2262015533D 1   1.00000     0.00000
 Structure written by MMmdl.
 55 59  0  0  0  0  0  0  0  0  1 V2000
  150.1775  130.1421  154.6016 O   0  0  0  0  0  0  0  0  0  0  0  0
  148.9953  130.3062  154.2990 C   0  0  0  0  0  0  0  0  0  0  0  0
  148.1421  131.2541  154.9936 N   0  0  0  0  0  0  0  0  0  0  0  0
  148.4790  132.1151  155.9825 C   0  0  0  0  0  0  0  0  0  0  0  0
  148.0607  131.9524  157.2649 N   0  0  0  0  0  0  0  0  0  0  0  0
  148.4198  132.8308  158.2052 C   0  0  0  0  0  0  0  0  0  0  0  0
  149.1788  133.9208  158.0802 N   0  0  0  0  0  0  0  0  0  0  0  0
  149.6069  134.0924  156.7959 C   0  0  0  0  0  0  0  0  0  0  0  0
  149.3028  133.2359  155.7005 C   0  0  0  0  0  0  0  0  0  0  0  0
  149.9095  133.7134  154.5466 N   0  0  0  0  0  0  0  0  0  0  0  0
  150.5333  134.7903  154.9406 C   0  0  0  0  0  0  0  0  0  0  0  0
  150.4073  135.0937  156.2782 N   0  0  0  0  0  0  0  0  0  0  0  0
  151.0160  136.2612  156.9980 C   0  0  1  0  0  0  0  0  0  0  0  0
  151.6893  137.0802  156.0837 O   0  0  0  0  0  0  0  0  0  0  0  0
  151.1080  138.3826  156.0730 C   0  0  2  0  0  0  0  0  0  0  0  0
  152.1635  139.4326  155.7095 C   0  0  0  0  0  0  0  0  0  0  0  0
  152.6540  140.0345  156.8962 O   0  0  0  0  0  0  0  0  0  0  0  0
  152.1032  141.1754  157.3538 C   0  0  0  0  0  0  0  0  0  0  0  0
  151.3112  141.8595  156.7023 O   0  0  0  0  0  0  0  0  0  0  0  0
  152.5501  141.5218  158.7341 C   0  0  0  0  0  0  0  0  0  0  0  0
  152.3003  142.8194  159.2389 C   0  0  0  0  0  0  0  0  0  0  0  0
  152.7069  143.1735  160.5402 C   0  0  0  0  0  0  0  0  0  0  0  0
  153.3694  142.2349  161.3523 C   0  0  0  0  0  0  0  0  0  0  0  0
  153.6258  140.9415  160.8610 C   0  0  0  0  0  0  0  0  0  0  0  0
  153.2196  140.5852  159.5601 C   0  0  0  0  0  0  0  0  0  0  0  0
  150.5368  138.5173  157.4814 C   0  0  1  0  0  0  0  0  0  0  0  0
  149.6293  139.4865  157.6143 F   0  0  0  0  0  0  0  0  0  0  0  0
  149.9737  137.1303  157.7320 C   0  0  1  0  0  0  0  0  0  0  0  0
  148.6585  136.9965  157.2182 O   0  0  0  0  0  0  0  0  0  0  0  0
  148.3267  129.4717  153.2463 C   0  0  0  0  0  0  0  0  0  0  0  0
  147.2016  129.9742  152.5548 C   0  0  0  0  0  0  0  0  0  0  0  0
  146.5628  129.1942  151.5713 C   0  0  0  0  0  0  0  0  0  0  0  0
  147.0378  127.9020  151.2780 C   0  0  0  0  0  0  0  0  0  0  0  0
  148.1493  127.3881  151.9723 C   0  0  0  0  0  0  0  0  0  0  0  0
  148.7895  128.1675  152.9556 C   0  0  0  0  0  0  0  0  0  0  0  0
  147.1757  131.2727  154.7024 H   0  0  0  0  0  0  0  0  0  0  0  0
  148.0458  132.6315  159.1984 H   0  0  0  0  0  0  0  0  0  0  0  0
  151.1109  135.3981  154.2594 H   0  0  0  0  0  0  0  0  0  0  0  0
  151.7468  135.8159  157.6743 H   0  0  0  0  0  0  0  0  0  0  0  0
  150.2999  138.3957  155.3405 H   0  0  0  0  0  0  0  0  0  0  0  0
  152.9786  138.9784  155.1443 H   0  0  0  0  0  0  0  0  0  0  0  0
  151.7151  140.2017  155.0793 H   0  0  0  0  0  0  0  0  0  0  0  0
  151.7924  143.5570  158.6343 H   0  0  0  0  0  0  0  0  0  0  0  0
  152.5094  144.1670  160.9152 H   0  0  0  0  0  0  0  0  0  0  0  0
  153.6805  142.5065  162.3503 H   0  0  0  0  0  0  0  0  0  0  0  0
  154.1353  140.2198  161.4823 H   0  0  0  0  0  0  0  0  0  0  0  0
  153.4330  139.5843  159.2142 H   0  0  0  0  0  0  0  0  0  0  0  0
  151.3373  138.7262  158.1924 H   0  0  0  0  0  0  0  0  0  0  0  0
  149.9626  136.8782  158.7928 H   0  0  0  0  0  0  0  0  0  0  0  0
  148.0698  137.4903  157.7684 H   0  0  0  0  0  0  0  0  0  0  0  0
  146.8258  130.9646  152.7683 H   0  0  0  0  0  0  0  0  0  0  0  0
  145.7077  129.5878  151.0420 H   0  0  0  0  0  0  0  0  0  0  0  0
  146.5480  127.3041  150.5235 H   0  0  0  0  0  0  0  0  0  0  0  0
  148.5103  126.3943  151.7523 H   0  0  0  0  0  0  0  0  0  0  0  0
  149.6355  127.7515  153.4837 H   0  0  0  0  0  0  0  0  0  0  0  0
  1  2  2  0  0  0  0
  2  3  1  0  0  0  0
  2 30  1  0  0  0  0
  3  4  1  0  0  0  0
  3 36  1  0  0  0  0
  4  9  1  0  0  0  0
  4  5  2  0  0  0  0
  5  6  1  0  0  0  0
  6  7  2  0  0  0  0
  6 37  1  0  0  0  0
  7  8  1  0  0  0  0
  8 12  1  0  0  0  0
  8  9  2  0  0  0  0
  9 10  1  0  0  0  0
 10 11  2  0  0  0  0
 11 12  1  0  0  0  0
 11 38  1  0  0  0  0
 12 13  1  0  0  0  0
 13 28  1  0  0  0  0
 13 14  1  0  0  0  0
 13 39  1  0  0  0  0
 14 15  1  0  0  0  0
 15 16  1  0  0  0  0
 15 26  1  0  0  0  0
 15 40  1  0  0  0  0
 16 17  1  0  0  0  0
 16 41  1  0  0  0  0
 16 42  1  0  0  0  0
 17 18  1  0  0  0  0
 18 19  2  0  0  0  0
 18 20  1  0  0  0  0
 20 25  1  0  0  0  0
 20 21  2  0  0  0  0
 21 22  1  0  0  0  0
 21 43  1  0  0  0  0
 22 23  2  0  0  0  0
 22 44  1  0  0  0  0
 23 24  1  0  0  0  0
 23 45  1  0  0  0  0
 24 25  2  0  0  0  0
 24 46  1  0  0  0  0
 25 47  1  0  0  0  0
 26 27  1  0  0  0  0
 26 28  1  0  0  0  0
 26 48  1  0  0  0  0
 28 29  1  0  0  0  0
 28 49  1  0  0  0  0
 29 50  1  0  0  0  0
 30 35  1  0  0  0  0
 30 31  2  0  0  0  0
 31 32  1  0  0  0  0
 31 51  1  0  0  0  0
 32 33  2  0  0  0  0
 32 52  1  0  0  0  0
 33 34  1  0  0  0  0
 33 53  1  0  0  0  0
 34 35  2  0  0  0  0
 34 54  1  0  0  0  0
 35 55  1  0  0  0  0
M  END
> <s_m_source_file>
AV-unprocessed.smi

> <i_m_source_file_index>
34

> <i_lp_mmshare_version>
43012

> <i_f3d_flags>
0

> <s_epik_input>
W2NIXTFbY0hdW2NIXVtjSF1bY0hdYzFDKD1PKVtOSF1jKG5bY0hdbjIpYyhjMjMpbltjSF1uM1tDQEBIXTRPW0NASF0oW0NAQEhdKEYpW0NASF00W09IXSlbQ0gyXU9DKD1PKWM1W2NIXVtjSF1bY0hdW2NIXVtjSF01

> <s_epik_cmdline>
J2VwaWtfcHl0aG9uJywgJy1waCcsICc3LjAnLCAnLXRuJywgJzgnLCAnLW1hJywgJzIwMCcsICctbWV0YWxfYmluZGluZycsICctaW1hZScsICc8aW5maWxlLm1hZT4nLCAnLW9tYWUnLCAnPG91dGZpbGUubWFlPic=

> <r_lp_tautomer_probability>
1

> <r_epik_Ionization_Penalty>
0.00257489

> <r_epik_Ionization_Penalty_Charging>
0

> <r_epik_Ionization_Penalty_Neutral>
0.00257489

> <r_epik_State_Penalty>
0.00519398

> <r_epik_Charging_Adjusted_Penalty>
0.00519398

> <i_epik_Tot_Q>
0

> <i_epik_Tot_abs_Q>
0

> <r_epik_Metal_State_Penalty>
0.335891

> <b_epik_Metal_Only>
0

> <s_epik_Chemistry_Notes>
This compound has an ester and may undergo hydrolysis at high or low pH. This compound contains an acetal/aminal-like group ( X-CH(R)-Y where X, Y are N, S, or O) that may be acid/base labile, releasing an aldehyde.

> <s_lp_Force_Field>
OPLS_2005

> <r_lp_Energy>
55.7216

> <b_lp_Chiralities_Consistent>
1

> <s_lp_Variant>
AV-unprocessed.smi:34-4

> <Gold.Version>
5.8.1

> <Gold.Id.Protein>
6NUR|6NUR_protein|mol2

> <Gold.PLP.Fitness>
54.3570

> <Gold.PLP.PLP>
-53.6261

> <Gold.PLP.part.hbond>
-2.0000

> <Gold.PLP.part.metal>
0.0000

> <Gold.PLP.part.buried>
-6.4566

> <Gold.PLP.part.nonpolar>
-45.0013

> <Gold.PLP.part.repulsive>
0.2966

> <Gold.PLP.ligand.clash>
0.0000

> <Gold.PLP.ligand.torsion>
2.0055

> <Gold.PLP.Chemscore.Hbond>
1.0000

> <Gold.PLP.Chemscore.CHOScore>
0.3527

> <Gold.PLP.Chemscore.Metal>
0.0000

> <Gold.Chemscore.Hbonds>
donor molecule, donor type, donor heavy atom, donor atom, acceptor molecule, acceptor atom, score
      P1  H  6896  6909       L1     7  1.00
      P1  H 10752 10763       L1    14  0.13
      L1  C    11    38       P1  7949  0.28

> <Gold.PLP.Chemscore.Internal.Correction>
0.6839

> <Gold.Rescore>
     Score         DG    S(hbond)    S(metal)    S(lipo)     H(rot)  DE(clash)    DE(int)     intcor
     14.88     -17.17       0.95        0.00     132.40       2.72       0.14       2.15       ----

> <Gold.Chemscore.Fitness>
14.8821

> <Gold.Chemscore.DG>
-17.1693

> <Gold.Chemscore.ZeroCoef>
-5.4800

> <Gold.Chemscore.Hbond>
0.9476

> <Gold.Chemscore.Metal>
0.0000

> <Gold.Chemscore.Lipo>
132.4050

> <Gold.Chemscore.Internal_Hbond>
0.0000

> <Gold.Chemscore.DEClash>
0.1384

> <Gold.Chemscore.DEInternal>
2.1489

> <Gold.Chemscore.Rot>
2.7215

> <Gold.Chemscore.Internal.Correction>
   9.000000E+99

> <Gold.Chemscore.Hbonds>
donor molecule, donor type, donor heavy atom, donor atom, acceptor molecule, acceptor atom, score
      P1  H  6896  6909       L1     7  0.70
      P1  H 10752 10763       L1    14  0.05

> <Gold.Chemscore.Hbond.Weighted>
-3.1650

> <Gold.Chemscore.Metal.Weighted>
-0.0000

> <Gold.Chemscore.Lipo.Weighted>
-15.4914

> <Gold.Chemscore.Internal_Hbond.Weighted>
0.0000

> <Gold.Chemscore.DEClash.Weighted>
0.1384

> <Gold.Chemscore.DEInternal.Weighted>
2.1489

> <Gold.Chemscore.Rot.Weighted>
6.9670

> <Gold.Chemscore.Internal.Correction.Weighted>
   9.000000E+99

> <Gold.Protein.RotatedTorsions>
[ 6907 6896 6895 6894 ] final   17.44 input  -60.11 | X-H torsion
[ 7974 7965 7964 7962 ] final -104.36 input  175.53 | X-H torsion
[ 8008 7997 7996 7995 ] final   71.72 input   59.86 | X-H torsion
[ 10167 10162 10161 10158 ] final  136.11 input  -65.29 | X-H torsion
[ 10718 10713 10712 10709 ] final  129.97 input   66.30 | X-H torsion
[ 10763 10752 10751 10750 ] final   81.61 input  -60.55 | X-H torsion
[ 11005 11000 10999 10996 ] final -157.01 input  -57.11 | X-H torsion

> <Gold.Protein.ActiveResidues>
 VAL166  LYS551  ARG553  GLY616  TRP617  ASP618  TYR619  PRO620  LYS621  CYS622 
 ASP623  PHE694  ASN695  SER759  ASP760  ASP761  ALA762  ILE779  LEU786  VAL792 
 PHE793  MET794  SER795  GLU796  ALA797  LYS798  CYS799  TRP800  GLU811  SER814 

> <Gold.Protein.RotatedAtoms>
  151.8497  135.0562  160.0457 H   0  0  0  0  0  0  0  0  0  0  0  0  # atno 6907 bound_to 6896
  152.2746  133.5409  159.5468 H   0  0  0  0  0  0  0  0  0  0  0  0  # atno 6908 bound_to 6896
  150.7165  134.0566  159.3859 H   0  0  0  0  0  0  0  0  0  0  0  0  # atno 6909 bound_to 6896
  145.2441  140.9215  143.3133 H   0  0  0  0  0  0  0  0  0  0  0  0  # atno 7974 bound_to 7965
  155.7582  140.3487  155.5184 H   0  0  0  0  0  0  0  0  0  0  0  0  # atno 8008 bound_to 7997
  155.8939  140.1022  157.1419 H   0  0  0  0  0  0  0  0  0  0  0  0  # atno 8009 bound_to 7997
  154.4036  140.1299  156.4338 H   0  0  0  0  0  0  0  0  0  0  0  0  # atno 8010 bound_to 7997
  139.5192  144.6482  151.5379 H   0  0  0  0  0  0  0  0  0  0  0  0  # atno 10167 bound_to 10162
  157.5105  131.1096  150.9300 H   0  0  0  0  0  0  0  0  0  0  0  0  # atno 10718 bound_to 10713
  153.1132  135.4759  154.9071 H   0  0  0  0  0  0  0  0  0  0  0  0  # atno 10763 bound_to 10752
  154.7502  135.3104  154.8574 H   0  0  0  0  0  0  0  0  0  0  0  0  # atno 10764 bound_to 10752
  153.9158  135.6860  153.4803 H   0  0  0  0  0  0  0  0  0  0  0  0  # atno 10765 bound_to 10752
  140.6693  134.4265  157.5232 H   0  0  0  0  0  0  0  0  0  0  0  0  # atno 11005 bound_to 11000
  144.9562  139.4029  143.6378 LP  0  0  0  0  0  0  0  0  0  0  0  0  # atno 17320 bound_to 7965
  146.3320  139.8593  142.8859 LP  0  0  0  0  0  0  0  0  0  0  0  0  # atno 17321 bound_to 7965
  140.6275  143.9140  150.6577 LP  0  0  0  0  0  0  0  0  0  0  0  0  # atno 17342 bound_to 10162
  140.2433  143.3647  152.1468 LP  0  0  0  0  0  0  0  0  0  0  0  0  # atno 17343 bound_to 10162
  156.9942  130.5575  149.5306 LP  0  0  0  0  0  0  0  0  0  0  0  0  # atno 17370 bound_to 10713
  156.0286  130.5378  150.8473 LP  0  0  0  0  0  0  0  0  0  0  0  0  # atno 17371 bound_to 10713
  139.8987  134.8608  156.1991 LP  0  0  0  0  0  0  0  0  0  0  0  0  # atno 17394 bound_to 11000
  141.0405  133.6940  156.1589 LP  0  0  0  0  0  0  0  0  0  0  0  0  # atno 17395 bound_to 11000

$$$$
