AV-unprocessed.smi:1512|AV-procd|sdf|6100|dock1
  -GOLD-   22720 6233D 1   1.00000     0.00000
 Structure written by MMmdl.
 44 46  0  0  0  0  0  0  0  0  3 V2000
  149.5013  141.7714  156.8036 C   0  0  0  0  0  0  0  0  0  0  0  0
  150.9858  141.7070  157.1994 C   0  0  2  0  0  0  0  0  0  0  0  0
  151.4274  140.3173  157.0889 N   0  0  0  0  0  0  0  0  0  0  0  0
  151.4740  139.5909  155.9610 C   0  0  0  0  0  0  0  0  0  0  0  0
  151.1607  140.0334  154.8550 O   0  0  0  0  0  0  0  0  0  0  0  0
  151.9779  138.1489  156.1152 C   0  0  0  0  0  0  0  0  0  0  0  0
  150.9088  137.1429  155.9918 N   0  0  0  0  0  0  0  0  0  0  0  0
  149.7139  137.5566  155.3741 C   0  0  0  0  0  0  0  0  0  0  0  0
  148.6748  136.7252  155.2127 C   0  0  0  0  0  0  0  0  0  0  0  0
  148.8010  135.3725  155.6979 C   0  0  0  0  0  0  0  0  0  0  0  0
  149.9375  134.9532  156.3004 C   0  0  0  0  0  0  0  0  0  0  0  0
  149.9934  133.5886  156.7726 N   0  3  0  0  0  0  0  0  0  0  0  0
  149.0755  132.8248  156.4895 O   0  0  0  0  0  0  0  0  0  0  0  0
  150.9671  133.2364  157.4316 O   0  5  0  0  0  0  0  0  0  0  0  0
  151.0847  135.8700  156.4659 C   0  0  0  0  0  0  0  0  0  0  0  0
  152.1465  135.5253  156.9887 O   0  0  0  0  0  0  0  0  0  0  0  0
  151.2372  142.2420  158.6318 C   0  0  2  0  0  0  0  0  0  0  0  0
  150.6040  143.6314  158.8901 C   0  0  0  0  0  0  0  0  0  0  0  0
  151.7867  144.4736  159.3998 C   0  0  1  0  0  0  0  0  0  0  0  0
  152.1978  143.9900  160.8019 C   0  0  0  0  0  0  0  0  0  0  0  0
  152.8712  142.6372  160.5071 C   0  0  0  0  0  0  0  0  0  0  0  0
  152.7255  142.5100  158.9784 C   0  0  2  0  0  0  0  0  0  0  0  0
  152.9269  143.9548  158.5342 C   0  0  0  0  0  0  0  0  0  0  0  0
  149.1243  142.7938  156.8171 H   0  0  0  0  0  0  0  0  0  0  0  0
  148.8834  141.1817  157.4815 H   0  0  0  0  0  0  0  0  0  0  0  0
  149.3492  141.3849  155.7953 H   0  0  0  0  0  0  0  0  0  0  0  0
  151.5387  142.3296  156.4945 H   0  0  0  0  0  0  0  0  0  0  0  0
  151.7136  139.8679  157.9465 H   0  0  0  0  0  0  0  0  0  0  0  0
  152.7527  137.9800  155.3659 H   0  0  0  0  0  0  0  0  0  0  0  0
  152.4851  138.0423  157.0762 H   0  0  0  0  0  0  0  0  0  0  0  0
  149.6953  138.5864  155.0479 H   0  0  0  0  0  0  0  0  0  0  0  0
  147.7640  137.0615  154.7390 H   0  0  0  0  0  0  0  0  0  0  0  0
  147.9637  134.6994  155.5833 H   0  0  0  0  0  0  0  0  0  0  0  0
  150.8300  141.5158  159.3373 H   0  0  0  0  0  0  0  0  0  0  0  0
  150.2126  144.0708  157.9719 H   0  0  0  0  0  0  0  0  0  0  0  0
  149.7848  143.5867  159.6086 H   0  0  0  0  0  0  0  0  0  0  0  0
  151.6150  145.5486  159.3403 H   0  0  0  0  0  0  0  0  0  0  0  0
  152.9081  144.6800  161.2593 H   0  0  0  0  0  0  0  0  0  0  0  0
  151.3433  143.8936  161.4728 H   0  0  0  0  0  0  0  0  0  0  0  0
  153.9235  142.6647  160.7927 H   0  0  0  0  0  0  0  0  0  0  0  0
  152.4029  141.8109  161.0431 H   0  0  0  0  0  0  0  0  0  0  0  0
  153.4317  141.8000  158.5490 H   0  0  0  0  0  0  0  0  0  0  0  0
  152.7677  144.1091  157.4658 H   0  0  0  0  0  0  0  0  0  0  0  0
  153.9009  144.3617  158.8117 H   0  0  0  0  0  0  0  0  0  0  0  0
  1  2  1  0  0  0  0
  1 24  1  0  0  0  0
  1 25  1  0  0  0  0
  1 26  1  0  0  0  0
  2  3  1  0  0  0  0
  2 17  1  0  0  0  0
  2 27  1  0  0  0  0
  3  4  1  0  0  0  0
  3 28  1  0  0  0  0
  4  5  2  0  0  0  0
  4  6  1  0  0  0  0
  6  7  1  0  0  0  0
  6 29  1  0  0  0  0
  6 30  1  0  0  0  0
  7 15  1  0  0  0  0
  7  8  1  0  0  0  0
  8  9  2  0  0  0  0
  8 31  1  0  0  0  0
  9 10  1  0  0  0  0
  9 32  1  0  0  0  0
 10 11  2  0  0  0  0
 10 33  1  0  0  0  0
 11 12  1  0  0  0  0
 11 15  1  0  0  0  0
 12 13  2  0  0  0  0
 12 14  1  0  0  0  0
 15 16  2  0  0  0  0
 17 22  1  0  0  0  0
 17 18  1  0  0  0  0
 17 34  1  0  0  0  0
 18 19  1  0  0  0  0
 18 35  1  0  0  0  0
 18 36  1  0  0  0  0
 19 23  1  0  0  0  0
 19 20  1  0  0  0  0
 19 37  1  0  0  0  0
 20 21  1  0  0  0  0
 20 38  1  0  0  0  0
 20 39  1  0  0  0  0
 21 22  1  0  0  0  0
 21 40  1  0  0  0  0
 21 41  1  0  0  0  0
 22 23  1  0  0  0  0
 22 42  1  0  0  0  0
 23 43  1  0  0  0  0
 23 44  1  0  0  0  0
M  CHG  1  12   1
M  CHG  1  14  -1
M  END
> <s_m_source_file>
AV-unprocessed.smi

> <i_m_source_file_index>
1512

> <i_lp_mmshare_version>
43012

> <i_f3d_flags>
0

> <s_epik_input>
W0NIMl0xW0NIMl1bQ0BIXShbQ0gyXTIpW0NAQEhdKFtDSDJdW0NAQEhdMTIpW0NASF0oW0NIM10pW05IXUMoPU8pW0NIMl1uM1tjSF1bY0hdW2NIXWMoW04rXSg9TylbTy1dKWMzPU8=

> <s_epik_cmdline>
J2VwaWtfcHl0aG9uJywgJy1waCcsICc3LjAnLCAnLXRuJywgJzgnLCAnLW1hJywgJzIwMCcsICctbWV0YWxfYmluZGluZycsICctaW1hZScsICc8aW5maWxlLm1hZT4nLCAnLW9tYWUnLCAnPG91dGZpbGUubWFlPic=

> <r_lp_tautomer_probability>
1

> <r_epik_Ionization_Penalty>
2.17697e-08

> <r_epik_Ionization_Penalty_Charging>
1.42735e-10

> <r_epik_Ionization_Penalty_Neutral>
2.16269e-08

> <r_epik_State_Penalty>
-0

> <r_epik_Charging_Adjusted_Penalty>
1.42735e-10

> <i_epik_Tot_Q>
0

> <i_epik_Tot_abs_Q>
2

> <r_epik_Metal_State_Penalty>
-0

> <b_epik_Metal_Only>
0

> <s_lp_Force_Field>
OPLS_2005

> <r_lp_Energy>
64.3974

> <b_lp_Chiralities_Consistent>
1

> <s_lp_Variant>
AV-unprocessed.smi:1512-1

> <Gold.Version>
5.8.1

> <Gold.Id.Protein>
6NUR|6NUR_protein|mol2

> <Gold.PLP.Fitness>
49.5621

> <Gold.PLP.PLP>
-42.6537

> <Gold.PLP.part.hbond>
-2.9340

> <Gold.PLP.part.metal>
0.0000

> <Gold.PLP.part.buried>
-5.5543

> <Gold.PLP.part.nonpolar>
-35.0013

> <Gold.PLP.part.repulsive>
0.1648

> <Gold.PLP.ligand.clash>
0.0000

> <Gold.PLP.ligand.torsion>
0.5900

> <Gold.PLP.Chemscore.Hbond>
2.6720

> <Gold.PLP.Chemscore.CHOScore>
0.0000

> <Gold.PLP.Chemscore.Metal>
0.0000

> <Gold.Chemscore.Hbonds>
donor molecule, donor type, donor heavy atom, donor atom, acceptor molecule, acceptor atom, score
      P1  H  6896  6909       L1    14  0.69
      P1  H  7989  7998       L1     5  1.00
      P1  H 10752 10764       L1    16  0.73

> <Gold.PLP.Chemscore.Internal.Correction>
0.0725

> <Gold.Rescore>
     Score         DG    S(hbond)    S(metal)    S(lipo)     H(rot)  DE(clash)    DE(int)     intcor
     19.01     -21.58       2.50        0.00     104.40       1.75       0.13       2.43       ----

> <Gold.Chemscore.Fitness>
19.0094

> <Gold.Chemscore.DG>
-21.5754

> <Gold.Chemscore.ZeroCoef>
-5.4800

> <Gold.Chemscore.Hbond>
2.5010

> <Gold.Chemscore.Metal>
0.0000

> <Gold.Chemscore.Lipo>
104.4035

> <Gold.Chemscore.Internal_Hbond>
0.0000

> <Gold.Chemscore.DEClash>
0.1320

> <Gold.Chemscore.DEInternal>
2.4340

> <Gold.Chemscore.Rot>
1.7474

> <Gold.Chemscore.Internal.Correction>
   9.000000E+99

> <Gold.Chemscore.Hbonds>
donor molecule, donor type, donor heavy atom, donor atom, acceptor molecule, acceptor atom, score
      P1  H  6896  6909       L1    14  0.68
      P1  H  7989  7998       L1     5  1.00
      P1  H 10752 10764       L1    16  0.29

> <Gold.Chemscore.Hbond.Weighted>
-8.3535

> <Gold.Chemscore.Metal.Weighted>
-0.0000

> <Gold.Chemscore.Lipo.Weighted>
-12.2152

> <Gold.Chemscore.Internal_Hbond.Weighted>
0.0000

> <Gold.Chemscore.DEClash.Weighted>
0.1320

> <Gold.Chemscore.DEInternal.Weighted>
2.4340

> <Gold.Chemscore.Rot.Weighted>
4.4733

> <Gold.Chemscore.Internal.Correction.Weighted>
   9.000000E+99

> <Gold.Protein.RotatedTorsions>
[ 6907 6896 6895 6894 ] final  -50.10 input  -60.11 | X-H torsion
[ 7974 7965 7964 7962 ] final -137.53 input  175.53 | X-H torsion
[ 8008 7997 7996 7995 ] final  142.76 input   59.86 | X-H torsion
[ 10167 10162 10161 10158 ] final -176.01 input  -65.29 | X-H torsion
[ 10718 10713 10712 10709 ] final   70.13 input   66.30 | X-H torsion
[ 10763 10752 10751 10750 ] final   -5.14 input  -60.55 | X-H torsion
[ 11005 11000 10999 10996 ] final -143.29 input  -57.11 | X-H torsion

> <Gold.Protein.ActiveResidues>
 VAL166  LYS551  ARG553  GLY616  TRP617  ASP618  TYR619  PRO620  LYS621  CYS622 
 ASP623  PHE694  ASN695  SER759  ASP760  ASP761  ALA762  ILE779  LEU786  VAL792 
 PHE793  MET794  SER795  GLU796  ALA797  LYS798  CYS799  TRP800  GLU811  SER814 

> <Gold.Protein.RotatedAtoms>
  150.8740  134.8119  159.7175 H   0  0  0  0  0  0  0  0  0  0  0  0  # atno 6907 bound_to 6896
  152.4734  134.4902  159.9703 H   0  0  0  0  0  0  0  0  0  0  0  0  # atno 6908 bound_to 6896
  151.4986  133.3470  159.2901 H   0  0  0  0  0  0  0  0  0  0  0  0  # atno 6909 bound_to 6896
  144.8834  140.6540  143.5191 H   0  0  0  0  0  0  0  0  0  0  0  0  # atno 7974 bound_to 7965
  156.2943  140.2280  156.4781 H   0  0  0  0  0  0  0  0  0  0  0  0  # atno 8008 bound_to 7997
  154.7877  140.0456  157.1197 H   0  0  0  0  0  0  0  0  0  0  0  0  # atno 8009 bound_to 7997
  154.9683  140.3063  155.5003 H   0  0  0  0  0  0  0  0  0  0  0  0  # atno 8010 bound_to 7997
  139.5551  144.2009  152.1146 H   0  0  0  0  0  0  0  0  0  0  0  0  # atno 10167 bound_to 10162
  157.6383  130.9461  150.0609 H   0  0  0  0  0  0  0  0  0  0  0  0  # atno 10718 bound_to 10713
  153.3945  135.7003  153.6471 H   0  0  0  0  0  0  0  0  0  0  0  0  # atno 10763 bound_to 10752
  153.5030  135.3648  155.2549 H   0  0  0  0  0  0  0  0  0  0  0  0  # atno 10764 bound_to 10752
  154.8705  135.4116  154.3268 H   0  0  0  0  0  0  0  0  0  0  0  0  # atno 10765 bound_to 10752
  140.8140  134.2711  157.4929 H   0  0  0  0  0  0  0  0  0  0  0  0  # atno 11005 bound_to 11000
  145.3913  139.1616  143.4227 LP  0  0  0  0  0  0  0  0  0  0  0  0  # atno 17320 bound_to 7965
  146.3009  140.4002  142.8704 LP  0  0  0  0  0  0  0  0  0  0  0  0  # atno 17321 bound_to 7965
  140.1511  144.5113  150.6686 LP  0  0  0  0  0  0  0  0  0  0  0  0  # atno 17342 bound_to 10162
  140.6823  143.2332  151.5353 LP  0  0  0  0  0  0  0  0  0  0  0  0  # atno 17343 bound_to 10162
  156.1642  130.3644  149.9256 LP  0  0  0  0  0  0  0  0  0  0  0  0  # atno 17370 bound_to 10713
  156.7247  130.9020  151.3621 LP  0  0  0  0  0  0  0  0  0  0  0  0  # atno 17371 bound_to 10713
  139.8712  134.9499  156.4038 LP  0  0  0  0  0  0  0  0  0  0  0  0  # atno 17394 bound_to 11000
  140.9169  133.7672  155.9858 LP  0  0  0  0  0  0  0  0  0  0  0  0  # atno 17395 bound_to 11000

$$$$
