AV-unprocessed.smi:3112|AV-procd|sdf|11847|dock1
  -GOLD-   2272017223D 1   1.00000     0.00000
 Structure written by MMmdl.
 36 36  0  0  0  0  0  0  0  0  1 V2000
  146.8334  138.9404  152.1498 C   0  0  0  0  0  0  0  0  0  0  0  0
  147.1345  140.1569  153.0402 C   0  0  0  0  0  0  0  0  0  0  0  0
  148.1772  139.9039  154.1473 C   0  0  1  0  0  0  0  0  0  0  0  0
  149.3301  139.3277  153.5675 O   0  0  0  0  0  0  0  0  0  0  0  0
  148.5832  141.1814  154.9022 C   0  0  0  0  0  0  0  0  0  0  0  0
  149.7145  140.9264  155.7934 N   0  0  0  0  0  0  0  0  0  0  0  0
  149.9209  141.9116  156.8615 C   0  0  1  0  0  0  0  0  0  0  0  0
  148.7987  141.7437  157.9002 C   0  0  0  0  0  0  0  0  0  0  0  0
  151.3269  141.8277  157.5309 C   0  0  2  0  0  0  0  0  0  0  0  0
  151.5975  140.5544  158.3546 C   0  0  0  0  0  0  0  0  0  0  0  0
  151.6907  143.0387  158.2623 N   0  0  0  0  0  0  0  0  0  0  0  0
  151.5667  144.3500  157.8490 C   0  0  0  0  0  0  0  0  0  0  0  0
  152.0080  145.1463  158.8663 C   0  0  0  0  0  0  0  0  0  0  0  0
  152.3825  144.2215  159.8798 C   0  0  0  0  0  0  0  0  0  0  0  0
  152.1873  142.9643  159.5190 N   0  0  0  0  0  0  0  0  0  0  0  0
  146.0800  139.1892  151.4023 H   0  0  0  0  0  0  0  0  0  0  0  0
  146.4521  138.1023  152.7332 H   0  0  0  0  0  0  0  0  0  0  0  0
  147.7225  138.6026  151.6173 H   0  0  0  0  0  0  0  0  0  0  0  0
  147.4774  140.9775  152.4091 H   0  0  0  0  0  0  0  0  0  0  0  0
  146.2050  140.5015  153.4951 H   0  0  0  0  0  0  0  0  0  0  0  0
  147.7538  139.1824  154.8479 H   0  0  0  0  0  0  0  0  0  0  0  0
  149.4991  139.7646  152.7462 H   0  0  0  0  0  0  0  0  0  0  0  0
  148.7859  141.9826  154.1968 H   0  0  0  0  0  0  0  0  0  0  0  0
  147.7383  141.5166  155.5049 H   0  0  0  0  0  0  0  0  0  0  0  0
  149.6139  140.0022  156.2006 H   0  0  0  0  0  0  0  0  0  0  0  0
  149.8046  142.9134  156.4461 H   0  0  0  0  0  0  0  0  0  0  0  0
  148.9045  142.4610  158.7145 H   0  0  0  0  0  0  0  0  0  0  0  0
  148.7935  140.7438  158.3355 H   0  0  0  0  0  0  0  0  0  0  0  0
  147.8205  141.9085  157.4479 H   0  0  0  0  0  0  0  0  0  0  0  0
  152.0340  141.7647  156.7022 H   0  0  0  0  0  0  0  0  0  0  0  0
  151.3013  139.6595  157.8072 H   0  0  0  0  0  0  0  0  0  0  0  0
  151.0743  140.5570  159.3100 H   0  0  0  0  0  0  0  0  0  0  0  0
  152.6605  140.4638  158.5790 H   0  0  0  0  0  0  0  0  0  0  0  0
  151.1753  144.6045  156.8750 H   0  0  0  0  0  0  0  0  0  0  0  0
  152.0533  146.2249  158.8851 H   0  0  0  0  0  0  0  0  0  0  0  0
  152.7853  144.4249  160.8610 H   0  0  0  0  0  0  0  0  0  0  0  0
  1  2  1  0  0  0  0
  1 16  1  0  0  0  0
  1 17  1  0  0  0  0
  1 18  1  0  0  0  0
  2  3  1  0  0  0  0
  2 19  1  0  0  0  0
  2 20  1  0  0  0  0
  3  4  1  0  0  0  0
  3  5  1  0  0  0  0
  3 21  1  0  0  0  0
  4 22  1  0  0  0  0
  5  6  1  0  0  0  0
  5 23  1  0  0  0  0
  5 24  1  0  0  0  0
  6  7  1  0  0  0  0
  6 25  1  0  0  0  0
  7  8  1  0  0  0  0
  7  9  1  0  0  0  0
  7 26  1  0  0  0  0
  8 27  1  0  0  0  0
  8 28  1  0  0  0  0
  8 29  1  0  0  0  0
  9 10  1  0  0  0  0
  9 11  1  0  0  0  0
  9 30  1  0  0  0  0
 10 31  1  0  0  0  0
 10 32  1  0  0  0  0
 10 33  1  0  0  0  0
 11 15  1  0  0  0  0
 11 12  1  0  0  0  0
 12 13  2  0  0  0  0
 12 34  1  0  0  0  0
 13 14  1  0  0  0  0
 13 35  1  0  0  0  0
 14 15  2  0  0  0  0
 14 36  1  0  0  0  0
M  END
> <s_m_source_file>
AV-unprocessed.smi

> <i_m_source_file_index>
3112

> <i_lp_mmshare_version>
43012

> <i_f3d_flags>
0

> <s_epik_input>
W0NIM11bQ0gyXVtDQEhdKFtPSF0pW0NIMl1bTkhdW0NASF0oW0NIM10pW0NASF0oW0NIM10pbjFbY0hdW2NIXVtjSF1uMQ==

> <s_epik_cmdline>
J2VwaWtfcHl0aG9uJywgJy1waCcsICc3LjAnLCAnLXRuJywgJzgnLCAnLW1hJywgJzIwMCcsICctbWV0YWxfYmluZGluZycsICctaW1hZScsICc8aW5maWxlLm1hZT4nLCAnLW9tYWUnLCAnPG91dGZpbGUubWFlPic=

> <r_lp_tautomer_probability>
1

> <r_epik_Ionization_Penalty>
2.16876

> <r_epik_Ionization_Penalty_Charging>
0

> <r_epik_Ionization_Penalty_Neutral>
2.16876

> <r_epik_State_Penalty>
2.30854

> <r_epik_Charging_Adjusted_Penalty>
2.30854

> <i_epik_Tot_Q>
0

> <i_epik_Tot_abs_Q>
0

> <r_epik_Metal_State_Penalty>
2.3073

> <b_epik_Metal_Only>
0

> <s_lp_Force_Field>
OPLS_2005

> <r_lp_Energy>
21.8482

> <b_lp_Chiralities_Consistent>
1

> <s_lp_Variant>
AV-unprocessed.smi:3112-12

> <Gold.Version>
5.8.1

> <Gold.Id.Protein>
6NUR|6NUR_protein|mol2

> <Gold.PLP.Fitness>
40.6998

> <Gold.PLP.PLP>
-35.4245

> <Gold.PLP.part.hbond>
-0.6758

> <Gold.PLP.part.metal>
0.0000

> <Gold.PLP.part.buried>
-3.4293

> <Gold.PLP.part.nonpolar>
-30.6755

> <Gold.PLP.part.repulsive>
0.0000

> <Gold.PLP.ligand.clash>
0.0000

> <Gold.PLP.ligand.torsion>
0.5690

> <Gold.PLP.Chemscore.Hbond>
1.0000

> <Gold.PLP.Chemscore.CHOScore>
0.9935

> <Gold.PLP.Chemscore.Metal>
0.0000

> <Gold.Chemscore.Hbonds>
donor molecule, donor type, donor heavy atom, donor atom, acceptor molecule, acceptor atom, score
      L1  H     4    22       P1  7957  1.00
      L1  C    12    34       P1  8028  0.93

> <Gold.PLP.Chemscore.Internal.Correction>
0.4329

> <Gold.Rescore>
     Score         DG    S(hbond)    S(metal)    S(lipo)     H(rot)  DE(clash)    DE(int)     intcor
     13.23     -13.88       0.99        0.00      93.95       2.31       0.06       0.59       ----

> <Gold.Chemscore.Fitness>
13.2252

> <Gold.Chemscore.DG>
-13.8777

> <Gold.Chemscore.ZeroCoef>
-5.4800

> <Gold.Chemscore.Hbond>
0.9944

> <Gold.Chemscore.Metal>
0.0000

> <Gold.Chemscore.Lipo>
93.9487

> <Gold.Chemscore.Internal_Hbond>
0.0000

> <Gold.Chemscore.DEClash>
0.0644

> <Gold.Chemscore.DEInternal>
0.5880

> <Gold.Chemscore.Rot>
2.3108

> <Gold.Chemscore.Internal.Correction>
   9.000000E+99

> <Gold.Chemscore.Hbonds>
donor molecule, donor type, donor heavy atom, donor atom, acceptor molecule, acceptor atom, score
      L1  H     4    22       P1  7957  0.99

> <Gold.Chemscore.Hbond.Weighted>
-3.3214

> <Gold.Chemscore.Metal.Weighted>
-0.0000

> <Gold.Chemscore.Lipo.Weighted>
-10.9920

> <Gold.Chemscore.Internal_Hbond.Weighted>
0.0000

> <Gold.Chemscore.DEClash.Weighted>
0.0644

> <Gold.Chemscore.DEInternal.Weighted>
0.5880

> <Gold.Chemscore.Rot.Weighted>
5.9157

> <Gold.Chemscore.Internal.Correction.Weighted>
   9.000000E+99

> <Gold.Protein.RotatedTorsions>
[ 6907 6896 6895 6894 ] final  -21.45 input  -60.11 | X-H torsion
[ 7974 7965 7964 7962 ] final -120.68 input  175.53 | X-H torsion
[ 8008 7997 7996 7995 ] final  -56.09 input   59.86 | X-H torsion
[ 10167 10162 10161 10158 ] final  162.71 input  -65.29 | X-H torsion
[ 10718 10713 10712 10709 ] final  -96.70 input   66.30 | X-H torsion
[ 10763 10752 10751 10750 ] final  -14.87 input  -60.55 | X-H torsion
[ 11005 11000 10999 10996 ] final -168.99 input  -57.11 | X-H torsion

> <Gold.Protein.ActiveResidues>
 VAL166  LYS551  ARG553  GLY616  TRP617  ASP618  TYR619  PRO620  LYS621  CYS622 
 ASP623  PHE694  ASN695  SER759  ASP760  ASP761  ALA762  ILE779  LEU786  VAL792 
 PHE793  MET794  SER795  GLU796  ALA797  LYS798  CYS799  TRP800  GLU811  SER814 

> <Gold.Protein.RotatedAtoms>
  151.2332  135.0562  159.8995 H   0  0  0  0  0  0  0  0  0  0  0  0  # atno 6907 bound_to 6896
  152.5402  134.0514  159.8122 H   0  0  0  0  0  0  0  0  0  0  0  0  # atno 6908 bound_to 6896
  151.0697  133.5427  159.2659 H   0  0  0  0  0  0  0  0  0  0  0  0  # atno 6909 bound_to 6896
  145.0487  140.8202  143.4222 H   0  0  0  0  0  0  0  0  0  0  0  0  # atno 7974 bound_to 7965
  154.4217  140.1138  156.5581 H   0  0  0  0  0  0  0  0  0  0  0  0  # atno 8008 bound_to 7997
  155.6339  140.3496  155.4673 H   0  0  0  0  0  0  0  0  0  0  0  0  # atno 8009 bound_to 7997
  155.9925  140.1182  157.0614 H   0  0  0  0  0  0  0  0  0  0  0  0  # atno 8010 bound_to 7997
  139.4864  144.4411  151.8951 H   0  0  0  0  0  0  0  0  0  0  0  0  # atno 10167 bound_to 10162
  156.0067  130.5162  150.6264 H   0  0  0  0  0  0  0  0  0  0  0  0  # atno 10718 bound_to 10713
  153.5348  135.7014  153.5665 H   0  0  0  0  0  0  0  0  0  0  0  0  # atno 10763 bound_to 10752
  153.3657  135.3958  155.1751 H   0  0  0  0  0  0  0  0  0  0  0  0  # atno 10764 bound_to 10752
  154.8680  135.3799  154.4847 H   0  0  0  0  0  0  0  0  0  0  0  0  # atno 10765 bound_to 10752
  140.5358  134.5571  157.5087 H   0  0  0  0  0  0  0  0  0  0  0  0  # atno 11005 bound_to 11000
  145.1554  139.2489  143.5419 LP  0  0  0  0  0  0  0  0  0  0  0  0  # atno 17320 bound_to 7965
  146.3516  140.1268  142.8598 LP  0  0  0  0  0  0  0  0  0  0  0  0  # atno 17321 bound_to 7965
  140.3862  144.2673  150.5904 LP  0  0  0  0  0  0  0  0  0  0  0  0  # atno 17342 bound_to 10162
  140.5188  143.2271  151.8422 LP  0  0  0  0  0  0  0  0  0  0  0  0  # atno 17343 bound_to 10162
  157.4070  131.0818  151.1256 LP  0  0  0  0  0  0  0  0  0  0  0  0  # atno 17370 bound_to 10713
  157.1899  130.6347  149.5701 LP  0  0  0  0  0  0  0  0  0  0  0  0  # atno 17371 bound_to 10713
  139.9530  134.7584  156.0405 LP  0  0  0  0  0  0  0  0  0  0  0  0  # atno 17394 bound_to 11000
  141.1256  133.6600  156.3327 LP  0  0  0  0  0  0  0  0  0  0  0  0  # atno 17395 bound_to 11000

$$$$
