AV-unprocessed.smi:1|AV-procd|sdf|18|dock10
  -GOLD-   2262015123D 1   1.00000     0.00000
 Structure written by MMmdl.
 56 61  0  0  0  0  0  0  0  0  2 V2000
  152.7004  140.1354  157.9819 O   0  0  0  0  0  0  0  0  0  0  0  0
  152.0810  141.0951  157.5182 C   0  0  0  0  0  0  0  0  0  0  0  0
  151.4523  141.1802  156.3186 N   0  5  0  0  0  0  0  0  0  0  0  0
  150.5111  140.2819  155.9899 C   0  0  0  0  0  0  0  0  0  0  0  0
  149.8828  140.3547  154.7891 N   0  0  0  0  0  0  0  0  0  0  0  0
  148.9504  139.4542  154.4576 C   0  0  0  0  0  0  0  0  0  0  0  0
  148.5028  138.4082  155.1596 N   0  0  0  0  0  0  0  0  0  0  0  0
  149.1344  138.3192  156.3663 C   0  0  0  0  0  0  0  0  0  0  0  0
  150.1403  139.2086  156.8455 C   0  0  0  0  0  0  0  0  0  0  0  0
  150.5708  138.8299  158.1087 N   0  0  0  0  0  0  0  0  0  0  0  0
  149.8216  137.7533  158.3365 C   0  0  0  0  0  0  0  0  0  0  0  0
  148.9614  137.3793  157.3686 N   0  0  0  0  0  0  0  0  0  0  0  0
  148.0161  136.2262  157.3869 C   0  0  1  0  0  0  0  0  0  0  0  0
  148.1380  135.5448  156.1787 O   0  0  0  0  0  0  0  0  0  0  0  0
  147.9285  134.1643  156.4254 C   0  0  1  0  0  0  0  0  0  0  0  0
  148.4192  133.3023  155.2536 C   0  0  0  0  0  0  0  0  0  0  0  0
  147.5409  133.4007  154.1430 O   0  0  0  0  0  0  0  0  0  0  0  0
  147.5803  132.4720  153.1676 C   0  0  0  0  0  0  0  0  0  0  0  0
  148.4040  131.5556  153.1299 O   0  0  0  0  0  0  0  0  0  0  0  0
  146.5230  132.6682  152.1351 C   0  0  0  0  0  0  0  0  0  0  0  0
  146.0568  133.9748  151.8591 C   0  0  0  0  0  0  0  0  0  0  0  0
  145.0566  134.1899  150.8911 C   0  0  0  0  0  0  0  0  0  0  0  0
  144.5085  133.1004  150.1892 C   0  0  0  0  0  0  0  0  0  0  0  0
  144.9602  131.7953  150.4585 C   0  0  0  0  0  0  0  0  0  0  0  0
  145.9607  131.5787  151.4260 C   0  0  0  0  0  0  0  0  0  0  0  0
  148.6056  133.9200  157.7769 C   0  0  2  0  0  0  0  0  0  0  0  0
  148.0037  132.8532  158.4881 O   0  0  0  0  0  0  0  0  0  0  0  0
  146.8854  133.4754  159.5610 S   0  0  0  0  0  0  0  0  0  0  0  0
  145.5402  133.2176  159.0252 O   0  0  0  0  0  0  0  0  0  0  0  0
  147.2848  133.0828  160.9209 O   0  0  0  0  0  0  0  0  0  0  0  0
  147.2198  135.0997  159.3648 O   0  0  0  0  0  0  0  0  0  0  0  0
  148.3488  135.2418  158.5207 C   0  0  2  0  0  0  0  0  0  0  0  0
  151.9145  142.3283  158.3656 C   0  0  0  0  0  0  0  0  0  0  0  0
  152.4111  142.3412  159.6892 C   0  0  0  0  0  0  0  0  0  0  0  0
  152.2885  143.4939  160.4893 C   0  0  0  0  0  0  0  0  0  0  0  0
  151.6758  144.6502  159.9710 C   0  0  0  0  0  0  0  0  0  0  0  0
  151.1896  144.6538  158.6502 C   0  0  0  0  0  0  0  0  0  0  0  0
  151.3117  143.5015  157.8495 C   0  0  0  0  0  0  0  0  0  0  0  0
  148.5032  139.5904  153.4849 H   0  0  0  0  0  0  0  0  0  0  0  0
  149.9060  137.2023  159.2617 H   0  0  0  0  0  0  0  0  0  0  0  0
  147.0235  136.6699  157.4787 H   0  0  0  0  0  0  0  0  0  0  0  0
  146.8509  134.0264  156.5304 H   0  0  0  0  0  0  0  0  0  0  0  0
  149.4109  133.6342  154.9437 H   0  0  0  0  0  0  0  0  0  0  0  0
  148.5112  132.2646  155.5777 H   0  0  0  0  0  0  0  0  0  0  0  0
  146.4636  134.8269  152.3849 H   0  0  0  0  0  0  0  0  0  0  0  0
  144.7100  135.1923  150.6872 H   0  0  0  0  0  0  0  0  0  0  0  0
  143.7420  133.2651  149.4463 H   0  0  0  0  0  0  0  0  0  0  0  0
  144.5396  130.9578  149.9218 H   0  0  0  0  0  0  0  0  0  0  0  0
  146.2824  130.5644  151.6118 H   0  0  0  0  0  0  0  0  0  0  0  0
  149.6783  133.7580  157.6707 H   0  0  0  0  0  0  0  0  0  0  0  0
  149.2129  135.5619  159.1043 H   0  0  0  0  0  0  0  0  0  0  0  0
  152.8859  141.4625  160.1011 H   0  0  0  0  0  0  0  0  0  0  0  0
  152.6663  143.4904  161.5008 H   0  0  0  0  0  0  0  0  0  0  0  0
  151.5824  145.5340  160.5843 H   0  0  0  0  0  0  0  0  0  0  0  0
  150.7243  145.5418  158.2486 H   0  0  0  0  0  0  0  0  0  0  0  0
  150.9418  143.5292  156.8346 H   0  0  0  0  0  0  0  0  0  0  0  0
  1  2  2  0  0  0  0
  2  3  1  0  0  0  0
  2 33  1  0  0  0  0
  3  4  1  0  0  0  0
  4  9  1  0  0  0  0
  4  5  2  0  0  0  0
  5  6  1  0  0  0  0
  6  7  2  0  0  0  0
  6 39  1  0  0  0  0
  7  8  1  0  0  0  0
  8 12  1  0  0  0  0
  8  9  2  0  0  0  0
  9 10  1  0  0  0  0
 10 11  2  0  0  0  0
 11 12  1  0  0  0  0
 11 40  1  0  0  0  0
 12 13  1  0  0  0  0
 13 32  1  0  0  0  0
 13 14  1  0  0  0  0
 13 41  1  0  0  0  0
 14 15  1  0  0  0  0
 15 16  1  0  0  0  0
 15 26  1  0  0  0  0
 15 42  1  0  0  0  0
 16 17  1  0  0  0  0
 16 43  1  0  0  0  0
 16 44  1  0  0  0  0
 17 18  1  0  0  0  0
 18 19  2  0  0  0  0
 18 20  1  0  0  0  0
 20 25  1  0  0  0  0
 20 21  2  0  0  0  0
 21 22  1  0  0  0  0
 21 45  1  0  0  0  0
 22 23  2  0  0  0  0
 22 46  1  0  0  0  0
 23 24  1  0  0  0  0
 23 47  1  0  0  0  0
 24 25  2  0  0  0  0
 24 48  1  0  0  0  0
 25 49  1  0  0  0  0
 26 32  1  0  0  0  0
 26 27  1  0  0  0  0
 26 50  1  0  0  0  0
 27 28  1  0  0  0  0
 28 29  2  0  0  0  0
 28 30  2  0  0  0  0
 28 31  1  0  0  0  0
 31 32  1  0  0  0  0
 32 51  1  0  0  0  0
 33 38  1  0  0  0  0
 33 34  2  0  0  0  0
 34 35  1  0  0  0  0
 34 52  1  0  0  0  0
 35 36  2  0  0  0  0
 35 53  1  0  0  0  0
 36 37  1  0  0  0  0
 36 54  1  0  0  0  0
 37 38  2  0  0  0  0
 37 55  1  0  0  0  0
 38 56  1  0  0  0  0
M  CHG  1   3  -1
M  END
> <s_m_source_file>
AV-unprocessed.smi

> <i_m_source_file_index>
1

> <i_lp_mmshare_version>
43012

> <i_f3d_flags>
0

> <s_epik_input>
W2NIXTFbY0hdW2NIXVtjSF1bY0hdYzFDKD1PKVtOSF1jKG5bY0hdbjIpYyhjMjMpbltjSF1uM1tDQEBIXShbQ0BIXShbQ0BIXTQ1KU9TKE81KSg9Tyk9TylPW0NASF00W0NIMl1PQyg9TyljNltjSF1bY0hdW2NIXVtjSF1bY0hdNg==

> <s_epik_cmdline>
J2VwaWtfcHl0aG9uJywgJy1waCcsICc3LjAnLCAnLXRuJywgJzgnLCAnLW1hJywgJzIwMCcsICctbWV0YWxfYmluZGluZycsICctaW1hZScsICc8aW5maWxlLm1hZT4nLCAnLW9tYWUnLCAnPG91dGZpbGUubWFlPic=

> <r_lp_tautomer_probability>
1

> <r_epik_Ionization_Penalty>
4.39121

> <r_epik_Ionization_Penalty_Charging>
3.39398

> <r_epik_Ionization_Penalty_Neutral>
0.997232

> <r_epik_State_Penalty>
3.39839

> <r_epik_Charging_Adjusted_Penalty>
6.79237

> <i_epik_Tot_Q>
-1

> <i_epik_Tot_abs_Q>
1

> <r_epik_Metal_State_Penalty>
0.497663

> <b_epik_Metal_Only>
1

> <s_epik_Chemistry_Notes>
This compound has an ester and may undergo hydrolysis at high or low pH. This compound contains an acetal/aminal-like group ( X-CH(R)-Y where X, Y are N, S, or O) that may be acid/base labile, releasing an aldehyde.

> <s_lp_Force_Field>
OPLS_2005

> <r_lp_Energy>
46.6749

> <b_lp_Chiralities_Consistent>
1

> <s_lp_Variant>
AV-unprocessed.smi:1-18

> <Gold.Version>
5.8.1

> <Gold.Id.Protein>
6NUR|6NUR_protein|mol2

> <Gold.PLP.Fitness>
54.6443

> <Gold.PLP.PLP>
-48.1092

> <Gold.PLP.part.hbond>
-2.0000

> <Gold.PLP.part.metal>
0.0000

> <Gold.PLP.part.buried>
-7.5867

> <Gold.PLP.part.nonpolar>
-38.8984

> <Gold.PLP.part.repulsive>
0.5508

> <Gold.PLP.ligand.clash>
0.0000

> <Gold.PLP.ligand.torsion>
1.4027

> <Gold.PLP.Chemscore.Hbond>
1.9913

> <Gold.PLP.Chemscore.CHOScore>
1.0000

> <Gold.PLP.Chemscore.Metal>
0.0000

> <Gold.Chemscore.Hbonds>
donor molecule, donor type, donor heavy atom, donor atom, acceptor molecule, acceptor atom, score
      P1  H  7989  7998       L1     5  0.48
      P1  H  7997  8009       L1     1  0.83
      L1  C     6    39       P1  7957  0.80

> <Gold.PLP.Chemscore.Internal.Correction>
0.3668

> <Gold.Rescore>
     Score         DG    S(hbond)    S(metal)    S(lipo)     H(rot)  DE(clash)    DE(int)     intcor
     10.54     -17.00       0.84        0.00     120.68       2.11       1.00       5.46       ----

> <Gold.Chemscore.Fitness>
10.5382

> <Gold.Chemscore.DG>
-16.9977

> <Gold.Chemscore.ZeroCoef>
-5.4800

> <Gold.Chemscore.Hbond>
0.8409

> <Gold.Chemscore.Metal>
0.0000

> <Gold.Chemscore.Lipo>
120.6821

> <Gold.Chemscore.Internal_Hbond>
0.0000

> <Gold.Chemscore.DEClash>
1.0013

> <Gold.Chemscore.DEInternal>
5.4581

> <Gold.Chemscore.Rot>
2.1136

> <Gold.Chemscore.Internal.Correction>
   9.000000E+99

> <Gold.Chemscore.Hbonds>
donor molecule, donor type, donor heavy atom, donor atom, acceptor molecule, acceptor atom, score
      P1  H  7989  7998       L1     5  0.12
      P1  H  7997  8009       L1     1  0.47

> <Gold.Chemscore.Hbond.Weighted>
-2.8086

> <Gold.Chemscore.Metal.Weighted>
-0.0000

> <Gold.Chemscore.Lipo.Weighted>
-14.1198

> <Gold.Chemscore.Internal_Hbond.Weighted>
0.0000

> <Gold.Chemscore.DEClash.Weighted>
1.0013

> <Gold.Chemscore.DEInternal.Weighted>
5.4581

> <Gold.Chemscore.Rot.Weighted>
5.4107

> <Gold.Chemscore.Internal.Correction.Weighted>
   9.000000E+99

> <Gold.Protein.RotatedTorsions>
[ 6907 6896 6895 6894 ] final  -88.16 input  -60.11 | X-H torsion
[ 7974 7965 7964 7962 ] final -178.96 input  175.53 | X-H torsion
[ 8008 7997 7996 7995 ] final  158.67 input   59.86 | X-H torsion
[ 10167 10162 10161 10158 ] final -169.63 input  -65.29 | X-H torsion
[ 10718 10713 10712 10709 ] final  139.92 input   66.30 | X-H torsion
[ 10763 10752 10751 10750 ] final   78.53 input  -60.55 | X-H torsion
[ 11005 11000 10999 10996 ] final  155.14 input  -57.11 | X-H torsion

> <Gold.Protein.ActiveResidues>
 VAL166  LYS551  ARG553  GLY616  TRP617  ASP618  TYR619  PRO620  LYS621  CYS622 
 ASP623  PHE694  ASN695  SER759  ASP760  ASP761  ALA762  ILE779  LEU786  VAL792 
 PHE793  MET794  SER795  GLU796  ALA797  LYS798  CYS799  TRP800  GLU811  SER814 

> <Gold.Protein.RotatedAtoms>
  150.6868  134.2784  159.4616 H   0  0  0  0  0  0  0  0  0  0  0  0  # atno 6907 bound_to 6896
  152.0700  134.9537  160.0584 H   0  0  0  0  0  0  0  0  0  0  0  0  # atno 6908 bound_to 6896
  152.0930  133.4175  159.4589 H   0  0  0  0  0  0  0  0  0  0  0  0  # atno 6909 bound_to 6896
  144.7133  140.0789  143.6426 H   0  0  0  0  0  0  0  0  0  0  0  0  # atno 7974 bound_to 7965
  156.2288  140.1852  156.7295 H   0  0  0  0  0  0  0  0  0  0  0  0  # atno 8008 bound_to 7997
  154.5987  140.0639  156.9366 H   0  0  0  0  0  0  0  0  0  0  0  0  # atno 8009 bound_to 7997
  155.2212  140.3307  155.4318 H   0  0  0  0  0  0  0  0  0  0  0  0  # atno 8010 bound_to 7997
  139.5911  144.1212  152.1634 H   0  0  0  0  0  0  0  0  0  0  0  0  # atno 10167 bound_to 10162
  157.4090  131.1026  151.0474 H   0  0  0  0  0  0  0  0  0  0  0  0  # atno 10718 bound_to 10713
  153.0881  135.4873  154.8637 H   0  0  0  0  0  0  0  0  0  0  0  0  # atno 10763 bound_to 10752
  154.7236  135.3044  154.9010 H   0  0  0  0  0  0  0  0  0  0  0  0  # atno 10764 bound_to 10752
  153.9667  135.6806  153.4799 H   0  0  0  0  0  0  0  0  0  0  0  0  # atno 10765 bound_to 10752
  140.1554  134.8646  157.2507 H   0  0  0  0  0  0  0  0  0  0  0  0  # atno 11005 bound_to 11000
  145.9719  139.2876  143.1094 LP  0  0  0  0  0  0  0  0  0  0  0  0  # atno 17320 bound_to 7965
  145.9107  140.9182  143.0455 LP  0  0  0  0  0  0  0  0  0  0  0  0  # atno 17321 bound_to 7965
  140.0787  144.5719  150.7138 LP  0  0  0  0  0  0  0  0  0  0  0  0  # atno 17342 bound_to 10162
  140.7173  143.2556  151.4392 LP  0  0  0  0  0  0  0  0  0  0  0  0  # atno 17343 bound_to 10162
  157.1445  130.6157  149.5564 LP  0  0  0  0  0  0  0  0  0  0  0  0  # atno 17370 bound_to 10713
  155.9845  130.4870  150.6986 LP  0  0  0  0  0  0  0  0  0  0  0  0  # atno 17371 bound_to 10713
  140.2554  134.3634  155.7426 LP  0  0  0  0  0  0  0  0  0  0  0  0  # atno 17394 bound_to 11000
  141.2204  133.7339  156.8999 LP  0  0  0  0  0  0  0  0  0  0  0  0  # atno 17395 bound_to 11000

$$$$
