AV-unprocessed.smi:3071|AV-procd|sdf|11714|dock7
  -GOLD-   2272017113D 1   1.00000     0.00000
 Structure written by MMmdl.
 28 29  0  0  0  0  0  0  0  0  2 V2000
  151.8715  138.6049  155.4221 C   0  0  0  0  0  0  0  0  0  0  0  0
  150.8684  139.6905  155.1992 C   0  0  0  0  0  0  0  0  0  0  0  0
  150.0336  139.7224  154.1656 N   0  0  0  0  0  0  0  0  0  0  0  0
  149.2851  140.8800  154.3482 C   0  0  0  0  0  0  0  0  0  0  0  0
  149.6986  141.5128  155.4952 C   0  0  0  0  0  0  0  0  0  0  0  0
  150.7212  140.7400  156.0318 N   0  0  0  0  0  0  0  0  0  0  0  0
  151.4600  141.0332  157.2497 C   0  0  0  0  0  0  0  0  0  0  0  0
  150.9578  142.3089  157.9514 C   0  0  1  0  0  0  0  0  0  0  0  0
  151.5200  142.5419  159.3571 C   0  0  0  0  0  0  0  0  0  0  0  0
  151.3486  144.0448  159.5432 C   0  0  0  0  0  0  0  0  0  0  0  0
  151.6095  144.6095  158.1442 C   0  0  0  0  0  0  0  0  0  0  0  0
  151.2955  143.5272  157.1889 N   0  3  0  0  0  0  0  0  0  0  0  0
  151.7645  137.8279  154.6644 H   0  0  0  0  0  0  0  0  0  0  0  0
  151.7266  138.1486  156.4016 H   0  0  0  0  0  0  0  0  0  0  0  0
  152.8828  139.0058  155.3618 H   0  0  0  0  0  0  0  0  0  0  0  0
  148.5142  141.1644  153.6469 H   0  0  0  0  0  0  0  0  0  0  0  0
  149.3597  142.4272  155.9598 H   0  0  0  0  0  0  0  0  0  0  0  0
  151.3664  140.1758  157.9179 H   0  0  0  0  0  0  0  0  0  0  0  0
  152.5200  141.1196  157.0097 H   0  0  0  0  0  0  0  0  0  0  0  0
  149.8699  142.2787  158.0241 H   0  0  0  0  0  0  0  0  0  0  0  0
  151.0055  141.9595  160.1220 H   0  0  0  0  0  0  0  0  0  0  0  0
  152.5795  142.2841  159.3914 H   0  0  0  0  0  0  0  0  0  0  0  0
  150.3232  144.2624  159.8460 H   0  0  0  0  0  0  0  0  0  0  0  0
  152.0167  144.4592  160.2989 H   0  0  0  0  0  0  0  0  0  0  0  0
  151.0142  145.5009  157.9434 H   0  0  0  0  0  0  0  0  0  0  0  0
  152.6613  144.8747  158.0308 H   0  0  0  0  0  0  0  0  0  0  0  0
  152.1144  143.3521  156.6240 H   0  0  0  0  0  0  0  0  0  0  0  0
  150.5227  143.7883  156.5931 H   0  0  0  0  0  0  0  0  0  0  0  0
  1  2  1  0  0  0  0
  1 13  1  0  0  0  0
  1 14  1  0  0  0  0
  1 15  1  0  0  0  0
  2  6  1  0  0  0  0
  2  3  2  0  0  0  0
  3  4  1  0  0  0  0
  4  5  2  0  0  0  0
  4 16  1  0  0  0  0
  5  6  1  0  0  0  0
  5 17  1  0  0  0  0
  6  7  1  0  0  0  0
  7  8  1  0  0  0  0
  7 18  1  0  0  0  0
  7 19  1  0  0  0  0
  8 12  1  0  0  0  0
  8  9  1  0  0  0  0
  8 20  1  0  0  0  0
  9 10  1  0  0  0  0
  9 21  1  0  0  0  0
  9 22  1  0  0  0  0
 10 11  1  0  0  0  0
 10 23  1  0  0  0  0
 10 24  1  0  0  0  0
 11 12  1  0  0  0  0
 11 25  1  0  0  0  0
 11 26  1  0  0  0  0
 12 27  1  0  0  0  0
 12 28  1  0  0  0  0
M  CHG  1  12   1
M  END
> <s_m_source_file>
AV-unprocessed.smi

> <i_m_source_file_index>
3071

> <i_lp_mmshare_version>
43012

> <i_f3d_flags>
0

> <s_epik_input>
W0NIM11jMW5bY0hdW2NIXW4xW0NIMl1bQ0BASF0yW0NIMl1bQ0gyXVtDSDJdW05IXTI=

> <s_epik_cmdline>
J2VwaWtfcHl0aG9uJywgJy1waCcsICc3LjAnLCAnLXRuJywgJzgnLCAnLW1hJywgJzIwMCcsICctbWV0YWxfYmluZGluZycsICctaW1hZScsICc8aW5maWxlLm1hZT4nLCAnLW9tYWUnLCAnPG91dGZpbGUubWFlPic=

> <r_lp_tautomer_probability>
1

> <r_epik_Ionization_Penalty>
0.189495

> <r_epik_Ionization_Penalty_Charging>
0.189495

> <r_epik_Ionization_Penalty_Neutral>
1.84445e-13

> <r_epik_State_Penalty>
0.339469

> <r_epik_Charging_Adjusted_Penalty>
0.528964

> <i_epik_Tot_Q>
1

> <i_epik_Tot_abs_Q>
1

> <r_epik_Metal_State_Penalty>
0.000456861

> <b_epik_Metal_Only>
0

> <s_lp_Force_Field>
OPLS_2005

> <r_lp_Energy>
26.6713

> <b_lp_Chiralities_Consistent>
1

> <s_lp_Variant>
AV-unprocessed.smi:3071-2

> <Gold.Version>
5.8.1

> <Gold.Id.Protein>
6NUR|6NUR_protein|mol2

> <Gold.PLP.Fitness>
39.3115

> <Gold.PLP.PLP>
-30.4237

> <Gold.PLP.part.hbond>
-2.0000

> <Gold.PLP.part.metal>
0.0000

> <Gold.PLP.part.buried>
-2.6261

> <Gold.PLP.part.nonpolar>
-26.1919

> <Gold.PLP.part.repulsive>
1.1025

> <Gold.PLP.ligand.clash>
0.0000

> <Gold.PLP.ligand.torsion>
0.0561

> <Gold.PLP.Chemscore.Hbond>
2.0000

> <Gold.PLP.Chemscore.CHOScore>
1.0000

> <Gold.PLP.Chemscore.Metal>
0.0000

> <Gold.Chemscore.Hbonds>
donor molecule, donor type, donor heavy atom, donor atom, acceptor molecule, acceptor atom, score
      L1  H    12    28       P1  8028  1.72
      L1  C     5    17       P1  8028  1.00

> <Gold.PLP.Chemscore.Internal.Correction>
0.0000

> <Gold.Rescore>
     Score         DG    S(hbond)    S(metal)    S(lipo)     H(rot)  DE(clash)    DE(int)     intcor
     13.57     -14.22       0.99        0.00      73.08       1.22       0.33       0.32       ----

> <Gold.Chemscore.Fitness>
13.5669

> <Gold.Chemscore.DG>
-14.2199

> <Gold.Chemscore.ZeroCoef>
-5.4800

> <Gold.Chemscore.Hbond>
0.9915

> <Gold.Chemscore.Metal>
0.0000

> <Gold.Chemscore.Lipo>
73.0786

> <Gold.Chemscore.Internal_Hbond>
0.0000

> <Gold.Chemscore.DEClash>
0.3313

> <Gold.Chemscore.DEInternal>
0.3216

> <Gold.Chemscore.Rot>
1.2194

> <Gold.Chemscore.Internal.Correction>
   9.000000E+99

> <Gold.Chemscore.Hbonds>
donor molecule, donor type, donor heavy atom, donor atom, acceptor molecule, acceptor atom, score
      L1  H    12    28       P1  8028  0.84

> <Gold.Chemscore.Hbond.Weighted>
-3.3115

> <Gold.Chemscore.Metal.Weighted>
-0.0000

> <Gold.Chemscore.Lipo.Weighted>
-8.5502

> <Gold.Chemscore.Internal_Hbond.Weighted>
0.0000

> <Gold.Chemscore.DEClash.Weighted>
0.3313

> <Gold.Chemscore.DEInternal.Weighted>
0.3216

> <Gold.Chemscore.Rot.Weighted>
3.1218

> <Gold.Chemscore.Internal.Correction.Weighted>
   9.000000E+99

> <Gold.Protein.RotatedTorsions>
[ 6907 6896 6895 6894 ] final   99.52 input  -60.11 | X-H torsion
[ 7974 7965 7964 7962 ] final  106.07 input  175.53 | X-H torsion
[ 8008 7997 7996 7995 ] final  -13.05 input   59.86 | X-H torsion
[ 10167 10162 10161 10158 ] final   69.58 input  -65.29 | X-H torsion
[ 10718 10713 10712 10709 ] final -176.49 input   66.30 | X-H torsion
[ 10763 10752 10751 10750 ] final  118.90 input  -60.55 | X-H torsion
[ 11005 11000 10999 10996 ] final  -53.83 input  -57.11 | X-H torsion

> <Gold.Protein.ActiveResidues>
 VAL166  LYS551  ARG553  GLY616  TRP617  ASP618  TYR619  PRO620  LYS621  CYS622 
 ASP623  PHE694  ASN695  SER759  ASP760  ASP761  ALA762  ILE779  LEU786  VAL792 
 PHE793  MET794  SER795  GLU796  ALA797  LYS798  CYS799  TRP800  GLU811  SER814 

> <Gold.Protein.RotatedAtoms>
  152.5390  134.0416  159.8069 H   0  0  0  0  0  0  0  0  0  0  0  0  # atno 6907 bound_to 6896
  151.0571  133.5567  159.2644 H   0  0  0  0  0  0  0  0  0  0  0  0  # atno 6908 bound_to 6896
  151.2480  135.0620  159.9104 H   0  0  0  0  0  0  0  0  0  0  0  0  # atno 6909 bound_to 6896
  145.3114  139.2539  143.3761 H   0  0  0  0  0  0  0  0  0  0  0  0  # atno 7974 bound_to 7965
  154.5325  140.2260  155.8780 H   0  0  0  0  0  0  0  0  0  0  0  0  # atno 8008 bound_to 7997
  156.1778  140.3107  155.9055 H   0  0  0  0  0  0  0  0  0  0  0  0  # atno 8009 bound_to 7997
  155.3422  140.0451  157.3035 H   0  0  0  0  0  0  0  0  0  0  0  0  # atno 8010 bound_to 7997
  140.0663  144.5190  150.7258 H   0  0  0  0  0  0  0  0  0  0  0  0  # atno 10167 bound_to 10162
  156.8154  130.9601  151.3114 H   0  0  0  0  0  0  0  0  0  0  0  0  # atno 10718 bound_to 10713
  153.5747  135.3495  155.2851 H   0  0  0  0  0  0  0  0  0  0  0  0  # atno 10763 bound_to 10752
  154.8677  135.4167  154.2687 H   0  0  0  0  0  0  0  0  0  0  0  0  # atno 10764 bound_to 10752
  153.3460  135.7052  153.6898 H   0  0  0  0  0  0  0  0  0  0  0  0  # atno 10765 bound_to 10752
  141.0995  133.6620  156.4230 H   0  0  0  0  0  0  0  0  0  0  0  0  # atno 11005 bound_to 11000
  146.3116  140.3650  142.8668 LP  0  0  0  0  0  0  0  0  0  0  0  0  # atno 17320 bound_to 7965
  144.9013  140.7646  143.5865 LP  0  0  0  0  0  0  0  0  0  0  0  0  # atno 17321 bound_to 7965
  140.7147  143.2534  151.4470 LP  0  0  0  0  0  0  0  0  0  0  0  0  # atno 17342 bound_to 10162
  139.5863  144.1597  152.2033 LP  0  0  0  0  0  0  0  0  0  0  0  0  # atno 17343 bound_to 10162
  157.6484  130.8864  149.9584 LP  0  0  0  0  0  0  0  0  0  0  0  0  # atno 17370 bound_to 10713
  156.1020  130.3655  150.0202 LP  0  0  0  0  0  0  0  0  0  0  0  0  # atno 17371 bound_to 10713
  140.5056  134.6444  157.5265 LP  0  0  0  0  0  0  0  0  0  0  0  0  # atno 17394 bound_to 11000
  139.9842  134.7088  155.9803 LP  0  0  0  0  0  0  0  0  0  0  0  0  # atno 17395 bound_to 11000

$$$$
