#       Name:                AV-unprocessed.smi:1750
#       Creating user name   scv26
#       Creation time:       Fri Mar 27 08:27:01 2020


#       File generated by GOLD software.
#

@<TRIPOS>MOLECULE
AV-unprocessed.smi:1750
    42    43     1
SMALL
NO_CHARGES


@<TRIPOS>ATOM
      1 ****        -7.1455   2.0755   0.4090 C.3            1 S1                 0.0000
      2 ****        -5.6915   1.6301   0.5975 C.3            1 S1                 0.0000
      3 ****        -5.4966   0.1287   0.3444 C.3            1 S1                 0.0000
      4 ****        -4.0776  -0.3006   0.5158 C.2            1 S1                 0.0000
      5 ****        -3.5801  -0.7116   1.6852 N.2            1 S1                 0.0000
      6 ****        -2.2323  -1.0285   1.5974 N.2            1 S1                 0.0000
      7 ****        -1.7229  -0.8254   0.3739 C.2            1 S1                 0.0000
      8 ****        -0.4343  -1.0650   0.0790 N.pl3          1 S1                -1.0000
      9 ****         0.4640  -0.0543   0.1094 C.2            1 S1                 0.0000
     10 ****         0.2321   1.1216   0.3996 O.2            1 S1                 0.0000
     11 ****         1.7082  -0.4268  -0.2171 N.am           1 S1                 0.0000
     12 ****         2.8669   0.4566  -0.2582 C.3            1 S1                 0.0000
     13 ****         4.0939  -0.2751  -0.8207 C.3            1 S1                 0.0000
     14 ****         4.5704  -1.4632   0.0122 C.3            1 S1                 0.0000
     15 ****         6.0252  -1.6095  -0.4013 C.3            1 S1                 0.0000
     16 ****         6.3827  -0.2431  -0.9964 C.3            1 S1                 0.0000
     17 ****         5.2316   0.5718  -0.8115 O.3            1 S1                 0.0000
     18 ****        -2.9085  -0.2402  -0.7926 S.3            1 S1                 0.0000
     19 ****        -7.2520   3.1433   0.6005 H              1 S1                 0.0000
     20 ****        -7.8108   1.5465   1.0917 H              1 S1                 0.0000
     21 ****        -7.4867   1.8842  -0.6087 H              1 S1                 0.0000
     22 ****        -5.0520   2.2002  -0.0774 H              1 S1                 0.0000
     23 ****        -5.3678   1.8753   1.6098 H              1 S1                 0.0000
     24 ****        -6.1231  -0.4506   1.0238 H              1 S1                 0.0000
     25 ****        -5.8154  -0.1259  -0.6669 H              1 S1                 0.0000
     26 ****         1.8605  -1.3974  -0.4476 H              1 S1                 0.0000
     27 ****         2.6427   1.3260  -0.8782 H              1 S1                 0.0000
     28 ****         3.0736   0.8254   0.7476 H              1 S1                 0.0000
     29 ****         3.9045  -0.5926  -1.8480 H              1 S1                 0.0000
     30 ****         4.5131  -1.2240   1.0750 H              1 S1                 0.0000
     31 ****         3.9851  -2.3664  -0.1627 H              1 S1                 0.0000
     32 ****         6.6576  -1.8673   0.4489 H              1 S1                 0.0000
     33 ****         6.1396  -2.3902  -1.1542 H              1 S1                 0.0000
     34 ****         7.2523   0.2057  -0.5158 H              1 S1                 0.0000
     35 ****         6.5938  -0.3334  -2.0626 H              1 S1                 0.0000
     36 ****        -4.1167  -0.7826   2.5261 LP             1 S1                 0.0000
     37 ****        -1.6957  -1.3731   2.3677 LP             1 S1                 0.0000
     38 ****        -0.1396  -1.9895  -0.1627 LP             1 S1                 0.0000
     39 ****        -0.6961   1.4028   0.6431 LP             1 S1                 0.0000
     40 ****         0.9723   1.7940   0.3913 LP             1 S1                 0.0000
     41 ****         5.2915   1.0513   0.0640 LP             1 S1                 0.0000
     42 ****         5.1647   1.2392  -1.5532 LP             1 S1                 0.0000
@<TRIPOS>BOND
    1    1    2 1     
    2    1   19 1     
    3    1   20 1     
    4    1   21 1     
    5    2    3 1     
    6    2   22 1     
    7    2   23 1     
    8    3    4 1     
    9    3   24 1     
   10    3   25 1     
   11    4   18 1     
   12    4    5 2     
   13    5    6 1     
   14    6    7 2     
   15    7    8 1     
   16    7   18 1     
   17    8    9 1     
   18    9   10 2     
   19    9   11 am    
   20   11   12 1     
   21   11   26 1     
   22   12   13 1     
   23   12   27 1     
   24   12   28 1     
   25   13   17 1     
   26   13   14 1     
   27   13   29 1     
   28   14   15 1     
   29   14   30 1     
   30   14   31 1     
   31   15   16 1     
   32   15   32 1     
   33   15   33 1     
   34   16   17 1     
   35   16   34 1     
   36   16   35 1     
   37    5   36 1     
   38    6   37 1     
   39    8   38 1     
   40   10   39 1     
   41   10   40 1     
   42   17   41 1     
   43   17   42 1     
@<TRIPOS>SUBSTRUCTURE
      1 S1             1
@<TRIPOS>SET
LONE_PAIRS      STATIC     ATOMS    <user>   **** ""
7 36 37 38 39 40 41 42
DONOR_HYDROGENS      STATIC     ATOMS    <user>   **** ""
1 26
ATOM$BLUE        STATIC     ATOMS    COLORGROUP SYSTEM
7 36 37 38 39 40 41 42
ATOM$RED        STATIC     ATOMS    COLORGROUP SYSTEM
1 26
