AV-unprocessed.smi:61|AV-procd|sdf|595|dock2
  -GOLD-   2262016493D 1   1.00000     0.00000
 Structure written by MMmdl.
 29 30  0  0  0  0  0  0  0  0  2 V2000
  146.7081  138.2010  152.0688 N   0  0  0  0  0  0  0  0  0  0  0  0
  147.1708  139.2062  152.8840 C   0  0  0  0  0  0  0  0  0  0  0  0
  146.5221  140.3789  152.8889 N   0  3  0  0  0  0  0  0  0  0  0  0
  146.9645  141.3807  153.6864 C   0  0  0  0  0  0  0  0  0  0  0  0
  148.0960  141.1931  154.5013 C   0  0  0  0  0  0  0  0  0  0  0  0
  148.7325  139.9356  154.4473 C   0  0  0  0  0  0  0  0  0  0  0  0
  149.8759  139.6721  155.2316 N   0  0  0  0  0  0  0  0  0  0  0  0
  150.2842  140.7088  156.1745 C   0  0  0  0  0  0  0  0  0  0  0  0
  151.8151  140.7061  156.1792 C   0  0  0  0  0  0  0  0  0  0  0  0
  152.1733  139.3133  155.6736 C   0  0  0  0  0  0  0  0  0  0  0  0
  151.0556  139.0159  154.6684 C   0  0  1  0  0  0  0  0  0  0  0  0
  150.8499  137.5070  154.4240 C   0  0  0  0  0  0  0  0  0  0  0  0
  151.9699  136.9712  153.7534 O   0  0  0  0  0  0  0  0  0  0  0  0
  148.2505  138.9663  153.6356 N   0  0  0  0  0  0  0  0  0  0  0  0
  147.1779  137.3072  152.0445 H   0  0  0  0  0  0  0  0  0  0  0  0
  145.9346  138.3633  151.4406 H   0  0  0  0  0  0  0  0  0  0  0  0
  146.3980  142.2996  153.6477 H   0  0  0  0  0  0  0  0  0  0  0  0
  148.4496  141.9861  155.1442 H   0  0  0  0  0  0  0  0  0  0  0  0
  149.9001  141.6946  155.9084 H   0  0  0  0  0  0  0  0  0  0  0  0
  149.8992  140.4504  157.1615 H   0  0  0  0  0  0  0  0  0  0  0  0
  152.1865  141.4551  155.4785 H   0  0  0  0  0  0  0  0  0  0  0  0
  152.2361  140.9253  157.1606 H   0  0  0  0  0  0  0  0  0  0  0  0
  153.1676  139.2664  155.2282 H   0  0  0  0  0  0  0  0  0  0  0  0
  152.1416  138.6050  156.5030 H   0  0  0  0  0  0  0  0  0  0  0  0
  151.2983  139.5088  153.7254 H   0  0  0  0  0  0  0  0  0  0  0  0
  150.7048  136.9767  155.3659 H   0  0  0  0  0  0  0  0  0  0  0  0
  149.9693  137.3147  153.8120 H   0  0  0  0  0  0  0  0  0  0  0  0
  151.6982  136.6845  152.8947 H   0  0  0  0  0  0  0  0  0  0  0  0
  145.7004  140.5276  152.3026 H   0  0  0  0  0  0  0  0  0  0  0  0
  1  2  1  0  0  0  0
  1 15  1  0  0  0  0
  1 16  1  0  0  0  0
  2 14  1  0  0  0  0
  2  3  2  0  0  0  0
  3  4  1  0  0  0  0
  3 29  1  0  0  0  0
  4  5  2  0  0  0  0
  4 17  1  0  0  0  0
  5  6  1  0  0  0  0
  5 18  1  0  0  0  0
  6  7  1  0  0  0  0
  6 14  2  0  0  0  0
  7 11  1  0  0  0  0
  7  8  1  0  0  0  0
  8  9  1  0  0  0  0
  8 19  1  0  0  0  0
  8 20  1  0  0  0  0
  9 10  1  0  0  0  0
  9 21  1  0  0  0  0
  9 22  1  0  0  0  0
 10 11  1  0  0  0  0
 10 23  1  0  0  0  0
 10 24  1  0  0  0  0
 11 12  1  0  0  0  0
 11 25  1  0  0  0  0
 12 13  1  0  0  0  0
 12 26  1  0  0  0  0
 12 27  1  0  0  0  0
 13 28  1  0  0  0  0
M  CHG  1   3   1
M  END
> <s_m_source_file>
AV-unprocessed.smi

> <i_m_source_file_index>
61

> <i_lp_mmshare_version>
43012

> <i_f3d_flags>
0

> <s_epik_input>
W05IMl1jMW5bY0hdW2NIXWMobjEpTjJbQ0gyXVtDSDJdW0NIMl1bQ0BIXTJbQ0gyXVtPSF0=

> <s_epik_cmdline>
J2VwaWtfcHl0aG9uJywgJy1waCcsICc3LjAnLCAnLXRuJywgJzgnLCAnLW1hJywgJzIwMCcsICctbWV0YWxfYmluZGluZycsICctaW1hZScsICc8aW5maWxlLm1hZT4nLCAnLW9tYWUnLCAnPG91dGZpbGUubWFlPic=

> <r_lp_tautomer_probability>
0.575011

> <r_epik_Ionization_Penalty>
0.303659

> <r_epik_Ionization_Penalty_Charging>
0.303655

> <r_epik_Ionization_Penalty_Neutral>
4.42648e-06

> <r_epik_State_Penalty>
0.524608

> <r_epik_Charging_Adjusted_Penalty>
0.828263

> <i_epik_Tot_Q>
1

> <i_epik_Tot_abs_Q>
1

> <r_epik_Metal_State_Penalty>
0.785265

> <b_epik_Metal_Only>
0

> <s_lp_Force_Field>
OPLS_2005

> <r_lp_Energy>
27.124

> <b_lp_Chiralities_Consistent>
1

> <s_lp_Variant>
AV-unprocessed.smi:61-1

> <Gold.Version>
5.8.1

> <Gold.Id.Protein>
6NUR|6NUR_protein|mol2

> <Gold.PLP.Fitness>
44.0326

> <Gold.PLP.PLP>
-27.3237

> <Gold.PLP.part.hbond>
-4.0000

> <Gold.PLP.part.metal>
0.0000

> <Gold.PLP.part.buried>
-4.7277

> <Gold.PLP.part.nonpolar>
-20.3107

> <Gold.PLP.part.repulsive>
1.1865

> <Gold.PLP.ligand.clash>
0.0000

> <Gold.PLP.ligand.torsion>
0.2270

> <Gold.PLP.Chemscore.Hbond>
5.6000

> <Gold.PLP.Chemscore.CHOScore>
0.0000

> <Gold.PLP.Chemscore.Metal>
0.0000

> <Gold.Chemscore.Hbonds>
donor molecule, donor type, donor heavy atom, donor atom, acceptor molecule, acceptor atom, score
      L1  H     1    15       P1  7948  1.75
      L1  H     3    29       P1 10175  1.60
      L1  H    13    28       P1  7949  1.00
      P1  H 10752 10765       L1    13  1.00

> <Gold.PLP.Chemscore.Internal.Correction>
0.3630

> <Gold.Rescore>
     Score         DG    S(hbond)    S(metal)    S(lipo)     H(rot)  DE(clash)    DE(int)     intcor
     16.57     -17.55       3.46        0.00      47.88       1.98       0.13       0.85       ----

> <Gold.Chemscore.Fitness>
16.5682

> <Gold.Chemscore.DG>
-17.5498

> <Gold.Chemscore.ZeroCoef>
-5.4800

> <Gold.Chemscore.Hbond>
3.4571

> <Gold.Chemscore.Metal>
0.0000

> <Gold.Chemscore.Lipo>
47.8770

> <Gold.Chemscore.Internal_Hbond>
0.0000

> <Gold.Chemscore.DEClash>
0.1334

> <Gold.Chemscore.DEInternal>
0.8482

> <Gold.Chemscore.Rot>
1.9838

> <Gold.Chemscore.Internal.Correction>
   9.000000E+99

> <Gold.Chemscore.Hbonds>
donor molecule, donor type, donor heavy atom, donor atom, acceptor molecule, acceptor atom, score
      L1  H     1    15       P1  7948  0.82
      L1  H     3    29       P1 10175  0.23
      L1  H    13    28       P1  7949  0.99
      P1  H 10752 10765       L1    13  0.25

> <Gold.Chemscore.Hbond.Weighted>
-11.5468

> <Gold.Chemscore.Metal.Weighted>
-0.0000

> <Gold.Chemscore.Lipo.Weighted>
-5.6016

> <Gold.Chemscore.Internal_Hbond.Weighted>
0.0000

> <Gold.Chemscore.DEClash.Weighted>
0.1334

> <Gold.Chemscore.DEInternal.Weighted>
0.8482

> <Gold.Chemscore.Rot.Weighted>
5.0786

> <Gold.Chemscore.Internal.Correction.Weighted>
   9.000000E+99

> <Gold.Protein.RotatedTorsions>
[ 6907 6896 6895 6894 ] final  -21.59 input  -60.11 | X-H torsion
[ 7974 7965 7964 7962 ] final  135.21 input  175.53 | X-H torsion
[ 8008 7997 7996 7995 ] final -141.57 input   59.86 | X-H torsion
[ 10167 10162 10161 10158 ] final   57.23 input  -65.29 | X-H torsion
[ 10718 10713 10712 10709 ] final  -46.25 input   66.30 | X-H torsion
[ 10763 10752 10751 10750 ] final  157.74 input  -60.55 | X-H torsion
[ 11005 11000 10999 10996 ] final  178.53 input  -57.11 | X-H torsion

> <Gold.Protein.ActiveResidues>
 VAL166  LYS551  ARG553  GLY616  TRP617  ASP618  TYR619  PRO620  LYS621  CYS622 
 ASP623  PHE694  ASN695  SER759  ASP760  ASP761  ALA762  ILE779  LEU786  VAL792 
 PHE793  MET794  SER795  GLU796  ALA797  LYS798  CYS799  TRP800  GLU811  SER814 

> <Gold.Protein.RotatedAtoms>
  151.2311  135.0555  159.8987 H   0  0  0  0  0  0  0  0  0  0  0  0  # atno 6907 bound_to 6896
  152.5404  134.0536  159.8131 H   0  0  0  0  0  0  0  0  0  0  0  0  # atno 6908 bound_to 6896
  151.0715  133.5413  159.2658 H   0  0  0  0  0  0  0  0  0  0  0  0  # atno 6909 bound_to 6896
  144.9686  139.4631  143.5444 H   0  0  0  0  0  0  0  0  0  0  0  0  # atno 7974 bound_to 7965
  155.4801  140.0559  157.2968 H   0  0  0  0  0  0  0  0  0  0  0  0  # atno 8008 bound_to 7997
  154.4664  140.2020  156.0060 H   0  0  0  0  0  0  0  0  0  0  0  0  # atno 8009 bound_to 7997
  156.0981  140.3223  155.7909 H   0  0  0  0  0  0  0  0  0  0  0  0  # atno 8010 bound_to 7997
  140.2002  144.3996  150.6532 H   0  0  0  0  0  0  0  0  0  0  0  0  # atno 10167 bound_to 10162
  156.2202  130.4166  149.9002 H   0  0  0  0  0  0  0  0  0  0  0  0  # atno 10718 bound_to 10713
  154.2051  135.2788  155.2977 H   0  0  0  0  0  0  0  0  0  0  0  0  # atno 10763 bound_to 10752
  154.5823  135.5585  153.7201 H   0  0  0  0  0  0  0  0  0  0  0  0  # atno 10764 bound_to 10752
  153.0078  135.6348  154.2190 H   0  0  0  0  0  0  0  0  0  0  0  0  # atno 10765 bound_to 10752
  140.3961  134.6819  157.4535 H   0  0  0  0  0  0  0  0  0  0  0  0  # atno 11005 bound_to 11000
  146.3375  139.8883  142.8813 LP  0  0  0  0  0  0  0  0  0  0  0  0  # atno 17320 bound_to 7965
  145.2593  141.0071  143.3836 LP  0  0  0  0  0  0  0  0  0  0  0  0  # atno 17321 bound_to 7965
  140.6395  143.2201  151.6320 LP  0  0  0  0  0  0  0  0  0  0  0  0  # atno 17342 bound_to 10162
  139.5220  144.3175  152.0939 LP  0  0  0  0  0  0  0  0  0  0  0  0  # atno 17343 bound_to 10162
  156.6651  130.8798  151.3553 LP  0  0  0  0  0  0  0  0  0  0  0  0  # atno 17370 bound_to 10713
  157.7084  130.9411  150.1005 LP  0  0  0  0  0  0  0  0  0  0  0  0  # atno 17371 bound_to 10713
  140.0371  134.6322  155.9029 LP  0  0  0  0  0  0  0  0  0  0  0  0  # atno 17394 bound_to 11000
  141.1874  133.6559  156.5278 LP  0  0  0  0  0  0  0  0  0  0  0  0  # atno 17395 bound_to 11000

$$$$
