AV-unprocessed.smi:1365|AV-procd|sdf|5569|dock9
  -GOLD-   22720 5163D 1   1.00000     0.00000
 Structure written by MMmdl.
 41 42  0  0  0  0  0  0  0  0  3 V2000
  151.1272  141.4561  156.4269 C   0  0  0  0  0  0  0  0  0  0  0  0
  151.4944  140.1061  155.9131 C   0  0  0  0  0  0  0  0  0  0  0  0
  150.7682  139.1062  155.3311 C   0  0  0  0  0  0  0  0  0  0  0  0
  151.7388  138.0939  155.0971 C   0  0  0  0  0  0  0  0  0  0  0  0
  151.5147  136.9012  154.5242 N   0  5  0  0  0  0  0  0  0  0  0  0
  150.4978  136.1195  154.9539 C   0  0  0  0  0  0  0  0  0  0  0  0
  149.7169  136.3719  155.8744 O   0  0  0  0  0  0  0  0  0  0  0  0
  150.3786  134.9708  154.2751 N   0  0  0  0  0  0  0  0  0  0  0  0
  149.3827  133.9405  154.5359 C   0  0  0  0  0  0  0  0  0  0  0  0
  149.0398  133.1866  153.2446 C   0  0  0  0  0  0  0  0  0  0  0  0
  148.0942  132.0007  153.4983 C   0  0  0  0  0  0  0  0  0  0  0  0
  147.2000  131.7315  152.3438 N   0  3  0  0  0  0  0  0  0  0  0  0
  146.5384  132.9663  151.8466 C   0  0  0  0  0  0  0  0  0  0  0  0
  145.7249  132.6892  150.5708 C   0  0  0  0  0  0  0  0  0  0  0  0
  144.6947  131.5771  150.8047 C   0  0  0  0  0  0  0  0  0  0  0  0
  145.3933  130.3240  151.3474 C   0  0  0  0  0  0  0  0  0  0  0  0
  146.2115  130.6509  152.6083 C   0  0  0  0  0  0  0  0  0  0  0  0
  152.9501  138.4554  155.4857 N   0  0  0  0  0  0  0  0  0  0  0  0
  152.8009  139.7420  156.0168 O   0  0  0  0  0  0  0  0  0  0  0  0
  150.5900  142.0246  155.6677 H   0  0  0  0  0  0  0  0  0  0  0  0
  152.0136  142.0242  156.7100 H   0  0  0  0  0  0  0  0  0  0  0  0
  150.4856  141.3721  157.3042 H   0  0  0  0  0  0  0  0  0  0  0  0
  149.7110  139.0965  155.1125 H   0  0  0  0  0  0  0  0  0  0  0  0
  151.0353  134.8020  153.5272 H   0  0  0  0  0  0  0  0  0  0  0  0
  149.7650  133.2422  155.2824 H   0  0  0  0  0  0  0  0  0  0  0  0
  148.4887  134.4056  154.9542 H   0  0  0  0  0  0  0  0  0  0  0  0
  148.5771  133.8744  152.5353 H   0  0  0  0  0  0  0  0  0  0  0  0
  149.9662  132.8441  152.7843 H   0  0  0  0  0  0  0  0  0  0  0  0
  148.6572  131.1009  153.7511 H   0  0  0  0  0  0  0  0  0  0  0  0
  147.4884  132.2402  154.3734 H   0  0  0  0  0  0  0  0  0  0  0  0
  145.8917  133.3728  152.6260 H   0  0  0  0  0  0  0  0  0  0  0  0
  147.2900  133.7265  151.6296 H   0  0  0  0  0  0  0  0  0  0  0  0
  145.2216  133.5999  150.2443 H   0  0  0  0  0  0  0  0  0  0  0  0
  146.3980  132.4011  149.7620 H   0  0  0  0  0  0  0  0  0  0  0  0
  143.9394  131.9159  151.5152 H   0  0  0  0  0  0  0  0  0  0  0  0
  144.1705  131.3457  149.8768 H   0  0  0  0  0  0  0  0  0  0  0  0
  144.6542  129.5541  151.5714 H   0  0  0  0  0  0  0  0  0  0  0  0
  146.0500  129.9086  150.5819 H   0  0  0  0  0  0  0  0  0  0  0  0
  146.7162  129.7455  152.9433 H   0  0  0  0  0  0  0  0  0  0  0  0
  145.5452  130.9566  153.4167 H   0  0  0  0  0  0  0  0  0  0  0  0
  147.7943  131.4112  151.5925 H   0  0  0  0  0  0  0  0  0  0  0  0
  1  2  1  0  0  0  0
  1 20  1  0  0  0  0
  1 21  1  0  0  0  0
  1 22  1  0  0  0  0
  2 19  1  0  0  0  0
  2  3  2  0  0  0  0
  3  4  1  0  0  0  0
  3 23  1  0  0  0  0
  4  5  1  0  0  0  0
  4 18  2  0  0  0  0
  5  6  1  0  0  0  0
  6  7  2  0  0  0  0
  6  8  1  0  0  0  0
  8  9  1  0  0  0  0
  8 24  1  0  0  0  0
  9 10  1  0  0  0  0
  9 25  1  0  0  0  0
  9 26  1  0  0  0  0
 10 11  1  0  0  0  0
 10 27  1  0  0  0  0
 10 28  1  0  0  0  0
 11 12  1  0  0  0  0
 11 29  1  0  0  0  0
 11 30  1  0  0  0  0
 12 17  1  0  0  0  0
 12 13  1  0  0  0  0
 12 41  1  0  0  0  0
 13 14  1  0  0  0  0
 13 31  1  0  0  0  0
 13 32  1  0  0  0  0
 14 15  1  0  0  0  0
 14 33  1  0  0  0  0
 14 34  1  0  0  0  0
 15 16  1  0  0  0  0
 15 35  1  0  0  0  0
 15 36  1  0  0  0  0
 16 17  1  0  0  0  0
 16 37  1  0  0  0  0
 16 38  1  0  0  0  0
 17 39  1  0  0  0  0
 17 40  1  0  0  0  0
 18 19  1  0  0  0  0
M  CHG  1   5  -1
M  CHG  1  12   1
M  END
> <s_m_source_file>
AV-unprocessed.smi

> <i_m_source_file_index>
1365

> <i_lp_mmshare_version>
43012

> <i_f3d_flags>
0

> <s_epik_input>
W0NIM11jMVtjSF1jKG5vMSlbTkhdQyg9TylbTkhdW0NIMl1bQ0gyXVtDSDJdTjJbQ0gyXVtDSDJdW0NIMl1bQ0gyXVtDSDJdMg==

> <s_epik_cmdline>
J2VwaWtfcHl0aG9uJywgJy1waCcsICc3LjAnLCAnLXRuJywgJzgnLCAnLW1hJywgJzIwMCcsICctbWV0YWxfYmluZGluZycsICctaW1hZScsICc8aW5maWxlLm1hZT4nLCAnLW9tYWUnLCAnPG91dGZpbGUubWFlPic=

> <r_epik_Ionization_Penalty>
6.42355

> <r_epik_Ionization_Penalty_Charging>
6.42345

> <r_epik_Ionization_Penalty_Neutral>
0.000108417

> <r_epik_State_Penalty>
6.4233

> <r_epik_Charging_Adjusted_Penalty>
12.8467

> <i_epik_Tot_Q>
0

> <i_epik_Tot_abs_Q>
2

> <r_epik_Metal_State_Penalty>
2.35308

> <b_epik_Metal_Only>
1

> <s_lp_Force_Field>
OPLS_2005

> <r_lp_Energy>
6.88196

> <b_lp_Chiralities_Consistent>
1

> <s_lp_Variant>
AV-unprocessed.smi:1365-2

> <Gold.Version>
5.8.1

> <Gold.Id.Protein>
6NUR|6NUR_protein|mol2

> <Gold.PLP.Fitness>
47.5364

> <Gold.PLP.PLP>
-36.8705

> <Gold.PLP.part.hbond>
-5.2584

> <Gold.PLP.part.metal>
0.0000

> <Gold.PLP.part.buried>
-2.8449

> <Gold.PLP.part.nonpolar>
-28.9900

> <Gold.PLP.part.repulsive>
0.5131

> <Gold.PLP.ligand.clash>
0.0000

> <Gold.PLP.ligand.torsion>
0.8559

> <Gold.PLP.Chemscore.Hbond>
4.1082

> <Gold.PLP.Chemscore.CHOScore>
0.0000

> <Gold.PLP.Chemscore.Metal>
0.0000

> <Gold.Chemscore.Hbonds>
donor molecule, donor type, donor heavy atom, donor atom, acceptor molecule, acceptor atom, score
      L1  H     8    24       P1  7949  0.09
      L1  H    12    41       P1 10747  1.00
      P1  H  7997  8008       L1    19  1.00
      P1  H 10752 10764       L1     5  2.00

> <Gold.PLP.Chemscore.Internal.Correction>
0.0532

> <Gold.Rescore>
     Score         DG    S(hbond)    S(metal)    S(lipo)     H(rot)  DE(clash)    DE(int)     intcor
     17.53     -19.30       2.62        0.00      82.17       1.78       0.14       1.63       ----

> <Gold.Chemscore.Fitness>
17.5327

> <Gold.Chemscore.DG>
-19.3001

> <Gold.Chemscore.ZeroCoef>
-5.4800

> <Gold.Chemscore.Hbond>
2.6217

> <Gold.Chemscore.Metal>
0.0000

> <Gold.Chemscore.Lipo>
82.1738

> <Gold.Chemscore.Internal_Hbond>
0.0000

> <Gold.Chemscore.DEClash>
0.1388

> <Gold.Chemscore.DEInternal>
1.6286

> <Gold.Chemscore.Rot>
1.7776

> <Gold.Chemscore.Internal.Correction>
   9.000000E+99

> <Gold.Chemscore.Hbonds>
donor molecule, donor type, donor heavy atom, donor atom, acceptor molecule, acceptor atom, score
      L1  H     8    24       P1  7949  0.01
      L1  H    12    41       P1 10747  1.00
      P1  H  7997  8008       L1    19  0.30
      P1  H 10752 10764       L1     5  0.34

> <Gold.Chemscore.Hbond.Weighted>
-8.7565

> <Gold.Chemscore.Metal.Weighted>
-0.0000

> <Gold.Chemscore.Lipo.Weighted>
-9.6143

> <Gold.Chemscore.Internal_Hbond.Weighted>
0.0000

> <Gold.Chemscore.DEClash.Weighted>
0.1388

> <Gold.Chemscore.DEInternal.Weighted>
1.6286

> <Gold.Chemscore.Rot.Weighted>
4.5506

> <Gold.Chemscore.Internal.Correction.Weighted>
   9.000000E+99

> <Gold.Protein.RotatedTorsions>
[ 6907 6896 6895 6894 ] final  130.85 input  -60.11 | X-H torsion
[ 7974 7965 7964 7962 ] final  -24.24 input  175.53 | X-H torsion
[ 8008 7997 7996 7995 ] final  -37.97 input   59.86 | X-H torsion
[ 10167 10162 10161 10158 ] final    0.91 input  -65.29 | X-H torsion
[ 10718 10713 10712 10709 ] final  -44.63 input   66.30 | X-H torsion
[ 10763 10752 10751 10750 ] final  -73.51 input  -60.55 | X-H torsion
[ 11005 11000 10999 10996 ] final -143.28 input  -57.11 | X-H torsion

> <Gold.Protein.ActiveResidues>
 VAL166  LYS551  ARG553  GLY616  TRP617  ASP618  TYR619  PRO620  LYS621  CYS622 
 ASP623  PHE694  ASN695  SER759  ASP760  ASP761  ALA762  ILE779  LEU786  VAL792 
 PHE793  MET794  SER795  GLU796  ALA797  LYS798  CYS799  TRP800  GLU811  SER814 

> <Gold.Protein.RotatedAtoms>
  152.3485  133.6150  159.5927 H   0  0  0  0  0  0  0  0  0  0  0  0  # atno 6907 bound_to 6896
  150.7522  133.9612  159.3525 H   0  0  0  0  0  0  0  0  0  0  0  0  # atno 6908 bound_to 6896
  151.7467  135.0843  160.0375 H   0  0  0  0  0  0  0  0  0  0  0  0  # atno 6909 bound_to 6896
  146.1567  140.4725  142.8588 H   0  0  0  0  0  0  0  0  0  0  0  0  # atno 7974 bound_to 7965
  154.4044  140.1590  156.2624 H   0  0  0  0  0  0  0  0  0  0  0  0  # atno 8008 bound_to 7997
  155.9025  140.3432  155.6015 H   0  0  0  0  0  0  0  0  0  0  0  0  # atno 8009 bound_to 7997
  155.7431  140.0795  157.2227 H   0  0  0  0  0  0  0  0  0  0  0  0  # atno 8010 bound_to 7997
  140.6707  143.7056  150.7917 H   0  0  0  0  0  0  0  0  0  0  0  0  # atno 10167 bound_to 10162
  156.2366  130.4176  149.8810 H   0  0  0  0  0  0  0  0  0  0  0  0  # atno 10718 bound_to 10713
  154.4604  135.5895  153.6252 H   0  0  0  0  0  0  0  0  0  0  0  0  # atno 10763 bound_to 10752
  152.9822  135.6042  154.3493 H   0  0  0  0  0  0  0  0  0  0  0  0  # atno 10764 bound_to 10752
  154.3365  135.2842  155.2424 H   0  0  0  0  0  0  0  0  0  0  0  0  # atno 10765 bound_to 10752
  140.8141  134.2709  157.4928 H   0  0  0  0  0  0  0  0  0  0  0  0  # atno 11005 bound_to 11000
  144.7972  140.6146  143.6502 LP  0  0  0  0  0  0  0  0  0  0  0  0  # atno 17320 bound_to 7965
  145.4691  139.1505  143.3824 LP  0  0  0  0  0  0  0  0  0  0  0  0  # atno 17321 bound_to 7965
  140.0741  143.5032  152.2564 LP  0  0  0  0  0  0  0  0  0  0  0  0  # atno 17342 bound_to 10162
  139.5974  144.7571  151.3252 LP  0  0  0  0  0  0  0  0  0  0  0  0  # atno 17343 bound_to 10162
  156.6406  130.8703  151.3513 LP  0  0  0  0  0  0  0  0  0  0  0  0  # atno 17370 bound_to 10713
  157.7157  130.9494  150.1247 LP  0  0  0  0  0  0  0  0  0  0  0  0  # atno 17371 bound_to 10713
  139.8712  134.9499  156.4040 LP  0  0  0  0  0  0  0  0  0  0  0  0  # atno 17394 bound_to 11000
  140.9167  133.7673  155.9857 LP  0  0  0  0  0  0  0  0  0  0  0  0  # atno 17395 bound_to 11000

$$$$
