AV-unprocessed.smi:2604|AV-procd|sdf|10190|dock7
  -GOLD-   2272014203D 1   1.00000     0.00000
 Structure written by MMmdl.
 26 27  0  0  0  0  0  0  0  0  2 V2000
  152.4560  142.5399  159.7405 C   0  0  0  0  0  0  0  0  0  0  0  0
  152.4033  143.9475  159.7696 C   0  0  0  0  0  0  0  0  0  0  0  0
  151.9368  144.6922  158.7444 N   0  0  0  0  0  0  0  0  0  0  0  0
  151.4971  144.0476  157.6426 C   0  0  0  0  0  0  0  0  0  0  0  0
  151.4989  142.6419  157.5098 C   0  0  0  0  0  0  0  0  0  0  0  0
  150.9981  141.9891  156.2317 C   0  0  1  0  0  0  0  0  0  0  0  0
  151.2487  140.4638  156.2492 C   0  0  0  0  0  0  0  0  0  0  0  0
  150.7960  139.8500  154.9843 N   0  3  0  0  0  0  0  0  0  0  0  0
  149.3798  140.1683  154.7157 C   0  0  0  0  0  0  0  0  0  0  0  0
  149.1745  141.6939  154.7175 C   0  0  0  0  0  0  0  0  0  0  0  0
  149.5748  142.2446  156.0086 N   0  0  0  0  0  0  0  0  0  0  0  0
  151.9962  141.8757  158.5873 C   0  0  0  0  0  0  0  0  0  0  0  0
  152.8406  141.9842  160.5829 H   0  0  0  0  0  0  0  0  0  0  0  0
  152.7466  144.4892  160.6384 H   0  0  0  0  0  0  0  0  0  0  0  0
  151.1335  144.6751  156.8421 H   0  0  0  0  0  0  0  0  0  0  0  0
  151.5506  142.4315  155.4009 H   0  0  0  0  0  0  0  0  0  0  0  0
  152.3112  140.2546  156.3764 H   0  0  0  0  0  0  0  0  0  0  0  0
  150.7279  139.9930  157.0844 H   0  0  0  0  0  0  0  0  0  0  0  0
  151.3585  140.2128  154.2282 H   0  0  0  0  0  0  0  0  0  0  0  0
  149.0967  139.7476  153.7506 H   0  0  0  0  0  0  0  0  0  0  0  0
  148.7492  139.6945  155.4696 H   0  0  0  0  0  0  0  0  0  0  0  0
  149.7459  142.1658  153.9168 H   0  0  0  0  0  0  0  0  0  0  0  0
  148.1246  141.9304  154.5435 H   0  0  0  0  0  0  0  0  0  0  0  0
  149.4034  143.2406  156.0217 H   0  0  0  0  0  0  0  0  0  0  0  0
  152.0276  140.7972  158.5338 H   0  0  0  0  0  0  0  0  0  0  0  0
  150.9133  138.8481  155.0349 H   0  0  0  0  0  0  0  0  0  0  0  0
  1 12  1  0  0  0  0
  1  2  2  0  0  0  0
  1 13  1  0  0  0  0
  2  3  1  0  0  0  0
  2 14  1  0  0  0  0
  3  4  2  0  0  0  0
  4  5  1  0  0  0  0
  4 15  1  0  0  0  0
  5  6  1  0  0  0  0
  5 12  2  0  0  0  0
  6 11  1  0  0  0  0
  6  7  1  0  0  0  0
  6 16  1  0  0  0  0
  7  8  1  0  0  0  0
  7 17  1  0  0  0  0
  7 18  1  0  0  0  0
  8  9  1  0  0  0  0
  8 19  1  0  0  0  0
  8 26  1  0  0  0  0
  9 10  1  0  0  0  0
  9 20  1  0  0  0  0
  9 21  1  0  0  0  0
 10 11  1  0  0  0  0
 10 22  1  0  0  0  0
 10 23  1  0  0  0  0
 11 24  1  0  0  0  0
 12 25  1  0  0  0  0
M  CHG  1   8   1
M  END
> <s_m_source_file>
AV-unprocessed.smi

> <i_m_source_file_index>
2604

> <i_lp_mmshare_version>
43012

> <i_f3d_flags>
0

> <s_epik_input>
W2NIXTFbY0hdW2NIXW5bY0hdYzFbQ0BASF0yW0NIMl1bTkhdW0NIMl1bQ0gyXVtOSF0y

> <s_epik_cmdline>
J2VwaWtfcHl0aG9uJywgJy1waCcsICc3LjAnLCAnLXRuJywgJzgnLCAnLW1hJywgJzIwMCcsICctbWV0YWxfYmluZGluZycsICctaW1hZScsICc8aW5maWxlLm1hZT4nLCAnLW9tYWUnLCAnPG91dGZpbGUubWFlPic=

> <r_epik_Ionization_Penalty>
0.0181456

> <r_epik_Ionization_Penalty_Charging>
0.010317

> <r_epik_Ionization_Penalty_Neutral>
0.00782861

> <r_epik_State_Penalty>
0.306622

> <r_epik_Charging_Adjusted_Penalty>
0.316939

> <i_epik_Tot_Q>
1

> <i_epik_Tot_abs_Q>
1

> <r_epik_Metal_State_Penalty>
0.302658

> <b_epik_Metal_Only>
0

> <s_lp_Force_Field>
OPLS_2005

> <r_lp_Energy>
10.6943

> <b_lp_Chiralities_Consistent>
1

> <s_lp_Variant>
AV-unprocessed.smi:2604-2

> <Gold.Version>
5.8.1

> <Gold.Id.Protein>
6NUR|6NUR_protein|mol2

> <Gold.PLP.Fitness>
34.4671

> <Gold.PLP.PLP>
-28.5612

> <Gold.PLP.part.hbond>
-1.0000

> <Gold.PLP.part.metal>
0.0000

> <Gold.PLP.part.buried>
-3.8775

> <Gold.PLP.part.nonpolar>
-23.1964

> <Gold.PLP.part.repulsive>
0.9461

> <Gold.PLP.ligand.clash>
0.0000

> <Gold.PLP.ligand.torsion>
0.0511

> <Gold.PLP.Chemscore.Hbond>
1.0000

> <Gold.PLP.Chemscore.CHOScore>
1.0000

> <Gold.PLP.Chemscore.Metal>
0.0000

> <Gold.Chemscore.Hbonds>
donor molecule, donor type, donor heavy atom, donor atom, acceptor molecule, acceptor atom, score
      L1  H    11    24       P1  8028  1.00
      L1  C     4    15       P1  8028  1.00

> <Gold.PLP.Chemscore.Internal.Correction>
0.0081

> <Gold.Rescore>
     Score         DG    S(hbond)    S(metal)    S(lipo)     H(rot)  DE(clash)    DE(int)     intcor
     16.07     -16.13       1.00        0.00      84.35       1.00       0.04       0.01       ----

> <Gold.Chemscore.Fitness>
16.0745

> <Gold.Chemscore.DG>
-16.1273

> <Gold.Chemscore.ZeroCoef>
-5.4800

> <Gold.Chemscore.Hbond>
0.9996

> <Gold.Chemscore.Metal>
0.0000

> <Gold.Chemscore.Lipo>
84.3484

> <Gold.Chemscore.Internal_Hbond>
0.0000

> <Gold.Chemscore.DEClash>
0.0384

> <Gold.Chemscore.DEInternal>
0.0144

> <Gold.Chemscore.Rot>
1.0000

> <Gold.Chemscore.Internal.Correction>
   9.000000E+99

> <Gold.Chemscore.Hbonds>
donor molecule, donor type, donor heavy atom, donor atom, acceptor molecule, acceptor atom, score
      L1  H    11    24       P1  8028  0.99

> <Gold.Chemscore.Hbond.Weighted>
-3.3385

> <Gold.Chemscore.Metal.Weighted>
-0.0000

> <Gold.Chemscore.Lipo.Weighted>
-9.8688

> <Gold.Chemscore.Internal_Hbond.Weighted>
0.0000

> <Gold.Chemscore.DEClash.Weighted>
0.0384

> <Gold.Chemscore.DEInternal.Weighted>
0.0144

> <Gold.Chemscore.Rot.Weighted>
2.5600

> <Gold.Chemscore.Internal.Correction.Weighted>
   9.000000E+99

> <Gold.Protein.RotatedTorsions>
[ 6907 6896 6895 6894 ] final   34.67 input  -60.11 | X-H torsion
[ 7974 7965 7964 7962 ] final  -31.68 input  175.53 | X-H torsion
[ 8008 7997 7996 7995 ] final -110.61 input   59.86 | X-H torsion
[ 10167 10162 10161 10158 ] final -128.43 input  -65.29 | X-H torsion
[ 10718 10713 10712 10709 ] final   86.62 input   66.30 | X-H torsion
[ 10763 10752 10751 10750 ] final -102.66 input  -60.55 | X-H torsion
[ 11005 11000 10999 10996 ] final  -70.23 input  -57.11 | X-H torsion

> <Gold.Protein.ActiveResidues>
 VAL166  LYS551  ARG553  GLY616  TRP617  ASP618  TYR619  PRO620  LYS621  CYS622 
 ASP623  PHE694  ASN695  SER759  ASP760  ASP761  ALA762  ILE779  LEU786  VAL792 
 PHE793  MET794  SER795  GLU796  ALA797  LYS798  CYS799  TRP800  GLU811  SER814 

> <Gold.Protein.RotatedAtoms>
  152.1056  134.9310  160.0568 H   0  0  0  0  0  0  0  0  0  0  0  0  # atno 6907 bound_to 6896
  152.0508  133.4013  159.4384 H   0  0  0  0  0  0  0  0  0  0  0  0  # atno 6908 bound_to 6896
  150.6841  134.3231  159.4838 H   0  0  0  0  0  0  0  0  0  0  0  0  # atno 6909 bound_to 6896
  146.1049  140.5697  142.8804 H   0  0  0  0  0  0  0  0  0  0  0  0  # atno 7974 bound_to 7965
  154.9772  140.0397  157.2261 H   0  0  0  0  0  0  0  0  0  0  0  0  # atno 8008 bound_to 7997
  154.7747  140.2808  155.6088 H   0  0  0  0  0  0  0  0  0  0  0  0  # atno 8009 bound_to 7997
  156.2927  140.2603  156.2558 H   0  0  0  0  0  0  0  0  0  0  0  0  # atno 8010 bound_to 7997
  139.9503  143.6063  152.2477 H   0  0  0  0  0  0  0  0  0  0  0  0  # atno 10167 bound_to 10162
  157.6931  131.0223  150.3001 H   0  0  0  0  0  0  0  0  0  0  0  0  # atno 10718 bound_to 10713
  154.7750  135.4852  153.9726 H   0  0  0  0  0  0  0  0  0  0  0  0  # atno 10763 bound_to 10752
  153.1417  135.6774  153.9024 H   0  0  0  0  0  0  0  0  0  0  0  0  # atno 10764 bound_to 10752
  153.8697  135.3145  155.3420 H   0  0  0  0  0  0  0  0  0  0  0  0  # atno 10765 bound_to 10752
  141.1570  133.6784  156.6721 H   0  0  0  0  0  0  0  0  0  0  0  0  # atno 11005 bound_to 11000
  144.7462  140.5074  143.6834 LP  0  0  0  0  0  0  0  0  0  0  0  0  # atno 17320 bound_to 7965
  145.5781  139.1487  143.3250 LP  0  0  0  0  0  0  0  0  0  0  0  0  # atno 17321 bound_to 7965
  139.6633  144.7662  151.1920 LP  0  0  0  0  0  0  0  0  0  0  0  0  # atno 17342 bound_to 10162
  140.7585  143.5976  150.8732 LP  0  0  0  0  0  0  0  0  0  0  0  0  # atno 17343 bound_to 10162
  156.3518  130.3832  149.7323 LP  0  0  0  0  0  0  0  0  0  0  0  0  # atno 17370 bound_to 10713
  156.4798  130.8035  151.3050 LP  0  0  0  0  0  0  0  0  0  0  0  0  # atno 17371 bound_to 10713
  140.3167  134.8041  157.4220 LP  0  0  0  0  0  0  0  0  0  0  0  0  # atno 17394 bound_to 11000
  140.1132  134.5318  155.8248 LP  0  0  0  0  0  0  0  0  0  0  0  0  # atno 17395 bound_to 11000

$$$$
