AV-unprocessed.smi:35|AV-procd|sdf|271|dock4
  -GOLD-   2262016 43D 1   1.00000     0.00000
 Structure written by MMmdl.
 28 29  0  0  0  0  0  0  0  0  2 V2000
  152.9707  141.1494  159.0608 O   0  0  0  0  0  0  0  0  0  0  0  0
  152.3501  140.9794  158.0129 C   0  0  0  0  0  0  0  0  0  0  0  0
  152.6846  140.0207  157.1014 N   0  5  0  0  0  0  0  0  0  0  0  0
  151.9892  139.8327  155.9415 C   0  0  0  0  0  0  0  0  0  0  0  0
  152.2739  138.9617  155.1192 O   0  0  0  0  0  0  0  0  0  0  0  0
  150.8714  140.6673  155.6640 N   0  0  0  0  0  0  0  0  0  0  0  0
  150.1053  140.4548  154.3699 C   0  0  2  0  0  0  0  0  0  0  0  0
  149.1084  141.4275  154.2452 O   0  0  0  0  0  0  0  0  0  0  0  0
  147.8298  140.8532  154.4965 C   0  0  1  0  0  0  0  0  0  0  0  0
  146.7060  141.7025  153.8781 C   0  0  0  0  0  0  0  0  0  0  0  0
  145.4637  141.3573  154.4533 O   0  0  0  0  0  0  0  0  0  0  0  0
  147.9768  139.4373  153.9268 C   0  0  1  0  0  0  0  0  0  0  0  0
  147.8023  139.4296  152.5213 O   0  0  0  0  0  0  0  0  0  0  0  0
  149.4107  139.0715  154.2886 C   0  0  2  0  0  0  0  0  0  0  0  0
  149.4184  138.3485  155.5075 O   0  0  0  0  0  0  0  0  0  0  0  0
  150.5117  141.6526  156.5692 C   0  0  0  0  0  0  0  0  0  0  0  0
  151.2019  141.8307  157.7137 C   0  0  0  0  0  0  0  0  0  0  0  0
  150.5737  143.2752  158.9161 Br  0  0  0  0  0  0  0  0  0  0  0  0
  150.8311  140.6224  153.5725 H   0  0  0  0  0  0  0  0  0  0  0  0
  147.6814  140.7661  155.5742 H   0  0  0  0  0  0  0  0  0  0  0  0
  146.8978  142.7687  154.0036 H   0  0  0  0  0  0  0  0  0  0  0  0
  146.6347  141.5077  152.8077 H   0  0  0  0  0  0  0  0  0  0  0  0
  144.8913  141.0485  153.7678 H   0  0  0  0  0  0  0  0  0  0  0  0
  147.2460  138.7512  154.3576 H   0  0  0  0  0  0  0  0  0  0  0  0
  148.5381  139.8730  152.1277 H   0  0  0  0  0  0  0  0  0  0  0  0
  149.8935  138.4622  153.5234 H   0  0  0  0  0  0  0  0  0  0  0  0
  150.0841  137.6793  155.4483 H   0  0  0  0  0  0  0  0  0  0  0  0
  149.6698  142.2979  156.3722 H   0  0  0  0  0  0  0  0  0  0  0  0
  1  2  2  0  0  0  0
  2 17  1  0  0  0  0
  2  3  1  0  0  0  0
  3  4  1  0  0  0  0
  4  5  2  0  0  0  0
  4  6  1  0  0  0  0
  6  7  1  0  0  0  0
  6 16  1  0  0  0  0
  7 14  1  0  0  0  0
  7  8  1  0  0  0  0
  7 19  1  0  0  0  0
  8  9  1  0  0  0  0
  9 10  1  0  0  0  0
  9 12  1  0  0  0  0
  9 20  1  0  0  0  0
 10 11  1  0  0  0  0
 10 21  1  0  0  0  0
 10 22  1  0  0  0  0
 11 23  1  0  0  0  0
 12 13  1  0  0  0  0
 12 14  1  0  0  0  0
 12 24  1  0  0  0  0
 13 25  1  0  0  0  0
 14 15  1  0  0  0  0
 14 26  1  0  0  0  0
 15 27  1  0  0  0  0
 16 17  2  0  0  0  0
 16 28  1  0  0  0  0
 17 18  1  0  0  0  0
M  CHG  1   3  -1
M  END
> <s_m_source_file>
AV-unprocessed.smi

> <i_m_source_file_index>
35

> <i_lp_mmshare_version>
43012

> <i_f3d_flags>
0

> <s_epik_input>
Tz1jMVtuSF1jKD1PKW4oW2NIXWMxQnIpW0NAQEhdMk9bQ0BASF0oW0NIMl1bT0hdKVtDQEBIXShbT0hdKVtDQEhdMltPSF0=

> <s_epik_cmdline>
J2VwaWtfcHl0aG9uJywgJy1waCcsICc3LjAnLCAnLXRuJywgJzgnLCAnLW1hJywgJzIwMCcsICctbWV0YWxfYmluZGluZycsICctaW1hZScsICc8aW5maWxlLm1hZT4nLCAnLW9tYWUnLCAnPG91dGZpbGUubWFlPic=

> <r_epik_Ionization_Penalty>
1.06112

> <r_epik_Ionization_Penalty_Charging>
2.1796e-09

> <r_epik_Ionization_Penalty_Neutral>
1.06112

> <r_epik_State_Penalty>
1.11484

> <r_epik_Charging_Adjusted_Penalty>
1.11484

> <i_epik_Tot_Q>
-1

> <i_epik_Tot_abs_Q>
1

> <r_epik_Metal_State_Penalty>
0.0032876

> <b_epik_Metal_Only>
0

> <s_epik_Chemistry_Notes>
This compound contains an acetal/aminal-like group ( X-CH(R)-Y where X, Y are N, S, or O) that may be acid/base labile, releasing an aldehyde.

> <s_lp_Force_Field>
OPLS_2005

> <r_lp_Energy>
42.0802

> <b_lp_Chiralities_Consistent>
1

> <s_lp_Variant>
AV-unprocessed.smi:35-25

> <Gold.Version>
5.8.1

> <Gold.Id.Protein>
6NUR|6NUR_protein|mol2

> <Gold.PLP.Fitness>
45.1089

> <Gold.PLP.PLP>
-29.1765

> <Gold.PLP.part.hbond>
-4.8797

> <Gold.PLP.part.metal>
0.0000

> <Gold.PLP.part.buried>
-2.8326

> <Gold.PLP.part.nonpolar>
-21.7535

> <Gold.PLP.part.repulsive>
0.1772

> <Gold.PLP.ligand.clash>
0.0000

> <Gold.PLP.ligand.torsion>
0.2020

> <Gold.PLP.Chemscore.Hbond>
4.5010

> <Gold.PLP.Chemscore.CHOScore>
0.9219

> <Gold.PLP.Chemscore.Metal>
0.0000

> <Gold.Chemscore.Hbonds>
donor molecule, donor type, donor heavy atom, donor atom, acceptor molecule, acceptor atom, score
      L1  H    11    23       P1 10175  1.00
      L1  H    13    25       P1  7957  0.78
      P1  H  7997  8008       L1     3  2.00
      P1  H  8011  8017       L1     8  0.29
      L1  C    16    28       P1  8028  0.72

> <Gold.PLP.Chemscore.Internal.Correction>
0.0675

> <Gold.Rescore>
     Score         DG    S(hbond)    S(metal)    S(lipo)     H(rot)  DE(clash)    DE(int)     intcor
      9.46     -10.09       2.68        0.00      42.37       3.63       0.26       0.37       ----

> <Gold.Chemscore.Fitness>
9.4618

> <Gold.Chemscore.DG>
-10.0915

> <Gold.Chemscore.ZeroCoef>
-5.4800

> <Gold.Chemscore.Hbond>
2.6757

> <Gold.Chemscore.Metal>
0.0000

> <Gold.Chemscore.Lipo>
42.3725

> <Gold.Chemscore.Internal_Hbond>
0.0000

> <Gold.Chemscore.DEClash>
0.2646

> <Gold.Chemscore.DEInternal>
0.3651

> <Gold.Chemscore.Rot>
3.6261

> <Gold.Chemscore.Internal.Correction>
   9.000000E+99

> <Gold.Chemscore.Hbonds>
donor molecule, donor type, donor heavy atom, donor atom, acceptor molecule, acceptor atom, score
      L1  H    11    23       P1 10175  0.74
      L1  H    13    25       P1  7957  0.75
      P1  H  7997  8008       L1     3  0.42
      P1  H  8011  8017       L1     8  0.07

> <Gold.Chemscore.Hbond.Weighted>
-8.9367

> <Gold.Chemscore.Metal.Weighted>
-0.0000

> <Gold.Chemscore.Lipo.Weighted>
-4.9576

> <Gold.Chemscore.Internal_Hbond.Weighted>
0.0000

> <Gold.Chemscore.DEClash.Weighted>
0.2646

> <Gold.Chemscore.DEInternal.Weighted>
0.3651

> <Gold.Chemscore.Rot.Weighted>
9.2828

> <Gold.Chemscore.Internal.Correction.Weighted>
   9.000000E+99

> <Gold.Protein.RotatedTorsions>
[ 6907 6896 6895 6894 ] final   86.89 input  -60.11 | X-H torsion
[ 7974 7965 7964 7962 ] final -114.85 input  175.53 | X-H torsion
[ 8008 7997 7996 7995 ] final  -58.33 input   59.86 | X-H torsion
[ 10167 10162 10161 10158 ] final  111.83 input  -65.29 | X-H torsion
[ 10718 10713 10712 10709 ] final  165.25 input   66.30 | X-H torsion
[ 10763 10752 10751 10750 ] final  -46.06 input  -60.55 | X-H torsion
[ 11005 11000 10999 10996 ] final   93.66 input  -57.11 | X-H torsion

> <Gold.Protein.ActiveResidues>
 VAL166  LYS551  ARG553  GLY616  TRP617  ASP618  TYR619  PRO620  LYS621  CYS622 
 ASP623  PHE694  ASN695  SER759  ASP760  ASP761  ALA762  ILE779  LEU786  VAL792 
 PHE793  MET794  SER795  GLU796  ALA797  LYS798  CYS799  TRP800  GLU811  SER814 

> <Gold.Protein.RotatedAtoms>
  152.5402  134.2361  159.8843 H   0  0  0  0  0  0  0  0  0  0  0  0  # atno 6907 bound_to 6896
  151.2331  133.4433  159.2612 H   0  0  0  0  0  0  0  0  0  0  0  0  # atno 6908 bound_to 6896
  151.0697  134.9804  159.8358 H   0  0  0  0  0  0  0  0  0  0  0  0  # atno 6909 bound_to 6896
  145.1153  140.8636  143.3846 H   0  0  0  0  0  0  0  0  0  0  0  0  # atno 7974 bound_to 7965
  154.4304  140.1086  156.5940 H   0  0  0  0  0  0  0  0  0  0  0  0  # atno 8008 bound_to 7997
  155.5982  140.3493  155.4567 H   0  0  0  0  0  0  0  0  0  0  0  0  # atno 8009 bound_to 7997
  156.0194  140.1236  157.0362 H   0  0  0  0  0  0  0  0  0  0  0  0  # atno 8010 bound_to 7997
  139.6582  144.7129  151.1917 H   0  0  0  0  0  0  0  0  0  0  0  0  # atno 10167 bound_to 10162
  157.0829  131.0397  151.2568 H   0  0  0  0  0  0  0  0  0  0  0  0  # atno 10718 bound_to 10713
  154.0387  135.6647  153.4788 H   0  0  0  0  0  0  0  0  0  0  0  0  # atno 10763 bound_to 10752
  153.0510  135.5084  154.7863 H   0  0  0  0  0  0  0  0  0  0  0  0  # atno 10764 bound_to 10752
  154.6832  135.3048  154.9550 H   0  0  0  0  0  0  0  0  0  0  0  0  # atno 10765 bound_to 10752
  139.8807  134.8802  156.3750 H   0  0  0  0  0  0  0  0  0  0  0  0  # atno 11005 bound_to 11000
  145.0801  139.2966  143.5788 LP  0  0  0  0  0  0  0  0  0  0  0  0  # atno 17320 bound_to 7965
  146.3524  140.0304  142.8651 LP  0  0  0  0  0  0  0  0  0  0  0  0  # atno 17321 bound_to 7965
  140.7568  143.6038  150.8673 LP  0  0  0  0  0  0  0  0  0  0  0  0  # atno 17342 bound_to 10162
  139.9693  143.6075  152.2978 LP  0  0  0  0  0  0  0  0  0  0  0  0  # atno 17343 bound_to 10162
  157.4785  130.7751  149.7391 LP  0  0  0  0  0  0  0  0  0  0  0  0  # atno 17370 bound_to 10713
  155.9919  130.3934  150.2966 LP  0  0  0  0  0  0  0  0  0  0  0  0  # atno 17371 bound_to 10713
  140.9438  133.7497  156.0181 LP  0  0  0  0  0  0  0  0  0  0  0  0  # atno 17394 bound_to 11000
  140.8188  134.3314  157.5388 LP  0  0  0  0  0  0  0  0  0  0  0  0  # atno 17395 bound_to 11000

$$$$
