AV-unprocessed.smi:811|AV-procd|sdf|3814|dock2
  -GOLD-   22720 1253D 1   1.00000     0.00000
 Structure written by MMmdl.
 46 48  0  0  0  0  0  0  0  0  2 V2000
  142.3619  135.0609  153.6427 C   0  0  0  0  0  0  0  0  0  0  0  0
  143.1959  135.8395  152.7041 N   0  3  2  0  0  0  0  0  0  0  0  0
  143.7878  135.0475  151.6004 C   0  0  0  0  0  0  0  0  0  0  0  0
  145.1832  135.6364  151.3309 C   0  0  0  0  0  0  0  0  0  0  0  0
  145.2321  136.9119  152.1766 C   0  0  2  0  0  0  0  0  0  0  0  0
  146.5677  137.2783  152.6362 N   0  0  0  0  0  0  0  0  0  0  0  0
  146.8185  138.1564  153.6172 C   0  0  0  0  0  0  0  0  0  0  0  0
  145.9319  138.7398  154.2394 O   0  0  0  0  0  0  0  0  0  0  0  0
  148.1403  138.2933  153.8212 N   0  0  0  0  0  0  0  0  0  0  0  0
  148.8252  139.1215  154.7531 C   0  0  0  0  0  0  0  0  0  0  0  0
  148.3216  139.5063  156.0178 C   0  0  0  0  0  0  0  0  0  0  0  0
  149.1038  140.3395  156.8404 C   0  0  0  0  0  0  0  0  0  0  0  0
  150.3676  140.7810  156.3820 C   0  0  0  0  0  0  0  0  0  0  0  0
  151.1714  141.6153  157.1910 N   0  0  0  0  0  0  0  0  0  0  0  0
  151.7051  141.0114  158.4102 C   0  0  0  0  0  0  0  0  0  0  0  0
  152.8045  141.9028  159.0137 C   0  0  0  0  0  0  0  0  0  0  0  0
  152.2991  143.2166  159.2247 O   0  0  0  0  0  0  0  0  0  0  0  0
  151.8922  143.8275  158.0051 C   0  0  0  0  0  0  0  0  0  0  0  0
  150.7588  143.0072  157.3668 C   0  0  0  0  0  0  0  0  0  0  0  0
  150.8445  140.4129  155.1677 N   0  0  0  0  0  0  0  0  0  0  0  0
  150.0923  139.6140  154.3828 C   0  0  0  0  0  0  0  0  0  0  0  0
  144.3012  136.5789  153.3384 C   0  0  0  0  0  0  0  0  0  0  0  0
  142.9494  134.2935  154.1483 H   0  0  0  0  0  0  0  0  0  0  0  0
  141.5449  134.5729  153.1104 H   0  0  0  0  0  0  0  0  0  0  0  0
  141.9290  135.7155  154.3996 H   0  0  0  0  0  0  0  0  0  0  0  0
  143.8722  133.9925  151.8662 H   0  0  0  0  0  0  0  0  0  0  0  0
  143.1459  135.1176  150.7218 H   0  0  0  0  0  0  0  0  0  0  0  0
  145.9466  134.9306  151.6620 H   0  0  0  0  0  0  0  0  0  0  0  0
  145.3554  135.8363  150.2727 H   0  0  0  0  0  0  0  0  0  0  0  0
  144.7979  137.7383  151.6095 H   0  0  0  0  0  0  0  0  0  0  0  0
  147.3514  136.8374  152.1772 H   0  0  0  0  0  0  0  0  0  0  0  0
  148.7361  137.7043  153.2581 H   0  0  0  0  0  0  0  0  0  0  0  0
  147.3562  139.1902  156.3788 H   0  0  0  0  0  0  0  0  0  0  0  0
  148.7286  140.6149  157.8142 H   0  0  0  0  0  0  0  0  0  0  0  0
  150.8912  140.8879  159.1255 H   0  0  0  0  0  0  0  0  0  0  0  0
  152.1183  140.0210  158.2277 H   0  0  0  0  0  0  0  0  0  0  0  0
  153.1370  141.4937  159.9677 H   0  0  0  0  0  0  0  0  0  0  0  0
  153.6783  141.9379  158.3612 H   0  0  0  0  0  0  0  0  0  0  0  0
  151.5499  144.8413  158.2124 H   0  0  0  0  0  0  0  0  0  0  0  0
  152.7423  143.9109  157.3258 H   0  0  0  0  0  0  0  0  0  0  0  0
  150.4943  143.4500  156.4058 H   0  0  0  0  0  0  0  0  0  0  0  0
  149.8703  143.0425  157.9986 H   0  0  0  0  0  0  0  0  0  0  0  0
  150.5220  139.3567  153.4255 H   0  0  0  0  0  0  0  0  0  0  0  0
  143.9428  137.4683  153.8580 H   0  0  0  0  0  0  0  0  0  0  0  0
  144.8071  135.9386  154.0640 H   0  0  0  0  0  0  0  0  0  0  0  0
  142.6027  136.5328  152.2706 H   0  0  0  0  0  0  0  0  0  0  0  0
  1  2  1  0  0  0  0
  1 23  1  0  0  0  0
  1 24  1  0  0  0  0
  1 25  1  0  0  0  0
  2 22  1  0  0  0  0
  2  3  1  0  0  0  0
  2 46  1  0  0  0  0
  3  4  1  0  0  0  0
  3 26  1  0  0  0  0
  3 27  1  0  0  0  0
  4  5  1  0  0  0  0
  4 28  1  0  0  0  0
  4 29  1  0  0  0  0
  5  6  1  0  0  0  0
  5 22  1  0  0  0  0
  5 30  1  0  0  0  0
  6  7  1  0  0  0  0
  6 31  1  0  0  0  0
  7  8  2  0  0  0  0
  7  9  1  0  0  0  0
  9 10  1  0  0  0  0
  9 32  1  0  0  0  0
 10 21  1  0  0  0  0
 10 11  2  0  0  0  0
 11 12  1  0  0  0  0
 11 33  1  0  0  0  0
 12 13  2  0  0  0  0
 12 34  1  0  0  0  0
 13 14  1  0  0  0  0
 13 20  1  0  0  0  0
 14 19  1  0  0  0  0
 14 15  1  0  0  0  0
 15 16  1  0  0  0  0
 15 35  1  0  0  0  0
 15 36  1  0  0  0  0
 16 17  1  0  0  0  0
 16 37  1  0  0  0  0
 16 38  1  0  0  0  0
 17 18  1  0  0  0  0
 18 19  1  0  0  0  0
 18 39  1  0  0  0  0
 18 40  1  0  0  0  0
 19 41  1  0  0  0  0
 19 42  1  0  0  0  0
 20 21  2  0  0  0  0
 21 43  1  0  0  0  0
 22 44  1  0  0  0  0
 22 45  1  0  0  0  0
M  CHG  1   2   1
M  END
> <s_m_source_file>
AV-unprocessed.smi

> <i_m_source_file_index>
811

> <i_lp_mmshare_version>
43012

> <i_f3d_flags>
0

> <s_epik_input>
W0NIM11OMVtDSDJdW0NIMl1bQ0BIXShbQ0gyXTEpW05IXUMoPU8pW05IXWMyW2NIXVtjSF1jKG5bY0hdMilOM1tDSDJdW0NIMl1PW0NIMl1bQ0gyXTM=

> <s_epik_cmdline>
J2VwaWtfcHl0aG9uJywgJy1waCcsICc3LjAnLCAnLXRuJywgJzgnLCAnLW1hJywgJzIwMCcsICctbWV0YWxfYmluZGluZycsICctaW1hZScsICc8aW5maWxlLm1hZT4nLCAnLW9tYWUnLCAnPG91dGZpbGUubWFlPic=

> <r_lp_tautomer_probability>
1

> <r_epik_Ionization_Penalty>
0.00503422

> <r_epik_Ionization_Penalty_Charging>
0.00366104

> <r_epik_Ionization_Penalty_Neutral>
0.00137318

> <r_epik_State_Penalty>
-0

> <r_epik_Charging_Adjusted_Penalty>
0.00366104

> <i_epik_Tot_Q>
1

> <i_epik_Tot_abs_Q>
1

> <r_epik_Metal_State_Penalty>
-0

> <b_epik_Metal_Only>
0

> <s_lp_Force_Field>
OPLS_2005

> <r_lp_Energy>
43.0214

> <b_lp_Chiralities_Consistent>
1

> <s_lp_Variant>
AV-unprocessed.smi:811-4

> <Gold.Version>
5.8.1

> <Gold.Id.Protein>
6NUR|6NUR_protein|mol2

> <Gold.PLP.Fitness>
40.7759

> <Gold.PLP.PLP>
-32.2948

> <Gold.PLP.part.hbond>
-3.0000

> <Gold.PLP.part.metal>
0.0000

> <Gold.PLP.part.buried>
-4.4378

> <Gold.PLP.part.nonpolar>
-25.5272

> <Gold.PLP.part.repulsive>
0.2552

> <Gold.PLP.ligand.clash>
0.0000

> <Gold.PLP.ligand.torsion>
0.5501

> <Gold.PLP.Chemscore.Hbond>
2.1500

> <Gold.PLP.Chemscore.CHOScore>
0.9191

> <Gold.PLP.Chemscore.Metal>
0.0000

> <Gold.Chemscore.Hbonds>
donor molecule, donor type, donor heavy atom, donor atom, acceptor molecule, acceptor atom, score
      L1  H     6    31       P1  7948  1.00
      L1  H     9    32       P1  7948  1.00
      P1  H  7989  7998       L1    20  0.15
      L1  C    21    43       P1  7957  0.93

> <Gold.PLP.Chemscore.Internal.Correction>
0.3741

> <Gold.Rescore>
     Score         DG    S(hbond)    S(metal)    S(lipo)     H(rot)  DE(clash)    DE(int)     intcor
     17.02     -18.32       1.95        0.00      80.99       1.23       0.27       1.03       ----

> <Gold.Chemscore.Fitness>
17.0200

> <Gold.Chemscore.DG>
-18.3179

> <Gold.Chemscore.ZeroCoef>
-5.4800

> <Gold.Chemscore.Hbond>
1.9491

> <Gold.Chemscore.Metal>
0.0000

> <Gold.Chemscore.Lipo>
80.9868

> <Gold.Chemscore.Internal_Hbond>
0.0000

> <Gold.Chemscore.DEClash>
0.2697

> <Gold.Chemscore.DEInternal>
1.0282

> <Gold.Chemscore.Rot>
1.2295

> <Gold.Chemscore.Internal.Correction>
   9.000000E+99

> <Gold.Chemscore.Hbonds>
donor molecule, donor type, donor heavy atom, donor atom, acceptor molecule, acceptor atom, score
      L1  H     6    31       P1  7948  1.00
      L1  H     9    32       P1  7948  0.89

> <Gold.Chemscore.Hbond.Weighted>
-6.5099

> <Gold.Chemscore.Metal.Weighted>
-0.0000

> <Gold.Chemscore.Lipo.Weighted>
-9.4755

> <Gold.Chemscore.Internal_Hbond.Weighted>
0.0000

> <Gold.Chemscore.DEClash.Weighted>
0.2697

> <Gold.Chemscore.DEInternal.Weighted>
1.0282

> <Gold.Chemscore.Rot.Weighted>
3.1474

> <Gold.Chemscore.Internal.Correction.Weighted>
   9.000000E+99

> <Gold.Protein.RotatedTorsions>
[ 6907 6896 6895 6894 ] final  154.17 input  -60.11 | X-H torsion
[ 7974 7965 7964 7962 ] final  -49.80 input  175.53 | X-H torsion
[ 8008 7997 7996 7995 ] final  152.02 input   59.86 | X-H torsion
[ 10167 10162 10161 10158 ] final -118.20 input  -65.29 | X-H torsion
[ 10718 10713 10712 10709 ] final   48.69 input   66.30 | X-H torsion
[ 10763 10752 10751 10750 ] final   91.99 input  -60.55 | X-H torsion
[ 11005 11000 10999 10996 ] final -120.85 input  -57.11 | X-H torsion

> <Gold.Protein.ActiveResidues>
 VAL166  LYS551  ARG553  GLY616  TRP617  ASP618  TYR619  PRO620  LYS621  CYS622 
 ASP623  PHE694  ASN695  SER759  ASP760  ASP761  ALA762  ILE779  LEU786  VAL792 
 PHE793  MET794  SER795  GLU796  ALA797  LYS798  CYS799  TRP800  GLU811  SER814 

> <Gold.Protein.RotatedAtoms>
  152.0623  133.4067  159.4422 H   0  0  0  0  0  0  0  0  0  0  0  0  # atno 6907 bound_to 6896
  150.6866  134.3187  159.4786 H   0  0  0  0  0  0  0  0  0  0  0  0  # atno 6908 bound_to 6896
  152.1009  134.9342  160.0620 H   0  0  0  0  0  0  0  0  0  0  0  0  # atno 6909 bound_to 6896
  145.9367  140.7700  142.9572 H   0  0  0  0  0  0  0  0  0  0  0  0  # atno 7974 bound_to 7965
  156.2648  140.2032  156.6268 H   0  0  0  0  0  0  0  0  0  0  0  0  # atno 8008 bound_to 7997
  154.6714  140.0550  157.0193 H   0  0  0  0  0  0  0  0  0  0  0  0  # atno 8009 bound_to 7997
  155.1132  140.3217  155.4519 H   0  0  0  0  0  0  0  0  0  0  0  0  # atno 8010 bound_to 7997
  140.0601  143.4976  152.2036 H   0  0  0  0  0  0  0  0  0  0  0  0  # atno 10167 bound_to 10162
  157.4712  130.8256  149.7990 H   0  0  0  0  0  0  0  0  0  0  0  0  # atno 10718 bound_to 10713
  153.2143  135.4377  155.0415 H   0  0  0  0  0  0  0  0  0  0  0  0  # atno 10763 bound_to 10752
  154.8216  135.3340  154.7022 H   0  0  0  0  0  0  0  0  0  0  0  0  # atno 10764 bound_to 10752
  153.7458  135.7001  153.5012 H   0  0  0  0  0  0  0  0  0  0  0  0  # atno 10765 bound_to 10752
  141.0113  134.0260  157.3409 H   0  0  0  0  0  0  0  0  0  0  0  0  # atno 11005 bound_to 11000
  144.6773  140.2215  143.7366 LP  0  0  0  0  0  0  0  0  0  0  0  0  # atno 17320 bound_to 7965
  145.8354  139.2105  143.1858 LP  0  0  0  0  0  0  0  0  0  0  0  0  # atno 17321 bound_to 7965
  139.5899  144.7546  151.3427 LP  0  0  0  0  0  0  0  0  0  0  0  0  # atno 17342 bound_to 10162
  140.7176  143.7224  150.7685 LP  0  0  0  0  0  0  0  0  0  0  0  0  # atno 17343 bound_to 10162
  156.0074  130.3849  150.2382 LP  0  0  0  0  0  0  0  0  0  0  0  0  # atno 17370 bound_to 10713
  157.0565  131.0077  151.3237 LP  0  0  0  0  0  0  0  0  0  0  0  0  # atno 17371 bound_to 10713
  139.9092  135.0186  156.7617 LP  0  0  0  0  0  0  0  0  0  0  0  0  # atno 17394 bound_to 11000
  140.6728  133.9544  155.7866 LP  0  0  0  0  0  0  0  0  0  0  0  0  # atno 17395 bound_to 11000

$$$$
