AV-unprocessed.smi:121|AV-procd|sdf|1139|dock8
  -GOLD-   2262018273D 1   1.00000     0.00000
 Structure written by MMmdl.
 37 39  0  0  0  0  0  0  0  0  1 V2000
  152.4780  136.9803  159.8439 N   0  0  0  0  0  0  0  0  0  0  0  0
  152.5947  138.1250  159.7225 C   0  0  0  0  0  0  0  0  0  0  0  0
  152.7413  139.5628  159.5693 C   0  0  0  0  0  0  0  0  0  0  0  0
  153.6363  140.2739  160.3936 C   0  0  0  0  0  0  0  0  0  0  0  0
  153.7707  141.6674  160.2460 C   0  0  0  0  0  0  0  0  0  0  0  0
  153.0133  142.3504  159.2751 C   0  0  0  0  0  0  0  0  0  0  0  0
  152.1196  141.6476  158.4404 C   0  0  0  0  0  0  0  0  0  0  0  0
  151.3133  142.4270  157.4051 C   0  0  0  0  0  0  0  0  0  0  0  0
  150.2108  141.7122  156.7800 N   0  0  0  0  0  0  0  0  0  0  0  0
  150.5392  140.7197  155.8248 C   0  0  0  0  0  0  0  0  0  0  0  0
  151.7058  140.4708  155.5152 O   0  0  0  0  0  0  0  0  0  0  0  0
  149.3909  140.0210  155.2588 C   0  0  0  0  0  0  0  0  0  0  0  0
  149.5844  139.0735  154.3259 F   0  0  0  0  0  0  0  0  0  0  0  0
  148.1327  140.3078  155.6575 C   0  0  0  0  0  0  0  0  0  0  0  0
  147.8431  141.2652  156.6167 N   0  0  0  0  0  0  0  0  0  0  0  0
  146.4251  141.5549  157.0635 C   0  0  2  0  0  0  0  0  0  0  0  0
  145.4248  140.6577  156.3082 C   0  0  0  0  0  0  0  0  0  0  0  0
  144.4239  141.6555  155.7602 C   0  0  0  0  0  0  0  0  0  0  0  0
  145.2786  142.9031  155.5959 C   0  0  0  0  0  0  0  0  0  0  0  0
  146.0917  142.8801  156.7619 O   0  0  0  0  0  0  0  0  0  0  0  0
  148.8922  142.0085  157.2006 C   0  0  0  0  0  0  0  0  0  0  0  0
  148.6553  142.8642  158.0567 O   0  0  0  0  0  0  0  0  0  0  0  0
  151.9854  140.2480  158.5964 C   0  0  0  0  0  0  0  0  0  0  0  0
  154.2206  139.7572  161.1415 H   0  0  0  0  0  0  0  0  0  0  0  0
  154.4551  142.2134  160.8784 H   0  0  0  0  0  0  0  0  0  0  0  0
  153.1227  143.4200  159.1707 H   0  0  0  0  0  0  0  0  0  0  0  0
  150.9223  143.3412  157.8525 H   0  0  0  0  0  0  0  0  0  0  0  0
  151.9612  142.7764  156.5988 H   0  0  0  0  0  0  0  0  0  0  0  0
  147.3316  139.7525  155.1948 H   0  0  0  0  0  0  0  0  0  0  0  0
  146.4235  141.4155  158.1463 H   0  0  0  0  0  0  0  0  0  0  0  0
  145.9257  140.1346  155.4918 H   0  0  0  0  0  0  0  0  0  0  0  0
  144.9758  139.9228  156.9769 H   0  0  0  0  0  0  0  0  0  0  0  0
  143.9609  141.3292  154.8285 H   0  0  0  0  0  0  0  0  0  0  0  0
  143.6352  141.8365  156.4915 H   0  0  0  0  0  0  0  0  0  0  0  0
  145.8985  142.8335  154.7008 H   0  0  0  0  0  0  0  0  0  0  0  0
  144.6872  143.8168  155.5360 H   0  0  0  0  0  0  0  0  0  0  0  0
  151.3014  139.6905  157.9739 H   0  0  0  0  0  0  0  0  0  0  0  0
  1  2  3  0  0  0  0
  2  3  1  0  0  0  0
  3 23  1  0  0  0  0
  3  4  2  0  0  0  0
  4  5  1  0  0  0  0
  4 24  1  0  0  0  0
  5  6  2  0  0  0  0
  5 25  1  0  0  0  0
  6  7  1  0  0  0  0
  6 26  1  0  0  0  0
  7  8  1  0  0  0  0
  7 23  2  0  0  0  0
  8  9  1  0  0  0  0
  8 27  1  0  0  0  0
  8 28  1  0  0  0  0
  9 21  1  0  0  0  0
  9 10  1  0  0  0  0
 10 11  2  0  0  0  0
 10 12  1  0  0  0  0
 12 13  1  0  0  0  0
 12 14  2  0  0  0  0
 14 15  1  0  0  0  0
 14 29  1  0  0  0  0
 15 16  1  0  0  0  0
 15 21  1  0  0  0  0
 16 20  1  0  0  0  0
 16 17  1  0  0  0  0
 16 30  1  0  0  0  0
 17 18  1  0  0  0  0
 17 31  1  0  0  0  0
 17 32  1  0  0  0  0
 18 19  1  0  0  0  0
 18 33  1  0  0  0  0
 18 34  1  0  0  0  0
 19 20  1  0  0  0  0
 19 35  1  0  0  0  0
 19 36  1  0  0  0  0
 21 22  2  0  0  0  0
 23 37  1  0  0  0  0
M  END
> <s_m_source_file>
AV-unprocessed.smi

> <i_m_source_file_index>
121

> <i_lp_mmshare_version>
43012

> <i_f3d_flags>
0

> <s_epik_input>
TiNDYzFbY0hdW2NIXVtjSF1jKFtjSF0xKVtDSDJdbjJjKD1PKWMoRilbY0hdbihjMj1PKVtDQEBIXTNbQ0gyXVtDSDJdW0NIMl1PMw==

> <s_epik_cmdline>
J2VwaWtfcHl0aG9uJywgJy1waCcsICc3LjAnLCAnLXRuJywgJzgnLCAnLW1hJywgJzIwMCcsICctbWV0YWxfYmluZGluZycsICctaW1hZScsICc8aW5maWxlLm1hZT4nLCAnLW9tYWUnLCAnPG91dGZpbGUubWFlPic=

> <r_lp_tautomer_probability>
1

> <r_epik_Ionization_Penalty>
1.69864e-08

> <r_epik_Ionization_Penalty_Charging>
1.69802e-08

> <r_epik_Ionization_Penalty_Neutral>
6.20402e-12

> <r_epik_State_Penalty>
-0

> <r_epik_Charging_Adjusted_Penalty>
1.69802e-08

> <i_epik_Tot_Q>
0

> <i_epik_Tot_abs_Q>
0

> <r_epik_Metal_State_Penalty>
-0

> <b_epik_Metal_Only>
0

> <s_epik_Chemistry_Notes>
This compound contains an acetal/aminal-like group ( X-CH(R)-Y where X, Y are N, S, or O) that may be acid/base labile, releasing an aldehyde.

> <s_lp_Force_Field>
OPLS_2005

> <r_lp_Energy>
32.9852

> <b_lp_Chiralities_Consistent>
1

> <s_lp_Variant>
AV-unprocessed.smi:121-1

> <Gold.Version>
5.8.1

> <Gold.Id.Protein>
6NUR|6NUR_protein|mol2

> <Gold.PLP.Fitness>
40.0144

> <Gold.PLP.PLP>
-35.4084

> <Gold.PLP.part.hbond>
-2.0000

> <Gold.PLP.part.metal>
0.0000

> <Gold.PLP.part.buried>
-4.9531

> <Gold.PLP.part.nonpolar>
-28.8733

> <Gold.PLP.part.repulsive>
0.3342

> <Gold.PLP.ligand.clash>
0.0000

> <Gold.PLP.ligand.torsion>
0.3296

> <Gold.PLP.Chemscore.Hbond>
1.7520

> <Gold.PLP.Chemscore.CHOScore>
0.0000

> <Gold.PLP.Chemscore.Metal>
0.0000

> <Gold.Chemscore.Hbonds>
donor molecule, donor type, donor heavy atom, donor atom, acceptor molecule, acceptor atom, score
      P1  H  6896  6907       L1     1  1.00
      P1  H  7989  7998       L1    11  0.74

> <Gold.PLP.Chemscore.Internal.Correction>
0.0092

> <Gold.Rescore>
     Score         DG    S(hbond)    S(metal)    S(lipo)     H(rot)  DE(clash)    DE(int)     intcor
     13.44     -15.05       1.69        0.00      68.26       1.59       0.00       1.61       ----

> <Gold.Chemscore.Fitness>
13.4391

> <Gold.Chemscore.DG>
-15.0486

> <Gold.Chemscore.ZeroCoef>
-5.4800

> <Gold.Chemscore.Hbond>
1.6910

> <Gold.Chemscore.Metal>
0.0000

> <Gold.Chemscore.Lipo>
68.2600

> <Gold.Chemscore.Internal_Hbond>
0.0000

> <Gold.Chemscore.DEClash>
0.0025

> <Gold.Chemscore.DEInternal>
1.6070

> <Gold.Chemscore.Rot>
1.5882

> <Gold.Chemscore.Internal.Correction>
   9.000000E+99

> <Gold.Chemscore.Hbonds>
donor molecule, donor type, donor heavy atom, donor atom, acceptor molecule, acceptor atom, score
      P1  H  6896  6907       L1     1  0.94
      P1  H  7989  7998       L1    11  0.21

> <Gold.Chemscore.Hbond.Weighted>
-5.6480

> <Gold.Chemscore.Metal.Weighted>
-0.0000

> <Gold.Chemscore.Lipo.Weighted>
-7.9864

> <Gold.Chemscore.Internal_Hbond.Weighted>
0.0000

> <Gold.Chemscore.DEClash.Weighted>
0.0025

> <Gold.Chemscore.DEInternal.Weighted>
1.6070

> <Gold.Chemscore.Rot.Weighted>
4.0657

> <Gold.Chemscore.Internal.Correction.Weighted>
   9.000000E+99

> <Gold.Protein.RotatedTorsions>
[ 6907 6896 6895 6894 ] final   32.84 input  -60.11 | X-H torsion
[ 7974 7965 7964 7962 ] final  -66.93 input  175.53 | X-H torsion
[ 8008 7997 7996 7995 ] final -149.56 input   59.86 | X-H torsion
[ 10167 10162 10161 10158 ] final  -92.15 input  -65.29 | X-H torsion
[ 10718 10713 10712 10709 ] final  -74.55 input   66.30 | X-H torsion
[ 10763 10752 10751 10750 ] final   45.18 input  -60.55 | X-H torsion
[ 11005 11000 10999 10996 ] final  173.99 input  -57.11 | X-H torsion

> <Gold.Protein.ActiveResidues>
 VAL166  LYS551  ARG553  GLY616  TRP617  ASP618  TYR619  PRO620  LYS621  CYS622 
 ASP623  PHE694  ASN695  SER759  ASP760  ASP761  ALA762  ILE779  LEU786  VAL792 
 PHE793  MET794  SER795  GLU796  ALA797  LYS798  CYS799  TRP800  GLU811  SER814 

> <Gold.Protein.RotatedAtoms>
  152.0801  134.9476  160.0573 H   0  0  0  0  0  0  0  0  0  0  0  0  # atno 6907 bound_to 6896
  152.0768  133.4128  159.4492 H   0  0  0  0  0  0  0  0  0  0  0  0  # atno 6908 bound_to 6896
  150.6836  134.2948  159.4725 H   0  0  0  0  0  0  0  0  0  0  0  0  # atno 6909 bound_to 6896
  145.7356  140.8977  143.0557 H   0  0  0  0  0  0  0  0  0  0  0  0  # atno 7974 bound_to 7965
  155.6096  140.0670  157.2710 H   0  0  0  0  0  0  0  0  0  0  0  0  # atno 8008 bound_to 7997
  154.4257  140.1804  156.1306 H   0  0  0  0  0  0  0  0  0  0  0  0  # atno 8009 bound_to 7997
  156.0095  140.3328  155.6930 H   0  0  0  0  0  0  0  0  0  0  0  0  # atno 8010 bound_to 7997
  140.3378  143.2959  151.9870 H   0  0  0  0  0  0  0  0  0  0  0  0  # atno 10167 bound_to 10162
  156.0238  130.4419  150.2910 H   0  0  0  0  0  0  0  0  0  0  0  0  # atno 10718 bound_to 10713
  152.9828  135.6047  154.3395 H   0  0  0  0  0  0  0  0  0  0  0  0  # atno 10763 bound_to 10752
  154.3092  135.2771  155.2576 H   0  0  0  0  0  0  0  0  0  0  0  0  # atno 10764 bound_to 10752
  154.4793  135.5921  153.6433 H   0  0  0  0  0  0  0  0  0  0  0  0  # atno 10765 bound_to 10752
  140.3465  134.7232  157.4238 H   0  0  0  0  0  0  0  0  0  0  0  0  # atno 11005 bound_to 11000
  144.6882  139.9390  143.7474 LP  0  0  0  0  0  0  0  0  0  0  0  0  # atno 17320 bound_to 7965
  146.0496  139.3499  143.0647 LP  0  0  0  0  0  0  0  0  0  0  0  0  # atno 17321 bound_to 7965
  139.4845  144.6182  151.7305 LP  0  0  0  0  0  0  0  0  0  0  0  0  # atno 17342 bound_to 10162
  140.5338  144.0689  150.6063 LP  0  0  0  0  0  0  0  0  0  0  0  0  # atno 17343 bound_to 10162
  157.1013  131.0196  151.3084 LP  0  0  0  0  0  0  0  0  0  0  0  0  # atno 17370 bound_to 10713
  157.4778  130.7747  149.7384 LP  0  0  0  0  0  0  0  0  0  0  0  0  # atno 17371 bound_to 10713
  140.0738  134.5826  155.8613 LP  0  0  0  0  0  0  0  0  0  0  0  0  # atno 17394 bound_to 11000
  141.2024  133.6625  156.6004 LP  0  0  0  0  0  0  0  0  0  0  0  0  # atno 17395 bound_to 11000

$$$$
