#       Name:                AV-unprocessed.smi:581
#       Creating user name   scv26
#       Creation time:       Thu Mar 26 23:49:37 2020


#       File generated by GOLD software.
#

@<TRIPOS>MOLECULE
AV-unprocessed.smi:581
    44    45     1
SMALL
NO_CHARGES


@<TRIPOS>ATOM
      1 ****         2.0546   2.0205   1.0996 C.3            1 S1                 0.0000
      2 ****         1.2687   0.8085   0.6314 C.2            1 S1                 0.0000
      3 ****        -0.1216   0.9711   0.5804 N.2            1 S1                 0.0000
      4 ****        -0.8799  -0.0043   0.1887 C.2            1 S1                 0.0000
      5 ****        -2.2739   0.0275   0.1014 N.pl3          1 S1                 0.0000
      6 ****        -2.9914  -0.6087  -1.0066 C.3            1 S1                 0.0000
      7 ****        -4.4457  -0.9279  -0.6217 C.3            1 S1                 0.0000
      8 ****        -5.0958   0.2556  -0.1796 O.3            1 S1                 0.0000
      9 ****        -4.4650   0.7920   0.9751 C.3            1 S1                 0.0000
     10 ****        -3.0112   1.1686   0.6440 C.3            1 S1                 0.0000
     11 ****        -0.3134  -1.2303  -0.1766 N.am           1 S1                 0.0000
     12 ****         1.0134  -1.4869  -0.1639 C.2            1 S1                 0.0000
     13 ****         1.4361  -2.5903  -0.5055 O.2            1 S1                 0.0000
     14 ****         1.8604  -0.3663   0.2763 C.2            1 S1                 0.0000
     15 ****         3.3690  -0.5927   0.3341 C.3            1 S1                 0.0000
     16 ****         4.0463  -0.3466  -1.0305 C.3            1 S1                 0.0000
     17 ****         5.5672  -0.5484  -0.9984 C.2            1 S1                 0.0000
     18 ****         6.1090  -0.8825   0.0791 O.co2          1 S1                 0.0000
     19 ****         6.1717  -0.3591  -2.0761 O.co2          1 S1                -1.0000
     20 ****        -0.9268  -1.9758  -0.4705 H              1 S1                 0.0000
     21 ****         2.8479   2.2626   0.3919 H              1 S1                 0.0000
     22 ****         2.5047   1.8281   2.0737 H              1 S1                 0.0000
     23 ****         1.4127   2.8973   1.1928 H              1 S1                 0.0000
     24 ****        -2.9761   0.0670  -1.8628 H              1 S1                 0.0000
     25 ****        -2.5063  -1.5301  -1.3284 H              1 S1                 0.0000
     26 ****        -4.9823  -1.3256  -1.4830 H              1 S1                 0.0000
     27 ****        -4.4830  -1.6917   0.1567 H              1 S1                 0.0000
     28 ****        -5.0154   1.6740   1.3022 H              1 S1                 0.0000
     29 ****        -4.5029   0.0715   1.7938 H              1 S1                 0.0000
     30 ****        -2.5279   1.5424   1.5478 H              1 S1                 0.0000
     31 ****        -2.9926   1.9795  -0.0852 H              1 S1                 0.0000
     32 ****         3.8105   0.0562   1.0905 H              1 S1                 0.0000
     33 ****         3.5676  -1.6091   0.6786 H              1 S1                 0.0000
     34 ****         3.6277  -1.0175  -1.7814 H              1 S1                 0.0000
     35 ****         3.8424   0.6700  -1.3684 H              1 S1                 0.0000
     36 ****        -0.5309   1.8436   0.8474 LP             1 S1                 0.0000
     37 ****        -6.0478   0.0417   0.0393 LP             1 S1                 0.0000
     38 ****        -5.0669   0.9359  -0.9120 LP             1 S1                 0.0000
     39 ****         0.7970  -3.3030  -0.7945 LP             1 S1                 0.0000
     40 ****         2.4189  -2.7746  -0.4942 LP             1 S1                 0.0000
     41 ****         7.0990  -1.0177   0.1201 LP             1 S1                 0.0000
     42 ****         5.5520  -1.0142   0.8991 LP             1 S1                 0.0000
     43 ****         7.1642  -0.4738  -2.1195 LP             1 S1                 0.0000
     44 ****         5.6629  -0.0929  -2.8948 LP             1 S1                 0.0000
@<TRIPOS>BOND
    1    1    2 1     
    2    1   21 1     
    3    1   22 1     
    4    1   23 1     
    5    2   14 2     
    6    2    3 1     
    7    3    4 2     
    8    4    5 1     
    9    4   11 1     
   10    5   10 1     
   11    5    6 1     
   12    6    7 1     
   13    6   24 1     
   14    6   25 1     
   15    7    8 1     
   16    7   26 1     
   17    7   27 1     
   18    8    9 1     
   19    9   10 1     
   20    9   28 1     
   21    9   29 1     
   22   10   30 1     
   23   10   31 1     
   24   11   20 1     
   25   11   12 am    
   26   12   13 2     
   27   12   14 1     
   28   14   15 1     
   29   15   16 1     
   30   15   32 1     
   31   15   33 1     
   32   16   17 1     
   33   16   34 1     
   34   16   35 1     
   35   17   18 ar    
   36   17   19 ar    
   37    3   36 1     
   38    8   37 1     
   39    8   38 1     
   40   13   39 1     
   41   13   40 1     
   42   18   41 1     
   43   18   42 1     
   44   19   43 1     
   45   19   44 1     
@<TRIPOS>SUBSTRUCTURE
      1 S1             1
@<TRIPOS>SET
LONE_PAIRS      STATIC     ATOMS    <user>   **** ""
9 36 37 38 39 40 41 42 43 44
DONOR_HYDROGENS      STATIC     ATOMS    <user>   **** ""
1 20
ATOM$BLUE        STATIC     ATOMS    COLORGROUP SYSTEM
9 36 37 38 39 40 41 42 43 44
ATOM$RED        STATIC     ATOMS    COLORGROUP SYSTEM
1 20
