AV-unprocessed.smi:1717|AV-procd|sdf|6920|dock5
  -GOLD-   22720 8123D 1   1.00000     0.00000
 Structure written by MMmdl.
 40 41  0  0  0  0  0  0  0  0  3 V2000
  146.8531  136.8650  162.5557 C   0  0  0  0  0  0  0  0  0  0  0  0
  147.5715  137.0273  161.2974 N   0  5  0  0  0  0  0  0  0  0  0  0
  147.7617  136.0173  160.4067 C   0  0  0  0  0  0  0  0  0  0  0  0
  147.6045  134.7974  160.5252 O   0  0  0  0  0  0  0  0  0  0  0  0
  148.2240  136.5572  159.0486 C   0  0  0  0  0  0  0  0  0  0  0  0
  147.4772  135.8887  157.9542 N   0  3  2  0  0  0  0  0  0  0  0  0
  146.0067  136.0200  158.1121 C   0  0  0  0  0  0  0  0  0  0  0  0
  145.2639  135.4522  156.8909 C   0  0  0  0  0  0  0  0  0  0  0  0
  145.6496  133.9862  156.6361 C   0  0  1  0  0  0  0  0  0  0  0  0
  145.0020  133.5064  155.4186 N   0  0  0  0  0  0  0  0  0  0  0  0
  145.3041  133.9063  154.1750 C   0  0  0  0  0  0  0  0  0  0  0  0
  146.1818  134.7306  153.9199 O   0  0  0  0  0  0  0  0  0  0  0  0
  144.5278  133.2973  153.2640 N   0  0  0  0  0  0  0  0  0  0  0  0
  144.5684  133.4599  151.8565 C   0  0  0  0  0  0  0  0  0  0  0  0
  143.8241  132.7811  150.8472 C   0  0  0  0  0  0  0  0  0  0  0  0
  144.1453  133.2195  149.6381 N   0  0  0  0  0  0  0  0  0  0  0  0
  145.0824  134.1675  149.8643 N   0  0  0  0  0  0  0  0  0  0  0  0
  145.3694  134.3457  151.1996 C   0  0  0  0  0  0  0  0  0  0  0  0
  147.1801  133.8684  156.5203 C   0  0  0  0  0  0  0  0  0  0  0  0
  147.8802  134.4714  157.7485 C   0  0  0  0  0  0  0  0  0  0  0  0
  145.5110  134.6780  149.1053 H   0  0  0  0  0  0  0  0  0  0  0  0
  146.8738  137.7754  163.1546 H   0  0  0  0  0  0  0  0  0  0  0  0
  147.2751  136.0762  163.1789 H   0  0  0  0  0  0  0  0  0  0  0  0
  145.8018  136.6192  162.4034 H   0  0  0  0  0  0  0  0  0  0  0  0
  148.1341  137.6429  158.9683 H   0  0  0  0  0  0  0  0  0  0  0  0
  149.2882  136.3319  158.9665 H   0  0  0  0  0  0  0  0  0  0  0  0
  145.6899  135.5055  159.0207 H   0  0  0  0  0  0  0  0  0  0  0  0
  145.7414  137.0711  158.2330 H   0  0  0  0  0  0  0  0  0  0  0  0
  144.1871  135.5348  157.0448 H   0  0  0  0  0  0  0  0  0  0  0  0
  145.4982  136.0570  156.0135 H   0  0  0  0  0  0  0  0  0  0  0  0
  145.3088  133.3900  157.4852 H   0  0  0  0  0  0  0  0  0  0  0  0
  144.2663  132.8245  155.5322 H   0  0  0  0  0  0  0  0  0  0  0  0
  143.8377  132.6476  153.6116 H   0  0  0  0  0  0  0  0  0  0  0  0
  143.0785  132.0053  150.9385 H   0  0  0  0  0  0  0  0  0  0  0  0
  146.0949  135.0642  151.5520 H   0  0  0  0  0  0  0  0  0  0  0  0
  147.4711  132.8227  156.4113 H   0  0  0  0  0  0  0  0  0  0  0  0
  147.5257  134.3805  155.6210 H   0  0  0  0  0  0  0  0  0  0  0  0
  148.9591  134.4003  157.6093 H   0  0  0  0  0  0  0  0  0  0  0  0
  147.6394  133.8903  158.6401 H   0  0  0  0  0  0  0  0  0  0  0  0
  147.7211  136.3896  157.1114 H   0  0  0  0  0  0  0  0  0  0  0  0
  1  2  1  0  0  0  0
  1 22  1  0  0  0  0
  1 23  1  0  0  0  0
  1 24  1  0  0  0  0
  2  3  1  0  0  0  0
  3  4  2  0  0  0  0
  3  5  1  0  0  0  0
  5  6  1  0  0  0  0
  5 25  1  0  0  0  0
  5 26  1  0  0  0  0
  6 20  1  0  0  0  0
  6  7  1  0  0  0  0
  6 40  1  0  0  0  0
  7  8  1  0  0  0  0
  7 27  1  0  0  0  0
  7 28  1  0  0  0  0
  8  9  1  0  0  0  0
  8 29  1  0  0  0  0
  8 30  1  0  0  0  0
  9 10  1  0  0  0  0
  9 19  1  0  0  0  0
  9 31  1  0  0  0  0
 10 11  1  0  0  0  0
 10 32  1  0  0  0  0
 11 12  2  0  0  0  0
 11 13  1  0  0  0  0
 13 14  1  0  0  0  0
 13 33  1  0  0  0  0
 14 18  2  0  0  0  0
 14 15  1  0  0  0  0
 15 16  2  0  0  0  0
 15 34  1  0  0  0  0
 16 17  1  0  0  0  0
 17 21  1  0  0  0  0
 17 18  1  0  0  0  0
 18 35  1  0  0  0  0
 19 20  1  0  0  0  0
 19 36  1  0  0  0  0
 19 37  1  0  0  0  0
 20 38  1  0  0  0  0
 20 39  1  0  0  0  0
M  CHG  1   2  -1
M  CHG  1   6   1
M  END
> <s_m_source_file>
AV-unprocessed.smi

> <i_m_source_file_index>
1717

> <i_lp_mmshare_version>
43012

> <i_f3d_flags>
0

> <s_epik_input>
W0NIM11bTkhdQyg9TylbQ0gyXU4xW0NIMl1bQ0gyXVtDSF0oW0NIMl1bQ0gyXTEpW05IXUMoPU8pW05IXWMyW2NIXW5bbkhdW2NIXTI=

> <s_epik_cmdline>
J2VwaWtfcHl0aG9uJywgJy1waCcsICc3LjAnLCAnLXRuJywgJzgnLCAnLW1hJywgJzIwMCcsICctbWV0YWxfYmluZGluZycsICctaW1hZScsICc8aW5maWxlLm1hZT4nLCAnLW9tYWUnLCAnPG91dGZpbGUubWFlPic=

> <r_lp_tautomer_probability>
0.5

> <r_epik_Ionization_Penalty>
6.1395

> <r_epik_Ionization_Penalty_Charging>
6.13946

> <r_epik_Ionization_Penalty_Neutral>
4.21226e-05

> <r_epik_State_Penalty>
6.9595

> <r_epik_Charging_Adjusted_Penalty>
13.099

> <i_epik_Tot_Q>
0

> <i_epik_Tot_abs_Q>
2

> <r_epik_Metal_State_Penalty>
2.89141

> <b_epik_Metal_Only>
1

> <s_lp_Force_Field>
OPLS_2005

> <r_lp_Energy>
12.4493

> <b_lp_Chiralities_Consistent>
1

> <s_lp_Variant>
AV-unprocessed.smi:1717-4

> <Gold.Version>
5.8.1

> <Gold.Id.Protein>
6NUR|6NUR_protein|mol2

> <Gold.PLP.Fitness>
41.2403

> <Gold.PLP.PLP>
-21.4351

> <Gold.PLP.part.hbond>
-5.0000

> <Gold.PLP.part.metal>
0.0000

> <Gold.PLP.part.buried>
-5.5509

> <Gold.PLP.part.nonpolar>
-12.7308

> <Gold.PLP.part.repulsive>
0.4021

> <Gold.PLP.ligand.clash>
0.0000

> <Gold.PLP.ligand.torsion>
0.3668

> <Gold.PLP.Chemscore.Hbond>
6.8313

> <Gold.PLP.Chemscore.CHOScore>
0.0000

> <Gold.PLP.Chemscore.Metal>
0.0000

> <Gold.Chemscore.Hbonds>
donor molecule, donor type, donor heavy atom, donor atom, acceptor molecule, acceptor atom, score
      L1  H    10    32       P1 10957  0.98
      L1  H    13    33       P1 10957  1.00
      L1  H    17    21       P1  7921  1.00
      P1  H  6931  6943       L1     2  1.90
      P1  H  6934  6947       L1     2  1.61

> <Gold.PLP.Chemscore.Internal.Correction>
0.0451

> <Gold.Rescore>
     Score         DG    S(hbond)    S(metal)    S(lipo)     H(rot)  DE(clash)    DE(int)     intcor
     13.15     -17.44       3.79        0.00      32.51       1.75       0.02       4.27       ----

> <Gold.Chemscore.Fitness>
13.1526

> <Gold.Chemscore.DG>
-17.4445

> <Gold.Chemscore.ZeroCoef>
-5.4800

> <Gold.Chemscore.Hbond>
3.7881

> <Gold.Chemscore.Metal>
0.0000

> <Gold.Chemscore.Lipo>
32.5133

> <Gold.Chemscore.Internal_Hbond>
0.0000

> <Gold.Chemscore.DEClash>
0.0211

> <Gold.Chemscore.DEInternal>
4.2707

> <Gold.Chemscore.Rot>
1.7546

> <Gold.Chemscore.Internal.Correction>
   9.000000E+99

> <Gold.Chemscore.Hbonds>
donor molecule, donor type, donor heavy atom, donor atom, acceptor molecule, acceptor atom, score
      L1  H    10    32       P1 10957  0.88
      L1  H    13    33       P1 10957  0.55
      L1  H    17    21       P1  7921  0.96
      P1  H  6931  6943       L1     2  0.19
      P1  H  6934  6947       L1     2  0.17

> <Gold.Chemscore.Hbond.Weighted>
-12.6522

> <Gold.Chemscore.Metal.Weighted>
-0.0000

> <Gold.Chemscore.Lipo.Weighted>
-3.8041

> <Gold.Chemscore.Internal_Hbond.Weighted>
0.0000

> <Gold.Chemscore.DEClash.Weighted>
0.0211

> <Gold.Chemscore.DEInternal.Weighted>
4.2707

> <Gold.Chemscore.Rot.Weighted>
4.4917

> <Gold.Chemscore.Internal.Correction.Weighted>
   9.000000E+99

> <Gold.Protein.RotatedTorsions>
[ 6907 6896 6895 6894 ] final  127.00 input  -60.11 | X-H torsion
[ 7974 7965 7964 7962 ] final -158.21 input  175.53 | X-H torsion
[ 8008 7997 7996 7995 ] final -103.04 input   59.86 | X-H torsion
[ 10167 10162 10161 10158 ] final  -59.60 input  -65.29 | X-H torsion
[ 10718 10713 10712 10709 ] final  110.15 input   66.30 | X-H torsion
[ 10763 10752 10751 10750 ] final  -33.02 input  -60.55 | X-H torsion
[ 11005 11000 10999 10996 ] final  -30.66 input  -57.11 | X-H torsion

> <Gold.Protein.ActiveResidues>
 VAL166  LYS551  ARG553  GLY616  TRP617  ASP618  TYR619  PRO620  LYS621  CYS622 
 ASP623  PHE694  ASN695  SER759  ASP760  ASP761  ALA762  ILE779  LEU786  VAL792 
 PHE793  MET794  SER795  GLU796  ALA797  LYS798  CYS799  TRP800  GLU811  SER814 

> <Gold.Protein.RotatedAtoms>
  152.3852  133.6601  159.6192 H   0  0  0  0  0  0  0  0  0  0  0  0  # atno 6907 bound_to 6896
  150.7773  133.9047  159.3360 H   0  0  0  0  0  0  0  0  0  0  0  0  # atno 6908 bound_to 6896
  151.6845  135.0958  160.0273 H   0  0  0  0  0  0  0  0  0  0  0  0  # atno 6909 bound_to 6896
  144.7515  140.3859  143.6044 H   0  0  0  0  0  0  0  0  0  0  0  0  # atno 7974 bound_to 7965
  154.8652  140.0425  157.1690 H   0  0  0  0  0  0  0  0  0  0  0  0  # atno 8008 bound_to 7997
  154.8797  140.2971  155.5411 H   0  0  0  0  0  0  0  0  0  0  0  0  # atno 8009 bound_to 7997
  156.2999  140.2413  156.3798 H   0  0  0  0  0  0  0  0  0  0  0  0  # atno 8010 bound_to 7997
  140.6125  143.2391  151.5676 H   0  0  0  0  0  0  0  0  0  0  0  0  # atno 10167 bound_to 10162
  157.6508  131.0927  150.6559 H   0  0  0  0  0  0  0  0  0  0  0  0  # atno 10718 bound_to 10713
  153.8233  135.6872  153.4824 H   0  0  0  0  0  0  0  0  0  0  0  0  # atno 10763 bound_to 10752
  153.1556  135.4600  154.9697 H   0  0  0  0  0  0  0  0  0  0  0  0  # atno 10764 bound_to 10752
  154.7918  135.3304  154.7703 H   0  0  0  0  0  0  0  0  0  0  0  0  # atno 10765 bound_to 10752
  140.9402  133.7284  156.1064 H   0  0  0  0  0  0  0  0  0  0  0  0  # atno 11005 bound_to 11000
  145.6928  139.1643  143.2637 LP  0  0  0  0  0  0  0  0  0  0  0  0  # atno 17320 bound_to 7965
  146.1471  140.6977  142.9339 LP  0  0  0  0  0  0  0  0  0  0  0  0  # atno 17321 bound_to 7965
  139.5372  144.2747  152.1276 LP  0  0  0  0  0  0  0  0  0  0  0  0  # atno 17342 bound_to 10162
  140.1950  144.4715  150.6460 LP  0  0  0  0  0  0  0  0  0  0  0  0  # atno 17343 bound_to 10162
  156.6870  130.4584  149.5611 LP  0  0  0  0  0  0  0  0  0  0  0  0  # atno 17370 bound_to 10713
  156.1888  130.6547  151.1038 LP  0  0  0  0  0  0  0  0  0  0  0  0  # atno 17371 bound_to 10713
  140.7745  134.3795  157.5501 LP  0  0  0  0  0  0  0  0  0  0  0  0  # atno 17394 bound_to 11000
  139.8818  134.9043  156.2874 LP  0  0  0  0  0  0  0  0  0  0  0  0  # atno 17395 bound_to 11000

$$$$
