AV-unprocessed.smi:2295|AV-procd|sdf|9218|dock1
  -GOLD-   2272012433D 1   1.00000     0.00000
 Structure written by MMmdl.
 37 38  0  0  0  0  0  0  0  0  1 V2000
  144.9707  132.1568  150.1565 C   0  0  0  0  0  0  0  0  0  0  0  0
  144.7019  133.2741  151.1428 C   0  0  0  0  0  0  0  0  0  0  0  0
  143.4129  133.4776  151.6714 C   0  0  0  0  0  0  0  0  0  0  0  0
  143.2283  134.5339  152.5851 C   0  0  0  0  0  0  0  0  0  0  0  0
  141.8684  134.8145  153.1889 C   0  0  0  0  0  0  0  0  0  0  0  0
  144.2276  135.3539  152.9745 N   0  0  0  0  0  0  0  0  0  0  0  0
  145.4734  135.1675  152.4722 C   0  0  0  0  0  0  0  0  0  0  0  0
  146.5894  135.9766  152.8143 N   0  0  0  0  0  0  0  0  0  0  0  0
  146.6288  137.0226  153.6586 C   0  0  0  0  0  0  0  0  0  0  0  0
  145.6758  137.4445  154.3146 O   0  0  0  0  0  0  0  0  0  0  0  0
  147.8571  137.5594  153.7064 N   0  0  0  0  0  0  0  0  0  0  0  0
  148.2530  138.7014  154.5258 C   0  0  0  0  0  0  0  0  0  0  0  0
  149.7009  139.1426  154.2408 C   0  0  2  0  0  0  0  0  0  0  0  0
  150.7087  137.9990  154.4234 C   0  0  0  0  0  0  0  0  0  0  0  0
  152.0777  138.6377  154.6598 C   0  0  0  0  0  0  0  0  0  0  0  0
  151.8584  139.7549  155.6794 C   0  0  0  0  0  0  0  0  0  0  0  0
  150.2508  140.5031  155.3152 S   0  0  0  0  0  0  0  0  0  0  0  0
  145.7435  134.1328  151.5483 C   0  0  0  0  0  0  0  0  0  0  0  0
  144.0784  131.5532  149.9881 H   0  0  0  0  0  0  0  0  0  0  0  0
  145.7579  131.5025  150.5315 H   0  0  0  0  0  0  0  0  0  0  0  0
  145.2911  132.5680  149.1990 H   0  0  0  0  0  0  0  0  0  0  0  0
  142.5877  132.8422  151.3847 H   0  0  0  0  0  0  0  0  0  0  0  0
  141.1402  134.0589  152.8935 H   0  0  0  0  0  0  0  0  0  0  0  0
  141.5031  135.7876  152.8597 H   0  0  0  0  0  0  0  0  0  0  0  0
  141.9293  134.8208  154.2775 H   0  0  0  0  0  0  0  0  0  0  0  0
  147.4574  135.7327  152.3615 H   0  0  0  0  0  0  0  0  0  0  0  0
  148.5760  137.1465  153.1307 H   0  0  0  0  0  0  0  0  0  0  0  0
  147.5663  139.5404  154.4012 H   0  0  0  0  0  0  0  0  0  0  0  0
  148.1672  138.3942  155.5685 H   0  0  0  0  0  0  0  0  0  0  0  0
  149.7775  139.5012  153.2133 H   0  0  0  0  0  0  0  0  0  0  0  0
  150.4401  137.3999  155.2949 H   0  0  0  0  0  0  0  0  0  0  0  0
  150.7180  137.3295  153.5628 H   0  0  0  0  0  0  0  0  0  0  0  0
  152.8129  137.9110  155.0066 H   0  0  0  0  0  0  0  0  0  0  0  0
  152.4512  139.0598  153.7259 H   0  0  0  0  0  0  0  0  0  0  0  0
  151.8193  139.3395  156.6868 H   0  0  0  0  0  0  0  0  0  0  0  0
  152.6541  140.4997  155.6554 H   0  0  0  0  0  0  0  0  0  0  0  0
  146.7401  133.9955  151.1540 H   0  0  0  0  0  0  0  0  0  0  0  0
  1  2  1  0  0  0  0
  1 19  1  0  0  0  0
  1 20  1  0  0  0  0
  1 21  1  0  0  0  0
  2 18  1  0  0  0  0
  2  3  2  0  0  0  0
  3  4  1  0  0  0  0
  3 22  1  0  0  0  0
  4  5  1  0  0  0  0
  4  6  2  0  0  0  0
  5 23  1  0  0  0  0
  5 24  1  0  0  0  0
  5 25  1  0  0  0  0
  6  7  1  0  0  0  0
  7  8  1  0  0  0  0
  7 18  2  0  0  0  0
  8  9  1  0  0  0  0
  8 26  1  0  0  0  0
  9 10  2  0  0  0  0
  9 11  1  0  0  0  0
 11 12  1  0  0  0  0
 11 27  1  0  0  0  0
 12 13  1  0  0  0  0
 12 28  1  0  0  0  0
 12 29  1  0  0  0  0
 13 17  1  0  0  0  0
 13 14  1  0  0  0  0
 13 30  1  0  0  0  0
 14 15  1  0  0  0  0
 14 31  1  0  0  0  0
 14 32  1  0  0  0  0
 15 16  1  0  0  0  0
 15 33  1  0  0  0  0
 15 34  1  0  0  0  0
 16 17  1  0  0  0  0
 16 35  1  0  0  0  0
 16 36  1  0  0  0  0
 18 37  1  0  0  0  0
M  END
> <s_m_source_file>
AV-unprocessed.smi

> <i_m_source_file_index>
2295

> <i_lp_mmshare_version>
43012

> <i_f3d_flags>
0

> <s_epik_input>
W0NIM11jMVtjSF1jKFtDSDNdKW5jKFtjSF0xKVtOSF1DKD1PKVtOSF1bQ0gyXVtDQEBIXTJbQ0gyXVtDSDJdW0NIMl1TMg==

> <s_epik_cmdline>
J2VwaWtfcHl0aG9uJywgJy1waCcsICc3LjAnLCAnLXRuJywgJzgnLCAnLW1hJywgJzIwMCcsICctbWV0YWxfYmluZGluZycsICctaW1hZScsICc8aW5maWxlLm1hZT4nLCAnLW9tYWUnLCAnPG91dGZpbGUubWFlPic=

> <r_lp_tautomer_probability>
1

> <r_epik_Ionization_Penalty>
0.000247769

> <r_epik_Ionization_Penalty_Charging>
0

> <r_epik_Ionization_Penalty_Neutral>
0.000247769

> <r_epik_State_Penalty>
-0

> <r_epik_Charging_Adjusted_Penalty>
0

> <i_epik_Tot_Q>
0

> <i_epik_Tot_abs_Q>
0

> <r_epik_Metal_State_Penalty>
-0

> <b_epik_Metal_Only>
0

> <s_lp_Force_Field>
OPLS_2005

> <r_lp_Energy>
13.4664

> <b_lp_Chiralities_Consistent>
1

> <s_lp_Variant>
AV-unprocessed.smi:2295-1

> <Gold.Version>
5.8.1

> <Gold.Id.Protein>
6NUR|6NUR_protein|mol2

> <Gold.PLP.Fitness>
39.5378

> <Gold.PLP.PLP>
-33.6285

> <Gold.PLP.part.hbond>
-1.9965

> <Gold.PLP.part.metal>
0.0000

> <Gold.PLP.part.buried>
-3.0943

> <Gold.PLP.part.nonpolar>
-28.6112

> <Gold.PLP.part.repulsive>
0.1744

> <Gold.PLP.ligand.clash>
0.0000

> <Gold.PLP.ligand.torsion>
0.0216

> <Gold.PLP.Chemscore.Hbond>
1.9840

> <Gold.PLP.Chemscore.CHOScore>
0.0000

> <Gold.PLP.Chemscore.Metal>
0.0000

> <Gold.Chemscore.Hbonds>
donor molecule, donor type, donor heavy atom, donor atom, acceptor molecule, acceptor atom, score
      L1  H     8    26       P1  7948  0.98
      L1  H    11    27       P1  7948  0.98

> <Gold.PLP.Chemscore.Internal.Correction>
0.0006

> <Gold.Rescore>
     Score         DG    S(hbond)    S(metal)    S(lipo)     H(rot)  DE(clash)    DE(int)     intcor
     16.96     -18.37       1.94        0.00      80.51       1.17       0.09       1.33       ----

> <Gold.Chemscore.Fitness>
16.9572

> <Gold.Chemscore.DG>
-18.3744

> <Gold.Chemscore.ZeroCoef>
-5.4800

> <Gold.Chemscore.Hbond>
1.9376

> <Gold.Chemscore.Metal>
0.0000

> <Gold.Chemscore.Lipo>
80.5144

> <Gold.Chemscore.Internal_Hbond>
0.0000

> <Gold.Chemscore.DEClash>
0.0918

> <Gold.Chemscore.DEInternal>
1.3254

> <Gold.Chemscore.Rot>
1.1709

> <Gold.Chemscore.Internal.Correction>
   9.000000E+99

> <Gold.Chemscore.Hbonds>
donor molecule, donor type, donor heavy atom, donor atom, acceptor molecule, acceptor atom, score
      L1  H     8    26       P1  7948  0.93
      L1  H    11    27       P1  7948  0.92

> <Gold.Chemscore.Hbond.Weighted>
-6.4717

> <Gold.Chemscore.Metal.Weighted>
-0.0000

> <Gold.Chemscore.Lipo.Weighted>
-9.4202

> <Gold.Chemscore.Internal_Hbond.Weighted>
0.0000

> <Gold.Chemscore.DEClash.Weighted>
0.0918

> <Gold.Chemscore.DEInternal.Weighted>
1.3254

> <Gold.Chemscore.Rot.Weighted>
2.9975

> <Gold.Chemscore.Internal.Correction.Weighted>
   9.000000E+99

> <Gold.Protein.RotatedTorsions>
[ 6907 6896 6895 6894 ] final  126.39 input  -60.11 | X-H torsion
[ 7974 7965 7964 7962 ] final  112.83 input  175.53 | X-H torsion
[ 8008 7997 7996 7995 ] final  -20.60 input   59.86 | X-H torsion
[ 10167 10162 10161 10158 ] final    6.75 input  -65.29 | X-H torsion
[ 10718 10713 10712 10709 ] final   37.90 input   66.30 | X-H torsion
[ 10763 10752 10751 10750 ] final   31.95 input  -60.55 | X-H torsion
[ 11005 11000 10999 10996 ] final  -63.04 input  -57.11 | X-H torsion

> <Gold.Protein.ActiveResidues>
 VAL166  LYS551  ARG553  GLY616  TRP617  ASP618  TYR619  PRO620  LYS621  CYS622 
 ASP623  PHE694  ASN695  SER759  ASP760  ASP761  ALA762  ILE779  LEU786  VAL792 
 PHE793  MET794  SER795  GLU796  ALA797  LYS798  CYS799  TRP800  GLU811  SER814 

> <Gold.Protein.RotatedAtoms>
  152.3908  133.6676  159.6235 H   0  0  0  0  0  0  0  0  0  0  0  0  # atno 6907 bound_to 6896
  150.7817  133.8958  159.3335 H   0  0  0  0  0  0  0  0  0  0  0  0  # atno 6908 bound_to 6896
  151.6745  135.0972  160.0255 H   0  0  0  0  0  0  0  0  0  0  0  0  # atno 6909 bound_to 6896
  145.2246  139.2846  143.4200 H   0  0  0  0  0  0  0  0  0  0  0  0  # atno 7974 bound_to 7965
  154.4759  140.2057  155.9879 H   0  0  0  0  0  0  0  0  0  0  0  0  # atno 8008 bound_to 7997
  156.1088  140.3232  155.8014 H   0  0  0  0  0  0  0  0  0  0  0  0  # atno 8009 bound_to 7997
  155.4671  140.0528  157.2975 H   0  0  0  0  0  0  0  0  0  0  0  0  # atno 8010 bound_to 7997
  140.6410  143.7773  150.7429 H   0  0  0  0  0  0  0  0  0  0  0  0  # atno 10167 bound_to 10162
  157.3525  130.7606  149.6988 H   0  0  0  0  0  0  0  0  0  0  0  0  # atno 10718 bound_to 10713
  153.0288  135.6425  154.1280 H   0  0  0  0  0  0  0  0  0  0  0  0  # atno 10763 bound_to 10752
  154.1005  135.2860  155.3254 H   0  0  0  0  0  0  0  0  0  0  0  0  # atno 10764 bound_to 10752
  154.6402  135.5462  153.7844 H   0  0  0  0  0  0  0  0  0  0  0  0  # atno 10765 bound_to 10752
  141.1380  133.6647  156.5620 H   0  0  0  0  0  0  0  0  0  0  0  0  # atno 11005 bound_to 11000
  146.3368  140.2563  142.8600 LP  0  0  0  0  0  0  0  0  0  0  0  0  # atno 17320 bound_to 7965
  144.9733  140.8390  143.5442 LP  0  0  0  0  0  0  0  0  0  0  0  0  # atno 17321 bound_to 7965
  140.1405  143.4446  152.2197 LP  0  0  0  0  0  0  0  0  0  0  0  0  # atno 17342 bound_to 10162
  139.5620  144.7411  151.4129 LP  0  0  0  0  0  0  0  0  0  0  0  0  # atno 17343 bound_to 10162
  155.9724  130.4136  150.4093 LP  0  0  0  0  0  0  0  0  0  0  0  0  # atno 17370 bound_to 10713
  157.2158  131.0471  151.2574 LP  0  0  0  0  0  0  0  0  0  0  0  0  # atno 17371 bound_to 10713
  140.3981  134.7381  157.4763 LP  0  0  0  0  0  0  0  0  0  0  0  0  # atno 17394 bound_to 11000
  140.0516  134.6122  155.8854 LP  0  0  0  0  0  0  0  0  0  0  0  0  # atno 17395 bound_to 11000

$$$$
