AV-unprocessed.smi:1004|AV-procd|sdf|4361|dock5
  -GOLD-   22720 2263D 1   1.00000     0.00000
 Structure written by MMmdl.
 42 43  0  0  0  0  0  0  0  0  1 V2000
  153.4239  142.9219  163.3381 C   0  0  0  0  0  0  0  0  0  0  0  0
  153.0083  142.9541  161.8817 C   0  0  0  0  0  0  0  0  0  0  0  0
  152.2268  144.0553  161.3589 C   0  0  0  0  0  0  0  0  0  0  0  0
  151.8760  144.0508  160.0636 C   0  0  0  0  0  0  0  0  0  0  0  0
  152.2452  143.0060  159.1969 N   0  0  0  0  0  0  0  0  0  0  0  0
  151.7949  143.1020  157.7983 C   0  0  0  0  0  0  0  0  0  0  0  0
  150.8507  141.9641  157.3837 C   0  0  0  0  0  0  0  0  0  0  0  0
  151.1328  140.7883  157.6188 O   0  0  0  0  0  0  0  0  0  0  0  0
  149.7151  142.3357  156.7770 N   0  0  0  0  0  0  0  0  0  0  0  0
  148.6919  141.4102  156.3061 C   0  0  0  0  0  0  0  0  0  0  0  0
  149.0360  140.8467  154.9167 C   0  0  0  0  0  0  0  0  0  0  0  0
  149.5968  139.4326  154.9501 C   0  0  0  0  0  0  0  0  0  0  0  0
  150.8388  139.1467  154.5124 C   0  0  0  0  0  0  0  0  0  0  0  0
  151.4547  137.7590  154.5399 C   0  0  0  0  0  0  0  0  0  0  0  0
  150.6619  136.7837  155.4260 C   0  0  0  0  0  0  0  0  0  0  0  0
  149.1526  136.9297  155.1971 C   0  0  0  0  0  0  0  0  0  0  0  0
  148.6733  138.3581  155.5126 C   0  0  0  0  0  0  0  0  0  0  0  0
  152.9793  141.9362  159.6276 C   0  0  0  0  0  0  0  0  0  0  0  0
  153.3011  141.0163  158.8746 O   0  0  0  0  0  0  0  0  0  0  0  0
  153.3588  141.9525  161.0452 C   0  0  0  0  0  0  0  0  0  0  0  0
  153.0433  143.7904  163.8765 H   0  0  0  0  0  0  0  0  0  0  0  0
  154.5110  142.9181  163.4224 H   0  0  0  0  0  0  0  0  0  0  0  0
  153.0371  142.0253  163.8229 H   0  0  0  0  0  0  0  0  0  0  0  0
  151.9241  144.8699  162.0004 H   0  0  0  0  0  0  0  0  0  0  0  0
  151.2879  144.8369  159.6130 H   0  0  0  0  0  0  0  0  0  0  0  0
  151.2808  144.0489  157.6280 H   0  0  0  0  0  0  0  0  0  0  0  0
  152.6552  143.1201  157.1266 H   0  0  0  0  0  0  0  0  0  0  0  0
  149.5529  143.3200  156.6207 H   0  0  0  0  0  0  0  0  0  0  0  0
  148.5845  140.5978  157.0264 H   0  0  0  0  0  0  0  0  0  0  0  0
  147.7292  141.9220  156.2640 H   0  0  0  0  0  0  0  0  0  0  0  0
  148.1456  140.8528  154.2874 H   0  0  0  0  0  0  0  0  0  0  0  0
  149.7538  141.5087  154.4302 H   0  0  0  0  0  0  0  0  0  0  0  0
  151.4584  139.9314  154.1032 H   0  0  0  0  0  0  0  0  0  0  0  0
  151.4954  137.3888  153.5151 H   0  0  0  0  0  0  0  0  0  0  0  0
  152.4837  137.8282  154.8936 H   0  0  0  0  0  0  0  0  0  0  0  0
  150.9793  135.7591  155.2300 H   0  0  0  0  0  0  0  0  0  0  0  0
  150.8850  136.9812  156.4753 H   0  0  0  0  0  0  0  0  0  0  0  0
  148.9237  136.6904  154.1578 H   0  0  0  0  0  0  0  0  0  0  0  0
  148.6047  136.2106  155.8065 H   0  0  0  0  0  0  0  0  0  0  0  0
  148.6120  138.4947  156.5927 H   0  0  0  0  0  0  0  0  0  0  0  0
  147.6662  138.4987  155.1188 H   0  0  0  0  0  0  0  0  0  0  0  0
  153.9410  141.1275  161.4294 H   0  0  0  0  0  0  0  0  0  0  0  0
  1  2  1  0  0  0  0
  1 21  1  0  0  0  0
  1 22  1  0  0  0  0
  1 23  1  0  0  0  0
  2 20  2  0  0  0  0
  2  3  1  0  0  0  0
  3  4  2  0  0  0  0
  3 24  1  0  0  0  0
  4  5  1  0  0  0  0
  4 25  1  0  0  0  0
  5  6  1  0  0  0  0
  5 18  1  0  0  0  0
  6  7  1  0  0  0  0
  6 26  1  0  0  0  0
  6 27  1  0  0  0  0
  7  8  2  0  0  0  0
  7  9  1  0  0  0  0
  9 10  1  0  0  0  0
  9 28  1  0  0  0  0
 10 11  1  0  0  0  0
 10 29  1  0  0  0  0
 10 30  1  0  0  0  0
 11 12  1  0  0  0  0
 11 31  1  0  0  0  0
 11 32  1  0  0  0  0
 12 17  1  0  0  0  0
 12 13  2  0  0  0  0
 13 14  1  0  0  0  0
 13 33  1  0  0  0  0
 14 15  1  0  0  0  0
 14 34  1  0  0  0  0
 14 35  1  0  0  0  0
 15 16  1  0  0  0  0
 15 36  1  0  0  0  0
 15 37  1  0  0  0  0
 16 17  1  0  0  0  0
 16 38  1  0  0  0  0
 16 39  1  0  0  0  0
 17 40  1  0  0  0  0
 17 41  1  0  0  0  0
 18 19  2  0  0  0  0
 18 20  1  0  0  0  0
 20 42  1  0  0  0  0
M  END
> <s_m_source_file>
AV-unprocessed.smi

> <i_m_source_file_index>
1004

> <i_lp_mmshare_version>
43012

> <i_f3d_flags>
0

> <s_epik_input>
W0NIM11jMVtjSF1bY0hdbihjKD1PKVtjSF0xKVtDSDJdQyg9TylbTkhdW0NIMl1bQ0gyXUMyPVtDSF1bQ0gyXVtDSDJdW0NIMl1bQ0gyXTI=

> <s_epik_cmdline>
J2VwaWtfcHl0aG9uJywgJy1waCcsICc3LjAnLCAnLXRuJywgJzgnLCAnLW1hJywgJzIwMCcsICctbWV0YWxfYmluZGluZycsICctaW1hZScsICc8aW5maWxlLm1hZT4nLCAnLW9tYWUnLCAnPG91dGZpbGUubWFlPic=

> <r_lp_tautomer_probability>
1

> <r_epik_Ionization_Penalty>
5.31482e-07

> <r_epik_Ionization_Penalty_Charging>
5.13379e-07

> <r_epik_Ionization_Penalty_Neutral>
1.81035e-08

> <r_epik_State_Penalty>
-0

> <r_epik_Charging_Adjusted_Penalty>
5.13379e-07

> <i_epik_Tot_Q>
0

> <i_epik_Tot_abs_Q>
0

> <r_epik_Metal_State_Penalty>
-0

> <b_epik_Metal_Only>
0

> <s_lp_Force_Field>
OPLS_2005

> <r_lp_Energy>
18.1417

> <b_lp_Chiralities_Consistent>
1

> <s_lp_Variant>
AV-unprocessed.smi:1004-1

> <Gold.Version>
5.8.1

> <Gold.Id.Protein>
6NUR|6NUR_protein|mol2

> <Gold.PLP.Fitness>
48.5593

> <Gold.PLP.PLP>
-46.5015

> <Gold.PLP.part.hbond>
-1.7369

> <Gold.PLP.part.metal>
0.0000

> <Gold.PLP.part.buried>
-3.4641

> <Gold.PLP.part.nonpolar>
-40.3808

> <Gold.PLP.part.repulsive>
0.0305

> <Gold.PLP.ligand.clash>
0.0000

> <Gold.PLP.ligand.torsion>
0.5793

> <Gold.PLP.Chemscore.Hbond>
1.0637

> <Gold.PLP.Chemscore.CHOScore>
0.0000

> <Gold.PLP.Chemscore.Metal>
0.0000

> <Gold.Chemscore.Hbonds>
donor molecule, donor type, donor heavy atom, donor atom, acceptor molecule, acceptor atom, score
      L1  H     9    28       P1  8028  1.00
      P1  H  7997  8009       L1    19  0.01

> <Gold.PLP.Chemscore.Internal.Correction>
0.0254

> <Gold.Rescore>
     Score         DG    S(hbond)    S(metal)    S(lipo)     H(rot)  DE(clash)    DE(int)     intcor
     13.84     -18.24       1.00        0.00     116.12       1.63       0.14       4.26       ----

> <Gold.Chemscore.Fitness>
13.8375

> <Gold.Chemscore.DG>
-18.2412

> <Gold.Chemscore.ZeroCoef>
-5.4800

> <Gold.Chemscore.Hbond>
1.0032

> <Gold.Chemscore.Metal>
0.0000

> <Gold.Chemscore.Lipo>
116.1210

> <Gold.Chemscore.Internal_Hbond>
0.0000

> <Gold.Chemscore.DEClash>
0.1405

> <Gold.Chemscore.DEInternal>
4.2633

> <Gold.Chemscore.Rot>
1.6311

> <Gold.Chemscore.Internal.Correction>
   9.000000E+99

> <Gold.Chemscore.Hbonds>
donor molecule, donor type, donor heavy atom, donor atom, acceptor molecule, acceptor atom, score
      L1  H     9    28       P1  8028  0.97
      P1  H  7997  8009       L1    19  0.04

> <Gold.Chemscore.Hbond.Weighted>
-3.3508

> <Gold.Chemscore.Metal.Weighted>
-0.0000

> <Gold.Chemscore.Lipo.Weighted>
-13.5862

> <Gold.Chemscore.Internal_Hbond.Weighted>
0.0000

> <Gold.Chemscore.DEClash.Weighted>
0.1405

> <Gold.Chemscore.DEInternal.Weighted>
4.2633

> <Gold.Chemscore.Rot.Weighted>
4.1757

> <Gold.Chemscore.Internal.Correction.Weighted>
   9.000000E+99

> <Gold.Protein.RotatedTorsions>
[ 6907 6896 6895 6894 ] final  129.22 input  -60.11 | X-H torsion
[ 7974 7965 7964 7962 ] final -143.45 input  175.53 | X-H torsion
[ 8008 7997 7996 7995 ] final  146.05 input   59.86 | X-H torsion
[ 10167 10162 10161 10158 ] final   58.47 input  -65.29 | X-H torsion
[ 10718 10713 10712 10709 ] final   33.91 input   66.30 | X-H torsion
[ 10763 10752 10751 10750 ] final -140.64 input  -60.55 | X-H torsion
[ 11005 11000 10999 10996 ] final -126.91 input  -57.11 | X-H torsion

> <Gold.Protein.ActiveResidues>
 VAL166  LYS551  ARG553  GLY616  TRP617  ASP618  TYR619  PRO620  LYS621  CYS622 
 ASP623  PHE694  ASN695  SER759  ASP760  ASP761  ALA762  ILE779  LEU786  VAL792 
 PHE793  MET794  SER795  GLU796  ALA797  LYS798  CYS799  TRP800  GLU811  SER814 

> <Gold.Protein.RotatedAtoms>
  152.3645  133.6339  159.6039 H   0  0  0  0  0  0  0  0  0  0  0  0  # atno 6907 bound_to 6896
  150.7624  133.9370  159.3453 H   0  0  0  0  0  0  0  0  0  0  0  0  # atno 6908 bound_to 6896
  151.7203  135.0896  160.0334 H   0  0  0  0  0  0  0  0  0  0  0  0  # atno 6909 bound_to 6896
  144.8369  140.5833  143.5478 H   0  0  0  0  0  0  0  0  0  0  0  0  # atno 7974 bound_to 7965
  156.2866  140.2193  156.5314 H   0  0  0  0  0  0  0  0  0  0  0  0  # atno 8008 bound_to 7997
  154.7446  140.0485  157.0863 H   0  0  0  0  0  0  0  0  0  0  0  0  # atno 8009 bound_to 7997
  155.0187  140.3121  155.4805 H   0  0  0  0  0  0  0  0  0  0  0  0  # atno 8010 bound_to 7997
  140.1868  144.4126  150.6589 H   0  0  0  0  0  0  0  0  0  0  0  0  # atno 10167 bound_to 10162
  157.3037  130.7364  149.6682 H   0  0  0  0  0  0  0  0  0  0  0  0  # atno 10718 bound_to 10713
  154.8572  135.3547  154.5740 H   0  0  0  0  0  0  0  0  0  0  0  0  # atno 10763 bound_to 10752
  153.6352  135.7000  153.5266 H   0  0  0  0  0  0  0  0  0  0  0  0  # atno 10764 bound_to 10752
  153.3016  135.4204  155.1217 H   0  0  0  0  0  0  0  0  0  0  0  0  # atno 10765 bound_to 10752
  140.9642  134.0894  157.3937 H   0  0  0  0  0  0  0  0  0  0  0  0  # atno 11005 bound_to 11000
  145.4776  139.1498  143.3779 LP  0  0  0  0  0  0  0  0  0  0  0  0  # atno 17320 bound_to 7965
  146.2666  140.4911  142.8831 LP  0  0  0  0  0  0  0  0  0  0  0  0  # atno 17321 bound_to 7965
  140.6482  143.2218  151.6136 LP  0  0  0  0  0  0  0  0  0  0  0  0  # atno 17342 bound_to 10162
  139.5272  144.3022  152.1064 LP  0  0  0  0  0  0  0  0  0  0  0  0  # atno 17343 bound_to 10162
  155.9673  130.4272  150.4734 LP  0  0  0  0  0  0  0  0  0  0  0  0  # atno 17370 bound_to 10713
  157.2719  131.0589  151.2254 LP  0  0  0  0  0  0  0  0  0  0  0  0  # atno 17371 bound_to 10713
  139.8889  135.0101  156.6646 LP  0  0  0  0  0  0  0  0  0  0  0  0  # atno 17394 bound_to 11000
  140.7423  133.8967  155.8286 LP  0  0  0  0  0  0  0  0  0  0  0  0  # atno 17395 bound_to 11000

$$$$
