#       Name:                AV-unprocessed.smi:1356
#       Creating user name   scv26
#       Creation time:       Fri Mar 27 05:13:53 2020


#       File generated by GOLD software.
#

@<TRIPOS>MOLECULE
AV-unprocessed.smi:1356
    46    47     1
SMALL
NO_CHARGES


@<TRIPOS>ATOM
      1 ****        -3.9690   1.1795  -3.5647 C.3            1 S1                 0.0000
      2 ****        -3.3620   1.6318  -2.2483 C.3            1 S1                 0.0000
      3 ****        -1.8783   1.8878  -2.1298 C.3            1 S1                 0.0000
      4 ****        -2.5058   0.7509  -1.3481 C.3            1 S1                 0.0000
      5 ****        -2.1691  -0.6492  -1.7579 C.2            1 S1                 0.0000
      6 ****        -1.7756  -0.9540  -2.8842 O.2            1 S1                 0.0000
      7 ****        -2.3149  -1.5471  -0.7717 N.am           1 S1                 0.0000
      8 ****        -2.0149  -2.9749  -0.8701 C.3            1 S1                 0.0000
      9 ****        -0.5037  -3.2806  -0.9783 C.3            1 S1                 0.0000
     10 ****         0.3293  -2.6384   0.1358 C.2            1 S1                 0.0000
     11 ****         0.0485  -2.8439   1.3167 O.2            1 S1                 0.0000
     12 ****         1.3378  -1.8445  -0.2553 N.am           1 S1                 0.0000
     13 ****         2.1945  -1.0799   0.6418 C.3            1 S1                 0.0000
     14 ****         1.4933   0.1993   1.1300 C.3            1 S1                 0.0000
     15 ****         2.3694   1.0158   2.0595 C.ar           1 S1                 0.0000
     16 ****         3.0635   2.1652   1.6236 C.ar           1 S1                 0.0000
     17 ****         3.8644   2.8758   2.5421 C.ar           1 S1                 0.0000
     18 ****         3.9542   2.4227   3.8748 C.ar           1 S1                 0.0000
     19 ****         3.2403   1.2682   4.2557 C.ar           1 S1                 0.0000
     20 ****         2.4841   0.6148   3.3463 N.pl3          1 S1                 1.0000
     21 ****        -3.2280   0.7069  -4.2085 H              1 S1                 0.0000
     22 ****        -4.3749   2.0390  -4.0982 H              1 S1                 0.0000
     23 ****        -4.7792   0.4736  -3.3815 H              1 S1                 0.0000
     24 ****        -4.0174   2.3097  -1.7048 H              1 S1                 0.0000
     25 ****        -1.2530   1.6470  -2.9879 H              1 S1                 0.0000
     26 ****        -1.5564   2.7586  -1.5624 H              1 S1                 0.0000
     27 ****        -2.6369   0.9086  -0.2784 H              1 S1                 0.0000
     28 ****        -2.6463  -1.2153   0.1226 H              1 S1                 0.0000
     29 ****        -2.4283  -3.4658   0.0116 H              1 S1                 0.0000
     30 ****        -2.5420  -3.3968  -1.7271 H              1 S1                 0.0000
     31 ****        -0.3483  -4.3592  -0.9442 H              1 S1                 0.0000
     32 ****        -0.1301  -2.9542  -1.9499 H              1 S1                 0.0000
     33 ****         1.4989  -1.7363  -1.2466 H              1 S1                 0.0000
     34 ****         2.4975  -1.7013   1.4864 H              1 S1                 0.0000
     35 ****         3.1064  -0.8216   0.1024 H              1 S1                 0.0000
     36 ****         1.2042   0.8149   0.2767 H              1 S1                 0.0000
     37 ****         0.5689  -0.0493   1.6539 H              1 S1                 0.0000
     38 ****         2.9858   2.4996   0.5990 H              1 S1                 0.0000
     39 ****         4.4041   3.7575   2.2283 H              1 S1                 0.0000
     40 ****         4.5623   2.9524   4.5937 H              1 S1                 0.0000
     41 ****         3.2511   0.8506   5.2520 H              1 S1                 0.0000
     42 ****         1.9771  -0.2195   3.6434 H              1 S1                 0.0000
     43 ****        -1.6657  -0.2477  -3.5835 LP             1 S1                 0.0000
     44 ****        -1.5660  -1.9077  -3.0995 LP             1 S1                 0.0000
     45 ****        -0.7257  -3.4317   1.5516 LP             1 S1                 0.0000
     46 ****         0.5945  -2.4229   2.0411 LP             1 S1                 0.0000
@<TRIPOS>BOND
    1    1    2 1     
    2    1   21 1     
    3    1   22 1     
    4    1   23 1     
    5    2    4 1     
    6    2    3 1     
    7    2   24 1     
    8    3    4 1     
    9    3   25 1     
   10    3   26 1     
   11    4    5 1     
   12    4   27 1     
   13    5    6 2     
   14    5    7 am    
   15    7    8 1     
   16    7   28 1     
   17    8    9 1     
   18    8   29 1     
   19    8   30 1     
   20    9   10 1     
   21    9   31 1     
   22    9   32 1     
   23   10   11 2     
   24   10   12 am    
   25   12   13 1     
   26   12   33 1     
   27   13   14 1     
   28   13   34 1     
   29   13   35 1     
   30   14   15 1     
   31   14   36 1     
   32   14   37 1     
   33   15   20 ar    
   34   15   16 ar    
   35   16   17 ar    
   36   16   38 1     
   37   17   18 ar    
   38   17   39 1     
   39   18   19 ar    
   40   18   40 1     
   41   19   20 ar    
   42   19   41 1     
   43   20   42 1     
   44    6   43 1     
   45    6   44 1     
   46   11   45 1     
   47   11   46 1     
@<TRIPOS>SUBSTRUCTURE
      1 S1             1
@<TRIPOS>SET
LONE_PAIRS      STATIC     ATOMS    <user>   **** ""
4 43 44 45 46
DONOR_HYDROGENS      STATIC     ATOMS    <user>   **** ""
3 28 33 42
ATOM$BLUE        STATIC     ATOMS    COLORGROUP SYSTEM
4 43 44 45 46
ATOM$RED        STATIC     ATOMS    COLORGROUP SYSTEM
3 28 33 42
