#       Name:                AV-unprocessed.smi:2623
#       Creating user name   scv26
#       Creation time:       Fri Mar 27 14:23:27 2020


#       File generated by GOLD software.
#

@<TRIPOS>MOLECULE
AV-unprocessed.smi:2623
    47    49     1
SMALL
NO_CHARGES


@<TRIPOS>ATOM
      1 ****        -1.2520   1.5685  -3.7529 O.3            1 S1                 0.0000
      2 ****        -2.3300   1.7256  -2.8566 C.3            1 S1                 0.0000
      3 ****        -1.9226   2.3526  -1.5576 C.2            1 S1                 0.0000
      4 ****        -2.2292   3.6177  -1.2675 N.2            1 S1                 0.0000
      5 ****        -1.6990   3.7783  -0.0029 C.ar           1 S1                 0.0000
      6 ****        -1.6979   4.9001   0.8565 C.ar           1 S1                 0.0000
      7 ****        -1.0902   4.8257   2.1269 C.ar           1 S1                 0.0000
      8 ****        -0.4778   3.6305   2.5560 C.ar           1 S1                 0.0000
      9 ****        -0.4674   2.5012   1.7149 C.ar           1 S1                 0.0000
     10 ****        -1.0718   2.5819   0.4458 C.ar           1 S1                 0.0000
     11 ****        -1.2281   1.6802  -0.6030 N.pl3          1 S1                 0.0000
     12 ****        -0.7477   0.3035  -0.6198 C.3            1 S1                 0.0000
     13 ****         0.7875   0.2085  -0.7378 C.3            1 S1                 0.0000
     14 ****         1.2180   0.8115  -1.9410 O.3            1 S1                 0.0000
     15 ****         1.2868  -1.2431  -0.7163 C.3            1 S1                 0.0000
     16 ****         1.0361  -1.7955   0.5695 O.3            1 S1                 0.0000
     17 ****         1.3926  -3.1071   0.7983 C.ar           1 S1                 0.0000
     18 ****         1.1206  -3.6290   2.0800 C.ar           1 S1                 0.0000
     19 ****         1.4526  -4.9590   2.4023 C.ar           1 S1                 0.0000
     20 ****         2.0618  -5.7848   1.4398 C.ar           1 S1                 0.0000
     21 ****         2.3385  -5.2775   0.1567 C.ar           1 S1                 0.0000
     22 ****         2.0077  -3.9466  -0.1652 C.ar           1 S1                 0.0000
     23 ****        -1.5791   1.1831  -4.5513 H              1 S1                 0.0000
     24 ****        -3.0862   2.3492  -3.3351 H              1 S1                 0.0000
     25 ****        -2.8005   0.7601  -2.6713 H              1 S1                 0.0000
     26 ****        -2.1672   5.8193   0.5381 H              1 S1                 0.0000
     27 ****        -1.0954   5.6893   2.7757 H              1 S1                 0.0000
     28 ****        -0.0162   3.5809   3.5314 H              1 S1                 0.0000
     29 ****        -0.0001   1.5843   2.0421 H              1 S1                 0.0000
     30 ****        -1.0796  -0.1730   0.3034 H              1 S1                 0.0000
     31 ****        -1.2213  -0.2493  -1.4300 H              1 S1                 0.0000
     32 ****         1.2564   0.7525   0.0825 H              1 S1                 0.0000
     33 ****         0.9039   1.7029  -1.9593 H              1 S1                 0.0000
     34 ****         0.7855  -1.8230  -1.4933 H              1 S1                 0.0000
     35 ****         2.3597  -1.2653  -0.9156 H              1 S1                 0.0000
     36 ****         0.6527  -3.0021   2.8248 H              1 S1                 0.0000
     37 ****         1.2397  -5.3452   3.3883 H              1 S1                 0.0000
     38 ****         2.3172  -6.8050   1.6857 H              1 S1                 0.0000
     39 ****         2.8064  -5.9099  -0.5833 H              1 S1                 0.0000
     40 ****         2.2374  -3.5934  -1.1588 H              1 S1                 0.0000
     41 ****        -0.5612   0.9697  -3.3478 LP             1 S1                 0.0000
     42 ****        -0.8454   2.4604  -3.9509 LP             1 S1                 0.0000
     43 ****        -2.7212   4.2846  -1.8272 LP             1 S1                 0.0000
     44 ****         0.8484   0.3077  -2.7218 LP             1 S1                 0.0000
     45 ****         2.2171   0.8051  -1.9828 LP             1 S1                 0.0000
     46 ****         0.0528  -1.7225   0.7364 LP             1 S1                 0.0000
     47 ****         1.5295  -1.2343   1.2341 LP             1 S1                 0.0000
@<TRIPOS>BOND
    1    1    2 1     
    2    1   23 1     
    3    2    3 1     
    4    2   24 1     
    5    2   25 1     
    6    3   11 1     
    7    3    4 2     
    8    4    5 1     
    9    5   10 ar    
   10    5    6 ar    
   11    6    7 ar    
   12    6   26 1     
   13    7    8 ar    
   14    7   27 1     
   15    8    9 ar    
   16    8   28 1     
   17    9   10 ar    
   18    9   29 1     
   19   10   11 1     
   20   11   12 1     
   21   12   13 1     
   22   12   30 1     
   23   12   31 1     
   24   13   14 1     
   25   13   15 1     
   26   13   32 1     
   27   14   33 1     
   28   15   16 1     
   29   15   34 1     
   30   15   35 1     
   31   16   17 1     
   32   17   22 ar    
   33   17   18 ar    
   34   18   19 ar    
   35   18   36 1     
   36   19   20 ar    
   37   19   37 1     
   38   20   21 ar    
   39   20   38 1     
   40   21   22 ar    
   41   21   39 1     
   42   22   40 1     
   43    1   41 1     
   44    1   42 1     
   45    4   43 1     
   46   14   44 1     
   47   14   45 1     
   48   16   46 1     
   49   16   47 1     
@<TRIPOS>SUBSTRUCTURE
      1 S1             1
@<TRIPOS>SET
LONE_PAIRS      STATIC     ATOMS    <user>   **** ""
7 41 42 43 44 45 46 47
DONOR_HYDROGENS      STATIC     ATOMS    <user>   **** ""
2 23 33
ATOM$BLUE        STATIC     ATOMS    COLORGROUP SYSTEM
7 41 42 43 44 45 46 47
ATOM$RED        STATIC     ATOMS    COLORGROUP SYSTEM
2 23 33
