AV-unprocessed.smi:3248|AV-procd|sdf|12413|dock8
  -GOLD-   2272018293D 1   1.00000     0.00000
 Structure written by MMmdl.
 38 39  0  0  0  0  0  0  0  0  1 V2000
  151.2920  143.0708  157.7865 C   0  0  0  0  0  0  0  0  0  0  0  0
  151.7840  141.7108  158.3084 C   0  0  2  0  0  0  0  0  0  0  0  0
  153.0801  141.8143  159.1443 C   0  0  0  0  0  0  0  0  0  0  0  0
  152.8903  142.4988  160.4105 N   0  0  0  0  0  0  0  0  0  0  0  0
  153.2628  142.0857  161.6727 C   0  0  0  0  0  0  0  0  0  0  0  0
  152.8622  143.0511  162.5511 C   0  0  0  0  0  0  0  0  0  0  0  0
  152.2410  144.0262  161.7212 C   0  0  0  0  0  0  0  0  0  0  0  0
  152.2548  143.6903  160.4415 N   0  0  0  0  0  0  0  0  0  0  0  0
  151.9839  140.8096  157.1772 N   0  0  0  0  0  0  0  0  0  0  0  0
  151.0090  140.2348  156.4516 C   0  0  0  0  0  0  0  0  0  0  0  0
  149.8162  140.4614  156.6539 O   0  0  0  0  0  0  0  0  0  0  0  0
  151.4764  139.4908  155.4183 N   0  0  0  0  0  0  0  0  0  0  0  0
  152.7512  138.7642  155.5207 C   0  0  0  0  0  0  0  0  0  0  0  0
  152.4511  137.3168  155.9573 C   0  0  0  0  0  0  0  0  0  0  0  0
  151.5721  136.6993  155.0197 O   0  0  0  0  0  0  0  0  0  0  0  0
  150.3429  137.4020  154.8474 C   0  0  0  0  0  0  0  0  0  0  0  0
  150.6405  138.8434  154.3875 C   0  0  1  0  0  0  0  0  0  0  0  0
  149.3662  139.6126  153.9802 C   0  0  0  0  0  0  0  0  0  0  0  0
  151.0452  143.7479  158.6045 H   0  0  0  0  0  0  0  0  0  0  0  0
  150.3921  142.9554  157.1816 H   0  0  0  0  0  0  0  0  0  0  0  0
  152.0487  143.5559  157.1690 H   0  0  0  0  0  0  0  0  0  0  0  0
  150.9931  141.2992  158.9385 H   0  0  0  0  0  0  0  0  0  0  0  0
  153.4814  140.8219  159.3547 H   0  0  0  0  0  0  0  0  0  0  0  0
  153.8479  142.3458  158.5801 H   0  0  0  0  0  0  0  0  0  0  0  0
  153.7767  141.1502  161.8387 H   0  0  0  0  0  0  0  0  0  0  0  0
  152.9916  143.0593  163.6232 H   0  0  0  0  0  0  0  0  0  0  0  0
  151.7812  144.9601  162.0090 H   0  0  0  0  0  0  0  0  0  0  0  0
  152.9396  140.6107  156.9195 H   0  0  0  0  0  0  0  0  0  0  0  0
  153.2589  138.7698  154.5551 H   0  0  0  0  0  0  0  0  0  0  0  0
  153.4518  139.2159  156.2237 H   0  0  0  0  0  0  0  0  0  0  0  0
  153.3738  136.7387  156.0083 H   0  0  0  0  0  0  0  0  0  0  0  0
  152.0053  137.2952  156.9532 H   0  0  0  0  0  0  0  0  0  0  0  0
  149.7470  136.8783  154.0998 H   0  0  0  0  0  0  0  0  0  0  0  0
  149.7710  137.3936  155.7768 H   0  0  0  0  0  0  0  0  0  0  0  0
  151.2432  138.7848  153.4795 H   0  0  0  0  0  0  0  0  0  0  0  0
  148.9298  139.1753  153.0818 H   0  0  0  0  0  0  0  0  0  0  0  0
  149.5869  140.6574  153.7588 H   0  0  0  0  0  0  0  0  0  0  0  0
  148.5949  139.5804  154.7491 H   0  0  0  0  0  0  0  0  0  0  0  0
  1  2  1  0  0  0  0
  1 19  1  0  0  0  0
  1 20  1  0  0  0  0
  1 21  1  0  0  0  0
  2  3  1  0  0  0  0
  2  9  1  0  0  0  0
  2 22  1  0  0  0  0
  3  4  1  0  0  0  0
  3 23  1  0  0  0  0
  3 24  1  0  0  0  0
  4  8  1  0  0  0  0
  4  5  1  0  0  0  0
  5  6  2  0  0  0  0
  5 25  1  0  0  0  0
  6  7  1  0  0  0  0
  6 26  1  0  0  0  0
  7  8  2  0  0  0  0
  7 27  1  0  0  0  0
  9 10  1  0  0  0  0
  9 28  1  0  0  0  0
 10 11  2  0  0  0  0
 10 12  1  0  0  0  0
 12 17  1  0  0  0  0
 12 13  1  0  0  0  0
 13 14  1  0  0  0  0
 13 29  1  0  0  0  0
 13 30  1  0  0  0  0
 14 15  1  0  0  0  0
 14 31  1  0  0  0  0
 14 32  1  0  0  0  0
 15 16  1  0  0  0  0
 16 17  1  0  0  0  0
 16 33  1  0  0  0  0
 16 34  1  0  0  0  0
 17 18  1  0  0  0  0
 17 35  1  0  0  0  0
 18 36  1  0  0  0  0
 18 37  1  0  0  0  0
 18 38  1  0  0  0  0
M  END
> <s_m_source_file>
AV-unprocessed.smi

> <i_m_source_file_index>
3248

> <i_lp_mmshare_version>
43012

> <i_f3d_flags>
0

> <s_epik_input>
bjFbY0hdW2NIXVtjSF1uMVtDSDJdW0NAQEhdKFtDSDNdKVtOSF1DKD1PKU4yW0NIMl1bQ0gyXU9bQ0gyXVtDQEhdMltDSDNd

> <s_epik_cmdline>
J2VwaWtfcHl0aG9uJywgJy1waCcsICc3LjAnLCAnLXRuJywgJzgnLCAnLW1hJywgJzIwMCcsICctbWV0YWxfYmluZGluZycsICctaW1hZScsICc8aW5maWxlLm1hZT4nLCAnLW9tYWUnLCAnPG91dGZpbGUubWFlPic=

> <r_lp_tautomer_probability>
1

> <r_epik_Ionization_Penalty>
4.45233e-05

> <r_epik_Ionization_Penalty_Charging>
0

> <r_epik_Ionization_Penalty_Neutral>
4.45233e-05

> <r_epik_State_Penalty>
-0

> <r_epik_Charging_Adjusted_Penalty>
0

> <i_epik_Tot_Q>
0

> <i_epik_Tot_abs_Q>
0

> <r_epik_Metal_State_Penalty>
-0

> <b_epik_Metal_Only>
0

> <s_lp_Force_Field>
OPLS_2005

> <r_lp_Energy>
31.5175

> <b_lp_Chiralities_Consistent>
1

> <s_lp_Variant>
AV-unprocessed.smi:3248-1

> <Gold.Version>
5.8.1

> <Gold.Id.Protein>
6NUR|6NUR_protein|mol2

> <Gold.PLP.Fitness>
39.0899

> <Gold.PLP.PLP>
-37.5860

> <Gold.PLP.part.hbond>
-1.0000

> <Gold.PLP.part.metal>
0.0000

> <Gold.PLP.part.buried>
-0.0127

> <Gold.PLP.part.nonpolar>
-35.9585

> <Gold.PLP.part.repulsive>
0.2844

> <Gold.PLP.ligand.clash>
0.3063

> <Gold.PLP.ligand.torsion>
0.5179

> <Gold.PLP.Chemscore.Hbond>
0.8000

> <Gold.PLP.Chemscore.CHOScore>
0.0000

> <Gold.PLP.Chemscore.Metal>
0.0000

> <Gold.Chemscore.Hbonds>
donor molecule, donor type, donor heavy atom, donor atom, acceptor molecule, acceptor atom, score
      P1  H 10752 10764       L1    15  0.40

> <Gold.PLP.Chemscore.Internal.Correction>
0.4461

> <Gold.Rescore>
     Score         DG    S(hbond)    S(metal)    S(lipo)     H(rot)  DE(clash)    DE(int)     intcor
     11.96     -15.39       0.73        0.00      94.76       1.42       0.21       3.22       ----

> <Gold.Chemscore.Fitness>
11.9555

> <Gold.Chemscore.DG>
-15.3888

> <Gold.Chemscore.ZeroCoef>
-5.4800

> <Gold.Chemscore.Hbond>
0.7349

> <Gold.Chemscore.Metal>
0.0000

> <Gold.Chemscore.Lipo>
94.7627

> <Gold.Chemscore.Internal_Hbond>
0.0000

> <Gold.Chemscore.DEClash>
0.2113

> <Gold.Chemscore.DEInternal>
3.2219

> <Gold.Chemscore.Rot>
1.4191

> <Gold.Chemscore.Internal.Correction>
   9.000000E+99

> <Gold.Chemscore.Hbonds>
donor molecule, donor type, donor heavy atom, donor atom, acceptor molecule, acceptor atom, score
      P1  H 10752 10764       L1    15  0.01

> <Gold.Chemscore.Hbond.Weighted>
-2.4545

> <Gold.Chemscore.Metal.Weighted>
-0.0000

> <Gold.Chemscore.Lipo.Weighted>
-11.0872

> <Gold.Chemscore.Internal_Hbond.Weighted>
0.0000

> <Gold.Chemscore.DEClash.Weighted>
0.2113

> <Gold.Chemscore.DEInternal.Weighted>
3.2219

> <Gold.Chemscore.Rot.Weighted>
3.6330

> <Gold.Chemscore.Internal.Correction.Weighted>
   9.000000E+99

> <Gold.Protein.RotatedTorsions>
[ 6907 6896 6895 6894 ] final  -43.65 input  -60.11 | X-H torsion
[ 7974 7965 7964 7962 ] final -131.90 input  175.53 | X-H torsion
[ 8008 7997 7996 7995 ] final -168.62 input   59.86 | X-H torsion
[ 10167 10162 10161 10158 ] final -133.94 input  -65.29 | X-H torsion
[ 10718 10713 10712 10709 ] final  137.02 input   66.30 | X-H torsion
[ 10763 10752 10751 10750 ] final  -62.47 input  -60.55 | X-H torsion
[ 11005 11000 10999 10996 ] final  -31.21 input  -57.11 | X-H torsion

> <Gold.Protein.ActiveResidues>
 VAL166  LYS551  ARG553  GLY616  TRP617  ASP618  TYR619  PRO620  LYS621  CYS622 
 ASP623  PHE694  ASN695  SER759  ASP760  ASP761  ALA762  ILE779  LEU786  VAL792 
 PHE793  MET794  SER795  GLU796  ALA797  LYS798  CYS799  TRP800  GLU811  SER814 

> <Gold.Protein.RotatedAtoms>
  150.9416  134.8824  159.7615 H   0  0  0  0  0  0  0  0  0  0  0  0  # atno 6907 bound_to 6896
  152.5082  134.3934  159.9401 H   0  0  0  0  0  0  0  0  0  0  0  0  # atno 6908 bound_to 6896
  151.3954  133.3735  159.2761 H   0  0  0  0  0  0  0  0  0  0  0  0  # atno 6909 bound_to 6896
  144.9335  140.7156  143.4891 H   0  0  0  0  0  0  0  0  0  0  0  0  # atno 7974 bound_to 7965
  155.8939  140.1029  157.1398 H   0  0  0  0  0  0  0  0  0  0  0  0  # atno 8008 bound_to 7997
  154.4018  140.1305  156.4415 H   0  0  0  0  0  0  0  0  0  0  0  0  # atno 8009 bound_to 7997
  155.7501  140.3465  155.5148 H   0  0  0  0  0  0  0  0  0  0  0  0  # atno 8010 bound_to 7997
  139.8931  143.6698  152.2609 H   0  0  0  0  0  0  0  0  0  0  0  0  # atno 10167 bound_to 10162
  157.4405  131.1057  151.0149 H   0  0  0  0  0  0  0  0  0  0  0  0  # atno 10718 bound_to 10713
  154.3003  135.6236  153.5422 H   0  0  0  0  0  0  0  0  0  0  0  0  # atno 10763 bound_to 10752
  152.9841  135.5677  154.5291 H   0  0  0  0  0  0  0  0  0  0  0  0  # atno 10764 bound_to 10752
  154.4920  135.2868  155.1465 H   0  0  0  0  0  0  0  0  0  0  0  0  # atno 10765 bound_to 10752
  140.9449  133.7256  156.1131 H   0  0  0  0  0  0  0  0  0  0  0  0  # atno 11005 bound_to 11000
  145.3104  139.1821  143.4642 LP  0  0  0  0  0  0  0  0  0  0  0  0  # atno 17320 bound_to 7965
  146.3257  140.3107  142.8626 LP  0  0  0  0  0  0  0  0  0  0  0  0  # atno 17321 bound_to 7965
  139.7092  144.7623  151.1141 LP  0  0  0  0  0  0  0  0  0  0  0  0  # atno 17342 bound_to 10162
  140.7722  143.5353  150.9375 LP  0  0  0  0  0  0  0  0  0  0  0  0  # atno 17343 bound_to 10162
  157.1014  130.5983  149.5461 LP  0  0  0  0  0  0  0  0  0  0  0  0  # atno 17370 bound_to 10713
  155.9947  130.5011  150.7429 LP  0  0  0  0  0  0  0  0  0  0  0  0  # atno 17371 bound_to 10713
  140.7684  134.3861  157.5512 LP  0  0  0  0  0  0  0  0  0  0  0  0  # atno 17394 bound_to 11000
  139.8830  134.9006  156.2792 LP  0  0  0  0  0  0  0  0  0  0  0  0  # atno 17395 bound_to 11000

$$$$
