AV-unprocessed.smi:37|AV-procd|sdf|310|dock2
  -GOLD-   2262016123D 1   1.00000     0.00000
 Structure written by MMmdl.
 44 45  0  0  0  0  0  0  0  0  1 V2000
  146.4109  135.2217  162.2196 C   0  0  0  0  0  0  0  0  0  0  0  0
  147.8376  135.3350  161.6652 C   0  0  0  0  0  0  0  0  0  0  0  0
  147.9070  136.2279  160.4285 C   0  0  0  0  0  0  0  0  0  0  0  0
  146.9330  136.8802  160.0521 O   0  0  0  0  0  0  0  0  0  0  0  0
  149.1156  136.2109  159.8449 O   0  0  0  0  0  0  0  0  0  0  0  0
  149.4091  137.1397  158.8151 C   0  0  0  0  0  0  0  0  0  0  0  0
  150.7170  137.8670  159.1515 C   0  0  1  0  0  0  0  0  0  0  0  0
  151.8135  136.9618  159.2089 O   0  0  0  0  0  0  0  0  0  0  0  0
  153.0052  137.6393  158.9328 C   0  0  2  0  0  0  0  0  0  0  0  0
  153.8942  137.6339  160.1561 N   0  0  0  0  0  0  0  0  0  0  0  0
  153.5248  137.0044  161.3391 C   0  0  0  0  0  0  0  0  0  0  0  0
  154.3095  136.9965  162.4427 C   0  0  0  0  0  0  0  0  0  0  0  0
  153.8849  136.3702  163.5533 F   0  0  0  0  0  0  0  0  0  0  0  0
  155.6081  137.6639  162.4393 C   0  0  0  0  0  0  0  0  0  0  0  0
  156.3883  137.7101  163.3884 O   0  0  0  0  0  0  0  0  0  0  0  0
  155.9351  138.2852  161.2302 N   0  0  0  0  0  0  0  0  0  0  0  0
  155.1355  138.3027  160.0863 C   0  0  0  0  0  0  0  0  0  0  0  0
  155.5154  138.8909  159.0747 O   0  0  0  0  0  0  0  0  0  0  0  0
  152.6331  139.0627  158.4603 C   0  0  2  0  0  0  0  0  0  0  0  0
  152.7809  140.4479  159.8955 Br  0  0  0  0  0  0  0  0  0  0  0  0
  151.1627  138.9006  158.1152 C   0  0  1  0  0  0  0  0  0  0  0  0
  151.0044  138.3724  156.8022 O   0  0  0  0  0  0  0  0  0  0  0  0
  151.6578  138.9227  155.7631 C   0  0  0  0  0  0  0  0  0  0  0  0
  152.4686  139.8466  155.8280 O   0  0  0  0  0  0  0  0  0  0  0  0
  151.3053  138.2638  154.4316 C   0  0  0  0  0  0  0  0  0  0  0  0
  149.8448  138.5124  154.0300 C   0  0  0  0  0  0  0  0  0  0  0  0
  156.8226  138.7639  161.1825 H   0  0  0  0  0  0  0  0  0  0  0  0
  146.3937  134.5891  163.1070 H   0  0  0  0  0  0  0  0  0  0  0  0
  145.7301  134.7826  161.4892 H   0  0  0  0  0  0  0  0  0  0  0  0
  146.0180  136.1989  162.5030 H   0  0  0  0  0  0  0  0  0  0  0  0
  148.5017  135.7379  162.4303 H   0  0  0  0  0  0  0  0  0  0  0  0
  148.2169  134.3462  161.4060 H   0  0  0  0  0  0  0  0  0  0  0  0
  149.4844  136.6355  157.8506 H   0  0  0  0  0  0  0  0  0  0  0  0
  148.5928  137.8603  158.7484 H   0  0  0  0  0  0  0  0  0  0  0  0
  150.6235  138.3630  160.1191 H   0  0  0  0  0  0  0  0  0  0  0  0
  153.5314  137.0583  158.1727 H   0  0  0  0  0  0  0  0  0  0  0  0
  152.5723  136.5001  161.4072 H   0  0  0  0  0  0  0  0  0  0  0  0
  153.2575  139.3765  157.6231 H   0  0  0  0  0  0  0  0  0  0  0  0
  150.6052  139.8326  158.2203 H   0  0  0  0  0  0  0  0  0  0  0  0
  151.9714  138.6505  153.6597 H   0  0  0  0  0  0  0  0  0  0  0  0
  151.4956  137.1930  154.5070 H   0  0  0  0  0  0  0  0  0  0  0  0
  149.6328  138.0646  153.0590 H   0  0  0  0  0  0  0  0  0  0  0  0
  149.6301  139.5790  153.9554 H   0  0  0  0  0  0  0  0  0  0  0  0
  149.1507  138.0787  154.7507 H   0  0  0  0  0  0  0  0  0  0  0  0
  1  2  1  0  0  0  0
  1 28  1  0  0  0  0
  1 29  1  0  0  0  0
  1 30  1  0  0  0  0
  2  3  1  0  0  0  0
  2 31  1  0  0  0  0
  2 32  1  0  0  0  0
  3  4  2  0  0  0  0
  3  5  1  0  0  0  0
  5  6  1  0  0  0  0
  6  7  1  0  0  0  0
  6 33  1  0  0  0  0
  6 34  1  0  0  0  0
  7 21  1  0  0  0  0
  7  8  1  0  0  0  0
  7 35  1  0  0  0  0
  8  9  1  0  0  0  0
  9 10  1  0  0  0  0
  9 19  1  0  0  0  0
  9 36  1  0  0  0  0
 10 17  1  0  0  0  0
 10 11  1  0  0  0  0
 11 12  2  0  0  0  0
 11 37  1  0  0  0  0
 12 13  1  0  0  0  0
 12 14  1  0  0  0  0
 14 15  2  0  0  0  0
 14 16  1  0  0  0  0
 16 27  1  0  0  0  0
 16 17  1  0  0  0  0
 17 18  2  0  0  0  0
 19 20  1  0  0  0  0
 19 21  1  0  0  0  0
 19 38  1  0  0  0  0
 21 22  1  0  0  0  0
 21 39  1  0  0  0  0
 22 23  1  0  0  0  0
 23 24  2  0  0  0  0
 23 25  1  0  0  0  0
 25 26  1  0  0  0  0
 25 40  1  0  0  0  0
 25 41  1  0  0  0  0
 26 42  1  0  0  0  0
 26 43  1  0  0  0  0
 26 44  1  0  0  0  0
M  END
> <s_m_source_file>
AV-unprocessed.smi

> <i_m_source_file_index>
37

> <i_lp_mmshare_version>
43012

> <i_f3d_flags>
0

> <s_epik_input>
W0NIM11bQ0gyXUMoPU8pT1tDSDJdW0NAQEhdMU9bQ0BASF0objJbY0hdYyhGKWMoPU8pW25IXWMyPU8pW0NAQEhdKEJyKVtDQEhdMU9DKD1PKVtDSDJdW0NIM10=

> <s_epik_cmdline>
J2VwaWtfcHl0aG9uJywgJy1waCcsICc3LjAnLCAnLXRuJywgJzgnLCAnLW1hJywgJzIwMCcsICctbWV0YWxfYmluZGluZycsICctaW1hZScsICc8aW5maWxlLm1hZT4nLCAnLW9tYWUnLCAnPG91dGZpbGUubWFlPic=

> <r_lp_tautomer_probability>
0.999537

> <r_epik_Ionization_Penalty>
0.104106

> <r_epik_Ionization_Penalty_Charging>
0.104106

> <r_epik_Ionization_Penalty_Neutral>
3.94675e-16

> <r_epik_State_Penalty>
0.0940182

> <r_epik_Charging_Adjusted_Penalty>
0.198124

> <i_epik_Tot_Q>
0

> <i_epik_Tot_abs_Q>
0

> <r_epik_Metal_State_Penalty>
3.05314

> <b_epik_Metal_Only>
0

> <s_epik_Chemistry_Notes>
This compound has an ester and may undergo hydrolysis at high or low pH. This compound contains an acetal/aminal-like group ( X-CH(R)-Y where X, Y are N, S, or O) that may be acid/base labile, releasing an aldehyde.

> <s_lp_Force_Field>
OPLS_2005

> <r_lp_Energy>
24.0333

> <b_lp_Chiralities_Consistent>
1

> <s_lp_Variant>
AV-unprocessed.smi:37-8

> <Gold.Version>
5.8.1

> <Gold.Id.Protein>
6NUR|6NUR_protein|mol2

> <Gold.PLP.Fitness>
51.8147

> <Gold.PLP.PLP>
-41.3568

> <Gold.PLP.part.hbond>
-4.0376

> <Gold.PLP.part.metal>
0.0000

> <Gold.PLP.part.buried>
-4.8740

> <Gold.PLP.part.nonpolar>
-32.7554

> <Gold.PLP.part.repulsive>
0.0077

> <Gold.PLP.ligand.clash>
0.0000

> <Gold.PLP.ligand.torsion>
0.6635

> <Gold.PLP.Chemscore.Hbond>
3.8450

> <Gold.PLP.Chemscore.CHOScore>
0.0000

> <Gold.PLP.Chemscore.Metal>
0.0000

> <Gold.Chemscore.Hbonds>
donor molecule, donor type, donor heavy atom, donor atom, acceptor molecule, acceptor atom, score
      P1  H  6896  6909       L1     8  1.00
      P1  H  6934  6947       L1     4  0.28
      P1  H  7997  8008       L1    24  1.00
      P1  H  7997  8010       L1    18  0.81

> <Gold.PLP.Chemscore.Internal.Correction>
0.2500

> <Gold.Rescore>
     Score         DG    S(hbond)    S(metal)    S(lipo)     H(rot)  DE(clash)    DE(int)     intcor
     14.56     -18.27       3.86        0.00      72.01       3.33       0.21       3.50       ----

> <Gold.Chemscore.Fitness>
14.5629

> <Gold.Chemscore.DG>
-18.2682

> <Gold.Chemscore.ZeroCoef>
-5.4800

> <Gold.Chemscore.Hbond>
3.8589

> <Gold.Chemscore.Metal>
0.0000

> <Gold.Chemscore.Lipo>
72.0098

> <Gold.Chemscore.Internal_Hbond>
0.0000

> <Gold.Chemscore.DEClash>
0.2092

> <Gold.Chemscore.DEInternal>
3.4961

> <Gold.Chemscore.Rot>
3.3303

> <Gold.Chemscore.Internal.Correction>
   9.000000E+99

> <Gold.Chemscore.Hbonds>
donor molecule, donor type, donor heavy atom, donor atom, acceptor molecule, acceptor atom, score
      P1  H  6896  6909       L1     8  0.94
      P1  H  6934  6947       L1     4  0.16
      P1  H  7997  8008       L1    24  0.99
      P1  H  7997  8010       L1    18  0.80

> <Gold.Chemscore.Hbond.Weighted>
-12.8886

> <Gold.Chemscore.Metal.Weighted>
-0.0000

> <Gold.Chemscore.Lipo.Weighted>
-8.4251

> <Gold.Chemscore.Internal_Hbond.Weighted>
0.0000

> <Gold.Chemscore.DEClash.Weighted>
0.2092

> <Gold.Chemscore.DEInternal.Weighted>
3.4961

> <Gold.Chemscore.Rot.Weighted>
8.5256

> <Gold.Chemscore.Internal.Correction.Weighted>
   9.000000E+99

> <Gold.Protein.RotatedTorsions>
[ 6907 6896 6895 6894 ] final  125.89 input  -60.11 | X-H torsion
[ 7974 7965 7964 7962 ] final   -0.67 input  175.53 | X-H torsion
[ 8008 7997 7996 7995 ] final  -32.40 input   59.86 | X-H torsion
[ 10167 10162 10161 10158 ] final  -60.64 input  -65.29 | X-H torsion
[ 10718 10713 10712 10709 ] final   -2.83 input   66.30 | X-H torsion
[ 10763 10752 10751 10750 ] final  -79.07 input  -60.55 | X-H torsion
[ 11005 11000 10999 10996 ] final -110.25 input  -57.11 | X-H torsion

> <Gold.Protein.ActiveResidues>
 VAL166  LYS551  ARG553  GLY616  TRP617  ASP618  TYR619  PRO620  LYS621  CYS622 
 ASP623  PHE694  ASN695  SER759  ASP760  ASP761  ALA762  ILE779  LEU786  VAL792 
 PHE793  MET794  SER795  GLU796  ALA797  LYS798  CYS799  TRP800  GLU811  SER814 

> <Gold.Protein.RotatedAtoms>
  152.3952  133.6736  159.6269 H   0  0  0  0  0  0  0  0  0  0  0  0  # atno 6907 bound_to 6896
  150.7852  133.8887  159.3315 H   0  0  0  0  0  0  0  0  0  0  0  0  # atno 6908 bound_to 6896
  151.6665  135.0983  160.0241 H   0  0  0  0  0  0  0  0  0  0  0  0  # atno 6909 bound_to 6896
  146.2425  140.1305  142.8338 H   0  0  0  0  0  0  0  0  0  0  0  0  # atno 7974 bound_to 7965
  154.4181  140.1738  156.1722 H   0  0  0  0  0  0  0  0  0  0  0  0  # atno 8008 bound_to 7997
  155.9751  140.3382  155.6587 H   0  0  0  0  0  0  0  0  0  0  0  0  # atno 8009 bound_to 7997
  155.6574  140.0697  157.2557 H   0  0  0  0  0  0  0  0  0  0  0  0  # atno 8010 bound_to 7997
  140.6058  143.2373  151.5824 H   0  0  0  0  0  0  0  0  0  0  0  0  # atno 10167 bound_to 10162
  156.7851  130.5343  149.5744 H   0  0  0  0  0  0  0  0  0  0  0  0  # atno 10718 bound_to 10713
  154.5340  135.5708  153.6783 H   0  0  0  0  0  0  0  0  0  0  0  0  # atno 10763 bound_to 10752
  152.9946  135.6211  154.2591 H   0  0  0  0  0  0  0  0  0  0  0  0  # atno 10764 bound_to 10752
  154.2518  135.2859  155.2793 H   0  0  0  0  0  0  0  0  0  0  0  0  # atno 10765 bound_to 10752
  141.0802  133.9233  157.2305 H   0  0  0  0  0  0  0  0  0  0  0  0  # atno 11005 bound_to 11000
  145.0330  140.8886  143.5098 LP  0  0  0  0  0  0  0  0  0  0  0  0  # atno 17320 bound_to 7965
  145.1372  139.2595  143.5509 LP  0  0  0  0  0  0  0  0  0  0  0  0  # atno 17321 bound_to 7965
  139.5324  144.2878  152.1177 LP  0  0  0  0  0  0  0  0  0  0  0  0  # atno 17342 bound_to 10162
  140.2068  144.4603  150.6405 LP  0  0  0  0  0  0  0  0  0  0  0  0  # atno 17343 bound_to 10162
  156.1194  130.6099  151.0170 LP  0  0  0  0  0  0  0  0  0  0  0  0  # atno 17370 bound_to 10713
  157.6628  131.0877  150.7799 LP  0  0  0  0  0  0  0  0  0  0  0  0  # atno 17371 bound_to 10713
  139.9615  135.0153  156.9275 LP  0  0  0  0  0  0  0  0  0  0  0  0  # atno 17394 bound_to 11000
  140.5485  134.0650  155.7362 LP  0  0  0  0  0  0  0  0  0  0  0  0  # atno 17395 bound_to 11000

$$$$
