AV-unprocessed.smi:2695|AV-procd|sdf|10409|dock6
  -GOLD-   2272014443D 1   1.00000     0.00000
 Structure written by MMmdl.
 42 43  0  0  0  0  0  0  0  0  1 V2000
  149.9462  141.5111  155.2924 C   0  0  0  0  0  0  0  0  0  0  0  0
  149.9525  139.9902  155.1932 C   0  0  0  0  0  0  0  0  0  0  0  0
  148.9338  139.3276  154.6157 C   0  0  0  0  0  0  0  0  0  0  0  0
  148.9499  137.8862  154.5708 C   0  0  0  0  0  0  0  0  0  0  0  0
  147.9432  137.2228  153.9888 O   0  0  0  0  0  0  0  0  0  0  0  0
  149.9756  137.2144  155.1255 C   0  0  0  0  0  0  0  0  0  0  0  0
  151.0948  137.9051  155.7705 C   0  0  0  0  0  0  0  0  0  0  0  0
  152.0200  137.2784  156.2891 O   0  0  0  0  0  0  0  0  0  0  0  0
  151.0514  139.2766  155.7561 N   0  0  0  0  0  0  0  0  0  0  0  0
  152.1871  140.0212  156.3483 C   0  0  0  0  0  0  0  0  0  0  0  0
  152.2574  139.9205  157.8797 C   0  0  0  0  0  0  0  0  0  0  0  0
  151.5939  139.0820  158.4913 O   0  0  0  0  0  0  0  0  0  0  0  0
  153.0619  140.8084  158.4837 N   0  0  0  0  0  0  0  0  0  0  0  0
  153.2912  140.9226  159.9256 C   0  0  2  0  0  0  0  0  0  0  0  0
  153.3643  142.4203  160.3239 C   0  0  0  0  0  0  0  0  0  0  0  0
  153.2630  142.6977  161.8298 C   0  0  0  0  0  0  0  0  0  0  0  0
  152.7955  144.1531  161.9636 C   0  0  0  0  0  0  0  0  0  0  0  0
  152.2511  144.5628  160.5890 C   0  0  0  0  0  0  0  0  0  0  0  0
  152.2358  143.2857  159.7476 C   0  0  0  0  0  0  0  0  0  0  0  0
  154.5575  140.1145  160.2905 C   0  0  0  0  0  0  0  0  0  0  0  0
  154.4275  138.8562  159.8678 F   0  0  0  0  0  0  0  0  0  0  0  0
  155.6370  140.6477  159.7169 F   0  0  0  0  0  0  0  0  0  0  0  0
  154.7408  140.0812  161.6098 F   0  0  0  0  0  0  0  0  0  0  0  0
  148.9557  141.9059  155.0646 H   0  0  0  0  0  0  0  0  0  0  0  0
  150.6459  141.9453  154.5779 H   0  0  0  0  0  0  0  0  0  0  0  0
  150.1989  141.8574  156.2944 H   0  0  0  0  0  0  0  0  0  0  0  0
  148.0964  139.8683  154.1988 H   0  0  0  0  0  0  0  0  0  0  0  0
  148.1681  137.1047  153.0786 H   0  0  0  0  0  0  0  0  0  0  0  0
  149.9827  136.1342  155.0952 H   0  0  0  0  0  0  0  0  0  0  0  0
  153.1349  139.6642  155.9406 H   0  0  0  0  0  0  0  0  0  0  0  0
  152.1748  141.0719  156.0623 H   0  0  0  0  0  0  0  0  0  0  0  0
  153.5665  141.4580  157.8979 H   0  0  0  0  0  0  0  0  0  0  0  0
  152.4555  140.4702  160.4626 H   0  0  0  0  0  0  0  0  0  0  0  0
  154.3099  142.8337  159.9696 H   0  0  0  0  0  0  0  0  0  0  0  0
  152.5189  142.0388  162.2794 H   0  0  0  0  0  0  0  0  0  0  0  0
  154.2077  142.5289  162.3474 H   0  0  0  0  0  0  0  0  0  0  0  0
  152.0334  144.2434  162.7380 H   0  0  0  0  0  0  0  0  0  0  0  0
  153.6251  144.8020  162.2470 H   0  0  0  0  0  0  0  0  0  0  0  0
  151.2632  145.0200  160.6535 H   0  0  0  0  0  0  0  0  0  0  0  0
  152.9212  145.2940  160.1348 H   0  0  0  0  0  0  0  0  0  0  0  0
  152.3629  143.4942  158.6847 H   0  0  0  0  0  0  0  0  0  0  0  0
  151.2778  142.7783  159.8727 H   0  0  0  0  0  0  0  0  0  0  0  0
  1  2  1  0  0  0  0
  1 24  1  0  0  0  0
  1 25  1  0  0  0  0
  1 26  1  0  0  0  0
  2  9  1  0  0  0  0
  2  3  2  0  0  0  0
  3  4  1  0  0  0  0
  3 27  1  0  0  0  0
  4  5  1  0  0  0  0
  4  6  2  0  0  0  0
  5 28  1  0  0  0  0
  6  7  1  0  0  0  0
  6 29  1  0  0  0  0
  7  8  2  0  0  0  0
  7  9  1  0  0  0  0
  9 10  1  0  0  0  0
 10 11  1  0  0  0  0
 10 30  1  0  0  0  0
 10 31  1  0  0  0  0
 11 12  2  0  0  0  0
 11 13  1  0  0  0  0
 13 14  1  0  0  0  0
 13 32  1  0  0  0  0
 14 15  1  0  0  0  0
 14 20  1  0  0  0  0
 14 33  1  0  0  0  0
 15 19  1  0  0  0  0
 15 16  1  0  0  0  0
 15 34  1  0  0  0  0
 16 17  1  0  0  0  0
 16 35  1  0  0  0  0
 16 36  1  0  0  0  0
 17 18  1  0  0  0  0
 17 37  1  0  0  0  0
 17 38  1  0  0  0  0
 18 19  1  0  0  0  0
 18 39  1  0  0  0  0
 18 40  1  0  0  0  0
 19 41  1  0  0  0  0
 19 42  1  0  0  0  0
 20 21  1  0  0  0  0
 20 22  1  0  0  0  0
 20 23  1  0  0  0  0
M  END
> <s_m_source_file>
AV-unprocessed.smi

> <i_m_source_file_index>
2695

> <i_lp_mmshare_version>
43012

> <i_f3d_flags>
0

> <s_epik_input>
W0NIM11jMVtjSF1jKFtPSF0pW2NIXWMoPU8pbjFbQ0gyXUMoPU8pW05IXVtDQEBIXShDKEYpKEYpRilbQ0hdMltDSDJdW0NIMl1bQ0gyXVtDSDJdMg==

> <s_epik_cmdline>
J2VwaWtfcHl0aG9uJywgJy1waCcsICc3LjAnLCAnLXRuJywgJzgnLCAnLW1hJywgJzIwMCcsICctbWV0YWxfYmluZGluZycsICctaW1hZScsICc8aW5maWxlLm1hZT4nLCAnLW9tYWUnLCAnPG91dGZpbGUubWFlPic=

> <r_lp_tautomer_probability>
0.999984

> <r_epik_Ionization_Penalty>
0.843628

> <r_epik_Ionization_Penalty_Charging>
1.18449e-07

> <r_epik_Ionization_Penalty_Neutral>
0.843628

> <r_epik_State_Penalty>
0.886913

> <r_epik_Charging_Adjusted_Penalty>
0.886913

> <i_epik_Tot_Q>
0

> <i_epik_Tot_abs_Q>
0

> <r_epik_Metal_State_Penalty>
0.886913

> <b_epik_Metal_Only>
0

> <s_lp_Force_Field>
OPLS_2005

> <r_lp_Energy>
35.2102

> <b_lp_Chiralities_Consistent>
1

> <s_lp_Variant>
AV-unprocessed.smi:2695-3

> <Gold.Version>
5.8.1

> <Gold.Id.Protein>
6NUR|6NUR_protein|mol2

> <Gold.PLP.Fitness>
45.1245

> <Gold.PLP.PLP>
-43.3320

> <Gold.PLP.part.hbond>
-0.6835

> <Gold.PLP.part.metal>
0.0000

> <Gold.PLP.part.buried>
-2.8552

> <Gold.PLP.part.nonpolar>
-39.6903

> <Gold.PLP.part.repulsive>
0.0982

> <Gold.PLP.ligand.clash>
0.0000

> <Gold.PLP.ligand.torsion>
0.7757

> <Gold.PLP.Chemscore.Hbond>
0.9920

> <Gold.PLP.Chemscore.CHOScore>
0.0000

> <Gold.PLP.Chemscore.Metal>
0.0000

> <Gold.Chemscore.Hbonds>
donor molecule, donor type, donor heavy atom, donor atom, acceptor molecule, acceptor atom, score
      L1  H     5    28       P1  7948  1.00

> <Gold.PLP.Chemscore.Internal.Correction>
0.3678

> <Gold.Rescore>
     Score         DG    S(hbond)    S(metal)    S(lipo)     H(rot)  DE(clash)    DE(int)     intcor
     14.27     -16.46       1.33        0.00     107.54       2.36       0.61       1.57       ----

> <Gold.Chemscore.Fitness>
14.2746

> <Gold.Chemscore.DG>
-16.4626

> <Gold.Chemscore.ZeroCoef>
-5.4800

> <Gold.Chemscore.Hbond>
1.3300

> <Gold.Chemscore.Metal>
0.0000

> <Gold.Chemscore.Lipo>
107.5352

> <Gold.Chemscore.Internal_Hbond>
0.0000

> <Gold.Chemscore.DEClash>
0.6142

> <Gold.Chemscore.DEInternal>
1.5739

> <Gold.Chemscore.Rot>
2.3599

> <Gold.Chemscore.Internal.Correction>
   9.000000E+99

> <Gold.Chemscore.Hbonds>
donor molecule, donor type, donor heavy atom, donor atom, acceptor molecule, acceptor atom, score
      L1  H     5    28       P1  7948  0.95

> <Gold.Chemscore.Hbond.Weighted>
-4.4423

> <Gold.Chemscore.Metal.Weighted>
-0.0000

> <Gold.Chemscore.Lipo.Weighted>
-12.5816

> <Gold.Chemscore.Internal_Hbond.Weighted>
0.0000

> <Gold.Chemscore.DEClash.Weighted>
0.6142

> <Gold.Chemscore.DEInternal.Weighted>
1.5739

> <Gold.Chemscore.Rot.Weighted>
6.0413

> <Gold.Chemscore.Internal.Correction.Weighted>
   9.000000E+99

> <Gold.Protein.RotatedTorsions>
[ 6907 6896 6895 6894 ] final   44.35 input  -60.11 | X-H torsion
[ 7974 7965 7964 7962 ] final  101.79 input  175.53 | X-H torsion
[ 8008 7997 7996 7995 ] final  -45.64 input   59.86 | X-H torsion
[ 10167 10162 10161 10158 ] final  -11.78 input  -65.29 | X-H torsion
[ 10718 10713 10712 10709 ] final  163.16 input   66.30 | X-H torsion
[ 10763 10752 10751 10750 ] final -109.30 input  -60.55 | X-H torsion
[ 11005 11000 10999 10996 ] final   -7.72 input  -57.11 | X-H torsion

> <Gold.Protein.ActiveResidues>
 VAL166  LYS551  ARG553  GLY616  TRP617  ASP618  TYR619  PRO620  LYS621  CYS622 
 ASP623  PHE694  ASN695  SER759  ASP760  ASP761  ALA762  ILE779  LEU786  VAL792 
 PHE793  MET794  SER795  GLU796  ALA797  LYS798  CYS799  TRP800  GLU811  SER814 

> <Gold.Protein.RotatedAtoms>
  152.2314  134.8318  160.0472 H   0  0  0  0  0  0  0  0  0  0  0  0  # atno 6907 bound_to 6896
  151.9066  133.3545  159.3857 H   0  0  0  0  0  0  0  0  0  0  0  0  # atno 6908 bound_to 6896
  150.7027  134.4700  159.5465 H   0  0  0  0  0  0  0  0  0  0  0  0  # atno 6909 bound_to 6896
  145.3676  139.2405  143.3472 H   0  0  0  0  0  0  0  0  0  0  0  0  # atno 7974 bound_to 7965
  154.4002  140.1391  156.3881 H   0  0  0  0  0  0  0  0  0  0  0  0  # atno 8008 bound_to 7997
  155.7940  140.3478  155.5344 H   0  0  0  0  0  0  0  0  0  0  0  0  # atno 8009 bound_to 7997
  155.8551  140.0947  157.1640 H   0  0  0  0  0  0  0  0  0  0  0  0  # atno 8010 bound_to 7997
  140.7146  143.5603  150.9203 H   0  0  0  0  0  0  0  0  0  0  0  0  # atno 10167 bound_to 10162
  157.1124  131.0471  151.2451 H   0  0  0  0  0  0  0  0  0  0  0  0  # atno 10718 bound_to 10713
  154.8185  135.4606  154.0711 H   0  0  0  0  0  0  0  0  0  0  0  0  # atno 10763 bound_to 10752
  153.2084  135.6878  153.8151 H   0  0  0  0  0  0  0  0  0  0  0  0  # atno 10764 bound_to 10752
  153.7610  135.3284  155.3314 H   0  0  0  0  0  0  0  0  0  0  0  0  # atno 10765 bound_to 10752
  140.7158  133.8870  155.8784 H   0  0  0  0  0  0  0  0  0  0  0  0  # atno 11005 bound_to 11000
  146.2900  140.4321  142.8743 LP  0  0  0  0  0  0  0  0  0  0  0  0  # atno 17320 bound_to 7965
  144.8600  140.7126  143.6113 LP  0  0  0  0  0  0  0  0  0  0  0  0  # atno 17321 bound_to 7965
  139.9328  143.6473  152.3072 LP  0  0  0  0  0  0  0  0  0  0  0  0  # atno 17342 bound_to 10162
  139.6930  144.7644  151.1405 LP  0  0  0  0  0  0  0  0  0  0  0  0  # atno 17343 bound_to 10162
  157.4548  130.7619  149.7183 LP  0  0  0  0  0  0  0  0  0  0  0  0  # atno 17370 bound_to 10713
  155.9847  130.3989  150.3297 LP  0  0  0  0  0  0  0  0  0  0  0  0  # atno 17371 bound_to 10713
  141.0045  134.1104  157.4284 LP  0  0  0  0  0  0  0  0  0  0  0  0  # atno 17394 bound_to 11000
  139.8860  135.0077  156.6471 LP  0  0  0  0  0  0  0  0  0  0  0  0  # atno 17395 bound_to 11000

$$$$
