AV-unprocessed.smi:2825|AV-procd|sdf|10889|dock6
  -GOLD-   2272015333D 1   1.00000     0.00000
 Structure written by MMmdl.
 48 49  0  0  0  0  0  0  0  0  1 V2000
  144.1119  137.1024  153.2569 C   0  0  0  0  0  0  0  0  0  0  0  0
  144.5330  137.8790  154.5085 C   0  0  0  0  0  0  0  0  0  0  0  0
  145.9740  138.4007  154.4177 C   0  0  0  0  0  0  0  0  0  0  0  0
  146.2817  139.7735  155.6137 S   0  0  0  0  0  0  0  0  0  0  0  0
  145.0100  140.1386  156.2562 O   0  0  0  0  0  0  0  0  0  0  0  0
  147.4489  139.4199  156.4368 O   0  0  0  0  0  0  0  0  0  0  0  0
  146.7344  141.0879  154.5749 N   0  0  0  0  0  0  0  0  0  0  0  0
  146.4347  142.4593  154.9988 C   0  0  0  0  0  0  0  0  0  0  0  0
  147.9042  140.9441  153.6943 C   0  0  0  0  0  0  0  0  0  0  0  0
  149.1474  140.4975  154.4886 C   0  0  1  0  0  0  0  0  0  0  0  0
  150.0359  139.8433  153.6030 O   0  0  0  0  0  0  0  0  0  0  0  0
  149.8722  141.6944  155.1319 C   0  0  0  0  0  0  0  0  0  0  0  0
  150.8389  141.2836  156.1342 N   0  0  0  0  0  0  0  0  0  0  0  0
  151.6640  140.2210  156.0731 C   0  0  0  0  0  0  0  0  0  0  0  0
  152.4776  140.0219  157.1058 N   0  0  0  0  0  0  0  0  0  0  0  0
  152.1420  141.0801  157.9329 C   0  0  0  0  0  0  0  0  0  0  0  0
  152.6444  141.4475  159.2005 C   0  0  0  0  0  0  0  0  0  0  0  0
  152.1493  142.5870  159.8741 C   0  0  0  0  0  0  0  0  0  0  0  0
  152.7170  142.9445  161.2364 C   0  0  0  0  0  0  0  0  0  0  0  0
  151.1364  143.3804  159.2780 C   0  0  0  0  0  0  0  0  0  0  0  0
  150.5916  144.6115  159.9808 C   0  0  0  0  0  0  0  0  0  0  0  0
  150.6217  143.0263  158.0133 C   0  0  0  0  0  0  0  0  0  0  0  0
  151.1210  141.8892  157.3538 C   0  0  0  0  0  0  0  0  0  0  0  0
  143.0891  136.7375  153.3534 H   0  0  0  0  0  0  0  0  0  0  0  0
  144.7587  136.2399  153.0932 H   0  0  0  0  0  0  0  0  0  0  0  0
  144.1586  137.7320  152.3678 H   0  0  0  0  0  0  0  0  0  0  0  0
  143.8453  138.7107  154.6632 H   0  0  0  0  0  0  0  0  0  0  0  0
  144.4352  137.2295  155.3784 H   0  0  0  0  0  0  0  0  0  0  0  0
  146.6974  137.6069  154.5996 H   0  0  0  0  0  0  0  0  0  0  0  0
  146.1650  138.7903  153.4175 H   0  0  0  0  0  0  0  0  0  0  0  0
  146.4056  143.1276  154.1376 H   0  0  0  0  0  0  0  0  0  0  0  0
  147.1963  142.8127  155.6942 H   0  0  0  0  0  0  0  0  0  0  0  0
  145.4661  142.5058  155.4950 H   0  0  0  0  0  0  0  0  0  0  0  0
  147.6987  140.2486  152.8786 H   0  0  0  0  0  0  0  0  0  0  0  0
  148.0850  141.9103  153.2218 H   0  0  0  0  0  0  0  0  0  0  0  0
  148.8712  139.7972  155.2763 H   0  0  0  0  0  0  0  0  0  0  0  0
  149.7011  139.9285  152.7237 H   0  0  0  0  0  0  0  0  0  0  0  0
  150.3819  142.2899  154.3733 H   0  0  0  0  0  0  0  0  0  0  0  0
  149.1498  142.3558  155.6121 H   0  0  0  0  0  0  0  0  0  0  0  0
  151.6674  139.5570  155.2210 H   0  0  0  0  0  0  0  0  0  0  0  0
  153.4175  140.8436  159.6523 H   0  0  0  0  0  0  0  0  0  0  0  0
  153.2058  143.9186  161.2023 H   0  0  0  0  0  0  0  0  0  0  0  0
  153.4536  142.2114  161.5662 H   0  0  0  0  0  0  0  0  0  0  0  0
  151.9241  142.9804  161.9840 H   0  0  0  0  0  0  0  0  0  0  0  0
  149.8562  145.1292  159.3639 H   0  0  0  0  0  0  0  0  0  0  0  0
  151.3955  145.3142  160.2019 H   0  0  0  0  0  0  0  0  0  0  0  0
  150.1072  144.3323  160.9167 H   0  0  0  0  0  0  0  0  0  0  0  0
  149.8506  143.6219  157.5480 H   0  0  0  0  0  0  0  0  0  0  0  0
  1  2  1  0  0  0  0
  1 24  1  0  0  0  0
  1 25  1  0  0  0  0
  1 26  1  0  0  0  0
  2  3  1  0  0  0  0
  2 27  1  0  0  0  0
  2 28  1  0  0  0  0
  3  4  1  0  0  0  0
  3 29  1  0  0  0  0
  3 30  1  0  0  0  0
  4  5  2  0  0  0  0
  4  6  2  0  0  0  0
  4  7  1  0  0  0  0
  7  8  1  0  0  0  0
  7  9  1  0  0  0  0
  8 31  1  0  0  0  0
  8 32  1  0  0  0  0
  8 33  1  0  0  0  0
  9 10  1  0  0  0  0
  9 34  1  0  0  0  0
  9 35  1  0  0  0  0
 10 11  1  0  0  0  0
 10 12  1  0  0  0  0
 10 36  1  0  0  0  0
 11 37  1  0  0  0  0
 12 13  1  0  0  0  0
 12 38  1  0  0  0  0
 12 39  1  0  0  0  0
 13 23  1  0  0  0  0
 13 14  1  0  0  0  0
 14 15  2  0  0  0  0
 14 40  1  0  0  0  0
 15 16  1  0  0  0  0
 16 23  2  0  0  0  0
 16 17  1  0  0  0  0
 17 18  2  0  0  0  0
 17 41  1  0  0  0  0
 18 19  1  0  0  0  0
 18 20  1  0  0  0  0
 19 42  1  0  0  0  0
 19 43  1  0  0  0  0
 19 44  1  0  0  0  0
 20 21  1  0  0  0  0
 20 22  2  0  0  0  0
 21 45  1  0  0  0  0
 21 46  1  0  0  0  0
 21 47  1  0  0  0  0
 22 23  1  0  0  0  0
 22 48  1  0  0  0  0
M  END
> <s_m_source_file>
AV-unprocessed.smi

> <i_m_source_file_index>
2825

> <i_lp_mmshare_version>
43012

> <i_f3d_flags>
0

> <s_epik_input>
W0NIM11bQ0gyXVtDSDJdUyg9TykoPU8pTihbQ0gzXSlbQ0gyXVtDQEhdKFtPSF0pW0NIMl1uKFtjSF1uMSljKGMxMilbY0hdYyhbQ0gzXSljKFtjSF0yKVtDSDNd

> <s_epik_cmdline>
J2VwaWtfcHl0aG9uJywgJy1waCcsICc3LjAnLCAnLXRuJywgJzgnLCAnLW1hJywgJzIwMCcsICctbWV0YWxfYmluZGluZycsICctaW1hZScsICc8aW5maWxlLm1hZT4nLCAnLW9tYWUnLCAnPG91dGZpbGUubWFlPic=

> <r_epik_Ionization_Penalty>
0.104931

> <r_epik_Ionization_Penalty_Charging>
0

> <r_epik_Ionization_Penalty_Neutral>
0.104931

> <r_epik_State_Penalty>
0.0948201

> <r_epik_Charging_Adjusted_Penalty>
0.0948201

> <i_epik_Tot_Q>
0

> <i_epik_Tot_abs_Q>
0

> <r_epik_Metal_State_Penalty>
0.00010282

> <b_epik_Metal_Only>
0

> <s_lp_Force_Field>
OPLS_2005

> <r_lp_Energy>
7.6372

> <b_lp_Chiralities_Consistent>
1

> <s_lp_Variant>
AV-unprocessed.smi:2825-2

> <Gold.Version>
5.8.1

> <Gold.Id.Protein>
6NUR|6NUR_protein|mol2

> <Gold.PLP.Fitness>
49.5208

> <Gold.PLP.PLP>
-43.2997

> <Gold.PLP.part.hbond>
-2.9943

> <Gold.PLP.part.metal>
0.0000

> <Gold.PLP.part.buried>
-3.9779

> <Gold.PLP.part.nonpolar>
-36.6120

> <Gold.PLP.part.repulsive>
0.0481

> <Gold.PLP.ligand.clash>
0.5856

> <Gold.PLP.ligand.torsion>
2.0848

> <Gold.PLP.Chemscore.Hbond>
2.8000

> <Gold.PLP.Chemscore.CHOScore>
0.0000

> <Gold.PLP.Chemscore.Metal>
0.0000

> <Gold.Chemscore.Hbonds>
donor molecule, donor type, donor heavy atom, donor atom, acceptor molecule, acceptor atom, score
      L1  H    11    37       P1  7957  1.00
      P1  H  7989  7998       L1    11  0.77
      P1  H  7997  8008       L1    15  1.00

> <Gold.PLP.Chemscore.Internal.Correction>
2.5763

> <Gold.Rescore>
     Score         DG    S(hbond)    S(metal)    S(lipo)     H(rot)  DE(clash)    DE(int)     intcor
     13.62     -18.27       1.98        0.00     106.15       2.43       0.12       4.53       ----

> <Gold.Chemscore.Fitness>
13.6172

> <Gold.Chemscore.DG>
-18.2729

> <Gold.Chemscore.ZeroCoef>
-5.4800

> <Gold.Chemscore.Hbond>
1.9767

> <Gold.Chemscore.Metal>
0.0000

> <Gold.Chemscore.Lipo>
106.1500

> <Gold.Chemscore.Internal_Hbond>
0.0000

> <Gold.Chemscore.DEClash>
0.1232

> <Gold.Chemscore.DEInternal>
4.5325

> <Gold.Chemscore.Rot>
2.4332

> <Gold.Chemscore.Internal.Correction>
   9.000000E+99

> <Gold.Chemscore.Hbonds>
donor molecule, donor type, donor heavy atom, donor atom, acceptor molecule, acceptor atom, score
      L1  H    11    37       P1  7957  0.97
      P1  H  7989  7998       L1    11  0.14
      P1  H  7997  8008       L1    15  0.66

> <Gold.Chemscore.Hbond.Weighted>
-6.6023

> <Gold.Chemscore.Metal.Weighted>
-0.0000

> <Gold.Chemscore.Lipo.Weighted>
-12.4196

> <Gold.Chemscore.Internal_Hbond.Weighted>
0.0000

> <Gold.Chemscore.DEClash.Weighted>
0.1232

> <Gold.Chemscore.DEInternal.Weighted>
4.5325

> <Gold.Chemscore.Rot.Weighted>
6.2289

> <Gold.Chemscore.Internal.Correction.Weighted>
   9.000000E+99

> <Gold.Protein.RotatedTorsions>
[ 6907 6896 6895 6894 ] final -157.97 input  -60.11 | X-H torsion
[ 7974 7965 7964 7962 ] final  -55.98 input  175.53 | X-H torsion
[ 8008 7997 7996 7995 ] final  -62.28 input   59.86 | X-H torsion
[ 10167 10162 10161 10158 ] final  121.27 input  -65.29 | X-H torsion
[ 10718 10713 10712 10709 ] final -112.37 input   66.30 | X-H torsion
[ 10763 10752 10751 10750 ] final  118.55 input  -60.55 | X-H torsion
[ 11005 11000 10999 10996 ] final   53.63 input  -57.11 | X-H torsion

> <Gold.Protein.ActiveResidues>
 VAL166  LYS551  ARG553  GLY616  TRP617  ASP618  TYR619  PRO620  LYS621  CYS622 
 ASP623  PHE694  ASN695  SER759  ASP760  ASP761  ALA762  ILE779  LEU786  VAL792 
 PHE793  MET794  SER795  GLU796  ALA797  LYS798  CYS799  TRP800  GLU811  SER814 

> <Gold.Protein.RotatedAtoms>
  151.3110  133.4080  159.2646 H   0  0  0  0  0  0  0  0  0  0  0  0  # atno 6907 bound_to 6896
  151.0114  134.9400  159.8019 H   0  0  0  0  0  0  0  0  0  0  0  0  # atno 6908 bound_to 6896
  152.5301  134.3074  159.9153 H   0  0  0  0  0  0  0  0  0  0  0  0  # atno 6909 bound_to 6896
  145.8680  140.8237  142.9903 H   0  0  0  0  0  0  0  0  0  0  0  0  # atno 7974 bound_to 7965
  154.4491  140.0999  156.6563 H   0  0  0  0  0  0  0  0  0  0  0  0  # atno 8008 bound_to 7997
  155.5342  140.3482  155.4414 H   0  0  0  0  0  0  0  0  0  0  0  0  # atno 8009 bound_to 7997
  156.0642  140.1334  156.9894 H   0  0  0  0  0  0  0  0  0  0  0  0  # atno 8010 bound_to 7997
  139.5930  144.7032  151.3244 H   0  0  0  0  0  0  0  0  0  0  0  0  # atno 10167 bound_to 10162
  156.0702  130.5916  150.8499 H   0  0  0  0  0  0  0  0  0  0  0  0  # atno 10718 bound_to 10713
  153.5694  135.3505  155.2831 H   0  0  0  0  0  0  0  0  0  0  0  0  # atno 10763 bound_to 10752
  154.8684  135.4155  154.2742 H   0  0  0  0  0  0  0  0  0  0  0  0  # atno 10764 bound_to 10752
  153.3505  135.7055  153.6862 H   0  0  0  0  0  0  0  0  0  0  0  0  # atno 10765 bound_to 10752
  140.0751  134.5415  155.9004 H   0  0  0  0  0  0  0  0  0  0  0  0  # atno 11005 bound_to 11000
  144.6726  140.1195  143.7450 LP  0  0  0  0  0  0  0  0  0  0  0  0  # atno 17320 bound_to 7965
  145.9171  139.2522  143.1403 LP  0  0  0  0  0  0  0  0  0  0  0  0  # atno 17321 bound_to 7965
  140.7189  143.7191  150.7710 LP  0  0  0  0  0  0  0  0  0  0  0  0  # atno 17342 bound_to 10162
  140.0751  143.5023  152.2559 LP  0  0  0  0  0  0  0  0  0  0  0  0  # atno 17343 bound_to 10162
  157.5768  131.0946  150.9334 LP  0  0  0  0  0  0  0  0  0  0  0  0  # atno 17370 bound_to 10713
  156.9538  130.5429  149.5283 LP  0  0  0  0  0  0  0  0  0  0  0  0  # atno 17371 bound_to 10713
  141.2026  133.6626  156.6018 LP  0  0  0  0  0  0  0  0  0  0  0  0  # atno 17394 bound_to 11000
  140.3569  134.7721  157.4506 LP  0  0  0  0  0  0  0  0  0  0  0  0  # atno 17395 bound_to 11000

$$$$
