AV-unprocessed.smi:3030|AV-procd|sdf|11536|dock10
  -GOLD-   2272016483D 1   1.00000     0.00000
 Structure written by MMmdl.
 52 53  0  0  0  0  0  0  0  0  1 V2000
  154.4283  141.2009  161.0994 C   0  0  0  0  0  0  0  0  0  0  0  0
  153.4292  140.9838  159.9574 C   0  0  0  0  0  0  0  0  0  0  0  0
  152.5249  142.1148  159.8084 N   0  0  0  0  0  0  0  0  0  0  0  0
  152.6504  143.2499  160.6024 C   0  0  0  0  0  0  0  0  0  0  0  0
  151.8090  144.3006  160.5548 C   0  0  0  0  0  0  0  0  0  0  0  0
  150.6702  144.2740  159.6148 C   0  0  0  0  0  0  0  0  0  0  0  0
  149.8831  145.2178  159.5442 O   0  0  0  0  0  0  0  0  0  0  0  0
  150.5319  143.0582  158.7699 C   0  0  0  0  0  0  0  0  0  0  0  0
  149.4515  143.0469  157.8720 N   0  0  0  0  0  0  0  0  0  0  0  0
  148.3874  142.2247  157.8254 C   0  0  0  0  0  0  0  0  0  0  0  0
  148.1445  141.3101  158.6122 O   0  0  0  0  0  0  0  0  0  0  0  0
  147.5942  142.5332  156.7898 N   0  0  0  0  0  0  0  0  0  0  0  0
  146.3555  141.8418  156.4279 C   0  0  1  0  0  0  0  0  0  0  0  0
  145.1269  142.7291  156.7214 C   0  0  0  0  0  0  0  0  0  0  0  0
  145.0234  143.9297  155.7645 C   0  0  2  0  0  0  0  0  0  0  0  0
  143.7887  144.7886  156.0726 C   0  0  0  0  0  0  0  0  0  0  0  0
  145.0198  143.4366  154.3093 C   0  0  0  0  0  0  0  0  0  0  0  0
  146.2549  142.5776  153.9966 C   0  0  0  0  0  0  0  0  0  0  0  0
  146.3904  141.3620  154.9485 C   0  0  1  0  0  0  0  0  0  0  0  0
  147.6248  140.4703  154.6078 C   0  0  0  0  0  0  0  0  0  0  0  0
  148.9097  141.2933  154.3936 C   0  0  0  0  0  0  0  0  0  0  0  0
  147.3939  139.5829  153.3690 C   0  0  0  0  0  0  0  0  0  0  0  0
  151.4539  142.0722  158.9179 C   0  0  0  0  0  0  0  0  0  0  0  0
  155.0984  140.3466  161.1956 H   0  0  0  0  0  0  0  0  0  0  0  0
  153.9154  141.3312  162.0530 H   0  0  0  0  0  0  0  0  0  0  0  0
  155.0408  142.0857  160.9231 H   0  0  0  0  0  0  0  0  0  0  0  0
  153.9665  140.8226  159.0220 H   0  0  0  0  0  0  0  0  0  0  0  0
  152.8509  140.0768  160.1375 H   0  0  0  0  0  0  0  0  0  0  0  0
  153.4971  143.2327  161.2734 H   0  0  0  0  0  0  0  0  0  0  0  0
  151.9485  145.1638  161.1888 H   0  0  0  0  0  0  0  0  0  0  0  0
  149.4884  143.7696  157.1676 H   0  0  0  0  0  0  0  0  0  0  0  0
  147.8700  143.3017  156.1963 H   0  0  0  0  0  0  0  0  0  0  0  0
  146.2551  140.9616  157.0640 H   0  0  0  0  0  0  0  0  0  0  0  0
  144.2248  142.1221  156.6346 H   0  0  0  0  0  0  0  0  0  0  0  0
  145.1545  143.0759  157.7554 H   0  0  0  0  0  0  0  0  0  0  0  0
  145.9021  144.5605  155.9065 H   0  0  0  0  0  0  0  0  0  0  0  0
  142.8672  144.2190  155.9487 H   0  0  0  0  0  0  0  0  0  0  0  0
  143.7373  145.6535  155.4106 H   0  0  0  0  0  0  0  0  0  0  0  0
  143.8151  145.1600  157.0976 H   0  0  0  0  0  0  0  0  0  0  0  0
  144.1164  142.8555  154.1180 H   0  0  0  0  0  0  0  0  0  0  0  0
  144.9880  144.2877  153.6282 H   0  0  0  0  0  0  0  0  0  0  0  0
  146.1714  142.2492  152.9618 H   0  0  0  0  0  0  0  0  0  0  0  0
  147.1526  143.1948  154.0512 H   0  0  0  0  0  0  0  0  0  0  0  0
  145.5029  140.7446  154.8002 H   0  0  0  0  0  0  0  0  0  0  0  0
  147.8134  139.8038  155.4503 H   0  0  0  0  0  0  0  0  0  0  0  0
  148.7694  142.0573  153.6282 H   0  0  0  0  0  0  0  0  0  0  0  0
  149.7357  140.6567  154.0755 H   0  0  0  0  0  0  0  0  0  0  0  0
  149.2377  141.7859  155.3080 H   0  0  0  0  0  0  0  0  0  0  0  0
  147.1229  140.1808  152.4983 H   0  0  0  0  0  0  0  0  0  0  0  0
  146.6058  138.8484  153.5330 H   0  0  0  0  0  0  0  0  0  0  0  0
  148.2920  139.0188  153.1156 H   0  0  0  0  0  0  0  0  0  0  0  0
  151.4429  141.1641  158.3372 H   0  0  0  0  0  0  0  0  0  0  0  0
  1  2  1  0  0  0  0
  1 24  1  0  0  0  0
  1 25  1  0  0  0  0
  1 26  1  0  0  0  0
  2  3  1  0  0  0  0
  2 27  1  0  0  0  0
  2 28  1  0  0  0  0
  3 23  1  0  0  0  0
  3  4  1  0  0  0  0
  4  5  2  0  0  0  0
  4 29  1  0  0  0  0
  5  6  1  0  0  0  0
  5 30  1  0  0  0  0
  6  7  2  0  0  0  0
  6  8  1  0  0  0  0
  8  9  1  0  0  0  0
  8 23  2  0  0  0  0
  9 10  1  0  0  0  0
  9 31  1  0  0  0  0
 10 11  2  0  0  0  0
 10 12  1  0  0  0  0
 12 13  1  0  0  0  0
 12 32  1  0  0  0  0
 13 19  1  0  0  0  0
 13 14  1  0  0  0  0
 13 33  1  0  0  0  0
 14 15  1  0  0  0  0
 14 34  1  0  0  0  0
 14 35  1  0  0  0  0
 15 16  1  0  0  0  0
 15 17  1  0  0  0  0
 15 36  1  0  0  0  0
 16 37  1  0  0  0  0
 16 38  1  0  0  0  0
 16 39  1  0  0  0  0
 17 18  1  0  0  0  0
 17 40  1  0  0  0  0
 17 41  1  0  0  0  0
 18 19  1  0  0  0  0
 18 42  1  0  0  0  0
 18 43  1  0  0  0  0
 19 20  1  0  0  0  0
 19 44  1  0  0  0  0
 20 21  1  0  0  0  0
 20 22  1  0  0  0  0
 20 45  1  0  0  0  0
 21 46  1  0  0  0  0
 21 47  1  0  0  0  0
 21 48  1  0  0  0  0
 22 49  1  0  0  0  0
 22 50  1  0  0  0  0
 22 51  1  0  0  0  0
 23 52  1  0  0  0  0
M  END
> <s_m_source_file>
AV-unprocessed.smi

> <i_m_source_file_index>
3030

> <i_lp_mmshare_version>
43012

> <i_f3d_flags>
0

> <s_epik_input>
W0NIM11bQ0gyXW4xW2NIXVtjSF1jKD1PKWMoW2NIXTEpW05IXUMoPU8pW05IXVtDQEBIXTJbQ0gyXVtDQEBIXShbQ0gzXSlbQ0gyXVtDSDJdW0NASF0yW0NIXShbQ0gzXSlbQ0gzXQ==

> <s_epik_cmdline>
J2VwaWtfcHl0aG9uJywgJy1waCcsICc3LjAnLCAnLXRuJywgJzgnLCAnLW1hJywgJzIwMCcsICctbWV0YWxfYmluZGluZycsICctaW1hZScsICc8aW5maWxlLm1hZT4nLCAnLW9tYWUnLCAnPG91dGZpbGUubWFlPic=

> <r_lp_tautomer_probability>
1

> <r_epik_Ionization_Penalty>
0.00147933

> <r_epik_Ionization_Penalty_Charging>
0.00145753

> <r_epik_Ionization_Penalty_Neutral>
2.17987e-05

> <r_epik_State_Penalty>
0.00097457

> <r_epik_Charging_Adjusted_Penalty>
0.0024321

> <i_epik_Tot_Q>
0

> <i_epik_Tot_abs_Q>
0

> <r_epik_Metal_State_Penalty>
-0

> <b_epik_Metal_Only>
0

> <s_lp_Force_Field>
OPLS_2005

> <r_lp_Energy>
8.95674

> <b_lp_Chiralities_Consistent>
1

> <s_lp_Variant>
AV-unprocessed.smi:3030-4

> <Gold.Version>
5.8.1

> <Gold.Id.Protein>
6NUR|6NUR_protein|mol2

> <Gold.PLP.Fitness>
48.4257

> <Gold.PLP.PLP>
-44.3445

> <Gold.PLP.part.hbond>
-3.4727

> <Gold.PLP.part.metal>
0.0000

> <Gold.PLP.part.buried>
-4.0043

> <Gold.PLP.part.nonpolar>
-37.2330

> <Gold.PLP.part.repulsive>
0.5171

> <Gold.PLP.ligand.clash>
0.0000

> <Gold.PLP.ligand.torsion>
0.9917

> <Gold.PLP.Chemscore.Hbond>
2.0000

> <Gold.PLP.Chemscore.CHOScore>
0.0000

> <Gold.PLP.Chemscore.Metal>
0.0000

> <Gold.Chemscore.Hbonds>
donor molecule, donor type, donor heavy atom, donor atom, acceptor molecule, acceptor atom, score
      L1  H     9    31       P1  8028  1.00
      L1  H    12    32       P1  8028  0.85

> <Gold.PLP.Chemscore.Internal.Correction>
0.0645

> <Gold.Rescore>
     Score         DG    S(hbond)    S(metal)    S(lipo)     H(rot)  DE(clash)    DE(int)     intcor
     18.44     -19.88       1.55        0.00     106.57       1.27       0.23       1.22       ----

> <Gold.Chemscore.Fitness>
18.4427

> <Gold.Chemscore.DG>
-19.8846

> <Gold.Chemscore.ZeroCoef>
-5.4800

> <Gold.Chemscore.Hbond>
1.5518

> <Gold.Chemscore.Metal>
0.0000

> <Gold.Chemscore.Lipo>
106.5726

> <Gold.Chemscore.Internal_Hbond>
0.0000

> <Gold.Chemscore.DEClash>
0.2261

> <Gold.Chemscore.DEInternal>
1.2157

> <Gold.Chemscore.Rot>
1.2685

> <Gold.Chemscore.Internal.Correction>
   9.000000E+99

> <Gold.Chemscore.Hbonds>
donor molecule, donor type, donor heavy atom, donor atom, acceptor molecule, acceptor atom, score
      L1  H     9    31       P1  8028  0.69
      L1  H    12    32       P1  8028  0.14

> <Gold.Chemscore.Hbond.Weighted>
-5.1831

> <Gold.Chemscore.Metal.Weighted>
-0.0000

> <Gold.Chemscore.Lipo.Weighted>
-12.4690

> <Gold.Chemscore.Internal_Hbond.Weighted>
0.0000

> <Gold.Chemscore.DEClash.Weighted>
0.2261

> <Gold.Chemscore.DEInternal.Weighted>
1.2157

> <Gold.Chemscore.Rot.Weighted>
3.2474

> <Gold.Chemscore.Internal.Correction.Weighted>
   9.000000E+99

> <Gold.Protein.RotatedTorsions>
[ 6907 6896 6895 6894 ] final -135.16 input  -60.11 | X-H torsion
[ 7974 7965 7964 7962 ] final   77.41 input  175.53 | X-H torsion
[ 8008 7997 7996 7995 ] final   13.60 input   59.86 | X-H torsion
[ 10167 10162 10161 10158 ] final -175.72 input  -65.29 | X-H torsion
[ 10718 10713 10712 10709 ] final -123.12 input   66.30 | X-H torsion
[ 10763 10752 10751 10750 ] final  116.61 input  -60.55 | X-H torsion
[ 11005 11000 10999 10996 ] final  148.78 input  -57.11 | X-H torsion

> <Gold.Protein.ActiveResidues>
 VAL166  LYS551  ARG553  GLY616  TRP617  ASP618  TYR619  PRO620  LYS621  CYS622 
 ASP623  PHE694  ASN695  SER759  ASP760  ASP761  ALA762  ILE779  LEU786  VAL792 
 PHE793  MET794  SER795  GLU796  ALA797  LYS798  CYS799  TRP800  GLU811  SER814 

> <Gold.Protein.RotatedAtoms>
  150.9946  133.6116  159.2703 H   0  0  0  0  0  0  0  0  0  0  0  0  # atno 6907 bound_to 6896
  151.3324  135.0844  159.9353 H   0  0  0  0  0  0  0  0  0  0  0  0  # atno 6908 bound_to 6896
  152.5256  133.9573  159.7754 H   0  0  0  0  0  0  0  0  0  0  0  0  # atno 6909 bound_to 6896
  145.6904  139.2550  143.1763 H   0  0  0  0  0  0  0  0  0  0  0  0  # atno 7974 bound_to 7965
  154.8367  140.2908  155.5686 H   0  0  0  0  0  0  0  0  0  0  0  0  # atno 8008 bound_to 7997
  156.3009  140.2521  156.3234 H   0  0  0  0  0  0  0  0  0  0  0  0  # atno 8009 bound_to 7997
  154.9170  140.0387  157.1967 H   0  0  0  0  0  0  0  0  0  0  0  0  # atno 8010 bound_to 7997
  139.5566  144.1973  152.1170 H   0  0  0  0  0  0  0  0  0  0  0  0  # atno 10167 bound_to 10162
  156.1475  130.6511  150.9865 H   0  0  0  0  0  0  0  0  0  0  0  0  # atno 10718 bound_to 10713
  153.5399  135.3561  155.2713 H   0  0  0  0  0  0  0  0  0  0  0  0  # atno 10763 bound_to 10752
  154.8718  135.4088  154.3056 H   0  0  0  0  0  0  0  0  0  0  0  0  # atno 10764 bound_to 10752
  153.3761  135.7066  153.6669 H   0  0  0  0  0  0  0  0  0  0  0  0  # atno 10765 bound_to 10752
  140.0989  134.8996  157.1765 H   0  0  0  0  0  0  0  0  0  0  0  0  # atno 11005 bound_to 11000
  146.0887  140.7681  142.9606 LP  0  0  0  0  0  0  0  0  0  0  0  0  # atno 17320 bound_to 7965
  144.6998  140.3603  143.7165 LP  0  0  0  0  0  0  0  0  0  0  0  0  # atno 17321 bound_to 7965
  140.1479  144.5142  150.6705 LP  0  0  0  0  0  0  0  0  0  0  0  0  # atno 17342 bound_to 10162
  140.6840  143.2340  151.5310 LP  0  0  0  0  0  0  0  0  0  0  0  0  # atno 17343 bound_to 10162
  157.6629  131.0877  150.7796 LP  0  0  0  0  0  0  0  0  0  0  0  0  # atno 17370 bound_to 10713
  156.7866  130.4876  149.5392 LP  0  0  0  0  0  0  0  0  0  0  0  0  # atno 17371 bound_to 10713
  140.3248  134.2876  155.7239 LP  0  0  0  0  0  0  0  0  0  0  0  0  # atno 17394 bound_to 11000
  141.2100  133.7733  156.9961 LP  0  0  0  0  0  0  0  0  0  0  0  0  # atno 17395 bound_to 11000

$$$$
