AV-unprocessed.smi:2096|AV-procd|sdf|8562|dock8
  -GOLD-   2272011293D 1   1.00000     0.00000
 Structure written by MMmdl.
 35 36  0  0  0  0  0  0  0  0  1 V2000
  152.3336  143.4760  160.9631 C   0  0  0  0  0  0  0  0  0  0  0  0
  151.9479  143.4085  159.5690 N   0  0  0  0  0  0  0  0  0  0  0  0
  151.9172  144.5977  158.8005 C   0  0  0  0  0  0  0  0  0  0  0  0
  152.2126  145.6987  159.2659 O   0  0  0  0  0  0  0  0  0  0  0  0
  151.5086  144.4079  157.4137 C   0  0  0  0  0  0  0  0  0  0  0  0
  151.1973  143.1806  156.9425 C   0  0  0  0  0  0  0  0  0  0  0  0
  151.2391  142.0343  157.7151 N   0  0  0  0  0  0  0  0  0  0  0  0
  150.8724  140.7418  157.1223 C   0  0  0  0  0  0  0  0  0  0  0  0
  150.1960  140.8842  155.7524 C   0  0  0  0  0  0  0  0  0  0  0  0
  150.7231  140.4218  154.7395 O   0  0  0  0  0  0  0  0  0  0  0  0
  149.0113  141.5105  155.7410 N   0  0  0  0  0  0  0  0  0  0  0  0
  148.2148  141.7424  154.5445 C   0  0  0  0  0  0  0  0  0  0  0  0
  147.0032  142.6072  154.8698 C   0  0  0  0  0  0  0  0  0  0  0  0
  145.8092  141.9897  155.6124 C   0  0  0  0  0  0  0  0  0  0  0  0
  144.8869  142.8918  154.7878 C   0  0  0  0  0  0  0  0  0  0  0  0
  146.0145  142.9891  153.7570 C   0  0  0  0  0  0  0  0  0  0  0  0
  151.6210  142.1286  159.0704 C   0  0  0  0  0  0  0  0  0  0  0  0
  151.6639  141.1235  159.7847 O   0  0  0  0  0  0  0  0  0  0  0  0
  152.5565  144.4985  161.2659 H   0  0  0  0  0  0  0  0  0  0  0  0
  153.2215  142.8524  161.0829 H   0  0  0  0  0  0  0  0  0  0  0  0
  151.4961  143.0926  161.5488 H   0  0  0  0  0  0  0  0  0  0  0  0
  151.4537  145.2621  156.7549 H   0  0  0  0  0  0  0  0  0  0  0  0
  150.8967  143.0936  155.9085 H   0  0  0  0  0  0  0  0  0  0  0  0
  151.7627  140.1239  156.9988 H   0  0  0  0  0  0  0  0  0  0  0  0
  150.2225  140.1879  157.8027 H   0  0  0  0  0  0  0  0  0  0  0  0
  148.6431  141.8584  156.6144 H   0  0  0  0  0  0  0  0  0  0  0  0
  148.8328  142.2235  153.7846 H   0  0  0  0  0  0  0  0  0  0  0  0
  147.8975  140.7826  154.1345 H   0  0  0  0  0  0  0  0  0  0  0  0
  147.3056  143.5150  155.3968 H   0  0  0  0  0  0  0  0  0  0  0  0
  145.6714  140.9305  155.3878 H   0  0  0  0  0  0  0  0  0  0  0  0
  145.7932  142.1780  156.6863 H   0  0  0  0  0  0  0  0  0  0  0  0
  143.9778  142.4098  154.4272 H   0  0  0  0  0  0  0  0  0  0  0  0
  144.6767  143.8438  155.2776 H   0  0  0  0  0  0  0  0  0  0  0  0
  146.1640  143.9834  153.3354 H   0  0  0  0  0  0  0  0  0  0  0  0
  145.9390  142.2290  152.9774 H   0  0  0  0  0  0  0  0  0  0  0  0
  1  2  1  0  0  0  0
  1 19  1  0  0  0  0
  1 20  1  0  0  0  0
  1 21  1  0  0  0  0
  2 17  1  0  0  0  0
  2  3  1  0  0  0  0
  3  4  2  0  0  0  0
  3  5  1  0  0  0  0
  5  6  2  0  0  0  0
  5 22  1  0  0  0  0
  6  7  1  0  0  0  0
  6 23  1  0  0  0  0
  7  8  1  0  0  0  0
  7 17  1  0  0  0  0
  8  9  1  0  0  0  0
  8 24  1  0  0  0  0
  8 25  1  0  0  0  0
  9 10  2  0  0  0  0
  9 11  1  0  0  0  0
 11 12  1  0  0  0  0
 11 26  1  0  0  0  0
 12 13  1  0  0  0  0
 12 27  1  0  0  0  0
 12 28  1  0  0  0  0
 13 16  1  0  0  0  0
 13 14  1  0  0  0  0
 13 29  1  0  0  0  0
 14 15  1  0  0  0  0
 14 30  1  0  0  0  0
 14 31  1  0  0  0  0
 15 16  1  0  0  0  0
 15 32  1  0  0  0  0
 15 33  1  0  0  0  0
 16 34  1  0  0  0  0
 16 35  1  0  0  0  0
 17 18  2  0  0  0  0
M  END
> <s_m_source_file>
AV-unprocessed.smi

> <i_m_source_file_index>
2096

> <i_lp_mmshare_version>
43012

> <i_f3d_flags>
0

> <s_epik_input>
W0NIM11uMWMoPU8pW2NIXVtjSF1uKGMxPU8pW0NIMl1DKD1PKVtOSF1bQ0gyXVtDSF0yW0NIMl1bQ0gyXVtDSDJdMg==

> <s_epik_cmdline>
J2VwaWtfcHl0aG9uJywgJy1waCcsICc3LjAnLCAnLXRuJywgJzgnLCAnLW1hJywgJzIwMCcsICctbWV0YWxfYmluZGluZycsICctaW1hZScsICc8aW5maWxlLm1hZT4nLCAnLW9tYWUnLCAnPG91dGZpbGUubWFlPic=

> <r_lp_tautomer_probability>
1

> <r_epik_Ionization_Penalty>
3.11585e-08

> <r_epik_Ionization_Penalty_Charging>
1.18568e-08

> <r_epik_Ionization_Penalty_Neutral>
1.93017e-08

> <r_epik_State_Penalty>
-0

> <r_epik_Charging_Adjusted_Penalty>
1.18568e-08

> <i_epik_Tot_Q>
0

> <i_epik_Tot_abs_Q>
0

> <r_epik_Metal_State_Penalty>
-0

> <b_epik_Metal_Only>
0

> <s_lp_Force_Field>
OPLS_2005

> <r_lp_Energy>
20.363

> <b_lp_Chiralities_Consistent>
1

> <s_lp_Variant>
AV-unprocessed.smi:2096-1

> <Gold.Version>
5.8.1

> <Gold.Id.Protein>
6NUR|6NUR_protein|mol2

> <Gold.PLP.Fitness>
42.6651

> <Gold.PLP.PLP>
-38.7295

> <Gold.PLP.part.hbond>
-2.4756

> <Gold.PLP.part.metal>
0.0000

> <Gold.PLP.part.buried>
0.6050

> <Gold.PLP.part.nonpolar>
-36.2417

> <Gold.PLP.part.repulsive>
0.2582

> <Gold.PLP.ligand.clash>
0.0000

> <Gold.PLP.ligand.torsion>
0.2255

> <Gold.PLP.Chemscore.Hbond>
1.0000

> <Gold.PLP.Chemscore.CHOScore>
0.4399

> <Gold.PLP.Chemscore.Metal>
0.0000

> <Gold.Chemscore.Hbonds>
donor molecule, donor type, donor heavy atom, donor atom, acceptor molecule, acceptor atom, score
      P1  H  7989  7998       L1    10  1.00
      L1  C     6    23       P1  8028  0.43

> <Gold.PLP.Chemscore.Internal.Correction>
0.0670

> <Gold.Rescore>
     Score         DG    S(hbond)    S(metal)    S(lipo)     H(rot)  DE(clash)    DE(int)     intcor
     11.73     -12.09       0.98        0.00      67.53       1.78       0.07       0.29       ----

> <Gold.Chemscore.Fitness>
11.7331

> <Gold.Chemscore.DG>
-12.0917

> <Gold.Chemscore.ZeroCoef>
-5.4800

> <Gold.Chemscore.Hbond>
0.9804

> <Gold.Chemscore.Metal>
0.0000

> <Gold.Chemscore.Lipo>
67.5265

> <Gold.Chemscore.Internal_Hbond>
0.0000

> <Gold.Chemscore.DEClash>
0.0707

> <Gold.Chemscore.DEInternal>
0.2879

> <Gold.Chemscore.Rot>
1.7827

> <Gold.Chemscore.Internal.Correction>
   9.000000E+99

> <Gold.Chemscore.Hbonds>
donor molecule, donor type, donor heavy atom, donor atom, acceptor molecule, acceptor atom, score
      P1  H  7989  7998       L1    10  0.97

> <Gold.Chemscore.Hbond.Weighted>
-3.2747

> <Gold.Chemscore.Metal.Weighted>
-0.0000

> <Gold.Chemscore.Lipo.Weighted>
-7.9006

> <Gold.Chemscore.Internal_Hbond.Weighted>
0.0000

> <Gold.Chemscore.DEClash.Weighted>
0.0707

> <Gold.Chemscore.DEInternal.Weighted>
0.2879

> <Gold.Chemscore.Rot.Weighted>
4.5636

> <Gold.Chemscore.Internal.Correction.Weighted>
   9.000000E+99

> <Gold.Protein.RotatedTorsions>
[ 6907 6896 6895 6894 ] final  -89.10 input  -60.11 | X-H torsion
[ 7974 7965 7964 7962 ] final  -40.63 input  175.53 | X-H torsion
[ 8008 7997 7996 7995 ] final -104.71 input   59.86 | X-H torsion
[ 10167 10162 10161 10158 ] final  -19.02 input  -65.29 | X-H torsion
[ 10718 10713 10712 10709 ] final   50.85 input   66.30 | X-H torsion
[ 10763 10752 10751 10750 ] final  158.92 input  -60.55 | X-H torsion
[ 11005 11000 10999 10996 ] final -169.24 input  -57.11 | X-H torsion

> <Gold.Protein.ActiveResidues>
 VAL166  LYS551  ARG553  GLY616  TRP617  ASP618  TYR619  PRO620  LYS621  CYS622 
 ASP623  PHE694  ASN695  SER759  ASP760  ASP761  ALA762  ILE779  LEU786  VAL792 
 PHE793  MET794  SER795  GLU796  ALA797  LYS798  CYS799  TRP800  GLU811  SER814 

> <Gold.Protein.RotatedAtoms>
  150.6872  134.2639  159.4560 H   0  0  0  0  0  0  0  0  0  0  0  0  # atno 6907 bound_to 6896
  152.0567  134.9617  160.0584 H   0  0  0  0  0  0  0  0  0  0  0  0  # atno 6908 bound_to 6896
  152.1060  133.4240  159.4646 H   0  0  0  0  0  0  0  0  0  0  0  0  # atno 6909 bound_to 6896
  146.0287  140.6759  142.9143 H   0  0  0  0  0  0  0  0  0  0  0  0  # atno 7974 bound_to 7965
  154.8893  140.0416  157.1829 H   0  0  0  0  0  0  0  0  0  0  0  0  # atno 8008 bound_to 7997
  154.8557  140.2936  155.5549 H   0  0  0  0  0  0  0  0  0  0  0  0  # atno 8009 bound_to 7997
  156.2997  140.2456  156.3523 H   0  0  0  0  0  0  0  0  0  0  0  0  # atno 8010 bound_to 7997
  140.7264  143.4859  151.0056 H   0  0  0  0  0  0  0  0  0  0  0  0  # atno 10167 bound_to 10162
  157.4925  130.8385  149.8219 H   0  0  0  0  0  0  0  0  0  0  0  0  # atno 10718 bound_to 10713
  154.2237  135.2781  155.2915 H   0  0  0  0  0  0  0  0  0  0  0  0  # atno 10763 bound_to 10752
  154.5681  135.5627  153.7073 H   0  0  0  0  0  0  0  0  0  0  0  0  # atno 10764 bound_to 10752
  153.0036  135.6314  154.2377 H   0  0  0  0  0  0  0  0  0  0  0  0  # atno 10765 bound_to 10752
  140.5330  134.5597  157.5080 H   0  0  0  0  0  0  0  0  0  0  0  0  # atno 11005 bound_to 11000
  144.7020  140.3696  143.7148 LP  0  0  0  0  0  0  0  0  0  0  0  0  # atno 17320 bound_to 7965
  145.7077  139.1677  143.2557 LP  0  0  0  0  0  0  0  0  0  0  0  0  # atno 17321 bound_to 7965
  139.8560  143.7376  152.3176 LP  0  0  0  0  0  0  0  0  0  0  0  0  # atno 17342 bound_to 10162
  139.7575  144.7516  151.0414 LP  0  0  0  0  0  0  0  0  0  0  0  0  # atno 17343 bound_to 10162
  156.0181  130.3806  150.2046 LP  0  0  0  0  0  0  0  0  0  0  0  0  # atno 17370 bound_to 10713
  157.0235  130.9986  151.3333 LP  0  0  0  0  0  0  0  0  0  0  0  0  # atno 17371 bound_to 10713
  139.9544  134.7561  156.0375 LP  0  0  0  0  0  0  0  0  0  0  0  0  # atno 17394 bound_to 11000
  141.1270  133.6596  156.3364 LP  0  0  0  0  0  0  0  0  0  0  0  0  # atno 17395 bound_to 11000

$$$$
