#       Name:                AV-unprocessed.smi:2021
#       Creating user name   scv26
#       Creation time:       Fri Mar 27 10:43:47 2020


#       File generated by GOLD software.
#

@<TRIPOS>MOLECULE
AV-unprocessed.smi:2021
    48    49     1
SMALL
NO_CHARGES


@<TRIPOS>ATOM
      1 ****        -1.7637   2.1284   4.1161 C.3            1 S1                 0.0000
      2 ****        -2.1436   1.5893   2.7267 C.3            1 S1                 0.0000
      3 ****        -3.6708   1.5321   2.5738 C.3            1 S1                 0.0000
      4 ****        -1.5201   0.2029   2.4579 C.3            1 S1                 0.0000
      5 ****        -0.0324   0.2324   2.4281 N.4            1 S1                 1.0000
      6 ****         0.5950  -1.0677   2.7676 C.3            1 S1                 0.0000
      7 ****         0.5410  -2.0378   1.5746 C.3            1 S1                 0.0000
      8 ****         1.1770  -1.4371   0.4543 O.3            1 S1                 0.0000
      9 ****         0.5223  -0.2461   0.0268 C.3            1 S1                 0.0000
     10 ****         1.2404   0.2771  -1.2243 C.3            1 S1                 0.0000
     11 ****         1.0961  -0.6628  -2.3274 N.am           1 S1                 0.0000
     12 ****         1.6010  -0.4933  -3.5553 C.2            1 S1                 0.0000
     13 ****         2.2431   0.5256  -3.8196 O.2            1 S1                 0.0000
     14 ****         1.3291  -1.5142  -4.3987 N.pl3          1 S1                -1.0000
     15 ****         1.7878  -1.4837  -5.6610 C.2            1 S1                 0.0000
     16 ****         2.8985  -2.1380  -6.0369 N.2            1 S1                 0.0000
     17 ****         3.1950  -1.9810  -7.3842 N.2            1 S1                 0.0000
     18 ****         2.2919  -1.2141  -7.9943 C.2            1 S1                 0.0000
     19 ****         0.9947  -0.6181  -6.9803 S.3            1 S1                 0.0000
     20 ****         0.5561   0.7826   1.1794 C.3            1 S1                 0.0000
     21 ****        -2.1075   1.4620   4.9078 H              1 S1                 0.0000
     22 ****        -2.2092   3.1082   4.2913 H              1 S1                 0.0000
     23 ****        -0.6844   2.2411   4.2208 H              1 S1                 0.0000
     24 ****        -1.7805   2.2973   1.9825 H              1 S1                 0.0000
     25 ****        -4.1163   0.8405   3.2899 H              1 S1                 0.0000
     26 ****        -3.9541   1.2035   1.5734 H              1 S1                 0.0000
     27 ****        -4.1198   2.5126   2.7353 H              1 S1                 0.0000
     28 ****        -1.8539  -0.4750   3.2449 H              1 S1                 0.0000
     29 ****        -1.9042  -0.2130   1.5265 H              1 S1                 0.0000
     30 ****         1.6367  -0.8860   3.0355 H              1 S1                 0.0000
     31 ****         0.1258  -1.5063   3.6488 H              1 S1                 0.0000
     32 ****         1.0637  -2.9623   1.8204 H              1 S1                 0.0000
     33 ****        -0.4864  -2.3101   1.3285 H              1 S1                 0.0000
     34 ****        -0.5103  -0.4761  -0.2401 H              1 S1                 0.0000
     35 ****         0.8168   1.2376  -1.5220 H              1 S1                 0.0000
     36 ****         2.2988   0.4408  -1.0154 H              1 S1                 0.0000
     37 ****         0.5810  -1.5119  -2.1475 H              1 S1                 0.0000
     38 ****         2.3882  -1.0013  -9.0485 H              1 S1                 0.0000
     39 ****         0.0574   1.7050   0.8846 H              1 S1                 0.0000
     40 ****         1.5917   1.0537   1.3891 H              1 S1                 0.0000
     41 ****         0.2289   0.8638   3.1719 H              1 S1                 0.0000
     42 ****         1.1783  -2.0912  -0.3022 LP             1 S1                 0.0000
     43 ****         2.1193  -1.2131   0.7029 LP             1 S1                 0.0000
     44 ****         2.3856   1.2230  -3.1173 LP             1 S1                 0.0000
     45 ****         2.6213   0.6545  -4.7363 LP             1 S1                 0.0000
     46 ****         0.7863  -2.2924  -4.0829 LP             1 S1                 0.0000
     47 ****         3.4555  -2.6830  -5.4102 LP             1 S1                 0.0000
     48 ****         3.9856  -2.3912  -7.8389 LP             1 S1                 0.0000
@<TRIPOS>BOND
    1    1    2 1     
    2    1   21 1     
    3    1   22 1     
    4    1   23 1     
    5    2    3 1     
    6    2    4 1     
    7    2   24 1     
    8    3   25 1     
    9    3   26 1     
   10    3   27 1     
   11    4    5 1     
   12    4   28 1     
   13    4   29 1     
   14    5   20 1     
   15    5    6 1     
   16    5   41 1     
   17    6    7 1     
   18    6   30 1     
   19    6   31 1     
   20    7    8 1     
   21    7   32 1     
   22    7   33 1     
   23    8    9 1     
   24    9   10 1     
   25    9   20 1     
   26    9   34 1     
   27   10   11 1     
   28   10   35 1     
   29   10   36 1     
   30   11   12 am    
   31   11   37 1     
   32   12   13 2     
   33   12   14 1     
   34   14   15 1     
   35   15   19 1     
   36   15   16 2     
   37   16   17 1     
   38   17   18 2     
   39   18   19 1     
   40   18   38 1     
   41   20   39 1     
   42   20   40 1     
   43    8   42 1     
   44    8   43 1     
   45   13   44 1     
   46   13   45 1     
   47   14   46 1     
   48   16   47 1     
   49   17   48 1     
@<TRIPOS>SUBSTRUCTURE
      1 S1             1
@<TRIPOS>SET
LONE_PAIRS      STATIC     ATOMS    <user>   **** ""
7 42 43 44 45 46 47 48
DONOR_HYDROGENS      STATIC     ATOMS    <user>   **** ""
2 41 37
ATOM$BLUE        STATIC     ATOMS    COLORGROUP SYSTEM
7 42 43 44 45 46 47 48
ATOM$RED        STATIC     ATOMS    COLORGROUP SYSTEM
2 41 37
