AV-unprocessed.smi:193|AV-procd|sdf|1507|dock3
  -GOLD-   2262019343D 1   1.00000     0.00000
 Structure written by MMmdl.
 62 66  0  0  0  0  0  0  0  0  2 V2000
  152.4542  143.5721  161.0210 C   0  0  0  0  0  0  0  0  0  0  0  0
  152.7528  142.1045  160.6747 C   0  0  1  0  0  0  0  0  0  0  0  0
  152.6775  141.9125  159.1454 C   0  0  0  0  0  0  0  0  0  0  0  0
  152.4241  140.5339  158.7210 N   0  0  0  0  0  0  0  0  0  0  0  0
  151.9730  140.3286  157.4557 C   0  0  0  0  0  0  0  0  0  0  0  0
  152.6974  139.5406  156.6173 N   0  0  0  0  0  0  0  0  0  0  0  0
  152.2726  139.3061  155.3724 C   0  0  0  0  0  0  0  0  0  0  0  0
  151.1702  139.7537  154.7694 N   0  0  0  0  0  0  0  0  0  0  0  0
  150.4442  140.5561  155.5990 C   0  0  0  0  0  0  0  0  0  0  0  0
  150.7702  140.8959  156.9428 C   0  0  0  0  0  0  0  0  0  0  0  0
  149.8012  141.7486  157.4602 N   0  0  0  0  0  0  0  0  0  0  0  0
  148.9459  141.8915  156.4850 C   0  0  0  0  0  0  0  0  0  0  0  0
  149.2495  141.2019  155.3334 N   0  0  0  0  0  0  0  0  0  0  0  0
  148.4719  141.1752  154.1036 C   0  0  0  0  0  0  0  0  0  0  0  0
  148.0020  139.7581  153.6918 C   0  0  0  0  0  0  0  0  0  0  0  0
  149.1541  139.0065  153.3492 O   0  0  0  0  0  0  0  0  0  0  0  0
  147.2985  139.0589  154.8724 C   0  0  0  0  0  0  0  0  0  0  0  0
  146.6679  137.7168  154.4603 C   0  0  0  0  0  0  0  0  0  0  0  0
  145.7751  137.9132  153.3709 O   0  0  0  0  0  0  0  0  0  0  0  0
  146.4294  138.3953  152.2036 C   0  0  0  0  0  0  0  0  0  0  0  0
  147.0500  139.7772  152.4755 C   0  0  0  0  0  0  0  0  0  0  0  0
  152.9516  139.3806  159.4497 C   0  0  0  0  0  0  0  0  0  0  0  0
  154.3752  139.5927  159.9815 C   0  0  0  0  0  0  0  0  0  0  0  0
  154.3599  140.2489  161.3107 N   0  3  1  0  0  0  0  0  0  0  0  0
  155.5713  139.9279  162.1016 C   0  0  2  0  0  0  0  0  0  0  0  0
  156.4149  138.8215  161.5084 C   0  0  0  0  0  0  0  0  0  0  0  0
  155.5811  138.5499  162.7407 C   0  0  2  0  0  0  0  0  0  0  0  0
  154.4133  137.5826  162.6710 C   0  0  0  0  0  0  0  0  0  0  0  0
  154.1371  141.7138  161.2374 C   0  0  0  0  0  0  0  0  0  0  0  0
  153.1866  144.2430  160.5706 H   0  0  0  0  0  0  0  0  0  0  0  0
  152.4703  143.7366  162.0988 H   0  0  0  0  0  0  0  0  0  0  0  0
  151.4673  143.8686  160.6640 H   0  0  0  0  0  0  0  0  0  0  0  0
  151.9797  141.5044  161.1574 H   0  0  0  0  0  0  0  0  0  0  0  0
  151.8601  142.5242  158.7600 H   0  0  0  0  0  0  0  0  0  0  0  0
  153.5865  142.2843  158.6706 H   0  0  0  0  0  0  0  0  0  0  0  0
  152.9056  138.6666  154.7745 H   0  0  0  0  0  0  0  0  0  0  0  0
  148.0604  142.5032  156.5802 H   0  0  0  0  0  0  0  0  0  0  0  0
  147.6149  141.8389  154.2271 H   0  0  0  0  0  0  0  0  0  0  0  0
  149.0793  141.6118  153.3097 H   0  0  0  0  0  0  0  0  0  0  0  0
  149.2685  139.0428  152.4120 H   0  0  0  0  0  0  0  0  0  0  0  0
  147.9940  138.9080  155.6990 H   0  0  0  0  0  0  0  0  0  0  0  0
  146.5075  139.7057  155.2541 H   0  0  0  0  0  0  0  0  0  0  0  0
  147.4332  136.9869  154.1919 H   0  0  0  0  0  0  0  0  0  0  0  0
  146.1110  137.2953  155.2972 H   0  0  0  0  0  0  0  0  0  0  0  0
  147.1872  137.6818  151.8765 H   0  0  0  0  0  0  0  0  0  0  0  0
  145.6984  138.4688  151.3983 H   0  0  0  0  0  0  0  0  0  0  0  0
  146.2439  140.4874  152.6630 H   0  0  0  0  0  0  0  0  0  0  0  0
  147.5657  140.1289  151.5810 H   0  0  0  0  0  0  0  0  0  0  0  0
  152.2684  139.1091  160.2554 H   0  0  0  0  0  0  0  0  0  0  0  0
  152.9912  138.5180  158.7840 H   0  0  0  0  0  0  0  0  0  0  0  0
  154.8248  138.6051  160.0912 H   0  0  0  0  0  0  0  0  0  0  0  0
  155.0056  140.1315  159.2721 H   0  0  0  0  0  0  0  0  0  0  0  0
  156.0541  140.7707  162.5938 H   0  0  0  0  0  0  0  0  0  0  0  0
  156.0915  138.3740  160.5700 H   0  0  0  0  0  0  0  0  0  0  0  0
  157.4929  138.8843  161.6429 H   0  0  0  0  0  0  0  0  0  0  0  0
  156.1317  138.4811  163.6769 H   0  0  0  0  0  0  0  0  0  0  0  0
  153.9308  137.6091  161.6936 H   0  0  0  0  0  0  0  0  0  0  0  0
  153.6746  137.8281  163.4340 H   0  0  0  0  0  0  0  0  0  0  0  0
  154.7647  136.5660  162.8488 H   0  0  0  0  0  0  0  0  0  0  0  0
  154.9351  142.1838  160.6604 H   0  0  0  0  0  0  0  0  0  0  0  0
  154.2253  142.1115  162.2489 H   0  0  0  0  0  0  0  0  0  0  0  0
  153.5829  139.8542  161.8212 H   0  0  0  0  0  0  0  0  0  0  0  0
  1  2  1  0  0  0  0
  1 30  1  0  0  0  0
  1 31  1  0  0  0  0
  1 32  1  0  0  0  0
  2 29  1  0  0  0  0
  2  3  1  0  0  0  0
  2 33  1  0  0  0  0
  3  4  1  0  0  0  0
  3 34  1  0  0  0  0
  3 35  1  0  0  0  0
  4  5  1  0  0  0  0
  4 22  1  0  0  0  0
  5 10  1  0  0  0  0
  5  6  2  0  0  0  0
  6  7  1  0  0  0  0
  7  8  2  0  0  0  0
  7 36  1  0  0  0  0
  8  9  1  0  0  0  0
  9 13  1  0  0  0  0
  9 10  2  0  0  0  0
 10 11  1  0  0  0  0
 11 12  2  0  0  0  0
 12 13  1  0  0  0  0
 12 37  1  0  0  0  0
 13 14  1  0  0  0  0
 14 15  1  0  0  0  0
 14 38  1  0  0  0  0
 14 39  1  0  0  0  0
 15 21  1  0  0  0  0
 15 16  1  0  0  0  0
 15 17  1  0  0  0  0
 16 40  1  0  0  0  0
 17 18  1  0  0  0  0
 17 41  1  0  0  0  0
 17 42  1  0  0  0  0
 18 19  1  0  0  0  0
 18 43  1  0  0  0  0
 18 44  1  0  0  0  0
 19 20  1  0  0  0  0
 20 21  1  0  0  0  0
 20 45  1  0  0  0  0
 20 46  1  0  0  0  0
 21 47  1  0  0  0  0
 21 48  1  0  0  0  0
 22 23  1  0  0  0  0
 22 49  1  0  0  0  0
 22 50  1  0  0  0  0
 23 24  1  0  0  0  0
 23 51  1  0  0  0  0
 23 52  1  0  0  0  0
 24 25  1  0  0  0  0
 24 29  1  0  0  0  0
 24 62  1  0  0  0  0
 25 27  1  0  0  0  0
 25 26  1  0  0  0  0
 25 53  1  0  0  0  0
 26 27  1  0  0  0  0
 26 54  1  0  0  0  0
 26 55  1  0  0  0  0
 27 28  1  0  0  0  0
 27 56  1  0  0  0  0
 28 57  1  0  0  0  0
 28 58  1  0  0  0  0
 28 59  1  0  0  0  0
 29 60  1  0  0  0  0
 29 61  1  0  0  0  0
M  CHG  1  24   1
M  END
> <s_m_source_file>
AV-unprocessed.smi

> <i_m_source_file_index>
193

> <i_lp_mmshare_version>
43012

> <i_f3d_flags>
0

> <s_epik_input>
W0NIM11bQ0BASF0xW0NIMl1bQ0BIXTFOKFtDSDJdMilbQ0gyXVtDSDJdTihbQ0gyXVtDQEhdMltDSDNdKWMobltjSF1uMyljKGMzNCluW2NIXW40W0NIMl1DNShbT0hdKVtDSDJdW0NIMl1PW0NIMl1bQ0gyXTU=

> <s_epik_cmdline>
J2VwaWtfcHl0aG9uJywgJy1waCcsICc3LjAnLCAnLXRuJywgJzgnLCAnLW1hJywgJzIwMCcsICctbWV0YWxfYmluZGluZycsICctaW1hZScsICc8aW5maWxlLm1hZT4nLCAnLW9tYWUnLCAnPG91dGZpbGUubWFlPic=

> <r_lp_tautomer_probability>
1

> <r_epik_Ionization_Penalty>
0.0540825

> <r_epik_Ionization_Penalty_Charging>
0.0538476

> <r_epik_Ionization_Penalty_Neutral>
0.000234891

> <r_epik_State_Penalty>
0.0200719

> <r_epik_Charging_Adjusted_Penalty>
0.0739194

> <i_epik_Tot_Q>
1

> <i_epik_Tot_abs_Q>
1

> <r_epik_Metal_State_Penalty>
0.0199414

> <b_epik_Metal_Only>
0

> <s_lp_Force_Field>
OPLS_2005

> <r_lp_Energy>
56.3109

> <b_lp_Chiralities_Consistent>
1

> <s_lp_Variant>
AV-unprocessed.smi:193-12

> <Gold.Version>
5.8.1

> <Gold.Id.Protein>
6NUR|6NUR_protein|mol2

> <Gold.PLP.Fitness>
56.6144

> <Gold.PLP.PLP>
-51.8558

> <Gold.PLP.part.hbond>
-3.2638

> <Gold.PLP.part.metal>
0.0000

> <Gold.PLP.part.buried>
-0.3812

> <Gold.PLP.part.nonpolar>
-48.1411

> <Gold.PLP.part.repulsive>
0.3695

> <Gold.PLP.ligand.clash>
3.1462

> <Gold.PLP.ligand.torsion>
1.7841

> <Gold.PLP.Chemscore.Hbond>
2.9280

> <Gold.PLP.Chemscore.CHOScore>
0.4413

> <Gold.PLP.Chemscore.Metal>
0.0000

> <Gold.Chemscore.Hbonds>
donor molecule, donor type, donor heavy atom, donor atom, acceptor molecule, acceptor atom, score
      L1  H    16    40       P1  7957  0.91
      P1  H  7989  7998       L1     8  1.00
      P1  H  7997  8010       L1     6  1.00
      L1  C    12    37       P1  8028  0.45

> <Gold.PLP.Chemscore.Internal.Correction>
1.3651

> <Gold.Rescore>
     Score         DG    S(hbond)    S(metal)    S(lipo)     H(rot)  DE(clash)    DE(int)     intcor
     17.82     -19.78       1.81        0.00     112.76       1.93       0.12       1.85       ----

> <Gold.Chemscore.Fitness>
17.8210

> <Gold.Chemscore.DG>
-19.7835

> <Gold.Chemscore.ZeroCoef>
-5.4800

> <Gold.Chemscore.Hbond>
1.8112

> <Gold.Chemscore.Metal>
0.0000

> <Gold.Chemscore.Lipo>
112.7557

> <Gold.Chemscore.Internal_Hbond>
0.0000

> <Gold.Chemscore.DEClash>
0.1174

> <Gold.Chemscore.DEInternal>
1.8451

> <Gold.Chemscore.Rot>
1.9290

> <Gold.Chemscore.Internal.Correction>
   9.000000E+99

> <Gold.Chemscore.Hbonds>
donor molecule, donor type, donor heavy atom, donor atom, acceptor molecule, acceptor atom, score
      L1  H    16    40       P1  7957  0.85
      P1  H  7989  7998       L1     8  0.23
      P1  H  7997  8010       L1     6  0.52

> <Gold.Chemscore.Hbond.Weighted>
-6.0494

> <Gold.Chemscore.Metal.Weighted>
-0.0000

> <Gold.Chemscore.Lipo.Weighted>
-13.1924

> <Gold.Chemscore.Internal_Hbond.Weighted>
0.0000

> <Gold.Chemscore.DEClash.Weighted>
0.1174

> <Gold.Chemscore.DEInternal.Weighted>
1.8451

> <Gold.Chemscore.Rot.Weighted>
4.9383

> <Gold.Chemscore.Internal.Correction.Weighted>
   9.000000E+99

> <Gold.Protein.RotatedTorsions>
[ 6907 6896 6895 6894 ] final  139.57 input  -60.11 | X-H torsion
[ 7974 7965 7964 7962 ] final -174.87 input  175.53 | X-H torsion
[ 8008 7997 7996 7995 ] final   64.67 input   59.86 | X-H torsion
[ 10167 10162 10161 10158 ] final -137.03 input  -65.29 | X-H torsion
[ 10718 10713 10712 10709 ] final   89.09 input   66.30 | X-H torsion
[ 10763 10752 10751 10750 ] final   -8.84 input  -60.55 | X-H torsion
[ 11005 11000 10999 10996 ] final   60.74 input  -57.11 | X-H torsion

> <Gold.Protein.ActiveResidues>
 VAL166  LYS551  ARG553  GLY616  TRP617  ASP618  TYR619  PRO620  LYS621  CYS622 
 ASP623  PHE694  ASN695  SER759  ASP760  ASP761  ALA762  ILE779  LEU786  VAL792 
 PHE793  MET794  SER795  GLU796  ALA797  LYS798  CYS799  TRP800  GLU811  SER814 

> <Gold.Protein.RotatedAtoms>
  152.2533  133.5234  159.5337 H   0  0  0  0  0  0  0  0  0  0  0  0  # atno 6907 bound_to 6896
  150.7100  134.0930  159.3947 H   0  0  0  0  0  0  0  0  0  0  0  0  # atno 6908 bound_to 6896
  151.8849  135.0439  160.0543 H   0  0  0  0  0  0  0  0  0  0  0  0  # atno 6909 bound_to 6896
  144.7130  140.1406  143.6392 H   0  0  0  0  0  0  0  0  0  0  0  0  # atno 7974 bound_to 7965
  155.6498  140.3497  155.4744 H   0  0  0  0  0  0  0  0  0  0  0  0  # atno 8008 bound_to 7997
  155.9857  140.1183  157.0708 H   0  0  0  0  0  0  0  0  0  0  0  0  # atno 8009 bound_to 7997
  154.4204  140.1129  156.5483 H   0  0  0  0  0  0  0  0  0  0  0  0  # atno 8010 bound_to 7997
  139.8618  143.7067  152.2649 H   0  0  0  0  0  0  0  0  0  0  0  0  # atno 10167 bound_to 10162
  157.6953  131.0320  150.3373 H   0  0  0  0  0  0  0  0  0  0  0  0  # atno 10718 bound_to 10713
  153.4462  135.7014  153.6137 H   0  0  0  0  0  0  0  0  0  0  0  0  # atno 10763 bound_to 10752
  153.4491  135.3762  155.2273 H   0  0  0  0  0  0  0  0  0  0  0  0  # atno 10764 bound_to 10752
  154.8728  135.3992  154.3868 H   0  0  0  0  0  0  0  0  0  0  0  0  # atno 10765 bound_to 10752
  140.0210  134.6153  155.9640 H   0  0  0  0  0  0  0  0  0  0  0  0  # atno 11005 bound_to 11000
  145.9205  139.2543  143.1384 LP  0  0  0  0  0  0  0  0  0  0  0  0  # atno 17320 bound_to 7965
  145.9625  140.8824  143.0204 LP  0  0  0  0  0  0  0  0  0  0  0  0  # atno 17321 bound_to 7965
  139.7366  144.7569  151.0717 LP  0  0  0  0  0  0  0  0  0  0  0  0  # atno 17342 bound_to 10162
  140.7774  143.5022  150.9756 LP  0  0  0  0  0  0  0  0  0  0  0  0  # atno 17343 bound_to 10162
  156.3838  130.3885  149.7081 LP  0  0  0  0  0  0  0  0  0  0  0  0  # atno 17370 bound_to 10713
  156.4454  130.7881  151.2902 LP  0  0  0  0  0  0  0  0  0  0  0  0  # atno 17371 bound_to 10713
  141.1773  133.6542  156.4881 LP  0  0  0  0  0  0  0  0  0  0  0  0  # atno 17394 bound_to 11000
  140.4387  134.7035  157.4980 LP  0  0  0  0  0  0  0  0  0  0  0  0  # atno 17395 bound_to 11000

$$$$
