AV-unprocessed.smi:2091|AV-procd|sdf|8541|dock6
  -GOLD-   2272011263D 1   1.00000     0.00000
 Structure written by MMmdl.
 35 36  0  0  0  0  0  0  0  0  2 V2000
  148.1015  131.7682  153.3491 O   0  0  0  0  0  0  0  0  0  0  0  0
  148.4663  132.9371  153.2138 C   0  0  0  0  0  0  0  0  0  0  0  0
  149.8146  133.4071  153.7755 C   0  0  0  0  0  0  0  0  0  0  0  0
  149.7091  133.9570  155.1368 N   0  0  0  0  0  0  0  0  0  0  0  0
  149.0464  135.1868  155.2964 C   0  0  0  0  0  0  0  0  0  0  0  0
  148.9018  135.7644  156.5043 C   0  0  0  0  0  0  0  0  0  0  0  0
  149.4539  135.0804  157.6672 C   0  0  0  0  0  0  0  0  0  0  0  0
  149.3258  135.5901  158.7787 O   0  0  0  0  0  0  0  0  0  0  0  0
  150.0935  133.8922  157.4600 N   0  5  0  0  0  0  0  0  0  0  0  0
  150.2357  133.3180  156.2249 C   0  0  0  0  0  0  0  0  0  0  0  0
  150.8192  132.2460  156.0598 O   0  0  0  0  0  0  0  0  0  0  0  0
  147.7474  133.8610  152.5566 N   0  0  0  0  0  0  0  0  0  0  0  0
  146.4463  133.6350  151.9233 C   0  0  1  0  0  0  0  0  0  0  0  0
  146.6312  132.5253  150.8630 C   0  0  0  0  0  0  0  0  0  0  0  0
  145.5555  132.5314  149.7627 C   0  0  0  0  0  0  0  0  0  0  0  0
  144.1317  132.2157  150.2453 C   0  0  0  0  0  0  0  0  0  0  0  0
  143.5783  133.2394  151.2512 C   0  0  0  0  0  0  0  0  0  0  0  0
  144.1207  133.0418  152.5891 N   0  0  0  0  0  0  0  0  0  0  0  0
  145.4020  133.1716  152.9661 C   0  0  0  0  0  0  0  0  0  0  0  0
  145.7369  132.9198  154.1238 O   0  0  0  0  0  0  0  0  0  0  0  0
  150.5009  132.5596  153.7584 H   0  0  0  0  0  0  0  0  0  0  0  0
  150.2580  134.1474  153.1065 H   0  0  0  0  0  0  0  0  0  0  0  0
  148.6730  135.6301  154.3852 H   0  0  0  0  0  0  0  0  0  0  0  0
  148.3925  136.7109  156.6095 H   0  0  0  0  0  0  0  0  0  0  0  0
  148.1311  134.7919  152.4858 H   0  0  0  0  0  0  0  0  0  0  0  0
  146.1171  134.5599  151.4464 H   0  0  0  0  0  0  0  0  0  0  0  0
  147.5928  132.6652  150.3668 H   0  0  0  0  0  0  0  0  0  0  0  0
  146.6867  131.5412  151.3318 H   0  0  0  0  0  0  0  0  0  0  0  0
  145.5611  133.4979  149.2573 H   0  0  0  0  0  0  0  0  0  0  0  0
  145.8324  131.7994  149.0035 H   0  0  0  0  0  0  0  0  0  0  0  0
  143.4760  132.1993  149.3741 H   0  0  0  0  0  0  0  0  0  0  0  0
  144.0902  131.2112  150.6686 H   0  0  0  0  0  0  0  0  0  0  0  0
  143.7540  134.2617  150.9135 H   0  0  0  0  0  0  0  0  0  0  0  0
  142.4969  133.1218  151.3234 H   0  0  0  0  0  0  0  0  0  0  0  0
  143.4631  132.7486  153.2971 H   0  0  0  0  0  0  0  0  0  0  0  0
  1  2  2  0  0  0  0
  2  3  1  0  0  0  0
  2 12  1  0  0  0  0
  3  4  1  0  0  0  0
  3 21  1  0  0  0  0
  3 22  1  0  0  0  0
  4 10  1  0  0  0  0
  4  5  1  0  0  0  0
  5  6  2  0  0  0  0
  5 23  1  0  0  0  0
  6  7  1  0  0  0  0
  6 24  1  0  0  0  0
  7  8  2  0  0  0  0
  7  9  1  0  0  0  0
  9 10  1  0  0  0  0
 10 11  2  0  0  0  0
 12 13  1  0  0  0  0
 12 25  1  0  0  0  0
 13 19  1  0  0  0  0
 13 14  1  0  0  0  0
 13 26  1  0  0  0  0
 14 15  1  0  0  0  0
 14 27  1  0  0  0  0
 14 28  1  0  0  0  0
 15 16  1  0  0  0  0
 15 29  1  0  0  0  0
 15 30  1  0  0  0  0
 16 17  1  0  0  0  0
 16 31  1  0  0  0  0
 16 32  1  0  0  0  0
 17 18  1  0  0  0  0
 17 33  1  0  0  0  0
 17 34  1  0  0  0  0
 18 19  1  0  0  0  0
 18 35  1  0  0  0  0
 19 20  2  0  0  0  0
M  CHG  1   9  -1
M  END
> <s_m_source_file>
AV-unprocessed.smi

> <i_m_source_file_index>
2091

> <i_lp_mmshare_version>
43012

> <i_f3d_flags>
0

> <s_epik_input>
Tz1jMVtuSF1jKD1PKVtjSF1bY0hdbjFbQ0gyXUMoPU8pW05IXVtDQEBIXTJbQ0gyXVtDSDJdW0NIMl1bQ0gyXVtOSF1DMj1P

> <s_epik_cmdline>
J2VwaWtfcHl0aG9uJywgJy1waCcsICc3LjAnLCAnLXRuJywgJzgnLCAnLW1hJywgJzIwMCcsICctbWV0YWxfYmluZGluZycsICctaW1hZScsICc8aW5maWxlLm1hZT4nLCAnLW9tYWUnLCAnPG91dGZpbGUubWFlPic=

> <r_lp_tautomer_probability>
0.999537

> <r_epik_Ionization_Penalty>
3.03155

> <r_epik_Ionization_Penalty_Charging>
2.38195e-08

> <r_epik_Ionization_Penalty_Neutral>
3.03155

> <r_epik_State_Penalty>
3.03052

> <r_epik_Charging_Adjusted_Penalty>
3.03052

> <i_epik_Tot_Q>
-1

> <i_epik_Tot_abs_Q>
1

> <r_epik_Metal_State_Penalty>
0.455936

> <b_epik_Metal_Only>
1

> <s_lp_Force_Field>
OPLS_2005

> <r_lp_Energy>
21.0556

> <b_lp_Chiralities_Consistent>
1

> <s_lp_Variant>
AV-unprocessed.smi:2091-4

> <Gold.Version>
5.8.1

> <Gold.Id.Protein>
6NUR|6NUR_protein|mol2

> <Gold.PLP.Fitness>
42.2094

> <Gold.PLP.PLP>
-28.1870

> <Gold.PLP.part.hbond>
-3.0611

> <Gold.PLP.part.metal>
0.0000

> <Gold.PLP.part.buried>
-3.0551

> <Gold.PLP.part.nonpolar>
-21.9978

> <Gold.PLP.part.repulsive>
0.2183

> <Gold.PLP.ligand.clash>
0.0000

> <Gold.PLP.ligand.torsion>
0.4538

> <Gold.PLP.Chemscore.Hbond>
3.9760

> <Gold.PLP.Chemscore.CHOScore>
1.0000

> <Gold.PLP.Chemscore.Metal>
0.0000

> <Gold.Chemscore.Hbonds>
donor molecule, donor type, donor heavy atom, donor atom, acceptor molecule, acceptor atom, score
      L1  H    12    25       P1  7948  1.00
      L1  H    18    35       P1 10957  1.00
      P1  H  6896  6907       L1     9  0.84
      L1  C     5    23       P1  7948  0.85

> <Gold.PLP.Chemscore.Internal.Correction>
0.0021

> <Gold.Rescore>
     Score         DG    S(hbond)    S(metal)    S(lipo)     H(rot)  DE(clash)    DE(int)     intcor
     10.30     -14.45       2.39        0.00      49.04       1.85       0.01       4.14       ----

> <Gold.Chemscore.Fitness>
10.2977

> <Gold.Chemscore.DG>
-14.4463

> <Gold.Chemscore.ZeroCoef>
-5.4800

> <Gold.Chemscore.Hbond>
2.3862

> <Gold.Chemscore.Metal>
0.0000

> <Gold.Chemscore.Lipo>
49.0358

> <Gold.Chemscore.Internal_Hbond>
0.0000

> <Gold.Chemscore.DEClash>
0.0098

> <Gold.Chemscore.DEInternal>
4.1388

> <Gold.Chemscore.Rot>
1.8519

> <Gold.Chemscore.Internal.Correction>
   9.000000E+99

> <Gold.Chemscore.Hbonds>
donor molecule, donor type, donor heavy atom, donor atom, acceptor molecule, acceptor atom, score
      L1  H    12    25       P1  7948  0.55
      L1  H    18    35       P1 10957  0.49
      P1  H  6896  6907       L1     9  0.01

> <Gold.Chemscore.Hbond.Weighted>
-7.9699

> <Gold.Chemscore.Metal.Weighted>
-0.0000

> <Gold.Chemscore.Lipo.Weighted>
-5.7372

> <Gold.Chemscore.Internal_Hbond.Weighted>
0.0000

> <Gold.Chemscore.DEClash.Weighted>
0.0098

> <Gold.Chemscore.DEInternal.Weighted>
4.1388

> <Gold.Chemscore.Rot.Weighted>
4.7408

> <Gold.Chemscore.Internal.Correction.Weighted>
   9.000000E+99

> <Gold.Protein.RotatedTorsions>
[ 6907 6896 6895 6894 ] final -108.06 input  -60.11 | X-H torsion
[ 7974 7965 7964 7962 ] final  -92.21 input  175.53 | X-H torsion
[ 8008 7997 7996 7995 ] final   36.03 input   59.86 | X-H torsion
[ 10167 10162 10161 10158 ] final  -97.37 input  -65.29 | X-H torsion
[ 10718 10713 10712 10709 ] final -138.97 input   66.30 | X-H torsion
[ 10763 10752 10751 10750 ] final   61.60 input  -60.55 | X-H torsion
[ 11005 11000 10999 10996 ] final  166.82 input  -57.11 | X-H torsion

> <Gold.Protein.ActiveResidues>
 VAL166  LYS551  ARG553  GLY616  TRP617  ASP618  TYR619  PRO620  LYS621  CYS622 
 ASP623  PHE694  ASN695  SER759  ASP760  ASP761  ALA762  ILE779  LEU786  VAL792 
 PHE793  MET794  SER795  GLU796  ALA797  LYS798  CYS799  TRP800  GLU811  SER814 

> <Gold.Protein.RotatedAtoms>
  150.7479  133.9734  159.3552 H   0  0  0  0  0  0  0  0  0  0  0  0  # atno 6907 bound_to 6896
  151.7670  135.0794  160.0363 H   0  0  0  0  0  0  0  0  0  0  0  0  # atno 6908 bound_to 6896
  152.3365  133.5980  159.5882 H   0  0  0  0  0  0  0  0  0  0  0  0  # atno 6909 bound_to 6896
  145.4029  140.9539  143.2277 H   0  0  0  0  0  0  0  0  0  0  0  0  # atno 7974 bound_to 7965
  155.1808  140.3299  155.4375 H   0  0  0  0  0  0  0  0  0  0  0  0  # atno 8008 bound_to 7997
  156.2477  140.1927  156.6856 H   0  0  0  0  0  0  0  0  0  0  0  0  # atno 8009 bound_to 7997
  154.6273  140.0587  156.9675 H   0  0  0  0  0  0  0  0  0  0  0  0  # atno 8010 bound_to 7997
  140.2841  143.3263  152.0411 H   0  0  0  0  0  0  0  0  0  0  0  0  # atno 10167 bound_to 10162
  156.3054  130.7452  151.1515 H   0  0  0  0  0  0  0  0  0  0  0  0  # atno 10718 bound_to 10713
  152.9955  135.5495  154.6059 H   0  0  0  0  0  0  0  0  0  0  0  0  # atno 10763 bound_to 10752
  154.5390  135.2818  155.1114 H   0  0  0  0  0  0  0  0  0  0  0  0  # atno 10764 bound_to 10752
  154.2399  135.6418  153.5256 H   0  0  0  0  0  0  0  0  0  0  0  0  # atno 10765 bound_to 10752
  140.2704  134.7831  157.3670 H   0  0  0  0  0  0  0  0  0  0  0  0  # atno 11005 bound_to 11000
  144.8362  139.5547  143.6921 LP  0  0  0  0  0  0  0  0  0  0  0  0  # atno 17320 bound_to 7965
  146.2743  139.6713  142.9274 LP  0  0  0  0  0  0  0  0  0  0  0  0  # atno 17321 bound_to 7965
  139.4955  144.6571  151.6548 LP  0  0  0  0  0  0  0  0  0  0  0  0  # atno 17342 bound_to 10162
  140.5787  143.9984  150.6256 LP  0  0  0  0  0  0  0  0  0  0  0  0  # atno 17343 bound_to 10162
  157.7378  131.0547  150.5331 LP  0  0  0  0  0  0  0  0  0  0  0  0  # atno 17370 bound_to 10713
  156.5464  130.4221  149.6129 LP  0  0  0  0  0  0  0  0  0  0  0  0  # atno 17371 bound_to 10713
  140.1379  134.5010  155.8054 LP  0  0  0  0  0  0  0  0  0  0  0  0  # atno 17394 bound_to 11000
  141.2178  133.6814  156.7157 LP  0  0  0  0  0  0  0  0  0  0  0  0  # atno 17395 bound_to 11000

$$$$
