AV-unprocessed.smi:765|AV-procd|sdf|3650|dock4
  -GOLD-   22720 1 53D 1   1.00000     0.00000
 Structure written by MMmdl.
 39 40  0  0  0  0  0  0  0  0  1 V2000
  151.8835  141.3895  158.3479 C   0  0  0  0  0  0  0  0  0  0  0  0
  151.2251  140.2650  157.5372 C   0  0  1  0  0  0  0  0  0  0  0  0
  151.1094  140.6370  156.0479 C   0  0  0  0  0  0  0  0  0  0  0  0
  150.4628  139.5094  155.2302 C   0  0  0  0  0  0  0  0  0  0  0  0
  151.2162  138.1799  155.4184 C   0  0  0  0  0  0  0  0  0  0  0  0
  151.3368  137.7685  156.9024 C   0  0  2  0  0  0  0  0  0  0  0  0
  152.1826  136.5631  156.9891 C   0  0  0  0  0  0  0  0  0  0  0  0
  152.8448  135.6164  157.0564 N   0  0  0  0  0  0  0  0  0  0  0  0
  149.9897  137.4936  157.4094 N   0  0  0  0  0  0  0  0  0  0  0  0
  149.6508  137.1046  158.6499 C   0  0  0  0  0  0  0  0  0  0  0  0
  150.4748  136.7898  159.5088 O   0  0  0  0  0  0  0  0  0  0  0  0
  148.1456  137.1128  158.9624 C   0  0  1  0  0  0  0  0  0  0  0  0
  147.2971  136.4179  157.8779 C   0  0  0  0  0  0  0  0  0  0  0  0
  147.9113  136.5437  160.2860 N   0  0  0  0  0  0  0  0  0  0  0  0
  147.9428  135.2145  160.6576 C   0  0  0  0  0  0  0  0  0  0  0  0
  147.6051  135.1488  161.9789 C   0  0  0  0  0  0  0  0  0  0  0  0
  147.3712  136.5055  162.3358 C   0  0  0  0  0  0  0  0  0  0  0  0
  147.5485  137.3361  161.3220 N   0  0  0  0  0  0  0  0  0  0  0  0
  151.9877  138.9315  157.6945 C   0  0  0  0  0  0  0  0  0  0  0  0
  152.9012  141.5824  158.0073 H   0  0  0  0  0  0  0  0  0  0  0  0
  151.9285  141.1343  159.4069 H   0  0  0  0  0  0  0  0  0  0  0  0
  151.3200  142.3186  158.2577 H   0  0  0  0  0  0  0  0  0  0  0  0
  150.2167  140.1356  157.9324 H   0  0  0  0  0  0  0  0  0  0  0  0
  150.5246  141.5507  155.9352 H   0  0  0  0  0  0  0  0  0  0  0  0
  152.0996  140.8536  155.6445 H   0  0  0  0  0  0  0  0  0  0  0  0
  149.4197  139.3940  155.5269 H   0  0  0  0  0  0  0  0  0  0  0  0
  150.4506  139.7806  154.1743 H   0  0  0  0  0  0  0  0  0  0  0  0
  150.7205  137.3923  154.8493 H   0  0  0  0  0  0  0  0  0  0  0  0
  152.2147  138.2770  154.9892 H   0  0  0  0  0  0  0  0  0  0  0  0
  149.2329  137.7122  156.7782 H   0  0  0  0  0  0  0  0  0  0  0  0
  147.8334  138.1577  158.9996 H   0  0  0  0  0  0  0  0  0  0  0  0
  147.4278  136.8984  156.9077 H   0  0  0  0  0  0  0  0  0  0  0  0
  146.2362  136.4669  158.1250 H   0  0  0  0  0  0  0  0  0  0  0  0
  147.5608  135.3656  157.7640 H   0  0  0  0  0  0  0  0  0  0  0  0
  148.1957  134.4324  159.9572 H   0  0  0  0  0  0  0  0  0  0  0  0
  147.5310  134.2656  162.5958 H   0  0  0  0  0  0  0  0  0  0  0  0
  147.0756  136.9090  163.2930 H   0  0  0  0  0  0  0  0  0  0  0  0
  153.0142  139.0655  157.3500 H   0  0  0  0  0  0  0  0  0  0  0  0
  152.0659  138.6740  158.7512 H   0  0  0  0  0  0  0  0  0  0  0  0
  1  2  1  0  0  0  0
  1 20  1  0  0  0  0
  1 21  1  0  0  0  0
  1 22  1  0  0  0  0
  2 19  1  0  0  0  0
  2  3  1  0  0  0  0
  2 23  1  0  0  0  0
  3  4  1  0  0  0  0
  3 24  1  0  0  0  0
  3 25  1  0  0  0  0
  4  5  1  0  0  0  0
  4 26  1  0  0  0  0
  4 27  1  0  0  0  0
  5  6  1  0  0  0  0
  5 28  1  0  0  0  0
  5 29  1  0  0  0  0
  6  7  1  0  0  0  0
  6  9  1  0  0  0  0
  6 19  1  0  0  0  0
  7  8  3  0  0  0  0
  9 10  1  0  0  0  0
  9 30  1  0  0  0  0
 10 11  2  0  0  0  0
 10 12  1  0  0  0  0
 12 13  1  0  0  0  0
 12 14  1  0  0  0  0
 12 31  1  0  0  0  0
 13 32  1  0  0  0  0
 13 33  1  0  0  0  0
 13 34  1  0  0  0  0
 14 18  1  0  0  0  0
 14 15  1  0  0  0  0
 15 16  2  0  0  0  0
 15 35  1  0  0  0  0
 16 17  1  0  0  0  0
 16 36  1  0  0  0  0
 17 18  2  0  0  0  0
 17 37  1  0  0  0  0
 19 38  1  0  0  0  0
 19 39  1  0  0  0  0
M  END
> <s_m_source_file>
AV-unprocessed.smi

> <i_m_source_file_index>
765

> <i_lp_mmshare_version>
43012

> <i_f3d_flags>
0

> <s_epik_input>
W0NIM11bQ0BASF0oW0NIMl0xKVtDSDJdW0NIMl1bQ0gyXVtDQEBdMShDI04pW05IXUMoPU8pW0NASF0oW0NIM10pbjJbY0hdW2NIXVtjSF1uMg==

> <s_epik_cmdline>
J2VwaWtfcHl0aG9uJywgJy1waCcsICc3LjAnLCAnLXRuJywgJzgnLCAnLW1hJywgJzIwMCcsICctbWV0YWxfYmluZGluZycsICctaW1hZScsICc8aW5maWxlLm1hZT4nLCAnLW9tYWUnLCAnPG91dGZpbGUubWFlPic=

> <r_lp_tautomer_probability>
1

> <r_epik_Ionization_Penalty>
2.71142e-05

> <r_epik_Ionization_Penalty_Charging>
0

> <r_epik_Ionization_Penalty_Neutral>
2.71142e-05

> <r_epik_State_Penalty>
-0

> <r_epik_Charging_Adjusted_Penalty>
0

> <i_epik_Tot_Q>
0

> <i_epik_Tot_abs_Q>
0

> <r_epik_Metal_State_Penalty>
-0

> <b_epik_Metal_Only>
0

> <s_lp_Force_Field>
OPLS_2005

> <r_lp_Energy>
11.0403

> <b_lp_Chiralities_Consistent>
1

> <s_lp_Variant>
AV-unprocessed.smi:765-8

> <Gold.Version>
5.8.1

> <Gold.Id.Protein>
6NUR|6NUR_protein|mol2

> <Gold.PLP.Fitness>
41.4252

> <Gold.PLP.PLP>
-30.6221

> <Gold.PLP.part.hbond>
-4.0000

> <Gold.PLP.part.metal>
0.0000

> <Gold.PLP.part.buried>
-5.0561

> <Gold.PLP.part.nonpolar>
-22.0144

> <Gold.PLP.part.repulsive>
0.0294

> <Gold.PLP.ligand.clash>
0.0000

> <Gold.PLP.ligand.torsion>
0.4084

> <Gold.PLP.Chemscore.Hbond>
3.8400

> <Gold.PLP.Chemscore.CHOScore>
0.0000

> <Gold.PLP.Chemscore.Metal>
0.0000

> <Gold.Chemscore.Hbonds>
donor molecule, donor type, donor heavy atom, donor atom, acceptor molecule, acceptor atom, score
      P1  H  6896  6907       L1    11  1.00
      P1  H  6931  6943       L1    18  0.86
      P1  H  6934  6947       L1    18  0.86
      P1  H 10752 10763       L1     8  1.00

> <Gold.PLP.Chemscore.Internal.Correction>
0.1001

> <Gold.Rescore>
     Score         DG    S(hbond)    S(metal)    S(lipo)     H(rot)  DE(clash)    DE(int)     intcor
     19.68     -20.20       3.14        0.00      67.17       1.42       0.00       0.52       ----

> <Gold.Chemscore.Fitness>
19.6830

> <Gold.Chemscore.DG>
-20.1998

> <Gold.Chemscore.ZeroCoef>
-5.4800

> <Gold.Chemscore.Hbond>
3.1412

> <Gold.Chemscore.Metal>
0.0000

> <Gold.Chemscore.Lipo>
67.1711

> <Gold.Chemscore.Internal_Hbond>
0.0000

> <Gold.Chemscore.DEClash>
0.0009

> <Gold.Chemscore.DEInternal>
0.5159

> <Gold.Chemscore.Rot>
1.4183

> <Gold.Chemscore.Internal.Correction>
   9.000000E+99

> <Gold.Chemscore.Hbonds>
donor molecule, donor type, donor heavy atom, donor atom, acceptor molecule, acceptor atom, score
      P1  H  6896  6907       L1    11  1.00
      P1  H  6931  6943       L1    18  0.15
      P1  H  6934  6947       L1    18  0.80
      P1  H 10752 10763       L1     8  0.50

> <Gold.Chemscore.Hbond.Weighted>
-10.4917

> <Gold.Chemscore.Metal.Weighted>
-0.0000

> <Gold.Chemscore.Lipo.Weighted>
-7.8590

> <Gold.Chemscore.Internal_Hbond.Weighted>
0.0000

> <Gold.Chemscore.DEClash.Weighted>
0.0009

> <Gold.Chemscore.DEInternal.Weighted>
0.5159

> <Gold.Chemscore.Rot.Weighted>
3.6309

> <Gold.Chemscore.Internal.Correction.Weighted>
   9.000000E+99

> <Gold.Protein.RotatedTorsions>
[ 6907 6896 6895 6894 ] final  -26.18 input  -60.11 | X-H torsion
[ 7974 7965 7964 7962 ] final  -28.32 input  175.53 | X-H torsion
[ 8008 7997 7996 7995 ] final -112.30 input   59.86 | X-H torsion
[ 10167 10162 10161 10158 ] final  -89.48 input  -65.29 | X-H torsion
[ 10718 10713 10712 10709 ] final  -92.79 input   66.30 | X-H torsion
[ 10763 10752 10751 10750 ] final  117.39 input  -60.55 | X-H torsion
[ 11005 11000 10999 10996 ] final   38.47 input  -57.11 | X-H torsion

> <Gold.Protein.ActiveResidues>
 VAL166  LYS551  ARG553  GLY616  TRP617  ASP618  TYR619  PRO620  LYS621  CYS622 
 ASP623  PHE694  ASN695  SER759  ASP760  ASP761  ALA762  ILE779  LEU786  VAL792 
 PHE793  MET794  SER795  GLU796  ALA797  LYS798  CYS799  TRP800  GLU811  SER814 

> <Gold.Protein.RotatedAtoms>
  151.1647  135.0290  159.8725 H   0  0  0  0  0  0  0  0  0  0  0  0  # atno 6907 bound_to 6896
  152.5450  134.1239  159.8421 H   0  0  0  0  0  0  0  0  0  0  0  0  # atno 6908 bound_to 6896
  151.1338  133.4972  159.2631 H   0  0  0  0  0  0  0  0  0  0  0  0  # atno 6909 bound_to 6896
  146.1296  140.5267  142.8699 H   0  0  0  0  0  0  0  0  0  0  0  0  # atno 7974 bound_to 7965
  155.0032  140.0394  157.2368 H   0  0  0  0  0  0  0  0  0  0  0  0  # atno 8008 bound_to 7997
  154.7526  140.2769  155.6257 H   0  0  0  0  0  0  0  0  0  0  0  0  # atno 8009 bound_to 7997
  156.2888  140.2644  156.2283 H   0  0  0  0  0  0  0  0  0  0  0  0  # atno 8010 bound_to 7997
  140.3644  143.2825  151.9576 H   0  0  0  0  0  0  0  0  0  0  0  0  # atno 10167 bound_to 10162
  156.0006  130.5001  150.5679 H   0  0  0  0  0  0  0  0  0  0  0  0  # atno 10718 bound_to 10713
  153.5516  135.3538  155.2762 H   0  0  0  0  0  0  0  0  0  0  0  0  # atno 10763 bound_to 10752
  154.8706  135.4115  154.2930 H   0  0  0  0  0  0  0  0  0  0  0  0  # atno 10764 bound_to 10752
  153.3658  135.7062  153.6745 H   0  0  0  0  0  0  0  0  0  0  0  0  # atno 10765 bound_to 10752
  140.2123  134.3740  155.8043 H   0  0  0  0  0  0  0  0  0  0  0  0  # atno 11005 bound_to 11000
  144.7677  140.5568  143.6691 LP  0  0  0  0  0  0  0  0  0  0  0  0  # atno 17320 bound_to 7965
  145.5289  139.1475  143.3510 LP  0  0  0  0  0  0  0  0  0  0  0  0  # atno 17321 bound_to 7965
  139.4810  144.5964  151.7683 LP  0  0  0  0  0  0  0  0  0  0  0  0  # atno 17342 bound_to 10162
  140.5095  144.1046  150.5991 LP  0  0  0  0  0  0  0  0  0  0  0  0  # atno 17343 bound_to 10162
  157.3579  131.0744  151.1661 LP  0  0  0  0  0  0  0  0  0  0  0  0  # atno 17370 bound_to 10713
  157.2455  130.6589  149.5908 LP  0  0  0  0  0  0  0  0  0  0  0  0  # atno 17371 bound_to 10713
  141.2226  133.7149  156.8439 LP  0  0  0  0  0  0  0  0  0  0  0  0  # atno 17394 bound_to 11000
  140.1937  134.8947  157.3090 LP  0  0  0  0  0  0  0  0  0  0  0  0  # atno 17395 bound_to 11000

$$$$
