AV-unprocessed.smi:260|AV-procd|sdf|1975|dock8
  -GOLD-   2262021143D 1   1.00000     0.00000
 Structure written by MMmdl.
 53 56  0  0  0  0  0  0  0  0  1 V2000
  154.0785  141.3423  160.0224 C   0  0  0  0  0  0  0  0  0  0  0  0
  153.0432  142.1572  159.4054 N   0  0  0  0  0  0  0  0  0  0  0  0
  152.3757  143.1403  160.0310 C   0  0  0  0  0  0  0  0  0  0  0  0
  152.6021  143.4312  161.2068 O   0  0  0  0  0  0  0  0  0  0  0  0
  151.2922  143.9144  159.2294 C   0  0  1  0  0  0  0  0  0  0  0  0
  150.5863  144.9906  160.0874 C   0  0  0  0  0  0  0  0  0  0  0  0
  151.9128  144.5262  157.9562 C   0  0  0  0  0  0  0  0  0  0  0  0
  151.8617  143.4107  156.9096 C   0  0  0  0  0  0  0  0  0  0  0  0
  150.7258  142.5914  157.2942 N   0  0  0  0  0  0  0  0  0  0  0  0
  150.4003  141.4256  156.6774 C   0  0  0  0  0  0  0  0  0  0  0  0
  150.0494  141.4705  155.3649 N   0  0  0  0  0  0  0  0  0  0  0  0
  149.7212  140.3547  154.7088 C   0  0  0  0  0  0  0  0  0  0  0  0
  149.6775  139.1026  155.1645 N   0  0  0  0  0  0  0  0  0  0  0  0
  150.0325  139.0437  156.4796 C   0  0  0  0  0  0  0  0  0  0  0  0
  150.4097  140.1433  157.3045 C   0  0  0  0  0  0  0  0  0  0  0  0
  150.7105  139.6807  158.5816 N   0  0  0  0  0  0  0  0  0  0  0  0
  150.5179  138.3927  158.5167 C   0  0  0  0  0  0  0  0  0  0  0  0
  150.0899  137.9267  157.2952 N   0  0  0  0  0  0  0  0  0  0  0  0
  149.8034  136.5463  156.9442 C   0  0  0  0  0  0  0  0  0  0  0  0
  151.0489  135.7448  156.5002 C   0  0  2  0  0  0  0  0  0  0  0  0
  151.4967  136.3636  155.3110 O   0  0  0  0  0  0  0  0  0  0  0  0
  150.7986  134.2545  156.1718 C   0  0  2  0  0  0  0  0  0  0  0  0
  149.8351  133.9692  155.0162 C   0  0  0  0  0  0  0  0  0  0  0  0
  149.2832  132.5882  155.3290 C   0  0  0  0  0  0  0  0  0  0  0  0
  149.6224  132.3837  156.8056 C   0  0  0  0  0  0  0  0  0  0  0  0
  150.0993  133.6459  157.2484 O   0  0  0  0  0  0  0  0  0  0  0  0
  150.2582  142.9306  158.6346 C   0  0  0  0  0  0  0  0  0  0  0  0
  154.4811  140.6394  159.2933 H   0  0  0  0  0  0  0  0  0  0  0  0
  153.6750  140.7720  160.8599 H   0  0  0  0  0  0  0  0  0  0  0  0
  154.8987  141.9627  160.3857 H   0  0  0  0  0  0  0  0  0  0  0  0
  152.8157  141.9631  158.4410 H   0  0  0  0  0  0  0  0  0  0  0  0
  149.7972  145.4887  159.5231 H   0  0  0  0  0  0  0  0  0  0  0  0
  151.2802  145.7664  160.4137 H   0  0  0  0  0  0  0  0  0  0  0  0
  150.1213  144.5565  160.9735 H   0  0  0  0  0  0  0  0  0  0  0  0
  151.3069  145.3655  157.6121 H   0  0  0  0  0  0  0  0  0  0  0  0
  152.9261  144.9026  158.1037 H   0  0  0  0  0  0  0  0  0  0  0  0
  151.7442  143.8148  155.9039 H   0  0  0  0  0  0  0  0  0  0  0  0
  152.7727  142.8120  156.9389 H   0  0  0  0  0  0  0  0  0  0  0  0
  149.4542  140.4845  153.6703 H   0  0  0  0  0  0  0  0  0  0  0  0
  150.6765  137.7450  159.3665 H   0  0  0  0  0  0  0  0  0  0  0  0
  149.3152  136.0529  157.7858 H   0  0  0  0  0  0  0  0  0  0  0  0
  149.0706  136.5728  156.1363 H   0  0  0  0  0  0  0  0  0  0  0  0
  151.8379  135.8367  157.2474 H   0  0  0  0  0  0  0  0  0  0  0  0
  150.8750  136.1777  154.6241 H   0  0  0  0  0  0  0  0  0  0  0  0
  151.7408  133.7291  156.0015 H   0  0  0  0  0  0  0  0  0  0  0  0
  149.0181  134.6916  155.0179 H   0  0  0  0  0  0  0  0  0  0  0  0
  150.3213  134.0065  154.0417 H   0  0  0  0  0  0  0  0  0  0  0  0
  148.2085  132.5467  155.1482 H   0  0  0  0  0  0  0  0  0  0  0  0
  149.7577  131.8204  154.7167 H   0  0  0  0  0  0  0  0  0  0  0  0
  148.7628  132.0613  157.3932 H   0  0  0  0  0  0  0  0  0  0  0  0
  150.4121  131.6396  156.9193 H   0  0  0  0  0  0  0  0  0  0  0  0
  150.1467  142.0441  159.2613 H   0  0  0  0  0  0  0  0  0  0  0  0
  149.2741  143.3924  158.5496 H   0  0  0  0  0  0  0  0  0  0  0  0
  1  2  1  0  0  0  0
  1 28  1  0  0  0  0
  1 29  1  0  0  0  0
  1 30  1  0  0  0  0
  2  3  1  0  0  0  0
  2 31  1  0  0  0  0
  3  4  2  0  0  0  0
  3  5  1  0  0  0  0
  5 27  1  0  0  0  0
  5  6  1  0  0  0  0
  5  7  1  0  0  0  0
  6 32  1  0  0  0  0
  6 33  1  0  0  0  0
  6 34  1  0  0  0  0
  7  8  1  0  0  0  0
  7 35  1  0  0  0  0
  7 36  1  0  0  0  0
  8  9  1  0  0  0  0
  8 37  1  0  0  0  0
  8 38  1  0  0  0  0
  9 10  1  0  0  0  0
  9 27  1  0  0  0  0
 10 15  1  0  0  0  0
 10 11  2  0  0  0  0
 11 12  1  0  0  0  0
 12 13  2  0  0  0  0
 12 39  1  0  0  0  0
 13 14  1  0  0  0  0
 14 18  1  0  0  0  0
 14 15  2  0  0  0  0
 15 16  1  0  0  0  0
 16 17  2  0  0  0  0
 17 18  1  0  0  0  0
 17 40  1  0  0  0  0
 18 19  1  0  0  0  0
 19 20  1  0  0  0  0
 19 41  1  0  0  0  0
 19 42  1  0  0  0  0
 20 21  1  0  0  0  0
 20 22  1  0  0  0  0
 20 43  1  0  0  0  0
 21 44  1  0  0  0  0
 22 26  1  0  0  0  0
 22 23  1  0  0  0  0
 22 45  1  0  0  0  0
 23 24  1  0  0  0  0
 23 46  1  0  0  0  0
 23 47  1  0  0  0  0
 24 25  1  0  0  0  0
 24 48  1  0  0  0  0
 24 49  1  0  0  0  0
 25 26  1  0  0  0  0
 25 50  1  0  0  0  0
 25 51  1  0  0  0  0
 27 52  1  0  0  0  0
 27 53  1  0  0  0  0
M  END
> <s_m_source_file>
AV-unprocessed.smi

> <i_m_source_file_index>
260

> <i_lp_mmshare_version>
43012

> <i_f3d_flags>
0

> <s_epik_input>
W0NIM11bTkhdQyg9TylbQ0BAXTEoW0NIM10pW0NIMl1bQ0gyXU4oW0NIMl0xKWMobltjSF1uMiljKGMyMyluW2NIXW4zW0NIMl1bQ0BIXShbT0hdKVtDQEBIXTRbQ0gyXVtDSDJdW0NIMl1PNA==

> <s_epik_cmdline>
J2VwaWtfcHl0aG9uJywgJy1waCcsICc3LjAnLCAnLXRuJywgJzgnLCAnLW1hJywgJzIwMCcsICctbWV0YWxfYmluZGluZycsICctaW1hZScsICc8aW5maWxlLm1hZT4nLCAnLW9tYWUnLCAnPG91dGZpbGUubWFlPic=

> <r_lp_tautomer_probability>
1

> <r_epik_Ionization_Penalty>
0.00115068

> <r_epik_Ionization_Penalty_Charging>
0

> <r_epik_Ionization_Penalty_Neutral>
0.00115068

> <r_epik_State_Penalty>
0.000668876

> <r_epik_Charging_Adjusted_Penalty>
0.000668876

> <i_epik_Tot_Q>
0

> <i_epik_Tot_abs_Q>
0

> <r_epik_Metal_State_Penalty>
-0

> <b_epik_Metal_Only>
0

> <s_lp_Force_Field>
OPLS_2005

> <r_lp_Energy>
51.9197

> <b_lp_Chiralities_Consistent>
1

> <s_lp_Variant>
AV-unprocessed.smi:260-1

> <Gold.Version>
5.8.1

> <Gold.Id.Protein>
6NUR|6NUR_protein|mol2

> <Gold.PLP.Fitness>
48.3291

> <Gold.PLP.PLP>
-42.1649

> <Gold.PLP.part.hbond>
-2.6663

> <Gold.PLP.part.metal>
0.0000

> <Gold.PLP.part.buried>
-7.2012

> <Gold.PLP.part.nonpolar>
-33.0880

> <Gold.PLP.part.repulsive>
0.3451

> <Gold.PLP.ligand.clash>
0.0000

> <Gold.PLP.ligand.torsion>
1.4167

> <Gold.PLP.Chemscore.Hbond>
1.9280

> <Gold.PLP.Chemscore.CHOScore>
0.9955

> <Gold.PLP.Chemscore.Metal>
0.0000

> <Gold.Chemscore.Hbonds>
donor molecule, donor type, donor heavy atom, donor atom, acceptor molecule, acceptor atom, score
      P1  H  6896  6909       L1    26  0.76
      P1  H 10752 10764       L1    21  1.00
      L1  C    12    39       P1  7957  0.95

> <Gold.PLP.Chemscore.Internal.Correction>
0.2273

> <Gold.Rescore>
     Score         DG    S(hbond)    S(metal)    S(lipo)     H(rot)  DE(clash)    DE(int)     intcor
     11.64     -15.01       1.72        0.00      87.74       2.53       1.53       1.84       ----

> <Gold.Chemscore.Fitness>
11.6389

> <Gold.Chemscore.DG>
-15.0113

> <Gold.Chemscore.ZeroCoef>
-5.4800

> <Gold.Chemscore.Hbond>
1.7162

> <Gold.Chemscore.Metal>
0.0000

> <Gold.Chemscore.Lipo>
87.7400

> <Gold.Chemscore.Internal_Hbond>
0.0000

> <Gold.Chemscore.DEClash>
1.5315

> <Gold.Chemscore.DEInternal>
1.8409

> <Gold.Chemscore.Rot>
2.5259

> <Gold.Chemscore.Internal.Correction>
   9.000000E+99

> <Gold.Chemscore.Hbonds>
donor molecule, donor type, donor heavy atom, donor atom, acceptor molecule, acceptor atom, score
      P1  H  6896  6909       L1    26  0.64
      P1  H 10752 10764       L1    21  0.26

> <Gold.Chemscore.Hbond.Weighted>
-5.7320

> <Gold.Chemscore.Metal.Weighted>
-0.0000

> <Gold.Chemscore.Lipo.Weighted>
-10.2656

> <Gold.Chemscore.Internal_Hbond.Weighted>
0.0000

> <Gold.Chemscore.DEClash.Weighted>
1.5315

> <Gold.Chemscore.DEInternal.Weighted>
1.8409

> <Gold.Chemscore.Rot.Weighted>
6.4663

> <Gold.Chemscore.Internal.Correction.Weighted>
   9.000000E+99

> <Gold.Protein.RotatedTorsions>
[ 6907 6896 6895 6894 ] final   -8.45 input  -60.11 | X-H torsion
[ 7974 7965 7964 7962 ] final   68.36 input  175.53 | X-H torsion
[ 8008 7997 7996 7995 ] final  -64.57 input   59.86 | X-H torsion
[ 10167 10162 10161 10158 ] final -169.32 input  -65.29 | X-H torsion
[ 10718 10713 10712 10709 ] final  -38.43 input   66.30 | X-H torsion
[ 10763 10752 10751 10750 ] final  -32.07 input  -60.55 | X-H torsion
[ 11005 11000 10999 10996 ] final   -7.51 input  -57.11 | X-H torsion

> <Gold.Protein.ActiveResidues>
 VAL166  LYS551  ARG553  GLY616  TRP617  ASP618  TYR619  PRO620  LYS621  CYS622 
 ASP623  PHE694  ASN695  SER759  ASP760  ASP761  ALA762  ILE779  LEU786  VAL792 
 PHE793  MET794  SER795  GLU796  ALA797  LYS798  CYS799  TRP800  GLU811  SER814 

> <Gold.Protein.RotatedAtoms>
  151.4334  135.1012  159.9648 H   0  0  0  0  0  0  0  0  0  0  0  0  # atno 6907 bound_to 6896
  152.4948  133.8596  159.7254 H   0  0  0  0  0  0  0  0  0  0  0  0  # atno 6908 bound_to 6896
  150.9139  133.6905  159.2876 H   0  0  0  0  0  0  0  0  0  0  0  0  # atno 6909 bound_to 6896
  145.8035  139.2995  143.1141 H   0  0  0  0  0  0  0  0  0  0  0  0  # atno 7974 bound_to 7965
  154.4619  140.0951  156.6917 H   0  0  0  0  0  0  0  0  0  0  0  0  # atno 8008 bound_to 7997
  155.4968  140.3472  155.4346 H   0  0  0  0  0  0  0  0  0  0  0  0  # atno 8009 bound_to 7997
  156.0887  140.1391  156.9609 H   0  0  0  0  0  0  0  0  0  0  0  0  # atno 8010 bound_to 7997
  139.5930  144.1172  152.1657 H   0  0  0  0  0  0  0  0  0  0  0  0  # atno 10167 bound_to 10162
  156.3038  130.4243  149.8117 H   0  0  0  0  0  0  0  0  0  0  0  0  # atno 10718 bound_to 10713
  153.8077  135.6885  153.4846 H   0  0  0  0  0  0  0  0  0  0  0  0  # atno 10763 bound_to 10752
  153.1648  135.4565  154.9821 H   0  0  0  0  0  0  0  0  0  0  0  0  # atno 10764 bound_to 10752
  154.7980  135.3327  154.7560 H   0  0  0  0  0  0  0  0  0  0  0  0  # atno 10765 bound_to 10752
  140.7136  133.8888  155.8768 H   0  0  0  0  0  0  0  0  0  0  0  0  # atno 11005 bound_to 11000
  145.9852  140.8649  143.0094 LP  0  0  0  0  0  0  0  0  0  0  0  0  # atno 17320 bound_to 7965
  144.6766  140.2137  143.7374 LP  0  0  0  0  0  0  0  0  0  0  0  0  # atno 17321 bound_to 7965
  140.0751  144.5747  150.7163 LP  0  0  0  0  0  0  0  0  0  0  0  0  # atno 17342 bound_to 10162
  140.7189  143.2570  151.4344 LP  0  0  0  0  0  0  0  0  0  0  0  0  # atno 17343 bound_to 10162
  156.5485  130.8331  151.3292 LP  0  0  0  0  0  0  0  0  0  0  0  0  # atno 17370 bound_to 10713
  157.7374  130.9796  150.2194 LP  0  0  0  0  0  0  0  0  0  0  0  0  # atno 17371 bound_to 10713
  141.0064  134.1081  157.4266 LP  0  0  0  0  0  0  0  0  0  0  0  0  # atno 17394 bound_to 11000
  139.8865  135.0082  156.6505 LP  0  0  0  0  0  0  0  0  0  0  0  0  # atno 17395 bound_to 11000

$$$$
