AV-unprocessed.smi:2706|AV-procd|sdf|10446|dock5
  -GOLD-   2272014493D 1   1.00000     0.00000
 Structure written by MMmdl.
 43 46  0  0  0  0  0  0  0  0  1 V2000
  152.4032  138.9342  155.1350 C   0  0  0  0  0  0  0  0  0  0  0  0
  151.4232  139.8239  155.7503 N   0  0  0  0  0  0  0  0  0  0  0  0
  151.7227  140.4702  157.0219 C   0  0  0  0  0  0  0  0  0  0  0  0
  150.1845  140.0532  155.1095 C   0  0  0  0  0  0  0  0  0  0  0  0
  149.5656  141.3261  155.1232 C   0  0  0  0  0  0  0  0  0  0  0  0
  148.3349  141.4913  154.4628 C   0  0  0  0  0  0  0  0  0  0  0  0
  147.7572  140.3879  153.8097 C   0  0  0  0  0  0  0  0  0  0  0  0
  148.4242  139.1453  153.8377 C   0  0  0  0  0  0  0  0  0  0  0  0
  147.7694  138.0885  153.1506 N   0  0  0  0  0  0  0  0  0  0  0  0
  146.4471  137.8769  153.0242 C   0  0  0  0  0  0  0  0  0  0  0  0
  145.5635  138.6096  153.4708 O   0  0  0  0  0  0  0  0  0  0  0  0
  146.2003  136.7543  152.3352 N   0  0  0  0  0  0  0  0  0  0  0  0
  144.9055  136.2530  152.0007 C   0  0  2  0  0  0  0  0  0  0  0  0
  144.5044  134.8217  152.3369 C   0  0  2  0  0  0  0  0  0  0  0  0
  145.3978  133.5937  152.5260 C   0  0  1  0  0  0  0  0  0  0  0  0
  144.7384  132.4272  151.7589 C   0  0  0  0  0  0  0  0  0  0  0  0
  144.9792  132.8239  150.2797 C   0  0  0  0  0  0  0  0  0  0  0  0
  145.7416  134.1602  150.4150 C   0  0  2  0  0  0  0  0  0  0  0  0
  146.6117  133.8250  151.6264 C   0  0  0  0  0  0  0  0  0  0  0  0
  144.7377  135.2072  150.9042 C   0  0  2  0  0  0  0  0  0  0  0  0
  149.6100  139.0016  154.4773 N   0  0  0  0  0  0  0  0  0  0  0  0
  151.9986  137.9259  155.0408 H   0  0  0  0  0  0  0  0  0  0  0  0
  153.3159  138.8742  155.7278 H   0  0  0  0  0  0  0  0  0  0  0  0
  152.6749  139.2910  154.1407 H   0  0  0  0  0  0  0  0  0  0  0  0
  150.9865  140.1914  157.7763 H   0  0  0  0  0  0  0  0  0  0  0  0
  151.7171  141.5551  156.9115 H   0  0  0  0  0  0  0  0  0  0  0  0
  152.7053  140.1788  157.3932 H   0  0  0  0  0  0  0  0  0  0  0  0
  150.0084  142.1746  155.6225 H   0  0  0  0  0  0  0  0  0  0  0  0
  147.8413  142.4518  154.4565 H   0  0  0  0  0  0  0  0  0  0  0  0
  146.8127  140.4986  153.2971 H   0  0  0  0  0  0  0  0  0  0  0  0
  148.3774  137.4159  152.7076 H   0  0  0  0  0  0  0  0  0  0  0  0
  146.9889  136.2142  152.0108 H   0  0  0  0  0  0  0  0  0  0  0  0
  144.0952  136.9787  152.0553 H   0  0  0  0  0  0  0  0  0  0  0  0
  143.4747  134.6887  152.6642 H   0  0  0  0  0  0  0  0  0  0  0  0
  145.6188  133.3860  153.5729 H   0  0  0  0  0  0  0  0  0  0  0  0
  145.2269  131.4795  151.9891 H   0  0  0  0  0  0  0  0  0  0  0  0
  143.6784  132.3224  151.9942 H   0  0  0  0  0  0  0  0  0  0  0  0
  145.5877  132.0737  149.7731 H   0  0  0  0  0  0  0  0  0  0  0  0
  144.0487  132.9318  149.7209 H   0  0  0  0  0  0  0  0  0  0  0  0
  146.2798  134.4728  149.5199 H   0  0  0  0  0  0  0  0  0  0  0  0
  147.2845  134.6143  151.9490 H   0  0  0  0  0  0  0  0  0  0  0  0
  147.2206  132.9291  151.4856 H   0  0  0  0  0  0  0  0  0  0  0  0
  143.8656  135.3331  150.2651 H   0  0  0  0  0  0  0  0  0  0  0  0
  1  2  1  0  0  0  0
  1 22  1  0  0  0  0
  1 23  1  0  0  0  0
  1 24  1  0  0  0  0
  2  3  1  0  0  0  0
  2  4  1  0  0  0  0
  3 25  1  0  0  0  0
  3 26  1  0  0  0  0
  3 27  1  0  0  0  0
  4 21  1  0  0  0  0
  4  5  2  0  0  0  0
  5  6  1  0  0  0  0
  5 28  1  0  0  0  0
  6  7  2  0  0  0  0
  6 29  1  0  0  0  0
  7  8  1  0  0  0  0
  7 30  1  0  0  0  0
  8  9  1  0  0  0  0
  8 21  2  0  0  0  0
  9 10  1  0  0  0  0
  9 31  1  0  0  0  0
 10 11  2  0  0  0  0
 10 12  1  0  0  0  0
 12 13  1  0  0  0  0
 12 32  1  0  0  0  0
 13 20  1  0  0  0  0
 13 14  1  0  0  0  0
 13 33  1  0  0  0  0
 14 20  1  0  0  0  0
 14 15  1  0  0  0  0
 14 34  1  0  0  0  0
 15 19  1  0  0  0  0
 15 16  1  0  0  0  0
 15 35  1  0  0  0  0
 16 17  1  0  0  0  0
 16 36  1  0  0  0  0
 16 37  1  0  0  0  0
 17 18  1  0  0  0  0
 17 38  1  0  0  0  0
 17 39  1  0  0  0  0
 18 19  1  0  0  0  0
 18 20  1  0  0  0  0
 18 40  1  0  0  0  0
 19 41  1  0  0  0  0
 19 42  1  0  0  0  0
 20 43  1  0  0  0  0
M  END
> <s_m_source_file>
AV-unprocessed.smi

> <i_m_source_file_index>
2706

> <i_lp_mmshare_version>
43012

> <i_f3d_flags>
0

> <s_epik_input>
W0NIM11OKFtDSDNdKWMxW2NIXVtjSF1bY0hdYyhuMSlbTkhdQyg9TylbTkhdW0NASF0yW0NAQEhdM1tDQEBIXShbQ0gyXTQpW0NIMl1bQ0gyXVtDQEBIXTRbQ0BIXTIz

> <s_epik_cmdline>
J2VwaWtfcHl0aG9uJywgJy1waCcsICc3LjAnLCAnLXRuJywgJzgnLCAnLW1hJywgJzIwMCcsICctbWV0YWxfYmluZGluZycsICctaW1hZScsICc8aW5maWxlLm1hZT4nLCAnLW9tYWUnLCAnPG91dGZpbGUubWFlPic=

> <r_lp_tautomer_probability>
1

> <r_epik_Ionization_Penalty>
0.0296788

> <r_epik_Ionization_Penalty_Charging>
0

> <r_epik_Ionization_Penalty_Neutral>
0.0296788

> <r_epik_State_Penalty>
0.0248512

> <r_epik_Charging_Adjusted_Penalty>
0.0248512

> <i_epik_Tot_Q>
0

> <i_epik_Tot_abs_Q>
0

> <r_epik_Metal_State_Penalty>
0.0237882

> <b_epik_Metal_Only>
0

> <s_lp_Force_Field>
OPLS_2005

> <r_lp_Energy>
83.6561

> <b_lp_Chiralities_Consistent>
1

> <s_lp_Variant>
AV-unprocessed.smi:2706-3

> <Gold.Version>
5.8.1

> <Gold.Id.Protein>
6NUR|6NUR_protein|mol2

> <Gold.PLP.Fitness>
40.8016

> <Gold.PLP.PLP>
-36.9742

> <Gold.PLP.part.hbond>
-2.0291

> <Gold.PLP.part.metal>
0.0000

> <Gold.PLP.part.buried>
-1.5676

> <Gold.PLP.part.nonpolar>
-34.4981

> <Gold.PLP.part.repulsive>
2.0926

> <Gold.PLP.ligand.clash>
0.0000

> <Gold.PLP.ligand.torsion>
0.9317

> <Gold.PLP.Chemscore.Hbond>
1.8800

> <Gold.PLP.Chemscore.CHOScore>
0.0000

> <Gold.PLP.Chemscore.Metal>
0.0000

> <Gold.Chemscore.Hbonds>
donor molecule, donor type, donor heavy atom, donor atom, acceptor molecule, acceptor atom, score
      L1  H     9    31       P1  7948  1.00
      L1  H    12    32       P1  7948  0.88

> <Gold.PLP.Chemscore.Internal.Correction>
0.0508

> <Gold.Rescore>
     Score         DG    S(hbond)    S(metal)    S(lipo)     H(rot)  DE(clash)    DE(int)     intcor
     15.86     -18.10       1.91        0.00      75.14       1.00       0.03       2.22       ----

> <Gold.Chemscore.Fitness>
15.8557

> <Gold.Chemscore.DG>
-18.0992

> <Gold.Chemscore.ZeroCoef>
-5.4800

> <Gold.Chemscore.Hbond>
1.9126

> <Gold.Chemscore.Metal>
0.0000

> <Gold.Chemscore.Lipo>
75.1393

> <Gold.Chemscore.Internal_Hbond>
0.0000

> <Gold.Chemscore.DEClash>
0.0265

> <Gold.Chemscore.DEInternal>
2.2170

> <Gold.Chemscore.Rot>
1.0000

> <Gold.Chemscore.Internal.Correction>
   9.000000E+99

> <Gold.Chemscore.Hbonds>
donor molecule, donor type, donor heavy atom, donor atom, acceptor molecule, acceptor atom, score
      L1  H     9    31       P1  7948  0.95
      L1  H    12    32       P1  7948  0.86

> <Gold.Chemscore.Hbond.Weighted>
-6.3879

> <Gold.Chemscore.Metal.Weighted>
-0.0000

> <Gold.Chemscore.Lipo.Weighted>
-8.7913

> <Gold.Chemscore.Internal_Hbond.Weighted>
0.0000

> <Gold.Chemscore.DEClash.Weighted>
0.0265

> <Gold.Chemscore.DEInternal.Weighted>
2.2170

> <Gold.Chemscore.Rot.Weighted>
2.5600

> <Gold.Chemscore.Internal.Correction.Weighted>
   9.000000E+99

> <Gold.Protein.RotatedTorsions>
[ 6907 6896 6895 6894 ] final -174.80 input  -60.11 | X-H torsion
[ 7974 7965 7964 7962 ] final   23.30 input  175.53 | X-H torsion
[ 8008 7997 7996 7995 ] final  147.19 input   59.86 | X-H torsion
[ 10167 10162 10161 10158 ] final   93.04 input  -65.29 | X-H torsion
[ 10718 10713 10712 10709 ] final -102.04 input   66.30 | X-H torsion
[ 10763 10752 10751 10750 ] final   11.86 input  -60.55 | X-H torsion
[ 11005 11000 10999 10996 ] final  172.23 input  -57.11 | X-H torsion

> <Gold.Protein.ActiveResidues>
 VAL166  LYS551  ARG553  GLY616  TRP617  ASP618  TYR619  PRO620  LYS621  CYS622 
 ASP623  PHE694  ASN695  SER759  ASP760  ASP761  ALA762  ILE779  LEU786  VAL792 
 PHE793  MET794  SER795  GLU796  ALA797  LYS798  CYS799  TRP800  GLU811  SER814 

> <Gold.Protein.RotatedAtoms>
  151.5783  133.3381  159.3002 H   0  0  0  0  0  0  0  0  0  0  0  0  # atno 6907 bound_to 6896
  150.8328  134.7592  159.6879 H   0  0  0  0  0  0  0  0  0  0  0  0  # atno 6908 bound_to 6896
  152.4409  134.5599  159.9943 H   0  0  0  0  0  0  0  0  0  0  0  0  # atno 6909 bound_to 6896
  146.1990  139.7764  142.8775 H   0  0  0  0  0  0  0  0  0  0  0  0  # atno 7974 bound_to 7965
  156.2832  140.2162  156.5498 H   0  0  0  0  0  0  0  0  0  0  0  0  # atno 8008 bound_to 7997
  154.7301  140.0496  157.0741 H   0  0  0  0  0  0  0  0  0  0  0  0  # atno 8009 bound_to 7997
  155.0365  140.3141  155.4743 H   0  0  0  0  0  0  0  0  0  0  0  0  # atno 8010 bound_to 7997
  139.8218  144.6727  150.9509 H   0  0  0  0  0  0  0  0  0  0  0  0  # atno 10167 bound_to 10162
  156.0215  130.5401  150.7051 H   0  0  0  0  0  0  0  0  0  0  0  0  # atno 10718 bound_to 10713
  153.1882  135.6838  153.8387 H   0  0  0  0  0  0  0  0  0  0  0  0  # atno 10763 bound_to 10752
  153.7695  135.3198  155.3351 H   0  0  0  0  0  0  0  0  0  0  0  0  # atno 10764 bound_to 10752
  154.8101  135.4722  154.0593 H   0  0  0  0  0  0  0  0  0  0  0  0  # atno 10765 bound_to 10752
  140.3275  134.7385  157.4110 H   0  0  0  0  0  0  0  0  0  0  0  0  # atno 11005 bound_to 11000
  145.3546  141.0314  143.3319 LP  0  0  0  0  0  0  0  0  0  0  0  0  # atno 17320 bound_to 7965
  144.8643  139.5131  143.6798 LP  0  0  0  0  0  0  0  0  0  0  0  0  # atno 17321 bound_to 7965
  140.7813  143.4084  151.1033 LP  0  0  0  0  0  0  0  0  0  0  0  0  # atno 17342 bound_to 10162
  139.7744  143.8447  152.3126 LP  0  0  0  0  0  0  0  0  0  0  0  0  # atno 17343 bound_to 10162
  157.4702  131.0892  151.0651 LP  0  0  0  0  0  0  0  0  0  0  0  0  # atno 17370 bound_to 10713
  157.1113  130.6023  149.5482 LP  0  0  0  0  0  0  0  0  0  0  0  0  # atno 17371 bound_to 10713
  140.0889  134.5629  155.8464 LP  0  0  0  0  0  0  0  0  0  0  0  0  # atno 17394 bound_to 11000
  141.2071  133.6661  156.6287 LP  0  0  0  0  0  0  0  0  0  0  0  0  # atno 17395 bound_to 11000

$$$$
