AV-unprocessed.smi:644|AV-procd|sdf|3158|dock6
  -GOLD-   22720 0 83D 1   1.00000     0.00000
 Structure written by MMmdl.
 38 40  0  0  0  0  0  0  0  0  2 V2000
  152.3875  144.1096  159.9283 C   0  0  0  0  0  0  0  0  0  0  0  0
  152.0823  142.9887  158.9492 C   0  0  0  0  0  0  0  0  0  0  0  0
  151.1490  143.2310  157.9157 C   0  0  0  0  0  0  0  0  0  0  0  0
  150.8896  142.1856  157.0372 C   0  0  0  0  0  0  0  0  0  0  0  0
  150.0353  142.1052  155.9350 N   0  3  0  0  0  0  0  0  0  0  0  0
  150.1205  140.8625  155.3837 C   0  0  0  0  0  0  0  0  0  0  0  0
  151.0175  140.1499  156.1178 N   0  0  0  0  0  0  0  0  0  0  0  0
  151.4751  138.7629  155.9643 C   0  0  0  0  0  0  0  0  0  0  0  0
  150.6794  137.9882  154.8962 C   0  0  1  0  0  0  0  0  0  0  0  0
  151.5345  137.0615  154.2541 O   0  0  0  0  0  0  0  0  0  0  0  0
  149.4805  137.2414  155.5012 C   0  0  0  0  0  0  0  0  0  0  0  0
  150.0002  135.7806  156.4535 S   0  0  0  0  0  0  0  0  0  0  0  0
  149.2578  136.1436  158.0124 C   0  0  0  0  0  0  0  0  0  0  0  0
  149.2849  135.3427  159.0876 N   0  0  0  0  0  0  0  0  0  0  0  0
  148.6159  135.8924  160.1731 N   0  0  0  0  0  0  0  0  0  0  0  0
  148.1071  137.0908  159.8772 C   0  0  0  0  0  0  0  0  0  0  0  0
  148.3972  137.6610  158.2444 S   0  0  0  0  0  0  0  0  0  0  0  0
  151.5232  140.9340  157.1592 C   0  0  0  0  0  0  0  0  0  0  0  0
  152.4455  140.6780  158.1704 C   0  0  0  0  0  0  0  0  0  0  0  0
  152.7223  141.7282  159.0748 C   0  0  0  0  0  0  0  0  0  0  0  0
  153.7234  141.4782  160.1900 C   0  0  0  0  0  0  0  0  0  0  0  0
  151.8135  145.0077  159.6985 H   0  0  0  0  0  0  0  0  0  0  0  0
  153.4451  144.3722  159.8925 H   0  0  0  0  0  0  0  0  0  0  0  0
  152.1392  143.8076  160.9460 H   0  0  0  0  0  0  0  0  0  0  0  0
  150.6573  144.1876  157.8146 H   0  0  0  0  0  0  0  0  0  0  0  0
  149.5722  140.5048  154.5241 H   0  0  0  0  0  0  0  0  0  0  0  0
  152.5334  138.7937  155.7011 H   0  0  0  0  0  0  0  0  0  0  0  0
  151.4115  138.2702  156.9353 H   0  0  0  0  0  0  0  0  0  0  0  0
  150.3158  138.6872  154.1422 H   0  0  0  0  0  0  0  0  0  0  0  0
  151.1716  136.8591  153.4048 H   0  0  0  0  0  0  0  0  0  0  0  0
  148.9028  137.9087  156.1423 H   0  0  0  0  0  0  0  0  0  0  0  0
  148.8180  136.9090  154.7012 H   0  0  0  0  0  0  0  0  0  0  0  0
  147.5573  137.6425  160.6253 H   0  0  0  0  0  0  0  0  0  0  0  0
  152.9306  139.7178  158.2654 H   0  0  0  0  0  0  0  0  0  0  0  0
  154.1150  140.4613  160.1544 H   0  0  0  0  0  0  0  0  0  0  0  0
  153.2553  141.6201  161.1643 H   0  0  0  0  0  0  0  0  0  0  0  0
  154.5676  142.1633  160.1075 H   0  0  0  0  0  0  0  0  0  0  0  0
  149.4352  142.8406  155.5842 H   0  0  0  0  0  0  0  0  0  0  0  0
  1  2  1  0  0  0  0
  1 22  1  0  0  0  0
  1 23  1  0  0  0  0
  1 24  1  0  0  0  0
  2 20  1  0  0  0  0
  2  3  2  0  0  0  0
  3  4  1  0  0  0  0
  3 25  1  0  0  0  0
  4 18  2  0  0  0  0
  4  5  1  0  0  0  0
  5  6  2  0  0  0  0
  5 38  1  0  0  0  0
  6  7  1  0  0  0  0
  6 26  1  0  0  0  0
  7  8  1  0  0  0  0
  7 18  1  0  0  0  0
  8  9  1  0  0  0  0
  8 27  1  0  0  0  0
  8 28  1  0  0  0  0
  9 10  1  0  0  0  0
  9 11  1  0  0  0  0
  9 29  1  0  0  0  0
 10 30  1  0  0  0  0
 11 12  1  0  0  0  0
 11 31  1  0  0  0  0
 11 32  1  0  0  0  0
 12 13  1  0  0  0  0
 13 17  1  0  0  0  0
 13 14  2  0  0  0  0
 14 15  1  0  0  0  0
 15 16  2  0  0  0  0
 16 17  1  0  0  0  0
 16 33  1  0  0  0  0
 18 19  1  0  0  0  0
 19 20  2  0  0  0  0
 19 34  1  0  0  0  0
 20 21  1  0  0  0  0
 21 35  1  0  0  0  0
 21 36  1  0  0  0  0
 21 37  1  0  0  0  0
M  CHG  1   5   1
M  END
> <s_m_source_file>
AV-unprocessed.smi

> <i_m_source_file_index>
644

> <i_lp_mmshare_version>
43012

> <i_f3d_flags>
0

> <s_epik_input>
W0NIM11jKFtjSF0xKWMoW0NIM10pW2NIXWMoYzEyKW4oW2NIXW4yKVtDSDJdW0NASF0oW09IXSlbQ0gyXVNjM25uW2NIXXMz

> <s_epik_cmdline>
J2VwaWtfcHl0aG9uJywgJy1waCcsICc3LjAnLCAnLXRuJywgJzgnLCAnLW1hJywgJzIwMCcsICctbWV0YWxfYmluZGluZycsICctaW1hZScsICc8aW5maWxlLm1hZT4nLCAnLW9tYWUnLCAnPG91dGZpbGUubWFlPic=

> <r_lp_tautomer_probability>
1

> <r_epik_Ionization_Penalty>
1.07492

> <r_epik_Ionization_Penalty_Charging>
1.07491

> <r_epik_Ionization_Penalty_Neutral>
3.80549e-06

> <r_epik_State_Penalty>
1.12982

> <r_epik_Charging_Adjusted_Penalty>
2.20473

> <i_epik_Tot_Q>
1

> <i_epik_Tot_abs_Q>
1

> <r_epik_Metal_State_Penalty>
1.2206

> <b_epik_Metal_Only>
0

> <s_lp_Force_Field>
OPLS_2005

> <r_lp_Energy>
12.6095

> <b_lp_Chiralities_Consistent>
1

> <s_lp_Variant>
AV-unprocessed.smi:644-4

> <Gold.Version>
5.8.1

> <Gold.Id.Protein>
6NUR|6NUR_protein|mol2

> <Gold.PLP.Fitness>
54.9865

> <Gold.PLP.PLP>
-41.8720

> <Gold.PLP.part.hbond>
-4.7856

> <Gold.PLP.part.metal>
0.0000

> <Gold.PLP.part.buried>
-5.2426

> <Gold.PLP.part.nonpolar>
-32.2047

> <Gold.PLP.part.repulsive>
0.1324

> <Gold.PLP.ligand.clash>
0.0000

> <Gold.PLP.ligand.torsion>
0.9473

> <Gold.PLP.Chemscore.Hbond>
4.9833

> <Gold.PLP.Chemscore.CHOScore>
0.0000

> <Gold.PLP.Chemscore.Metal>
0.0000

> <Gold.Chemscore.Hbonds>
donor molecule, donor type, donor heavy atom, donor atom, acceptor molecule, acceptor atom, score
      L1  H     5    38       P1  8028  1.95
      L1  H    10    30       P1  7949  0.81
      P1  H  6896  6908       L1    14  0.86
      P1  H 10752 10765       L1    10  0.85

> <Gold.PLP.Chemscore.Internal.Correction>
0.0594

> <Gold.Rescore>
     Score         DG    S(hbond)    S(metal)    S(lipo)     H(rot)  DE(clash)    DE(int)     intcor
     18.44     -19.58       2.58        0.00     102.29       2.53       0.28       0.86       ----

> <Gold.Chemscore.Fitness>
18.4355

> <Gold.Chemscore.DG>
-19.5799

> <Gold.Chemscore.ZeroCoef>
-5.4800

> <Gold.Chemscore.Hbond>
2.5787

> <Gold.Chemscore.Metal>
0.0000

> <Gold.Chemscore.Lipo>
102.2872

> <Gold.Chemscore.Internal_Hbond>
0.0000

> <Gold.Chemscore.DEClash>
0.2795

> <Gold.Chemscore.DEInternal>
0.8649

> <Gold.Chemscore.Rot>
2.5315

> <Gold.Chemscore.Internal.Correction>
   9.000000E+99

> <Gold.Chemscore.Hbonds>
donor molecule, donor type, donor heavy atom, donor atom, acceptor molecule, acceptor atom, score
      L1  H     5    38       P1  8028  0.92
      L1  H    10    30       P1  7949  0.39
      P1  H  6896  6908       L1    14  0.80
      P1  H 10752 10765       L1    10  0.14

> <Gold.Chemscore.Hbond.Weighted>
-8.6128

> <Gold.Chemscore.Metal.Weighted>
-0.0000

> <Gold.Chemscore.Lipo.Weighted>
-11.9676

> <Gold.Chemscore.Internal_Hbond.Weighted>
0.0000

> <Gold.Chemscore.DEClash.Weighted>
0.2795

> <Gold.Chemscore.DEInternal.Weighted>
0.8649

> <Gold.Chemscore.Rot.Weighted>
6.4805

> <Gold.Chemscore.Internal.Correction.Weighted>
   9.000000E+99

> <Gold.Protein.RotatedTorsions>
[ 6907 6896 6895 6894 ] final  146.37 input  -60.11 | X-H torsion
[ 7974 7965 7964 7962 ] final  111.03 input  175.53 | X-H torsion
[ 8008 7997 7996 7995 ] final   97.45 input   59.86 | X-H torsion
[ 10167 10162 10161 10158 ] final   82.93 input  -65.29 | X-H torsion
[ 10718 10713 10712 10709 ] final  115.82 input   66.30 | X-H torsion
[ 10763 10752 10751 10750 ] final  160.21 input  -60.55 | X-H torsion
[ 11005 11000 10999 10996 ] final  114.05 input  -57.11 | X-H torsion

> <Gold.Protein.ActiveResidues>
 VAL166  LYS551  ARG553  GLY616  TRP617  ASP618  TYR619  PRO620  LYS621  CYS622 
 ASP623  PHE694  ASN695  SER759  ASP760  ASP761  ALA762  ILE779  LEU786  VAL792 
 PHE793  MET794  SER795  GLU796  ALA797  LYS798  CYS799  TRP800  GLU811  SER814 

> <Gold.Protein.RotatedAtoms>
  152.1688  133.4629  159.4898 H   0  0  0  0  0  0  0  0  0  0  0  0  # atno 6907 bound_to 6896
  150.6917  134.1979  159.4320 H   0  0  0  0  0  0  0  0  0  0  0  0  # atno 6908 bound_to 6896
  151.9885  134.9991  160.0611 H   0  0  0  0  0  0  0  0  0  0  0  0  # atno 6909 bound_to 6896
  145.2474  139.2753  143.4085 H   0  0  0  0  0  0  0  0  0  0  0  0  # atno 7974 bound_to 7965
  156.0903  140.3258  155.7807 H   0  0  0  0  0  0  0  0  0  0  0  0  # atno 8008 bound_to 7997
  155.5008  140.0569  157.2956 H   0  0  0  0  0  0  0  0  0  0  0  0  # atno 8009 bound_to 7997
  154.4633  140.1977  156.0200 H   0  0  0  0  0  0  0  0  0  0  0  0  # atno 8010 bound_to 7997
  139.9236  144.6197  150.8415 H   0  0  0  0  0  0  0  0  0  0  0  0  # atno 10167 bound_to 10162
  157.6199  131.1017  150.7384 H   0  0  0  0  0  0  0  0  0  0  0  0  # atno 10718 bound_to 10713
  154.2439  135.2774  155.2843 H   0  0  0  0  0  0  0  0  0  0  0  0  # atno 10763 bound_to 10752
  154.5522  135.5672  153.6935 H   0  0  0  0  0  0  0  0  0  0  0  0  # atno 10764 bound_to 10752
  152.9994  135.6277  154.2584 H   0  0  0  0  0  0  0  0  0  0  0  0  # atno 10765 bound_to 10752
  139.8969  134.9561  156.6832 H   0  0  0  0  0  0  0  0  0  0  0  0  # atno 11005 bound_to 11000
  146.3312  140.2855  142.8612 LP  0  0  0  0  0  0  0  0  0  0  0  0  # atno 17320 bound_to 7965
  144.9534  140.8201  143.5558 LP  0  0  0  0  0  0  0  0  0  0  0  0  # atno 17321 bound_to 7965
  140.7656  143.3279  151.2474 LP  0  0  0  0  0  0  0  0  0  0  0  0  # atno 17342 bound_to 10162
  139.6841  143.9804  152.2824 LP  0  0  0  0  0  0  0  0  0  0  0  0  # atno 17343 bound_to 10162
  156.7744  130.4839  149.5412 LP  0  0  0  0  0  0  0  0  0  0  0  0  # atno 17370 bound_to 10713
  156.1339  130.6197  151.0372 LP  0  0  0  0  0  0  0  0  0  0  0  0  # atno 17371 bound_to 10713
  140.7283  133.9081  155.8193 LP  0  0  0  0  0  0  0  0  0  0  0  0  # atno 17394 bound_to 11000
  141.0174  134.0937  157.4158 LP  0  0  0  0  0  0  0  0  0  0  0  0  # atno 17395 bound_to 11000

$$$$
