AV-unprocessed.smi:1784|AV-procd|sdf|7198|dock2
  -GOLD-   22720 8443D 1   1.00000     0.00000
 Structure written by MMmdl.
 44 46  0  0  0  0  0  0  0  0  2 V2000
  150.9198  141.0751  156.2344 O   0  0  0  0  0  0  0  0  0  0  0  0
  150.3358  142.1417  156.0429 C   0  0  0  0  0  0  0  0  0  0  0  0
  150.7501  143.3172  156.5358 N   0  0  0  0  0  0  0  0  0  0  0  0
  151.9120  143.4997  157.3986 C   0  0  0  0  0  0  0  0  0  0  0  0
  151.7370  142.7582  158.7342 C   0  0  2  0  0  0  0  0  0  0  0  0
  152.6500  143.2742  159.8457 C   0  0  0  0  0  0  0  0  0  0  0  0
  152.7502  142.0644  160.7460 C   0  0  0  0  0  0  0  0  0  0  0  0
  152.8117  140.9294  159.7291 C   0  0  0  0  0  0  0  0  0  0  0  0
  152.0641  141.3760  158.6014 O   0  0  0  0  0  0  0  0  0  0  0  0
  149.1987  142.2815  155.3415 N   0  0  0  0  0  0  0  0  0  0  0  0
  148.4284  141.2586  154.7205 C   0  0  0  0  0  0  0  0  0  0  0  0
  149.0058  140.0040  154.3967 C   0  0  0  0  0  0  0  0  0  0  0  0
  148.2189  139.0004  153.8016 C   0  0  0  0  0  0  0  0  0  0  0  0
  146.8656  139.2673  153.5343 C   0  0  0  0  0  0  0  0  0  0  0  0
  146.3506  140.4772  153.8358 N   0  3  0  0  0  0  0  0  0  0  0  0
  147.0595  141.4893  154.3961 C   0  0  0  0  0  0  0  0  0  0  0  0
  146.3838  142.7059  154.6456 N   0  0  0  0  0  0  0  0  0  0  0  0
  145.4468  142.8168  155.7574 C   0  0  0  0  0  0  0  0  0  0  0  0
  144.6890  144.1177  155.5074 C   0  0  0  0  0  0  0  0  0  0  0  0
  144.5946  144.1556  153.9850 C   0  0  0  0  0  0  0  0  0  0  0  0
  145.9025  143.5039  153.5225 C   0  0  0  0  0  0  0  0  0  0  0  0
  150.2081  144.1425  156.3264 H   0  0  0  0  0  0  0  0  0  0  0  0
  152.8273  143.1807  156.8966 H   0  0  0  0  0  0  0  0  0  0  0  0
  152.0207  144.5681  157.5858 H   0  0  0  0  0  0  0  0  0  0  0  0
  150.7004  142.8242  159.0690 H   0  0  0  0  0  0  0  0  0  0  0  0
  153.6357  143.5255  159.4511 H   0  0  0  0  0  0  0  0  0  0  0  0
  152.2497  144.1532  160.3517 H   0  0  0  0  0  0  0  0  0  0  0  0
  153.6150  142.0907  161.4093 H   0  0  0  0  0  0  0  0  0  0  0  0
  151.8507  141.9760  161.3569 H   0  0  0  0  0  0  0  0  0  0  0  0
  153.8411  140.7565  159.4131 H   0  0  0  0  0  0  0  0  0  0  0  0
  152.4169  139.9934  160.1247 H   0  0  0  0  0  0  0  0  0  0  0  0
  148.7787  143.1991  155.3555 H   0  0  0  0  0  0  0  0  0  0  0  0
  150.0472  139.7975  154.5933 H   0  0  0  0  0  0  0  0  0  0  0  0
  148.6482  138.0399  153.5561 H   0  0  0  0  0  0  0  0  0  0  0  0
  146.1852  138.5588  153.0844 H   0  0  0  0  0  0  0  0  0  0  0  0
  144.7484  141.9789  155.7514 H   0  0  0  0  0  0  0  0  0  0  0  0
  145.9649  142.8279  156.7169 H   0  0  0  0  0  0  0  0  0  0  0  0
  143.7155  144.1438  155.9980 H   0  0  0  0  0  0  0  0  0  0  0  0
  145.2740  144.9662  155.8657 H   0  0  0  0  0  0  0  0  0  0  0  0
  143.7470  143.5524  153.6564 H   0  0  0  0  0  0  0  0  0  0  0  0
  144.4612  145.1637  153.5911 H   0  0  0  0  0  0  0  0  0  0  0  0
  146.6413  144.2734  153.2964 H   0  0  0  0  0  0  0  0  0  0  0  0
  145.7499  142.9023  152.6254 H   0  0  0  0  0  0  0  0  0  0  0  0
  145.3671  140.6429  153.6216 H   0  0  0  0  0  0  0  0  0  0  0  0
  1  2  2  0  0  0  0
  2  3  1  0  0  0  0
  2 10  1  0  0  0  0
  3  4  1  0  0  0  0
  3 22  1  0  0  0  0
  4  5  1  0  0  0  0
  4 23  1  0  0  0  0
  4 24  1  0  0  0  0
  5  9  1  0  0  0  0
  5  6  1  0  0  0  0
  5 25  1  0  0  0  0
  6  7  1  0  0  0  0
  6 26  1  0  0  0  0
  6 27  1  0  0  0  0
  7  8  1  0  0  0  0
  7 28  1  0  0  0  0
  7 29  1  0  0  0  0
  8  9  1  0  0  0  0
  8 30  1  0  0  0  0
  8 31  1  0  0  0  0
 10 11  1  0  0  0  0
 10 32  1  0  0  0  0
 11 16  1  0  0  0  0
 11 12  2  0  0  0  0
 12 13  1  0  0  0  0
 12 33  1  0  0  0  0
 13 14  2  0  0  0  0
 13 34  1  0  0  0  0
 14 15  1  0  0  0  0
 14 35  1  0  0  0  0
 15 16  2  0  0  0  0
 15 44  1  0  0  0  0
 16 17  1  0  0  0  0
 17 21  1  0  0  0  0
 17 18  1  0  0  0  0
 18 19  1  0  0  0  0
 18 36  1  0  0  0  0
 18 37  1  0  0  0  0
 19 20  1  0  0  0  0
 19 38  1  0  0  0  0
 19 39  1  0  0  0  0
 20 21  1  0  0  0  0
 20 40  1  0  0  0  0
 20 41  1  0  0  0  0
 21 42  1  0  0  0  0
 21 43  1  0  0  0  0
M  CHG  1  15   1
M  END
> <s_m_source_file>
AV-unprocessed.smi

> <i_m_source_file_index>
1784

> <i_lp_mmshare_version>
43012

> <i_f3d_flags>
0

> <s_epik_input>
TzFbQ0gyXVtDSDJdW0NIMl1bQ0BIXTFbQ0gyXVtOSF1DKD1PKVtOSF1jMltjSF1bY0hdW2NIXW5jMk4zW0NIMl1bQ0gyXVtDSDJdW0NIMl0z

> <s_epik_cmdline>
J2VwaWtfcHl0aG9uJywgJy1waCcsICc3LjAnLCAnLXRuJywgJzgnLCAnLW1hJywgJzIwMCcsICctbWV0YWxfYmluZGluZycsICctaW1hZScsICc8aW5maWxlLm1hZT4nLCAnLW9tYWUnLCAnPG91dGZpbGUubWFlPic=

> <r_lp_tautomer_probability>
0.999994

> <r_epik_Ionization_Penalty>
1.11624

> <r_epik_Ionization_Penalty_Charging>
1.11622

> <r_epik_Ionization_Penalty_Neutral>
1.90191e-05

> <r_epik_State_Penalty>
1.17466

> <r_epik_Charging_Adjusted_Penalty>
2.29088

> <i_epik_Tot_Q>
1

> <i_epik_Tot_abs_Q>
1

> <r_epik_Metal_State_Penalty>
1.25978

> <b_epik_Metal_Only>
0

> <s_lp_Force_Field>
OPLS_2005

> <r_lp_Energy>
50.7996

> <b_lp_Chiralities_Consistent>
1

> <s_lp_Variant>
AV-unprocessed.smi:1784-3

> <Gold.Version>
5.8.1

> <Gold.Id.Protein>
6NUR|6NUR_protein|mol2

> <Gold.PLP.Fitness>
50.9794

> <Gold.PLP.PLP>
-39.7616

> <Gold.PLP.part.hbond>
-2.6728

> <Gold.PLP.part.metal>
0.0000

> <Gold.PLP.part.buried>
-5.1831

> <Gold.PLP.part.nonpolar>
-32.4563

> <Gold.PLP.part.repulsive>
0.4924

> <Gold.PLP.ligand.clash>
0.0000

> <Gold.PLP.ligand.torsion>
0.5270

> <Gold.PLP.Chemscore.Hbond>
3.9425

> <Gold.PLP.Chemscore.CHOScore>
0.0000

> <Gold.PLP.Chemscore.Metal>
0.0000

> <Gold.Chemscore.Hbonds>
donor molecule, donor type, donor heavy atom, donor atom, acceptor molecule, acceptor atom, score
      L1  H     3    22       P1  8028  0.96
      L1  H    10    32       P1  8028  1.00
      L1  H    15    44       P1 10175  1.95

> <Gold.PLP.Chemscore.Internal.Correction>
0.4444

> <Gold.Rescore>
     Score         DG    S(hbond)    S(metal)    S(lipo)     H(rot)  DE(clash)    DE(int)     intcor
     18.67     -22.90       2.82        0.00      99.12       1.40       0.85       3.38       ----

> <Gold.Chemscore.Fitness>
18.6652

> <Gold.Chemscore.DG>
-22.8963

> <Gold.Chemscore.ZeroCoef>
-5.4800

> <Gold.Chemscore.Hbond>
2.8173

> <Gold.Chemscore.Metal>
0.0000

> <Gold.Chemscore.Lipo>
99.1152

> <Gold.Chemscore.Internal_Hbond>
0.0000

> <Gold.Chemscore.DEClash>
0.8510

> <Gold.Chemscore.DEInternal>
3.3801

> <Gold.Chemscore.Rot>
1.4023

> <Gold.Chemscore.Internal.Correction>
   9.000000E+99

> <Gold.Chemscore.Hbonds>
donor molecule, donor type, donor heavy atom, donor atom, acceptor molecule, acceptor atom, score
      L1  H     3    22       P1  8028  0.89
      L1  H    10    32       P1  8028  0.90
      L1  H    15    44       P1 10175  0.87

> <Gold.Chemscore.Hbond.Weighted>
-9.4097

> <Gold.Chemscore.Metal.Weighted>
-0.0000

> <Gold.Chemscore.Lipo.Weighted>
-11.5965

> <Gold.Chemscore.Internal_Hbond.Weighted>
0.0000

> <Gold.Chemscore.DEClash.Weighted>
0.8510

> <Gold.Chemscore.DEInternal.Weighted>
3.3801

> <Gold.Chemscore.Rot.Weighted>
3.5898

> <Gold.Chemscore.Internal.Correction.Weighted>
   9.000000E+99

> <Gold.Protein.RotatedTorsions>
[ 6907 6896 6895 6894 ] final  102.03 input  -60.11 | X-H torsion
[ 7974 7965 7964 7962 ] final  -17.59 input  175.53 | X-H torsion
[ 8008 7997 7996 7995 ] final  127.61 input   59.86 | X-H torsion
[ 10167 10162 10161 10158 ] final  -30.73 input  -65.29 | X-H torsion
[ 10718 10713 10712 10709 ] final  162.57 input   66.30 | X-H torsion
[ 10763 10752 10751 10750 ] final  166.62 input  -60.55 | X-H torsion
[ 11005 11000 10999 10996 ] final   -1.24 input  -57.11 | X-H torsion

> <Gold.Protein.ActiveResidues>
 VAL166  LYS551  ARG553  GLY616  TRP617  ASP618  TYR619  PRO620  LYS621  CYS622 
 ASP623  PHE694  ASN695  SER759  ASP760  ASP761  ALA762  ILE779  LEU786  VAL792 
 PHE793  MET794  SER795  GLU796  ALA797  LYS798  CYS799  TRP800  GLU811  SER814 

> <Gold.Protein.RotatedAtoms>
  152.5334  134.0037  159.7906 H   0  0  0  0  0  0  0  0  0  0  0  0  # atno 6907 bound_to 6896
  151.0252  133.5833  159.2674 H   0  0  0  0  0  0  0  0  0  0  0  0  # atno 6908 bound_to 6896
  151.2858  135.0734  159.9239 H   0  0  0  0  0  0  0  0  0  0  0  0  # atno 6909 bound_to 6896
  146.1933  140.3801  142.8450 H   0  0  0  0  0  0  0  0  0  0  0  0  # atno 7974 bound_to 7965
  156.2895  140.2665  156.2301 H   0  0  0  0  0  0  0  0  0  0  0  0  # atno 8008 bound_to 7997
  155.0081  140.0387  157.2406 H   0  0  0  0  0  0  0  0  0  0  0  0  # atno 8009 bound_to 7997
  154.7542  140.2748  155.6272 H   0  0  0  0  0  0  0  0  0  0  0  0  # atno 8010 bound_to 7997
  140.7245  143.3826  151.1573 H   0  0  0  0  0  0  0  0  0  0  0  0  # atno 10167 bound_to 10162
  157.1207  131.0491  151.2416 H   0  0  0  0  0  0  0  0  0  0  0  0  # atno 10718 bound_to 10713
  154.3417  135.2754  155.2419 H   0  0  0  0  0  0  0  0  0  0  0  0  # atno 10763 bound_to 10752
  154.4686  135.5889  153.6309 H   0  0  0  0  0  0  0  0  0  0  0  0  # atno 10764 bound_to 10752
  152.9857  135.6082  154.3619 H   0  0  0  0  0  0  0  0  0  0  0  0  # atno 10765 bound_to 10752
  140.6452  133.9454  155.8348 H   0  0  0  0  0  0  0  0  0  0  0  0  # atno 11005 bound_to 11000
  144.8530  140.7030  143.6156 LP  0  0  0  0  0  0  0  0  0  0  0  0  # atno 17320 bound_to 7965
  145.3722  139.1656  143.4325 LP  0  0  0  0  0  0  0  0  0  0  0  0  # atno 17321 bound_to 7965
  139.7417  143.8914  152.3052 LP  0  0  0  0  0  0  0  0  0  0  0  0  # atno 17342 bound_to 10162
  139.8737  144.7054  150.8957 LP  0  0  0  0  0  0  0  0  0  0  0  0  # atno 17343 bound_to 10162
  157.4479  130.7581  149.7125 LP  0  0  0  0  0  0  0  0  0  0  0  0  # atno 17370 bound_to 10713
  155.9829  130.4005  150.3391 LP  0  0  0  0  0  0  0  0  0  0  0  0  # atno 17371 bound_to 10713
  141.0577  134.0391  157.3700 LP  0  0  0  0  0  0  0  0  0  0  0  0  # atno 17394 bound_to 11000
  139.9066  135.0181  156.7510 LP  0  0  0  0  0  0  0  0  0  0  0  0  # atno 17395 bound_to 11000

$$$$
