#       Name:                AV-unprocessed.smi:1381
#       Creating user name   scv26
#       Creation time:       Fri Mar 27 05:21:08 2020


#       File generated by GOLD software.
#

@<TRIPOS>MOLECULE
AV-unprocessed.smi:1381
    50    51     1
SMALL
NO_CHARGES


@<TRIPOS>ATOM
      1 ****        -3.2104   5.0722   4.7215 C.3            1 S1                 0.0000
      2 ****        -2.8504   3.7792   4.0738 C.2            1 S1                 0.0000
      3 ****        -2.8081   3.3717   2.7700 C.2            1 S1                 0.0000
      4 ****        -2.3839   2.0200   2.8709 C.2            1 S1                 0.0000
      5 ****        -2.2135   1.2224   1.7109 N.am           1 S1                 0.0000
      6 ****        -1.8371  -0.0663   1.6509 C.2            1 S1                 0.0000
      7 ****        -1.5788  -0.7766   2.6229 O.2            1 S1                 0.0000
      8 ****        -1.7731  -0.4958   0.3825 N.am           1 S1                 0.0000
      9 ****        -1.3900  -1.8418  -0.0320 C.3            1 S1                 0.0000
     10 ****         0.1320  -2.0742   0.0578 C.3            1 S1                 0.0000
     11 ****         0.8712  -1.8312  -1.1801 N.3            1 S1                 0.0000
     12 ****         2.2476  -2.2959  -1.0653 C.3            1 S1                 0.0000
     13 ****         3.0349  -2.0916  -2.3720 C.3            1 S1                 0.0000
     14 ****         4.5033  -2.5059  -2.2312 C.3            1 S1                 0.0000
     15 ****         2.9955  -0.7129  -2.7356 O.3            1 S1                 0.0000
     16 ****         1.6871  -0.1495  -2.8437 C.3            1 S1                 0.0000
     17 ****         0.9710  -0.6126  -4.1238 C.3            1 S1                 0.0000
     18 ****         0.8771  -0.4202  -1.5596 C.3            1 S1                 0.0000
     19 ****        -2.1826   1.6377   4.1227 N.2            1 S1                 0.0000
     20 ****        -2.4805   2.7632   4.9001 O.3            1 S1                 0.0000
     21 ****        -3.6029   5.7784   3.9897 H              1 S1                 0.0000
     22 ****        -2.3378   5.5240   5.1933 H              1 S1                 0.0000
     23 ****        -3.9710   4.9224   5.4879 H              1 S1                 0.0000
     24 ****        -3.0445   3.9492   1.8888 H              1 S1                 0.0000
     25 ****        -2.3985   1.6826   0.8321 H              1 S1                 0.0000
     26 ****        -2.0028   0.1557  -0.3534 H              1 S1                 0.0000
     27 ****        -1.9050  -2.5602   0.6081 H              1 S1                 0.0000
     28 ****        -1.7529  -2.0283  -1.0432 H              1 S1                 0.0000
     29 ****         0.5664  -1.5034   0.8801 H              1 S1                 0.0000
     30 ****         0.2711  -3.1215   0.3302 H              1 S1                 0.0000
     31 ****         2.7480  -1.7691  -0.2510 H              1 S1                 0.0000
     32 ****         2.2583  -3.3546  -0.8035 H              1 S1                 0.0000
     33 ****         2.5851  -2.6887  -3.1659 H              1 S1                 0.0000
     34 ****         4.5895  -3.5604  -1.9671 H              1 S1                 0.0000
     35 ****         5.0056  -1.9240  -1.4581 H              1 S1                 0.0000
     36 ****         5.0420  -2.3529  -3.1666 H              1 S1                 0.0000
     37 ****         1.8251   0.9285  -2.9302 H              1 S1                 0.0000
     38 ****         0.0276  -0.0821  -4.2538 H              1 S1                 0.0000
     39 ****         0.7443  -1.6784  -4.1049 H              1 S1                 0.0000
     40 ****         1.5839  -0.4167  -5.0037 H              1 S1                 0.0000
     41 ****        -0.1415  -0.0607  -1.7030 H              1 S1                 0.0000
     42 ****         1.3002   0.1703  -0.7453 H              1 S1                 0.0000
     43 ****        -1.6426  -0.4012   3.5475 LP             1 S1                 0.0000
     44 ****        -1.3053  -1.7290   2.4876 LP             1 S1                 0.0000
     45 ****         0.3963  -2.3464  -1.8937 LP             1 S1                 0.0000
     46 ****         3.4493  -0.6134  -3.6212 LP             1 S1                 0.0000
     47 ****         3.4987  -0.1959  -2.0432 LP             1 S1                 0.0000
     48 ****        -1.8827   0.7392   4.4433 LP             1 S1                 0.0000
     49 ****        -3.2295   2.5501   5.5274 LP             1 S1                 0.0000
     50 ****        -1.6730   3.0331   5.4246 LP             1 S1                 0.0000
@<TRIPOS>BOND
    1    1    2 1     
    2    1   21 1     
    3    1   22 1     
    4    1   23 1     
    5    2   20 1     
    6    2    3 2     
    7    3    4 1     
    8    3   24 1     
    9    4    5 1     
   10    4   19 2     
   11    5    6 am    
   12    5   25 1     
   13    6    7 2     
   14    6    8 am    
   15    8    9 1     
   16    8   26 1     
   17    9   10 1     
   18    9   27 1     
   19    9   28 1     
   20   10   11 1     
   21   10   29 1     
   22   10   30 1     
   23   11   18 1     
   24   11   12 1     
   25   12   13 1     
   26   12   31 1     
   27   12   32 1     
   28   13   14 1     
   29   13   15 1     
   30   13   33 1     
   31   14   34 1     
   32   14   35 1     
   33   14   36 1     
   34   15   16 1     
   35   16   17 1     
   36   16   18 1     
   37   16   37 1     
   38   17   38 1     
   39   17   39 1     
   40   17   40 1     
   41   18   41 1     
   42   18   42 1     
   43   19   20 1     
   44    7   43 1     
   45    7   44 1     
   46   11   45 1     
   47   15   46 1     
   48   15   47 1     
   49   19   48 1     
   50   20   49 1     
   51   20   50 1     
@<TRIPOS>SUBSTRUCTURE
      1 S1             1
@<TRIPOS>SET
LONE_PAIRS      STATIC     ATOMS    <user>   **** ""
8 43 44 45 46 47 48 49 50
DONOR_HYDROGENS      STATIC     ATOMS    <user>   **** ""
2 25 26
ATOM$BLUE        STATIC     ATOMS    COLORGROUP SYSTEM
8 43 44 45 46 47 48 49 50
ATOM$RED        STATIC     ATOMS    COLORGROUP SYSTEM
2 25 26
