AV-unprocessed.smi:2167|AV-procd|sdf|8817|dock9
  -GOLD-   2272012 03D 1   1.00000     0.00000
 Structure written by MMmdl.
 41 42  0  0  0  0  0  0  0  0  1 V2000
  153.7683  139.0682  159.9490 C   0  0  0  0  0  0  0  0  0  0  0  0
  154.3673  140.4300  160.3293 C   0  0  0  0  0  0  0  0  0  0  0  0
  154.8901  140.4757  161.7723 C   0  0  0  0  0  0  0  0  0  0  0  0
  153.4308  141.5595  160.0348 C   0  0  0  0  0  0  0  0  0  0  0  0
  152.8535  141.7536  158.8452 N   0  0  0  0  0  0  0  0  0  0  0  0
  152.0105  142.8698  158.8270 C   0  0  0  0  0  0  0  0  0  0  0  0
  151.2626  143.2314  157.5741 C   0  0  0  0  0  0  0  0  0  0  0  0
  150.4986  142.0272  157.0135 C   0  0  0  0  0  0  0  0  0  0  0  0
  150.6446  140.9173  157.5248 O   0  0  0  0  0  0  0  0  0  0  0  0
  149.7017  142.2512  155.9546 N   0  0  0  0  0  0  0  0  0  0  0  0
  148.8991  141.2411  155.2628 C   0  0  1  0  0  0  0  0  0  0  0  0
  148.1285  141.9573  154.1299 C   0  0  0  0  0  0  0  0  0  0  0  0
  146.8740  141.2016  153.6588 C   0  0  0  0  0  0  0  0  0  0  0  0
  147.1449  139.8443  152.9919 C   0  0  0  0  0  0  0  0  0  0  0  0
  147.8144  138.8201  153.9240 C   0  0  0  0  0  0  0  0  0  0  0  0
  149.2402  139.0746  154.0834 N   0  0  0  0  0  0  0  0  0  0  0  0
  149.8080  140.1510  154.6481 C   0  0  0  0  0  0  0  0  0  0  0  0
  151.0334  140.2677  154.6690 O   0  0  0  0  0  0  0  0  0  0  0  0
  151.9705  143.5342  160.0280 C   0  0  0  0  0  0  0  0  0  0  0  0
  152.9751  142.7703  161.2283 S   0  0  0  0  0  0  0  0  0  0  0  0
  153.4848  139.0448  158.8964 H   0  0  0  0  0  0  0  0  0  0  0  0
  152.8783  138.8479  160.5394 H   0  0  0  0  0  0  0  0  0  0  0  0
  154.4850  138.2638  160.1158 H   0  0  0  0  0  0  0  0  0  0  0  0
  155.2346  140.5746  159.6838 H   0  0  0  0  0  0  0  0  0  0  0  0
  155.3813  141.4265  161.9816 H   0  0  0  0  0  0  0  0  0  0  0  0
  155.6160  139.6824  161.9524 H   0  0  0  0  0  0  0  0  0  0  0  0
  154.0796  140.3539  162.4917 H   0  0  0  0  0  0  0  0  0  0  0  0
  150.5498  144.0337  157.7675 H   0  0  0  0  0  0  0  0  0  0  0  0
  151.9508  143.6073  156.8159 H   0  0  0  0  0  0  0  0  0  0  0  0
  149.6506  143.1932  155.5951 H   0  0  0  0  0  0  0  0  0  0  0  0
  148.1985  140.7930  155.9698 H   0  0  0  0  0  0  0  0  0  0  0  0
  147.7952  142.9326  154.4889 H   0  0  0  0  0  0  0  0  0  0  0  0
  148.7837  142.1681  153.2826 H   0  0  0  0  0  0  0  0  0  0  0  0
  146.1983  141.0615  154.5035 H   0  0  0  0  0  0  0  0  0  0  0  0
  146.3351  141.8323  152.9508 H   0  0  0  0  0  0  0  0  0  0  0  0
  146.1901  139.4357  152.6593 H   0  0  0  0  0  0  0  0  0  0  0  0
  147.7423  139.9790  152.0892 H   0  0  0  0  0  0  0  0  0  0  0  0
  147.3195  138.7871  154.8956 H   0  0  0  0  0  0  0  0  0  0  0  0
  147.7125  137.8237  153.4939 H   0  0  0  0  0  0  0  0  0  0  0  0
  149.8622  138.3780  153.6993 H   0  0  0  0  0  0  0  0  0  0  0  0
  151.4078  144.4211  160.2799 H   0  0  0  0  0  0  0  0  0  0  0  0
  1  2  1  0  0  0  0
  1 21  1  0  0  0  0
  1 22  1  0  0  0  0
  1 23  1  0  0  0  0
  2  3  1  0  0  0  0
  2  4  1  0  0  0  0
  2 24  1  0  0  0  0
  3 25  1  0  0  0  0
  3 26  1  0  0  0  0
  3 27  1  0  0  0  0
  4 20  1  0  0  0  0
  4  5  2  0  0  0  0
  5  6  1  0  0  0  0
  6  7  1  0  0  0  0
  6 19  2  0  0  0  0
  7  8  1  0  0  0  0
  7 28  1  0  0  0  0
  7 29  1  0  0  0  0
  8  9  2  0  0  0  0
  8 10  1  0  0  0  0
 10 11  1  0  0  0  0
 10 30  1  0  0  0  0
 11 17  1  0  0  0  0
 11 12  1  0  0  0  0
 11 31  1  0  0  0  0
 12 13  1  0  0  0  0
 12 32  1  0  0  0  0
 12 33  1  0  0  0  0
 13 14  1  0  0  0  0
 13 34  1  0  0  0  0
 13 35  1  0  0  0  0
 14 15  1  0  0  0  0
 14 36  1  0  0  0  0
 14 37  1  0  0  0  0
 15 16  1  0  0  0  0
 15 38  1  0  0  0  0
 15 39  1  0  0  0  0
 16 17  1  0  0  0  0
 16 40  1  0  0  0  0
 17 18  2  0  0  0  0
 19 20  1  0  0  0  0
 19 41  1  0  0  0  0
M  END
> <s_m_source_file>
AV-unprocessed.smi

> <i_m_source_file_index>
2167

> <i_lp_mmshare_version>
43012

> <i_f3d_flags>
0

> <s_epik_input>
W0NIM11bQ0hdKFtDSDNdKWMxbmMoW2NIXXMxKVtDSDJdQyg9TylbTkhdW0NAQEhdMltDSDJdW0NIMl1bQ0gyXVtDSDJdW05IXUMyPU8=

> <s_epik_cmdline>
J2VwaWtfcHl0aG9uJywgJy1waCcsICc3LjAnLCAnLXRuJywgJzgnLCAnLW1hJywgJzIwMCcsICctbWV0YWxfYmluZGluZycsICctaW1hZScsICc8aW5maWxlLm1hZT4nLCAnLW9tYWUnLCAnPG91dGZpbGUubWFlPic=

> <r_lp_tautomer_probability>
1

> <r_epik_Ionization_Penalty>
3.1619e-05

> <r_epik_Ionization_Penalty_Charging>
0

> <r_epik_Ionization_Penalty_Neutral>
3.1619e-05

> <r_epik_State_Penalty>
-0

> <r_epik_Charging_Adjusted_Penalty>
0

> <i_epik_Tot_Q>
0

> <i_epik_Tot_abs_Q>
0

> <r_epik_Metal_State_Penalty>
-0

> <b_epik_Metal_Only>
0

> <s_lp_Force_Field>
OPLS_2005

> <r_lp_Energy>
3.21442

> <b_lp_Chiralities_Consistent>
1

> <s_lp_Variant>
AV-unprocessed.smi:2167-2

> <Gold.Version>
5.8.1

> <Gold.Id.Protein>
6NUR|6NUR_protein|mol2

> <Gold.PLP.Fitness>
48.0449

> <Gold.PLP.PLP>
-42.5653

> <Gold.PLP.part.hbond>
-2.5006

> <Gold.PLP.part.metal>
0.0000

> <Gold.PLP.part.buried>
-2.9986

> <Gold.PLP.part.nonpolar>
-36.9185

> <Gold.PLP.part.repulsive>
0.2745

> <Gold.PLP.ligand.clash>
0.0000

> <Gold.PLP.ligand.torsion>
0.1647

> <Gold.PLP.Chemscore.Hbond>
1.9120

> <Gold.PLP.Chemscore.CHOScore>
0.0000

> <Gold.PLP.Chemscore.Metal>
0.0000

> <Gold.Chemscore.Hbonds>
donor molecule, donor type, donor heavy atom, donor atom, acceptor molecule, acceptor atom, score
      L1  H    10    30       P1  8028  0.96
      P1  H  7989  7998       L1    18  0.78

> <Gold.PLP.Chemscore.Internal.Correction>
0.0729

> <Gold.Rescore>
     Score         DG    S(hbond)    S(metal)    S(lipo)     H(rot)  DE(clash)    DE(int)     intcor
     18.37     -20.17       1.93        0.00     104.75       1.57       0.04       1.76       ----

> <Gold.Chemscore.Fitness>
18.3728

> <Gold.Chemscore.DG>
-20.1658

> <Gold.Chemscore.ZeroCoef>
-5.4800

> <Gold.Chemscore.Hbond>
1.9334

> <Gold.Chemscore.Metal>
0.0000

> <Gold.Chemscore.Lipo>
104.7507

> <Gold.Chemscore.Internal_Hbond>
0.0000

> <Gold.Chemscore.DEClash>
0.0370

> <Gold.Chemscore.DEInternal>
1.7561

> <Gold.Chemscore.Rot>
1.5733

> <Gold.Chemscore.Internal.Correction>
   9.000000E+99

> <Gold.Chemscore.Hbonds>
donor molecule, donor type, donor heavy atom, donor atom, acceptor molecule, acceptor atom, score
      L1  H    10    30       P1  8028  0.92
      P1  H  7989  7998       L1    18  0.73

> <Gold.Chemscore.Hbond.Weighted>
-6.4575

> <Gold.Chemscore.Metal.Weighted>
-0.0000

> <Gold.Chemscore.Lipo.Weighted>
-12.2558

> <Gold.Chemscore.Internal_Hbond.Weighted>
0.0000

> <Gold.Chemscore.DEClash.Weighted>
0.0370

> <Gold.Chemscore.DEInternal.Weighted>
1.7561

> <Gold.Chemscore.Rot.Weighted>
4.0276

> <Gold.Chemscore.Internal.Correction.Weighted>
   9.000000E+99

> <Gold.Protein.RotatedTorsions>
[ 6907 6896 6895 6894 ] final  -18.75 input  -60.11 | X-H torsion
[ 7974 7965 7964 7962 ] final -101.90 input  175.53 | X-H torsion
[ 8008 7997 7996 7995 ] final -139.85 input   59.86 | X-H torsion
[ 10167 10162 10161 10158 ] final  142.72 input  -65.29 | X-H torsion
[ 10718 10713 10712 10709 ] final  -10.69 input   66.30 | X-H torsion
[ 10763 10752 10751 10750 ] final  -96.79 input  -60.55 | X-H torsion
[ 11005 11000 10999 10996 ] final  -11.11 input  -57.11 | X-H torsion

> <Gold.Protein.ActiveResidues>
 VAL166  LYS551  ARG553  GLY616  TRP617  ASP618  TYR619  PRO620  LYS621  CYS622 
 ASP623  PHE694  ASN695  SER759  ASP760  ASP761  ALA762  ILE779  LEU786  VAL792 
 PHE793  MET794  SER795  GLU796  ALA797  LYS798  CYS799  TRP800  GLU811  SER814 

> <Gold.Protein.RotatedAtoms>
  151.2734  135.0692  159.9142 H   0  0  0  0  0  0  0  0  0  0  0  0  # atno 6907 bound_to 6896
  152.5346  134.0106  159.7947 H   0  0  0  0  0  0  0  0  0  0  0  0  # atno 6908 bound_to 6896
  151.0348  133.5708  159.2688 H   0  0  0  0  0  0  0  0  0  0  0  0  # atno 6909 bound_to 6896
  145.2756  140.9312  143.2961 H   0  0  0  0  0  0  0  0  0  0  0  0  # atno 7974 bound_to 7965
  155.4516  140.0539  157.3000 H   0  0  0  0  0  0  0  0  0  0  0  0  # atno 8008 bound_to 7997
  154.4775  140.2067  155.9799 H   0  0  0  0  0  0  0  0  0  0  0  0  # atno 8009 bound_to 7997
  156.1154  140.3197  155.8136 H   0  0  0  0  0  0  0  0  0  0  0  0  # atno 8010 bound_to 7997
  139.4987  144.6088  151.6318 H   0  0  0  0  0  0  0  0  0  0  0  0  # atno 10167 bound_to 10162
  156.6698  130.5006  149.6004 H   0  0  0  0  0  0  0  0  0  0  0  0  # atno 10718 bound_to 10713
  154.7270  135.5070  153.8903 H   0  0  0  0  0  0  0  0  0  0  0  0  # atno 10763 bound_to 10752
  153.0914  135.6660  153.9855 H   0  0  0  0  0  0  0  0  0  0  0  0  # atno 10764 bound_to 10752
  153.9665  135.3042  155.3409 H   0  0  0  0  0  0  0  0  0  0  0  0  # atno 10765 bound_to 10752
  140.7518  133.8586  155.9051 H   0  0  0  0  0  0  0  0  0  0  0  0  # atno 11005 bound_to 11000
  144.9297  139.4313  143.6501 LP  0  0  0  0  0  0  0  0  0  0  0  0  # atno 17320 bound_to 7965
  146.3232  139.8201  142.8928 LP  0  0  0  0  0  0  0  0  0  0  0  0  # atno 17321 bound_to 7965
  140.5757  144.0032  150.6240 LP  0  0  0  0  0  0  0  0  0  0  0  0  # atno 17342 bound_to 10162
  140.3164  143.3165  152.0827 LP  0  0  0  0  0  0  0  0  0  0  0  0  # atno 17343 bound_to 10162
  156.1947  130.6582  151.1101 LP  0  0  0  0  0  0  0  0  0  0  0  0  # atno 17370 bound_to 10713
  157.7081  131.0747  150.6597 LP  0  0  0  0  0  0  0  0  0  0  0  0  # atno 17371 bound_to 10713
  140.9743  134.1489  157.4549 LP  0  0  0  0  0  0  0  0  0  0  0  0  # atno 17394 bound_to 11000
  139.8786  134.9989  156.5927 LP  0  0  0  0  0  0  0  0  0  0  0  0  # atno 17395 bound_to 11000

$$$$
