AV-unprocessed.smi:2922|AV-procd|sdf|11200|dock1
  -GOLD-   2272016 93D 1   1.00000     0.00000
 Structure written by MMmdl.
 30 31  0  0  0  0  0  0  0  0  1 V2000
  148.6130  136.0054  154.7099 N   0  0  0  0  0  0  0  0  0  0  0  0
  148.7856  137.1094  155.4425 C   0  0  0  0  0  0  0  0  0  0  0  0
  148.5120  137.1410  156.6408 O   0  0  0  0  0  0  0  0  0  0  0  0
  149.3674  138.3461  154.7405 C   0  0  2  0  0  0  0  0  0  0  0  0
  150.7866  138.1506  154.1733 C   0  0  0  0  0  0  0  0  0  0  0  0
  151.6159  139.1991  154.8927 C   0  0  0  0  0  0  0  0  0  0  0  0
  150.5720  140.2412  155.2835 C   0  0  2  0  0  0  0  0  0  0  0  0
  150.9870  141.1530  156.4456 C   0  0  0  0  0  0  0  0  0  0  0  0
  151.9726  140.5151  157.3052 N   0  0  0  0  0  0  0  0  0  0  0  0
  152.3447  140.9936  158.5470 C   0  0  0  0  0  0  0  0  0  0  0  0
  151.8288  142.1590  158.9578 N   0  0  0  0  0  0  0  0  0  0  0  0
  152.2098  142.6048  160.1750 C   0  0  0  0  0  0  0  0  0  0  0  0
  153.1110  141.8768  160.9772 C   0  0  0  0  0  0  0  0  0  0  0  0
  153.6032  142.4407  162.5316 Cl  0  0  0  0  0  0  0  0  0  0  0  0
  153.5896  140.6637  160.4431 C   0  0  0  0  0  0  0  0  0  0  0  0
  153.2020  140.2252  159.2248 N   0  0  0  0  0  0  0  0  0  0  0  0
  149.4771  139.4265  155.6672 O   0  0  0  0  0  0  0  0  0  0  0  0
  148.2300  135.1736  155.1348 H   0  0  0  0  0  0  0  0  0  0  0  0
  148.8644  136.0110  153.7318 H   0  0  0  0  0  0  0  0  0  0  0  0
  148.6900  138.6451  153.9393 H   0  0  0  0  0  0  0  0  0  0  0  0
  151.1979  137.1519  154.3269 H   0  0  0  0  0  0  0  0  0  0  0  0
  150.7838  138.3409  153.0992 H   0  0  0  0  0  0  0  0  0  0  0  0
  152.0660  138.7628  155.7856 H   0  0  0  0  0  0  0  0  0  0  0  0
  152.4156  139.6074  154.2742 H   0  0  0  0  0  0  0  0  0  0  0  0
  150.2788  140.8331  154.4140 H   0  0  0  0  0  0  0  0  0  0  0  0
  151.4168  142.0745  156.0515 H   0  0  0  0  0  0  0  0  0  0  0  0
  150.1137  141.4342  157.0352 H   0  0  0  0  0  0  0  0  0  0  0  0
  152.4331  139.6806  156.9719 H   0  0  0  0  0  0  0  0  0  0  0  0
  151.7942  143.5446  160.5072 H   0  0  0  0  0  0  0  0  0  0  0  0
  154.2835  140.0438  160.9915 H   0  0  0  0  0  0  0  0  0  0  0  0
  1  2  1  0  0  0  0
  1 18  1  0  0  0  0
  1 19  1  0  0  0  0
  2  3  2  0  0  0  0
  2  4  1  0  0  0  0
  4 17  1  0  0  0  0
  4  5  1  0  0  0  0
  4 20  1  0  0  0  0
  5  6  1  0  0  0  0
  5 21  1  0  0  0  0
  5 22  1  0  0  0  0
  6  7  1  0  0  0  0
  6 23  1  0  0  0  0
  6 24  1  0  0  0  0
  7  8  1  0  0  0  0
  7 17  1  0  0  0  0
  7 25  1  0  0  0  0
  8  9  1  0  0  0  0
  8 26  1  0  0  0  0
  8 27  1  0  0  0  0
  9 10  1  0  0  0  0
  9 28  1  0  0  0  0
 10 16  1  0  0  0  0
 10 11  2  0  0  0  0
 11 12  1  0  0  0  0
 12 13  2  0  0  0  0
 12 29  1  0  0  0  0
 13 14  1  0  0  0  0
 13 15  1  0  0  0  0
 15 16  2  0  0  0  0
 15 30  1  0  0  0  0
M  END
> <s_m_source_file>
AV-unprocessed.smi

> <i_m_source_file_index>
2922

> <i_lp_mmshare_version>
43012

> <i_f3d_flags>
0

> <s_epik_input>
W05IMl1DKD1PKVtDQEBIXTFbQ0gyXVtDSDJdW0NASF0oTzEpW0NIMl1bTkhdYzJuW2NIXWMoQ2wpW2NIXW4y

> <s_epik_cmdline>
J2VwaWtfcHl0aG9uJywgJy1waCcsICc3LjAnLCAnLXRuJywgJzgnLCAnLW1hJywgJzIwMCcsICctbWV0YWxfYmluZGluZycsICctaW1hZScsICc8aW5maWxlLm1hZT4nLCAnLW9tYWUnLCAnPG91dGZpbGUubWFlPic=

> <r_lp_tautomer_probability>
1

> <r_epik_Ionization_Penalty>
6.13883e-06

> <r_epik_Ionization_Penalty_Charging>
0

> <r_epik_Ionization_Penalty_Neutral>
6.13883e-06

> <r_epik_State_Penalty>
-0

> <r_epik_Charging_Adjusted_Penalty>
0

> <i_epik_Tot_Q>
0

> <i_epik_Tot_abs_Q>
0

> <r_epik_Metal_State_Penalty>
-0

> <b_epik_Metal_Only>
0

> <s_lp_Force_Field>
OPLS_2005

> <r_lp_Energy>
9.86342

> <b_lp_Chiralities_Consistent>
1

> <s_lp_Variant>
AV-unprocessed.smi:2922-3

> <Gold.Version>
5.8.1

> <Gold.Id.Protein>
6NUR|6NUR_protein|mol2

> <Gold.PLP.Fitness>
34.5153

> <Gold.PLP.PLP>
-32.4940

> <Gold.PLP.part.hbond>
-1.0000

> <Gold.PLP.part.metal>
0.0000

> <Gold.PLP.part.buried>
-2.9131

> <Gold.PLP.part.nonpolar>
-28.3836

> <Gold.PLP.part.repulsive>
0.1517

> <Gold.PLP.ligand.clash>
0.0000

> <Gold.PLP.ligand.torsion>
0.4877

> <Gold.PLP.Chemscore.Hbond>
0.9920

> <Gold.PLP.Chemscore.CHOScore>
0.0000

> <Gold.PLP.Chemscore.Metal>
0.0000

> <Gold.Chemscore.Hbonds>
donor molecule, donor type, donor heavy atom, donor atom, acceptor molecule, acceptor atom, score
      L1  H     1    19       P1  7948  1.00

> <Gold.PLP.Chemscore.Internal.Correction>
0.0208

> <Gold.Rescore>
     Score         DG    S(hbond)    S(metal)    S(lipo)     H(rot)  DE(clash)    DE(int)     intcor
     12.16     -13.07       0.98        0.00      78.64       1.91       0.11       0.79       ----

> <Gold.Chemscore.Fitness>
12.1609

> <Gold.Chemscore.DG>
-13.0668

> <Gold.Chemscore.ZeroCoef>
-5.4800

> <Gold.Chemscore.Hbond>
0.9838

> <Gold.Chemscore.Metal>
0.0000

> <Gold.Chemscore.Lipo>
78.6418

> <Gold.Chemscore.Internal_Hbond>
0.0000

> <Gold.Chemscore.DEClash>
0.1146

> <Gold.Chemscore.DEInternal>
0.7914

> <Gold.Chemscore.Rot>
1.9142

> <Gold.Chemscore.Internal.Correction>
   9.000000E+99

> <Gold.Chemscore.Hbonds>
donor molecule, donor type, donor heavy atom, donor atom, acceptor molecule, acceptor atom, score
      L1  H     1    19       P1  7948  0.99

> <Gold.Chemscore.Hbond.Weighted>
-3.2860

> <Gold.Chemscore.Metal.Weighted>
-0.0000

> <Gold.Chemscore.Lipo.Weighted>
-9.2011

> <Gold.Chemscore.Internal_Hbond.Weighted>
0.0000

> <Gold.Chemscore.DEClash.Weighted>
0.1146

> <Gold.Chemscore.DEInternal.Weighted>
0.7914

> <Gold.Chemscore.Rot.Weighted>
4.9002

> <Gold.Chemscore.Internal.Correction.Weighted>
   9.000000E+99

> <Gold.Protein.RotatedTorsions>
[ 6907 6896 6895 6894 ] final -158.76 input  -60.11 | X-H torsion
[ 7974 7965 7964 7962 ] final  173.91 input  175.53 | X-H torsion
[ 8008 7997 7996 7995 ] final  -26.15 input   59.86 | X-H torsion
[ 10167 10162 10161 10158 ] final  132.76 input  -65.29 | X-H torsion
[ 10718 10713 10712 10709 ] final  -21.33 input   66.30 | X-H torsion
[ 10763 10752 10751 10750 ] final   81.54 input  -60.55 | X-H torsion
[ 11005 11000 10999 10996 ] final  -40.23 input  -57.11 | X-H torsion

> <Gold.Protein.ActiveResidues>
 VAL166  LYS551  ARG553  GLY616  TRP617  ASP618  TYR619  PRO620  LYS621  CYS622 
 ASP623  PHE694  ASN695  SER759  ASP760  ASP761  ALA762  ILE779  LEU786  VAL792 
 PHE793  MET794  SER795  GLU796  ALA797  LYS798  CYS799  TRP800  GLU811  SER814 

> <Gold.Protein.RotatedAtoms>
  151.3231  133.4031  159.2655 H   0  0  0  0  0  0  0  0  0  0  0  0  # atno 6907 bound_to 6896
  151.0018  134.9328  159.7968 H   0  0  0  0  0  0  0  0  0  0  0  0  # atno 6908 bound_to 6896
  152.5277  134.3196  159.9196 H   0  0  0  0  0  0  0  0  0  0  0  0  # atno 6909 bound_to 6896
  144.7233  139.9719  143.6437 H   0  0  0  0  0  0  0  0  0  0  0  0  # atno 7974 bound_to 7965
  154.4439  140.1907  156.0731 H   0  0  0  0  0  0  0  0  0  0  0  0  # atno 8008 bound_to 7997
  156.0496  140.3310  155.7309 H   0  0  0  0  0  0  0  0  0  0  0  0  # atno 8009 bound_to 7997
  155.5577  140.0601  157.2826 H   0  0  0  0  0  0  0  0  0  0  0  0  # atno 8010 bound_to 7997
  139.5326  144.6647  151.4898 H   0  0  0  0  0  0  0  0  0  0  0  0  # atno 10167 bound_to 10162
  156.5197  130.4629  149.6603 H   0  0  0  0  0  0  0  0  0  0  0  0  # atno 10718 bound_to 10713
  153.1125  135.4761  154.9060 H   0  0  0  0  0  0  0  0  0  0  0  0  # atno 10763 bound_to 10752
  154.7495  135.3102  154.8585 H   0  0  0  0  0  0  0  0  0  0  0  0  # atno 10764 bound_to 10752
  153.9170  135.6859  153.4802 H   0  0  0  0  0  0  0  0  0  0  0  0  # atno 10765 bound_to 10752
  141.0160  133.6885  156.2293 H   0  0  0  0  0  0  0  0  0  0  0  0  # atno 11005 bound_to 11000
  146.0556  139.3553  143.0612 LP  0  0  0  0  0  0  0  0  0  0  0  0  # atno 17320 bound_to 7965
  145.8158  140.9703  143.0924 LP  0  0  0  0  0  0  0  0  0  0  0  0  # atno 17321 bound_to 7965
  140.6513  143.8691  150.6789 LP  0  0  0  0  0  0  0  0  0  0  0  0  # atno 17342 bound_to 10162
  140.2056  143.3924  152.1758 LP  0  0  0  0  0  0  0  0  0  0  0  0  # atno 17343 bound_to 10162
  156.3161  130.7255  151.2158 LP  0  0  0  0  0  0  0  0  0  0  0  0  # atno 17370 bound_to 10713
  157.7438  131.0468  150.4912 LP  0  0  0  0  0  0  0  0  0  0  0  0  # atno 17371 bound_to 10713
  140.6654  134.4923  157.5585 LP  0  0  0  0  0  0  0  0  0  0  0  0  # atno 17394 bound_to 11000
  139.9117  134.8331  156.1505 LP  0  0  0  0  0  0  0  0  0  0  0  0  # atno 17395 bound_to 11000

$$$$
