AV-unprocessed.smi:1807|AV-procd|sdf|7302|dock2
  -GOLD-   22720 8563D 1   1.00000     0.00000
 Structure written by MMmdl.
 44 45  0  0  0  0  0  0  0  0  1 V2000
  145.0105  138.0943  161.8845 C   0  0  0  0  0  0  0  0  0  0  0  0
  145.6482  136.7364  162.2241 C   0  0  1  0  0  0  0  0  0  0  0  0
  144.7630  135.5619  161.7582 C   0  0  0  0  0  0  0  0  0  0  0  0
  145.3667  134.2063  162.1585 C   0  0  0  0  0  0  0  0  0  0  0  0
  146.7998  134.0529  161.6276 C   0  0  0  0  0  0  0  0  0  0  0  0
  147.6916  135.2217  162.0818 C   0  0  0  0  0  0  0  0  0  0  0  0
  147.0997  136.5928  161.6970 C   0  0  1  0  0  0  0  0  0  0  0  0
  147.1758  136.7758  160.2457 N   0  0  0  0  0  0  0  0  0  0  0  0
  148.2654  136.6109  159.4799 C   0  0  0  0  0  0  0  0  0  0  0  0
  149.3638  136.2753  159.9265 O   0  0  0  0  0  0  0  0  0  0  0  0
  148.0634  136.8644  157.9834 C   0  0  0  0  0  0  0  0  0  0  0  0
  147.5257  138.1915  157.7168 N   0  0  0  0  0  0  0  0  0  0  0  0
  148.3460  139.1705  157.1469 C   0  0  0  0  0  0  0  0  0  0  0  0
  147.8748  140.4812  156.8643 C   0  0  0  0  0  0  0  0  0  0  0  0
  148.9715  141.0984  156.3328 C   0  0  0  0  0  0  0  0  0  0  0  0
  150.0019  140.1780  156.3197 N   0  0  0  0  0  0  0  0  0  0  0  0
  151.3658  140.3587  155.8554 C   0  0  0  0  0  0  0  0  0  0  0  0
  151.7996  139.2065  154.9462 C   0  0  0  0  0  0  0  0  0  0  0  0
  150.8962  138.2564  154.6927 N   0  0  0  0  0  0  0  0  0  0  0  0
  152.9347  139.1740  154.4757 O   0  0  0  0  0  0  0  0  0  0  0  0
  149.6152  138.9830  156.8187 N   0  0  0  0  0  0  0  0  0  0  0  0
  144.8518  138.2100  160.8121 H   0  0  0  0  0  0  0  0  0  0  0  0
  145.6419  138.9178  162.2193 H   0  0  0  0  0  0  0  0  0  0  0  0
  144.0418  138.2033  162.3724 H   0  0  0  0  0  0  0  0  0  0  0  0
  145.7012  136.6842  163.3126 H   0  0  0  0  0  0  0  0  0  0  0  0
  143.7654  135.6548  162.1884 H   0  0  0  0  0  0  0  0  0  0  0  0
  144.6333  135.5992  160.6757 H   0  0  0  0  0  0  0  0  0  0  0  0
  145.3688  134.1146  163.2454 H   0  0  0  0  0  0  0  0  0  0  0  0
  144.7424  133.3957  161.7818 H   0  0  0  0  0  0  0  0  0  0  0  0
  147.2232  133.1092  161.9724 H   0  0  0  0  0  0  0  0  0  0  0  0
  146.7833  134.0014  160.5383 H   0  0  0  0  0  0  0  0  0  0  0  0
  147.8108  135.1763  163.1652 H   0  0  0  0  0  0  0  0  0  0  0  0
  148.6931  135.1119  161.6638 H   0  0  0  0  0  0  0  0  0  0  0  0
  147.7126  137.3526  162.1850 H   0  0  0  0  0  0  0  0  0  0  0  0
  146.3215  137.0534  159.7850 H   0  0  0  0  0  0  0  0  0  0  0  0
  149.0218  136.7487  157.4754 H   0  0  0  0  0  0  0  0  0  0  0  0
  147.3834  136.1121  157.5806 H   0  0  0  0  0  0  0  0  0  0  0  0
  146.5901  138.4155  158.0248 H   0  0  0  0  0  0  0  0  0  0  0  0
  146.8938  140.9023  157.0269 H   0  0  0  0  0  0  0  0  0  0  0  0
  149.1049  142.1064  155.9694 H   0  0  0  0  0  0  0  0  0  0  0  0
  151.4443  141.3006  155.3099 H   0  0  0  0  0  0  0  0  0  0  0  0
  152.0215  140.4359  156.7239 H   0  0  0  0  0  0  0  0  0  0  0  0
  151.1342  137.4774  154.0962 H   0  0  0  0  0  0  0  0  0  0  0  0
  149.9739  138.3234  155.0987 H   0  0  0  0  0  0  0  0  0  0  0  0
  1  2  1  0  0  0  0
  1 22  1  0  0  0  0
  1 23  1  0  0  0  0
  1 24  1  0  0  0  0
  2  7  1  0  0  0  0
  2  3  1  0  0  0  0
  2 25  1  0  0  0  0
  3  4  1  0  0  0  0
  3 26  1  0  0  0  0
  3 27  1  0  0  0  0
  4  5  1  0  0  0  0
  4 28  1  0  0  0  0
  4 29  1  0  0  0  0
  5  6  1  0  0  0  0
  5 30  1  0  0  0  0
  5 31  1  0  0  0  0
  6  7  1  0  0  0  0
  6 32  1  0  0  0  0
  6 33  1  0  0  0  0
  7  8  1  0  0  0  0
  7 34  1  0  0  0  0
  8  9  1  0  0  0  0
  8 35  1  0  0  0  0
  9 10  2  0  0  0  0
  9 11  1  0  0  0  0
 11 12  1  0  0  0  0
 11 36  1  0  0  0  0
 11 37  1  0  0  0  0
 12 13  1  0  0  0  0
 12 38  1  0  0  0  0
 13 21  2  0  0  0  0
 13 14  1  0  0  0  0
 14 15  2  0  0  0  0
 14 39  1  0  0  0  0
 15 16  1  0  0  0  0
 15 40  1  0  0  0  0
 16 17  1  0  0  0  0
 16 21  1  0  0  0  0
 17 18  1  0  0  0  0
 17 41  1  0  0  0  0
 17 42  1  0  0  0  0
 18 19  1  0  0  0  0
 18 20  2  0  0  0  0
 19 43  1  0  0  0  0
 19 44  1  0  0  0  0
M  END
> <s_m_source_file>
AV-unprocessed.smi

> <i_m_source_file_index>
1807

> <i_lp_mmshare_version>
43012

> <i_f3d_flags>
0

> <s_epik_input>
W0NIM11bQ0BASF0xW0NIMl1bQ0gyXVtDSDJdW0NIMl1bQ0BIXTFbTkhdQyg9TylbQ0gyXVtOSF1jMltjSF1bY0hdbihuMilbQ0gyXUMoPU8pW05IMl0=

> <s_epik_cmdline>
J2VwaWtfcHl0aG9uJywgJy1waCcsICc3LjAnLCAnLXRuJywgJzgnLCAnLW1hJywgJzIwMCcsICctbWV0YWxfYmluZGluZycsICctaW1hZScsICc8aW5maWxlLm1hZT4nLCAnLW9tYWUnLCAnPG91dGZpbGUubWFlPic=

> <r_lp_tautomer_probability>
1

> <r_epik_Ionization_Penalty>
0.000167642

> <r_epik_Ionization_Penalty_Charging>
0

> <r_epik_Ionization_Penalty_Neutral>
0.000167642

> <r_epik_State_Penalty>
-0

> <r_epik_Charging_Adjusted_Penalty>
0

> <i_epik_Tot_Q>
0

> <i_epik_Tot_abs_Q>
0

> <r_epik_Metal_State_Penalty>
-0

> <b_epik_Metal_Only>
0

> <s_lp_Force_Field>
OPLS_2005

> <r_lp_Energy>
4.94833

> <b_lp_Chiralities_Consistent>
1

> <s_lp_Variant>
AV-unprocessed.smi:1807-2

> <Gold.Version>
5.8.1

> <Gold.Id.Protein>
6NUR|6NUR_protein|mol2

> <Gold.PLP.Fitness>
39.1312

> <Gold.PLP.PLP>
-30.8968

> <Gold.PLP.part.hbond>
-3.0000

> <Gold.PLP.part.metal>
0.0000

> <Gold.PLP.part.buried>
-3.7995

> <Gold.PLP.part.nonpolar>
-24.0295

> <Gold.PLP.part.repulsive>
0.3728

> <Gold.PLP.ligand.clash>
0.0000

> <Gold.PLP.ligand.torsion>
0.2794

> <Gold.PLP.Chemscore.Hbond>
1.9263

> <Gold.PLP.Chemscore.CHOScore>
0.9977

> <Gold.PLP.Chemscore.Metal>
0.0000

> <Gold.Chemscore.Hbonds>
donor molecule, donor type, donor heavy atom, donor atom, acceptor molecule, acceptor atom, score
      P1  H  6896  6908       L1    10  0.98
      P1  H  7997  8009       L1    20  0.28
      L1  C    15    40       P1  8028  0.73

> <Gold.PLP.Chemscore.Internal.Correction>
0.0213

> <Gold.Rescore>
     Score         DG    S(hbond)    S(metal)    S(lipo)     H(rot)  DE(clash)    DE(int)     intcor
      9.04     -12.22       1.97        0.00      59.02       2.64       0.08       3.10       ----

> <Gold.Chemscore.Fitness>
9.0441

> <Gold.Chemscore.DG>
-12.2205

> <Gold.Chemscore.ZeroCoef>
-5.4800

> <Gold.Chemscore.Hbond>
1.9716

> <Gold.Chemscore.Metal>
0.0000

> <Gold.Chemscore.Lipo>
59.0244

> <Gold.Chemscore.Internal_Hbond>
0.0000

> <Gold.Chemscore.DEClash>
0.0780

> <Gold.Chemscore.DEInternal>
3.0984

> <Gold.Chemscore.Rot>
2.6369

> <Gold.Chemscore.Internal.Correction>
   9.000000E+99

> <Gold.Chemscore.Hbonds>
donor molecule, donor type, donor heavy atom, donor atom, acceptor molecule, acceptor atom, score
      P1  H  6896  6908       L1    10  0.91
      P1  H  7997  8009       L1    20  0.20

> <Gold.Chemscore.Hbond.Weighted>
-6.5850

> <Gold.Chemscore.Metal.Weighted>
-0.0000

> <Gold.Chemscore.Lipo.Weighted>
-6.9059

> <Gold.Chemscore.Internal_Hbond.Weighted>
0.0000

> <Gold.Chemscore.DEClash.Weighted>
0.0780

> <Gold.Chemscore.DEInternal.Weighted>
3.0984

> <Gold.Chemscore.Rot.Weighted>
6.7504

> <Gold.Chemscore.Internal.Correction.Weighted>
   9.000000E+99

> <Gold.Protein.RotatedTorsions>
[ 6907 6896 6895 6894 ] final -167.91 input  -60.11 | X-H torsion
[ 7974 7965 7964 7962 ] final  -86.62 input  175.53 | X-H torsion
[ 8008 7997 7996 7995 ] final -140.52 input   59.86 | X-H torsion
[ 10167 10162 10161 10158 ] final  159.97 input  -65.29 | X-H torsion
[ 10718 10713 10712 10709 ] final  -86.66 input   66.30 | X-H torsion
[ 10763 10752 10751 10750 ] final   47.18 input  -60.55 | X-H torsion
[ 11005 11000 10999 10996 ] final  105.43 input  -57.11 | X-H torsion

> <Gold.Protein.ActiveResidues>
 VAL166  LYS551  ARG553  GLY616  TRP617  ASP618  TYR619  PRO620  LYS621  CYS622 
 ASP623  PHE694  ASN695  SER759  ASP760  ASP761  ALA762  ILE779  LEU786  VAL792 
 PHE793  MET794  SER795  GLU796  ALA797  LYS798  CYS799  TRP800  GLU811  SER814 

> <Gold.Protein.RotatedAtoms>
  151.4671  133.3578  159.2817 H   0  0  0  0  0  0  0  0  0  0  0  0  # atno 6907 bound_to 6896
  150.8986  134.8398  159.7355 H   0  0  0  0  0  0  0  0  0  0  0  0  # atno 6908 bound_to 6896
  152.4866  134.4589  159.9650 H   0  0  0  0  0  0  0  0  0  0  0  0  # atno 6909 bound_to 6896
  145.4774  140.9558  143.1883 H   0  0  0  0  0  0  0  0  0  0  0  0  # atno 7974 bound_to 7965
  155.4628  140.0547  157.2989 H   0  0  0  0  0  0  0  0  0  0  0  0  # atno 8008 bound_to 7997
  154.4730  140.2049  155.9901 H   0  0  0  0  0  0  0  0  0  0  0  0  # atno 8009 bound_to 7997
  156.1087  140.3207  155.8047 H   0  0  0  0  0  0  0  0  0  0  0  0  # atno 8010 bound_to 7997
  139.4836  144.4679  151.8616 H   0  0  0  0  0  0  0  0  0  0  0  0  # atno 10167 bound_to 10162
  155.9988  130.4772  150.4748 H   0  0  0  0  0  0  0  0  0  0  0  0  # atno 10718 bound_to 10713
  152.9802  135.5984  154.3720 H   0  0  0  0  0  0  0  0  0  0  0  0  # atno 10763 bound_to 10752
  154.3393  135.2768  155.2433 H   0  0  0  0  0  0  0  0  0  0  0  0  # atno 10764 bound_to 10752
  154.4522  135.5987  153.6254 H   0  0  0  0  0  0  0  0  0  0  0  0  # atno 10765 bound_to 10752
  139.8802  134.9335  156.5513 H   0  0  0  0  0  0  0  0  0  0  0  0  # atno 11005 bound_to 11000
  144.7909  139.6330  143.7114 LP  0  0  0  0  0  0  0  0  0  0  0  0  # atno 17320 bound_to 7965
  146.2361  139.5908  142.9523 LP  0  0  0  0  0  0  0  0  0  0  0  0  # atno 17321 bound_to 7965
  140.4146  144.2324  150.5888 LP  0  0  0  0  0  0  0  0  0  0  0  0  # atno 17342 bound_to 10162
  140.4933  143.2340  151.8786 LP  0  0  0  0  0  0  0  0  0  0  0  0  # atno 17343 bound_to 10162
  157.2759  131.0597  151.2229 LP  0  0  0  0  0  0  0  0  0  0  0  0  # atno 17370 bound_to 10713
  157.3293  130.6977  149.6315 LP  0  0  0  0  0  0  0  0  0  0  0  0  # atno 17371 bound_to 10713
  140.8238  133.8333  155.8920 LP  0  0  0  0  0  0  0  0  0  0  0  0  # atno 17394 bound_to 11000
  140.9393  134.1921  157.4809 LP  0  0  0  0  0  0  0  0  0  0  0  0  # atno 17395 bound_to 11000

$$$$
