AV-unprocessed.smi:2898|AV-procd|sdf|11141|dock4
  -GOLD-   2272016 23D 1   1.00000     0.00000
 Structure written by MMmdl.
 44 45  0  0  0  0  0  0  0  0  1 V2000
  150.3926  139.3719  154.7373 C   0  0  0  0  0  0  0  0  0  0  0  0
  151.5907  138.5206  155.0462 C   0  0  0  0  0  0  0  0  0  0  0  0
  152.5697  138.4306  154.1632 N   0  0  0  0  0  0  0  0  0  0  0  0
  153.5074  137.5590  154.7220 O   0  0  0  0  0  0  0  0  0  0  0  0
  153.0505  137.1508  155.9332 C   0  0  0  0  0  0  0  0  0  0  0  0
  153.9187  136.1885  156.6718 C   0  0  0  0  0  0  0  0  0  0  0  0
  151.8392  137.7309  156.2065 C   0  0  0  0  0  0  0  0  0  0  0  0
  150.9324  137.5692  157.4098 C   0  0  2  0  0  0  0  0  0  0  0  0
  151.6157  136.7791  158.5366 C   0  0  0  0  0  0  0  0  0  0  0  0
  149.5667  136.9534  157.0355 C   0  0  0  0  0  0  0  0  0  0  0  0
  148.7805  136.6199  158.2211 N   0  0  0  0  0  0  0  0  0  0  0  0
  148.6464  135.3939  158.7573 C   0  0  0  0  0  0  0  0  0  0  0  0
  149.2730  134.4183  158.3404 O   0  0  0  0  0  0  0  0  0  0  0  0
  147.6389  135.2222  159.9158 C   0  0  0  0  0  0  0  0  0  0  0  0
  146.2771  135.6288  159.5087 C   0  0  0  0  0  0  0  0  0  0  0  0
  145.2103  135.9464  159.1897 N   0  0  0  0  0  0  0  0  0  0  0  0
  147.6186  133.7336  160.3479 C   0  0  0  0  0  0  0  0  0  0  0  0
  146.7268  133.4961  161.5792 C   0  0  0  0  0  0  0  0  0  0  0  0
  147.1669  134.3788  162.7568 C   0  0  0  0  0  0  0  0  0  0  0  0
  147.2081  135.8622  162.3608 C   0  0  0  0  0  0  0  0  0  0  0  0
  148.0960  136.0792  161.1226 C   0  0  0  0  0  0  0  0  0  0  0  0
  149.4855  138.7677  154.7081 H   0  0  0  0  0  0  0  0  0  0  0  0
  150.4871  139.8711  153.7720 H   0  0  0  0  0  0  0  0  0  0  0  0
  150.2556  140.1423  155.4961 H   0  0  0  0  0  0  0  0  0  0  0  0
  153.3222  135.4112  157.1483 H   0  0  0  0  0  0  0  0  0  0  0  0
  154.4913  136.7006  157.4449 H   0  0  0  0  0  0  0  0  0  0  0  0
  154.6231  135.7006  155.9979 H   0  0  0  0  0  0  0  0  0  0  0  0
  150.7212  138.5566  157.8222 H   0  0  0  0  0  0  0  0  0  0  0  0
  152.5565  137.2465  158.8285 H   0  0  0  0  0  0  0  0  0  0  0  0
  151.8299  135.7527  158.2405 H   0  0  0  0  0  0  0  0  0  0  0  0
  150.9815  136.7373  159.4224 H   0  0  0  0  0  0  0  0  0  0  0  0
  149.0119  137.6268  156.3806 H   0  0  0  0  0  0  0  0  0  0  0  0
  149.7194  136.0379  156.4634 H   0  0  0  0  0  0  0  0  0  0  0  0
  148.2414  137.3708  158.6275 H   0  0  0  0  0  0  0  0  0  0  0  0
  147.2663  133.1108  159.5243 H   0  0  0  0  0  0  0  0  0  0  0  0
  148.6281  133.3883  160.5775 H   0  0  0  0  0  0  0  0  0  0  0  0
  145.6851  133.7039  161.3326 H   0  0  0  0  0  0  0  0  0  0  0  0
  146.7686  132.4459  161.8692 H   0  0  0  0  0  0  0  0  0  0  0  0
  146.4917  134.2373  163.6011 H   0  0  0  0  0  0  0  0  0  0  0  0
  148.1551  134.0656  163.0960 H   0  0  0  0  0  0  0  0  0  0  0  0
  146.1966  136.2185  162.1628 H   0  0  0  0  0  0  0  0  0  0  0  0
  147.5841  136.4564  163.1941 H   0  0  0  0  0  0  0  0  0  0  0  0
  149.1279  135.8436  161.3884 H   0  0  0  0  0  0  0  0  0  0  0  0
  148.0858  137.1364  160.8535 H   0  0  0  0  0  0  0  0  0  0  0  0
  1  2  1  0  0  0  0
  1 22  1  0  0  0  0
  1 23  1  0  0  0  0
  1 24  1  0  0  0  0
  2  7  1  0  0  0  0
  2  3  2  0  0  0  0
  3  4  1  0  0  0  0
  4  5  1  0  0  0  0
  5  6  1  0  0  0  0
  5  7  2  0  0  0  0
  6 25  1  0  0  0  0
  6 26  1  0  0  0  0
  6 27  1  0  0  0  0
  7  8  1  0  0  0  0
  8  9  1  0  0  0  0
  8 10  1  0  0  0  0
  8 28  1  0  0  0  0
  9 29  1  0  0  0  0
  9 30  1  0  0  0  0
  9 31  1  0  0  0  0
 10 11  1  0  0  0  0
 10 32  1  0  0  0  0
 10 33  1  0  0  0  0
 11 12  1  0  0  0  0
 11 34  1  0  0  0  0
 12 13  2  0  0  0  0
 12 14  1  0  0  0  0
 14 21  1  0  0  0  0
 14 15  1  0  0  0  0
 14 17  1  0  0  0  0
 15 16  3  0  0  0  0
 17 18  1  0  0  0  0
 17 35  1  0  0  0  0
 17 36  1  0  0  0  0
 18 19  1  0  0  0  0
 18 37  1  0  0  0  0
 18 38  1  0  0  0  0
 19 20  1  0  0  0  0
 19 39  1  0  0  0  0
 19 40  1  0  0  0  0
 20 21  1  0  0  0  0
 20 41  1  0  0  0  0
 20 42  1  0  0  0  0
 21 43  1  0  0  0  0
 21 44  1  0  0  0  0
M  END
> <s_m_source_file>
AV-unprocessed.smi

> <i_m_source_file_index>
2898

> <i_lp_mmshare_version>
43012

> <i_f3d_flags>
0

> <s_epik_input>
W0NIM11jMW5vYyhbQ0gzXSljMVtDQEhdKFtDSDNdKVtDSDJdW05IXUMoPU8pQzIoQyNOKVtDSDJdW0NIMl1bQ0gyXVtDSDJdW0NIMl0y

> <s_epik_cmdline>
J2VwaWtfcHl0aG9uJywgJy1waCcsICc3LjAnLCAnLXRuJywgJzgnLCAnLW1hJywgJzIwMCcsICctbWV0YWxfYmluZGluZycsICctaW1hZScsICc8aW5maWxlLm1hZT4nLCAnLW9tYWUnLCAnPG91dGZpbGUubWFlPic=

> <r_lp_tautomer_probability>
1

> <r_epik_Ionization_Penalty>
4.33734e-07

> <r_epik_Ionization_Penalty_Charging>
0

> <r_epik_Ionization_Penalty_Neutral>
4.33734e-07

> <r_epik_State_Penalty>
-0

> <r_epik_Charging_Adjusted_Penalty>
0

> <i_epik_Tot_Q>
0

> <i_epik_Tot_abs_Q>
0

> <r_epik_Metal_State_Penalty>
-0

> <b_epik_Metal_Only>
0

> <s_lp_Force_Field>
OPLS_2005

> <r_lp_Energy>
7.89046

> <b_lp_Chiralities_Consistent>
1

> <s_lp_Variant>
AV-unprocessed.smi:2898-1

> <Gold.Version>
5.8.1

> <Gold.Id.Protein>
6NUR|6NUR_protein|mol2

> <Gold.PLP.Fitness>
40.1283

> <Gold.PLP.PLP>
-32.2691

> <Gold.PLP.part.hbond>
-3.0000

> <Gold.PLP.part.metal>
0.0000

> <Gold.PLP.part.buried>
-4.9505

> <Gold.PLP.part.nonpolar>
-25.7173

> <Gold.PLP.part.repulsive>
0.1854

> <Gold.PLP.ligand.clash>
0.0000

> <Gold.PLP.ligand.torsion>
0.2879

> <Gold.PLP.Chemscore.Hbond>
2.7840

> <Gold.PLP.Chemscore.CHOScore>
0.0000

> <Gold.PLP.Chemscore.Metal>
0.0000

> <Gold.Chemscore.Hbonds>
donor molecule, donor type, donor heavy atom, donor atom, acceptor molecule, acceptor atom, score
      P1  H  6896  6908       L1    13  1.00

> <Gold.PLP.Chemscore.Internal.Correction>
0.0830

> <Gold.Rescore>
     Score         DG    S(hbond)    S(metal)    S(lipo)     H(rot)  DE(clash)    DE(int)     intcor
     18.33     -19.64       2.55        0.00      81.61       1.52       0.05       1.26       ----

> <Gold.Chemscore.Fitness>
18.3350

> <Gold.Chemscore.DG>
-19.6366

> <Gold.Chemscore.ZeroCoef>
-5.4800

> <Gold.Chemscore.Hbond>
2.5479

> <Gold.Chemscore.Metal>
0.0000

> <Gold.Chemscore.Lipo>
81.6133

> <Gold.Chemscore.Internal_Hbond>
0.0000

> <Gold.Chemscore.DEClash>
0.0456

> <Gold.Chemscore.DEInternal>
1.2560

> <Gold.Chemscore.Rot>
1.5243

> <Gold.Chemscore.Internal.Correction>
   9.000000E+99

> <Gold.Chemscore.Hbonds>
donor molecule, donor type, donor heavy atom, donor atom, acceptor molecule, acceptor atom, score
      P1  H  6896  6908       L1    13  0.65

> <Gold.Chemscore.Hbond.Weighted>
-8.5101

> <Gold.Chemscore.Metal.Weighted>
-0.0000

> <Gold.Chemscore.Lipo.Weighted>
-9.5488

> <Gold.Chemscore.Internal_Hbond.Weighted>
0.0000

> <Gold.Chemscore.DEClash.Weighted>
0.0456

> <Gold.Chemscore.DEInternal.Weighted>
1.2560

> <Gold.Chemscore.Rot.Weighted>
3.9022

> <Gold.Chemscore.Internal.Correction.Weighted>
   9.000000E+99

> <Gold.Protein.RotatedTorsions>
[ 6907 6896 6895 6894 ] final  144.93 input  -60.11 | X-H torsion
[ 7974 7965 7964 7962 ] final -136.62 input  175.53 | X-H torsion
[ 8008 7997 7996 7995 ] final -139.61 input   59.86 | X-H torsion
[ 10167 10162 10161 10158 ] final -105.72 input  -65.29 | X-H torsion
[ 10718 10713 10712 10709 ] final   46.13 input   66.30 | X-H torsion
[ 10763 10752 10751 10750 ] final  176.93 input  -60.55 | X-H torsion
[ 11005 11000 10999 10996 ] final  -27.69 input  -57.11 | X-H torsion

> <Gold.Protein.ActiveResidues>
 VAL166  LYS551  ARG553  GLY616  TRP617  ASP618  TYR619  PRO620  LYS621  CYS622 
 ASP623  PHE694  ASN695  SER759  ASP760  ASP761  ALA762  ILE779  LEU786  VAL792 
 PHE793  MET794  SER795  GLU796  ALA797  LYS798  CYS799  TRP800  GLU811  SER814 

> <Gold.Protein.RotatedAtoms>
  152.1874  133.4749  159.4989 H   0  0  0  0  0  0  0  0  0  0  0  0  # atno 6907 bound_to 6896
  150.6945  134.1756  159.4238 H   0  0  0  0  0  0  0  0  0  0  0  0  # atno 6908 bound_to 6896
  151.9669  135.0095  160.0601 H   0  0  0  0  0  0  0  0  0  0  0  0  # atno 6909 bound_to 6896
  144.8911  140.6643  143.5145 H   0  0  0  0  0  0  0  0  0  0  0  0  # atno 7974 bound_to 7965
  155.4478  140.0536  157.3004 H   0  0  0  0  0  0  0  0  0  0  0  0  # atno 8008 bound_to 7997
  154.4790  140.2073  155.9764 H   0  0  0  0  0  0  0  0  0  0  0  0  # atno 8009 bound_to 7997
  156.1177  140.3193  155.8167 H   0  0  0  0  0  0  0  0  0  0  0  0  # atno 8010 bound_to 7997
  140.1955  143.3858  152.1172 H   0  0  0  0  0  0  0  0  0  0  0  0  # atno 10167 bound_to 10162
  157.4449  130.8103  149.7730 H   0  0  0  0  0  0  0  0  0  0  0  0  # atno 10718 bound_to 10713
  154.4877  135.2777  155.1521 H   0  0  0  0  0  0  0  0  0  0  0  0  # atno 10763 bound_to 10752
  154.3206  135.6210  153.5509 H   0  0  0  0  0  0  0  0  0  0  0  0  # atno 10764 bound_to 10752
  152.9883  135.5741  154.5291 H   0  0  0  0  0  0  0  0  0  0  0  0  # atno 10765 bound_to 10752
  140.9142  133.7441  156.0712 H   0  0  0  0  0  0  0  0  0  0  0  0  # atno 11005 bound_to 11000
  145.3781  139.1643  143.4295 LP  0  0  0  0  0  0  0  0  0  0  0  0  # atno 17320 bound_to 7965
  146.3054  140.3860  142.8689 LP  0  0  0  0  0  0  0  0  0  0  0  0  # atno 17321 bound_to 7965
  139.5238  144.7076  151.5306 LP  0  0  0  0  0  0  0  0  0  0  0  0  # atno 17342 bound_to 10162
  140.6426  143.8858  150.6706 LP  0  0  0  0  0  0  0  0  0  0  0  0  # atno 17343 bound_to 10162
  155.9963  130.3906  150.2783 LP  0  0  0  0  0  0  0  0  0  0  0  0  # atno 17370 bound_to 10713
  157.0951  131.0180  151.3107 LP  0  0  0  0  0  0  0  0  0  0  0  0  # atno 17371 bound_to 10713
  140.8071  134.3442  157.5422 LP  0  0  0  0  0  0  0  0  0  0  0  0  # atno 17394 bound_to 11000
  139.8763  134.9232  156.3320 LP  0  0  0  0  0  0  0  0  0  0  0  0  # atno 17395 bound_to 11000

$$$$
