#       Name:                AV-unprocessed.smi:729
#       Creating user name   scv26
#       Creation time:       Fri Mar 27 00:51:26 2020


#       File generated by GOLD software.
#

@<TRIPOS>MOLECULE
AV-unprocessed.smi:729
    26    26     1
SMALL
NO_CHARGES


@<TRIPOS>ATOM
      1 ****         0.3114   2.0097  -0.0830 C.3            1 S1                 0.0000
      2 ****        -0.4763   0.7050  -0.1507 C.2            1 S1                 0.0000
      3 ****        -1.8276   0.7320  -0.1771 C.2            1 S1                 0.0000
      4 ****        -2.5811  -0.4301  -0.2639 C.2            1 S1                 0.0000
      5 ****        -3.8319  -0.4103  -0.2850 O.co2          1 S1                -1.0000
      6 ****        -1.8610  -1.6141  -0.3347 C.2            1 S1                 0.0000
      7 ****        -0.4058  -1.7089  -0.3190 C.2            1 S1                 0.0000
      8 ****         0.1699  -2.7953  -0.4025 O.2            1 S1                 0.0000
      9 ****         0.2499  -0.5191  -0.1955 N.am           1 S1                 0.0000
     10 ****         1.7335  -0.5208  -0.1889 C.3            1 S1                 0.0000
     11 ****         2.3388  -0.2001   1.1836 C.2            1 S1                 0.0000
     12 ****         3.1822   0.7225   1.2337 O.co2          1 S1                 0.0000
     13 ****         1.9671  -0.8947   2.1552 O.co2          1 S1                -1.0000
     14 ****        -0.3511   2.8645  -0.2217 H              1 S1                 0.0000
     15 ****         1.0686   2.0774  -0.8627 H              1 S1                 0.0000
     16 ****         0.7842   2.1295   0.8912 H              1 S1                 0.0000
     17 ****        -2.3340   1.6857  -0.1329 H              1 S1                 0.0000
     18 ****        -2.4077  -2.5432  -0.4075 H              1 S1                 0.0000
     19 ****         2.1625  -1.4716  -0.5064 H              1 S1                 0.0000
     20 ****         2.1090   0.1813  -0.9321 H              1 S1                 0.0000
     21 ****        -0.3621  -3.6381  -0.4833 LP             1 S1                 0.0000
     22 ****         1.1690  -2.8340  -0.3895 LP             1 S1                 0.0000
     23 ****         3.6180   0.9548   2.1032 LP             1 S1                 0.0000
     24 ****         3.4205   1.2277   0.4042 LP             1 S1                 0.0000
     25 ****         2.3518  -0.7304   3.0635 LP             1 S1                 0.0000
     26 ****         1.2852  -1.6142   2.0236 LP             1 S1                 0.0000
@<TRIPOS>BOND
    1    1    2 1     
    2    1   14 1     
    3    1   15 1     
    4    1   16 1     
    5    2    9 1     
    6    2    3 2     
    7    3    4 1     
    8    3   17 1     
    9    4    5 ar    
   10    4    6 2     
   11    6    7 1     
   12    6   18 1     
   13    7    8 2     
   14    7    9 am    
   15    9   10 1     
   16   10   11 1     
   17   10   19 1     
   18   10   20 1     
   19   11   12 ar    
   20   11   13 ar    
   21    8   21 1     
   22    8   22 1     
   23   12   23 1     
   24   12   24 1     
   25   13   25 1     
   26   13   26 1     
@<TRIPOS>SUBSTRUCTURE
      1 S1             1
@<TRIPOS>SET
LONE_PAIRS      STATIC     ATOMS    <user>   **** ""
7 5 21 22 23 24 25 26
ATOM$BLUE        STATIC     ATOMS    COLORGROUP SYSTEM
7 5 21 22 23 24 25 26
