#       Name:                AV-unprocessed.smi:2073
#       Creating user name   scv26
#       Creation time:       Fri Mar 27 11:14:41 2020


#       File generated by GOLD software.
#

@<TRIPOS>MOLECULE
AV-unprocessed.smi:2073
    33    33     1
SMALL
NO_CHARGES


@<TRIPOS>ATOM
      1 ****        -3.2274  -1.4247   1.1717 C.3            1 S1                 0.0000
      2 ****        -3.1790  -0.0650   0.4560 C.3            1 S1                 0.0000
      3 ****        -4.2830   0.0494  -0.6102 C.3            1 S1                 0.0000
      4 ****        -1.7845   0.1743  -0.1503 C.2            1 S1                 0.0000
      5 ****        -1.4995  -0.3333  -1.2370 O.2            1 S1                 0.0000
      6 ****        -1.0109   0.9501   0.6473 N.pl3          1 S1                -1.0000
      7 ****         0.2405   1.2503   0.2671 C.2            1 S1                 0.0000
      8 ****         1.3141   0.5820   0.7018 N.2            1 S1                 0.0000
      9 ****         2.5204   1.0574   0.1790 C.2            1 S1                 0.0000
     10 ****         3.8143   0.3979   0.5615 C.3            1 S1                 0.0000
     11 ****         4.2694  -0.5769  -0.5277 C.2            1 S1                 0.0000
     12 ****         3.4897  -1.6350  -0.7690 N.am           1 S1                 0.0000
     13 ****         5.3203  -0.3843  -1.1358 O.2            1 S1                 0.0000
     14 ****         2.3552   2.1294  -0.6600 C.2            1 S1                 0.0000
     15 ****         0.6782   2.5632  -0.8279 S.3            1 S1                 0.0000
     16 ****        -2.4573  -1.4952   1.9410 H              1 S1                 0.0000
     17 ****        -3.0777  -2.2492   0.4734 H              1 S1                 0.0000
     18 ****        -4.1907  -1.5742   1.6594 H              1 S1                 0.0000
     19 ****        -3.3801   0.7078   1.2012 H              1 S1                 0.0000
     20 ****        -4.2295   1.0041  -1.1349 H              1 S1                 0.0000
     21 ****        -5.2707  -0.0176  -0.1541 H              1 S1                 0.0000
     22 ****        -4.2096  -0.7452  -1.3537 H              1 S1                 0.0000
     23 ****         4.5896   1.1481   0.7220 H              1 S1                 0.0000
     24 ****         3.7133  -0.1450   1.5023 H              1 S1                 0.0000
     25 ****         3.7660  -2.3126  -1.4657 H              1 S1                 0.0000
     26 ****         2.6393  -1.7648  -0.2410 H              1 S1                 0.0000
     27 ****         3.1140   2.6846  -1.1908 H              1 S1                 0.0000
     28 ****        -2.1721  -0.8957  -1.7179 LP             1 S1                 0.0000
     29 ****        -0.5957  -0.1826  -1.6376 LP             1 S1                 0.0000
     30 ****        -1.3703   1.2967   1.5137 LP             1 S1                 0.0000
     31 ****         1.2593  -0.1854   1.3406 LP             1 S1                 0.0000
     32 ****         5.8838   0.4132  -0.9201 LP             1 S1                 0.0000
     33 ****         5.6116  -1.0250  -1.8461 LP             1 S1                 0.0000
@<TRIPOS>BOND
    1    1    2 1     
    2    1   16 1     
    3    1   17 1     
    4    1   18 1     
    5    2    3 1     
    6    2    4 1     
    7    2   19 1     
    8    3   20 1     
    9    3   21 1     
   10    3   22 1     
   11    4    5 2     
   12    4    6 1     
   13    6    7 1     
   14    7   15 1     
   15    7    8 2     
   16    8    9 1     
   17    9   10 1     
   18    9   14 2     
   19   10   11 1     
   20   10   23 1     
   21   10   24 1     
   22   11   12 am    
   23   11   13 2     
   24   12   25 1     
   25   12   26 1     
   26   14   15 1     
   27   14   27 1     
   28    5   28 1     
   29    5   29 1     
   30    6   30 1     
   31    8   31 1     
   32   13   32 1     
   33   13   33 1     
@<TRIPOS>SUBSTRUCTURE
      1 S1             1
@<TRIPOS>SET
LONE_PAIRS      STATIC     ATOMS    <user>   **** ""
6 28 29 30 31 32 33
DONOR_HYDROGENS      STATIC     ATOMS    <user>   **** ""
2 25 26
ATOM$BLUE        STATIC     ATOMS    COLORGROUP SYSTEM
6 28 29 30 31 32 33
ATOM$RED        STATIC     ATOMS    COLORGROUP SYSTEM
2 25 26
