#       Name:                AV-unprocessed.smi:2448
#       Creating user name   scv26
#       Creation time:       Fri Mar 27 13:28:36 2020


#       File generated by GOLD software.
#

@<TRIPOS>MOLECULE
AV-unprocessed.smi:2448
    41    42     1
SMALL
NO_CHARGES


@<TRIPOS>ATOM
      1 ****        -2.6638  -1.0427  -0.4258 O.3            1 S1                 0.0000
      2 ****        -2.0407   0.1912  -0.7351 C.3            1 S1                 0.0000
      3 ****        -0.5836   0.1246  -0.2343 C.3            1 S1                 0.0000
      4 ****         0.2239  -0.8118  -1.0180 N.3            1 S1                 0.0000
      5 ****         1.6704  -0.8111  -0.7512 C.3            1 S1                 0.0000
      6 ****         2.0291  -1.3443   0.6613 C.3            1 S1                 0.0000
      7 ****         1.8569  -0.3445   1.7943 C.ar           1 S1                 0.0000
      8 ****         1.0279  -0.6409   2.8971 C.ar           1 S1                 0.0000
      9 ****         0.9046   0.3163   3.9240 C.ar           1 S1                 0.0000
     10 ****         1.5461   1.5043   3.9115 N.ar           1 S1                 0.0000
     11 ****         2.3470   1.7777   2.8595 C.ar           1 S1                 0.0000
     12 ****         2.5384   0.8910   1.7811 C.ar           1 S1                 0.0000
     13 ****         2.3944  -1.6169  -1.8506 C.3            1 S1                 0.0000
     14 ****         2.0773  -1.1320  -3.0521 F              1 S1                 0.0000
     15 ****         3.7157  -1.5195  -1.7025 F              1 S1                 0.0000
     16 ****         2.0458  -2.9031  -1.7996 F              1 S1                 0.0000
     17 ****        -2.1780   0.4826  -2.2405 C.3            1 S1                 0.0000
     18 ****        -3.6366   0.8631  -2.5138 C.3            1 S1                 0.0000
     19 ****        -4.2593   1.7382  -1.0569 S.3            1 S1                 0.0000
     20 ****        -2.8318   1.3044  -0.0267 C.3            1 S1                 0.0000
     21 ****        -2.1757  -1.7352  -0.8445 H              1 S1                 0.0000
     22 ****        -0.1403   1.1192  -0.2967 H              1 S1                 0.0000
     23 ****        -0.5851  -0.1514   0.8181 H              1 S1                 0.0000
     24 ****         0.0688  -0.6434  -2.0071 H              1 S1                 0.0000
     25 ****         2.0413   0.2101  -0.8429 H              1 S1                 0.0000
     26 ****         1.4609  -2.2512   0.8721 H              1 S1                 0.0000
     27 ****         3.0769  -1.6441   0.6855 H              1 S1                 0.0000
     28 ****         0.4915  -1.5766   2.9559 H              1 S1                 0.0000
     29 ****         0.2736   0.1216   4.7787 H              1 S1                 0.0000
     30 ****         2.8525   2.7319   2.8776 H              1 S1                 0.0000
     31 ****         3.1956   1.1571   0.9664 H              1 S1                 0.0000
     32 ****        -1.5379   1.3262  -2.5031 H              1 S1                 0.0000
     33 ****        -1.8644  -0.3587  -2.8599 H              1 S1                 0.0000
     34 ****        -3.7409   1.4726  -3.4114 H              1 S1                 0.0000
     35 ****        -4.2379  -0.0359  -2.6521 H              1 S1                 0.0000
     36 ****        -3.1429   1.0274   0.9813 H              1 S1                 0.0000
     37 ****        -2.2188   2.2021   0.0610 H              1 S1                 0.0000
     38 ****        -3.6049  -1.0402  -0.7639 LP             1 S1                 0.0000
     39 ****        -2.6658  -1.1815   0.5645 LP             1 S1                 0.0000
     40 ****        -0.0893  -1.7164  -0.7290 LP             1 S1                 0.0000
     41 ****         1.4317   2.1606   4.6573 LP             1 S1                 0.0000
@<TRIPOS>BOND
    1    1    2 1     
    2    1   21 1     
    3    2   20 1     
    4    2    3 1     
    5    2   17 1     
    6    3    4 1     
    7    3   22 1     
    8    3   23 1     
    9    4    5 1     
   10    4   24 1     
   11    5    6 1     
   12    5   13 1     
   13    5   25 1     
   14    6    7 1     
   15    6   26 1     
   16    6   27 1     
   17    7   12 ar    
   18    7    8 ar    
   19    8    9 ar    
   20    8   28 1     
   21    9   10 ar    
   22    9   29 1     
   23   10   11 ar    
   24   11   12 ar    
   25   11   30 1     
   26   12   31 1     
   27   13   14 1     
   28   13   15 1     
   29   13   16 1     
   30   17   18 1     
   31   17   32 1     
   32   17   33 1     
   33   18   19 1     
   34   18   34 1     
   35   18   35 1     
   36   19   20 1     
   37   20   36 1     
   38   20   37 1     
   39    1   38 1     
   40    1   39 1     
   41    4   40 1     
   42   10   41 1     
@<TRIPOS>SUBSTRUCTURE
      1 S1             1
@<TRIPOS>SET
LONE_PAIRS      STATIC     ATOMS    <user>   **** ""
4 38 39 40 41
DONOR_HYDROGENS      STATIC     ATOMS    <user>   **** ""
2 21 24
ATOM$BLUE        STATIC     ATOMS    COLORGROUP SYSTEM
4 38 39 40 41
ATOM$RED        STATIC     ATOMS    COLORGROUP SYSTEM
2 21 24
