#       Name:                AV-unprocessed.smi:682
#       Creating user name   scv26
#       Creation time:       Fri Mar 27 00:29:45 2020


#       File generated by GOLD software.
#

@<TRIPOS>MOLECULE
AV-unprocessed.smi:682
    46    47     1
SMALL
NO_CHARGES


@<TRIPOS>ATOM
      1 ****        -4.9154  -0.5097  -1.6734 C.3            1 S1                 0.0000
      2 ****        -3.9469  -0.4183  -0.6356 O.3            1 S1                 0.0000
      3 ****        -2.8440  -1.3342  -0.6809 C.3            1 S1                 0.0000
      4 ****        -3.3483  -2.7827  -0.6863 C.3            1 S1                 0.0000
      5 ****        -1.8212  -0.8861  -1.7429 C.3            1 S1                 0.0000
      6 ****        -1.2545   0.0623  -0.6885 C.3            1 S1                 0.0000
      7 ****         0.1992   0.1696  -0.7489 N.am           1 S1                 0.0000
      8 ****         0.9272   0.9856   0.0246 C.2            1 S1                 0.0000
      9 ****         0.4390   1.7358   0.8698 O.2            1 S1                 0.0000
     10 ****         2.2377   0.8707  -0.2424 N.am           1 S1                 0.0000
     11 ****         3.3031   1.5635   0.3842 C.2            1 S1                 0.0000
     12 ****         3.2617   2.5163   1.4414 C.2            1 S1                 0.0000
     13 ****         4.4796   2.9360   1.7503 N.2            1 S1                 0.0000
     14 ****         5.3059   2.2690   0.9086 N.pl3          1 S1                 0.0000
     15 ****         6.7323   2.5017   0.9846 C.3            1 S1                 0.0000
     16 ****         4.6193   1.4214   0.0624 C.2            1 S1                 0.0000
     17 ****        -1.7977  -0.9014   0.3981 C.3            1 S1                 0.0000
     18 ****        -2.3519  -0.2390   1.6643 C.3            1 S1                 0.0000
     19 ****        -0.8398  -2.0036   0.8889 C.3            1 S1                 0.0000
     20 ****        -5.5984   0.3361  -1.5973 H              1 S1                 0.0000
     21 ****        -5.5151  -1.4154  -1.5848 H              1 S1                 0.0000
     22 ****        -4.4669  -0.4823  -2.6658 H              1 S1                 0.0000
     23 ****        -2.5294  -3.4979  -0.6175 H              1 S1                 0.0000
     24 ****        -3.8827  -3.0245  -1.6044 H              1 S1                 0.0000
     25 ****        -4.0179  -2.9720   0.1528 H              1 S1                 0.0000
     26 ****        -1.1331  -1.6832  -2.0300 H              1 S1                 0.0000
     27 ****        -2.2254  -0.3854  -2.6218 H              1 S1                 0.0000
     28 ****        -1.7689   1.0264  -0.6972 H              1 S1                 0.0000
     29 ****         0.6773  -0.4143  -1.4194 H              1 S1                 0.0000
     30 ****         2.5006   0.2188  -0.9669 H              1 S1                 0.0000
     31 ****         2.4189   2.9127   1.9878 H              1 S1                 0.0000
     32 ****         7.2392   1.9881   0.1670 H              1 S1                 0.0000
     33 ****         7.1163   2.1253   1.9331 H              1 S1                 0.0000
     34 ****         6.9378   3.5703   0.9123 H              1 S1                 0.0000
     35 ****         5.1153   0.8078  -0.6753 H              1 S1                 0.0000
     36 ****        -1.5518   0.0934   2.3266 H              1 S1                 0.0000
     37 ****        -2.9845  -0.9250   2.2281 H              1 S1                 0.0000
     38 ****        -2.9512   0.6421   1.4348 H              1 S1                 0.0000
     39 ****        -0.0363  -1.5953   1.5025 H              1 S1                 0.0000
     40 ****        -0.3686  -2.5380   0.0638 H              1 S1                 0.0000
     41 ****        -1.3616  -2.7446   1.4952 H              1 S1                 0.0000
     42 ****        -4.4222  -0.5635   0.2321 LP             1 S1                 0.0000
     43 ****        -3.5694   0.5074  -0.6581 LP             1 S1                 0.0000
     44 ****        -0.5513   1.7572   1.0070 LP             1 S1                 0.0000
     45 ****         1.0328   2.3238   1.4191 LP             1 S1                 0.0000
     46 ****         4.7341   3.6010   2.4524 LP             1 S1                 0.0000
@<TRIPOS>BOND
    1    1    2 1     
    2    1   20 1     
    3    1   21 1     
    4    1   22 1     
    5    2    3 1     
    6    3   17 1     
    7    3    4 1     
    8    3    5 1     
    9    4   23 1     
   10    4   24 1     
   11    4   25 1     
   12    5    6 1     
   13    5   26 1     
   14    5   27 1     
   15    6    7 1     
   16    6   17 1     
   17    6   28 1     
   18    7    8 am    
   19    7   29 1     
   20    8    9 2     
   21    8   10 am    
   22   10   11 1     
   23   10   30 1     
   24   11   16 2     
   25   11   12 1     
   26   12   13 2     
   27   12   31 1     
   28   13   14 1     
   29   14   15 1     
   30   14   16 1     
   31   15   32 1     
   32   15   33 1     
   33   15   34 1     
   34   16   35 1     
   35   17   18 1     
   36   17   19 1     
   37   18   36 1     
   38   18   37 1     
   39   18   38 1     
   40   19   39 1     
   41   19   40 1     
   42   19   41 1     
   43    2   42 1     
   44    2   43 1     
   45    9   44 1     
   46    9   45 1     
   47   13   46 1     
@<TRIPOS>SUBSTRUCTURE
      1 S1             1
@<TRIPOS>SET
LONE_PAIRS      STATIC     ATOMS    <user>   **** ""
5 42 43 44 45 46
DONOR_HYDROGENS      STATIC     ATOMS    <user>   **** ""
2 29 30
ATOM$BLUE        STATIC     ATOMS    COLORGROUP SYSTEM
5 42 43 44 45 46
ATOM$RED        STATIC     ATOMS    COLORGROUP SYSTEM
2 29 30
