AV-unprocessed.smi:2437|AV-procd|sdf|9594|dock9
  -GOLD-   2272013223D 1   1.00000     0.00000
 Structure written by MMmdl.
 34 35  0  0  0  0  0  0  0  0  3 V2000
  150.9452  141.6007  158.7536 O   0  0  0  0  0  0  0  0  0  0  0  0
  150.4744  142.2865  157.8449 C   0  0  0  0  0  0  0  0  0  0  0  0
  149.4843  141.6909  156.8332 C   0  0  0  0  0  0  0  0  0  0  0  0
  150.0108  140.5172  156.1158 N   0  0  0  0  0  0  0  0  0  0  0  0
  150.5925  139.4987  156.8963 C   0  0  0  0  0  0  0  0  0  0  0  0
  151.1133  138.3842  156.3465 C   0  0  0  0  0  0  0  0  0  0  0  0
  151.7065  137.3483  157.1635 N   0  3  0  0  0  0  0  0  0  0  0  0
  151.6421  137.4526  158.3841 O   0  0  0  0  0  0  0  0  0  0  0  0
  152.2571  136.3986  156.6143 O   0  5  0  0  0  0  0  0  0  0  0  0
  151.0614  138.2570  154.9029 C   0  0  0  0  0  0  0  0  0  0  0  0
  150.5081  139.2284  154.1505 C   0  0  0  0  0  0  0  0  0  0  0  0
  149.9408  140.4401  154.7513 C   0  0  0  0  0  0  0  0  0  0  0  0
  149.4348  141.3315  154.0696 O   0  0  0  0  0  0  0  0  0  0  0  0
  150.7702  143.5840  157.6768 N   0  0  0  0  0  0  0  0  0  0  0  0
  151.6899  144.3528  158.5115 C   0  0  0  0  0  0  0  0  0  0  0  0
  152.9331  143.5269  158.9011 C   0  0  0  0  0  0  0  0  0  0  0  0
  152.7838  143.2169  160.3908 C   0  0  0  0  0  0  0  0  0  0  0  0
  152.0107  144.4096  160.9435 C   0  0  0  0  0  0  0  0  0  0  0  0
  151.0161  144.7614  159.8359 C   0  0  0  0  0  0  0  0  0  0  0  0
  148.5678  141.4322  157.3655 H   0  0  0  0  0  0  0  0  0  0  0  0
  149.1904  142.4663  156.1232 H   0  0  0  0  0  0  0  0  0  0  0  0
  150.5887  139.6912  157.9595 H   0  0  0  0  0  0  0  0  0  0  0  0
  151.4677  137.3835  154.4146 H   0  0  0  0  0  0  0  0  0  0  0  0
  150.4818  139.1141  153.0767 H   0  0  0  0  0  0  0  0  0  0  0  0
  150.3324  144.0748  156.9106 H   0  0  0  0  0  0  0  0  0  0  0  0
  152.0036  145.2497  157.9738 H   0  0  0  0  0  0  0  0  0  0  0  0
  153.0606  142.6208  158.3073 H   0  0  0  0  0  0  0  0  0  0  0  0
  153.8260  144.1346  158.7494 H   0  0  0  0  0  0  0  0  0  0  0  0
  152.1977  142.3060  160.5206 H   0  0  0  0  0  0  0  0  0  0  0  0
  153.7431  143.0705  160.8878 H   0  0  0  0  0  0  0  0  0  0  0  0
  151.5227  144.1909  161.8937 H   0  0  0  0  0  0  0  0  0  0  0  0
  152.6932  145.2453  161.1035 H   0  0  0  0  0  0  0  0  0  0  0  0
  150.7459  145.8178  159.8519 H   0  0  0  0  0  0  0  0  0  0  0  0
  150.0976  144.1931  159.9924 H   0  0  0  0  0  0  0  0  0  0  0  0
  1  2  2  0  0  0  0
  2  3  1  0  0  0  0
  2 14  1  0  0  0  0
  3  4  1  0  0  0  0
  3 20  1  0  0  0  0
  3 21  1  0  0  0  0
  4 12  1  0  0  0  0
  4  5  1  0  0  0  0
  5  6  2  0  0  0  0
  5 22  1  0  0  0  0
  6  7  1  0  0  0  0
  6 10  1  0  0  0  0
  7  8  2  0  0  0  0
  7  9  1  0  0  0  0
 10 11  2  0  0  0  0
 10 23  1  0  0  0  0
 11 12  1  0  0  0  0
 11 24  1  0  0  0  0
 12 13  2  0  0  0  0
 14 15  1  0  0  0  0
 14 25  1  0  0  0  0
 15 19  1  0  0  0  0
 15 16  1  0  0  0  0
 15 26  1  0  0  0  0
 16 17  1  0  0  0  0
 16 27  1  0  0  0  0
 16 28  1  0  0  0  0
 17 18  1  0  0  0  0
 17 29  1  0  0  0  0
 17 30  1  0  0  0  0
 18 19  1  0  0  0  0
 18 31  1  0  0  0  0
 18 32  1  0  0  0  0
 19 33  1  0  0  0  0
 19 34  1  0  0  0  0
M  CHG  1   7   1
M  CHG  1   9  -1
M  END
> <s_m_source_file>
AV-unprocessed.smi

> <i_m_source_file_index>
2437

> <i_lp_mmshare_version>
43012

> <i_f3d_flags>
0

> <s_epik_input>
W0NIMl0xW0NIMl1bQ0gyXVtDSDJdW0NIXTFbTkhdQyg9TylbQ0gyXW4yW2NIXWMoW04rXSg9TylbTy1dKVtjSF1bY0hdYzI9Tw==

> <s_epik_cmdline>
J2VwaWtfcHl0aG9uJywgJy1waCcsICc3LjAnLCAnLXRuJywgJzgnLCAnLW1hJywgJzIwMCcsICctbWV0YWxfYmluZGluZycsICctaW1hZScsICc8aW5maWxlLm1hZT4nLCAnLW9tYWUnLCAnPG91dGZpbGUubWFlPic=

> <r_lp_tautomer_probability>
1

> <r_epik_Ionization_Penalty>
1.93821e-08

> <r_epik_Ionization_Penalty_Charging>
8.03436e-11

> <r_epik_Ionization_Penalty_Neutral>
1.93017e-08

> <r_epik_State_Penalty>
-0

> <r_epik_Charging_Adjusted_Penalty>
8.03436e-11

> <i_epik_Tot_Q>
0

> <i_epik_Tot_abs_Q>
2

> <r_epik_Metal_State_Penalty>
-0

> <b_epik_Metal_Only>
0

> <s_lp_Force_Field>
OPLS_2005

> <r_lp_Energy>
29.2975

> <b_lp_Chiralities_Consistent>
1

> <s_lp_Variant>
AV-unprocessed.smi:2437-1

> <Gold.Version>
5.8.1

> <Gold.Id.Protein>
6NUR|6NUR_protein|mol2

> <Gold.PLP.Fitness>
44.4240

> <Gold.PLP.PLP>
-37.0839

> <Gold.PLP.part.hbond>
-4.0000

> <Gold.PLP.part.metal>
0.0000

> <Gold.PLP.part.buried>
-1.6780

> <Gold.PLP.part.nonpolar>
-30.7096

> <Gold.PLP.part.repulsive>
0.2002

> <Gold.PLP.ligand.clash>
0.0000

> <Gold.PLP.ligand.torsion>
0.3957

> <Gold.PLP.Chemscore.Hbond>
2.7056

> <Gold.PLP.Chemscore.CHOScore>
0.0000

> <Gold.PLP.Chemscore.Metal>
0.0000

> <Gold.Chemscore.Hbonds>
donor molecule, donor type, donor heavy atom, donor atom, acceptor molecule, acceptor atom, score
      L1  H    14    25       P1  8028  1.00
      P1  H  8011  8017       L1    13  0.66
      P1  H 10752 10765       L1     9  1.00

> <Gold.PLP.Chemscore.Internal.Correction>
0.0146

> <Gold.Rescore>
     Score         DG    S(hbond)    S(metal)    S(lipo)     H(rot)  DE(clash)    DE(int)     intcor
     16.74     -21.03       2.62        0.00      92.68       1.58       0.13       4.16       ----

> <Gold.Chemscore.Fitness>
16.7431

> <Gold.Chemscore.DG>
-21.0258

> <Gold.Chemscore.ZeroCoef>
-5.4800

> <Gold.Chemscore.Hbond>
2.6212

> <Gold.Chemscore.Metal>
0.0000

> <Gold.Chemscore.Lipo>
92.6809

> <Gold.Chemscore.Internal_Hbond>
0.0000

> <Gold.Chemscore.DEClash>
0.1256

> <Gold.Chemscore.DEInternal>
4.1571

> <Gold.Chemscore.Rot>
1.5831

> <Gold.Chemscore.Internal.Correction>
   9.000000E+99

> <Gold.Chemscore.Hbonds>
donor molecule, donor type, donor heavy atom, donor atom, acceptor molecule, acceptor atom, score
      L1  H    14    25       P1  8028  0.94
      P1  H  8011  8017       L1    13  0.63
      P1  H 10752 10765       L1     9  0.96

> <Gold.Chemscore.Hbond.Weighted>
-8.7548

> <Gold.Chemscore.Metal.Weighted>
-0.0000

> <Gold.Chemscore.Lipo.Weighted>
-10.8437

> <Gold.Chemscore.Internal_Hbond.Weighted>
0.0000

> <Gold.Chemscore.DEClash.Weighted>
0.1256

> <Gold.Chemscore.DEInternal.Weighted>
4.1571

> <Gold.Chemscore.Rot.Weighted>
4.0527

> <Gold.Chemscore.Internal.Correction.Weighted>
   9.000000E+99

> <Gold.Protein.RotatedTorsions>
[ 6907 6896 6895 6894 ] final  -86.16 input  -60.11 | X-H torsion
[ 7974 7965 7964 7962 ] final -161.52 input  175.53 | X-H torsion
[ 8008 7997 7996 7995 ] final  -72.01 input   59.86 | X-H torsion
[ 10167 10162 10161 10158 ] final -142.76 input  -65.29 | X-H torsion
[ 10718 10713 10712 10709 ] final  -44.72 input   66.30 | X-H torsion
[ 10763 10752 10751 10750 ] final -135.20 input  -60.55 | X-H torsion
[ 11005 11000 10999 10996 ] final -156.88 input  -57.11 | X-H torsion

> <Gold.Protein.ActiveResidues>
 VAL166  LYS551  ARG553  GLY616  TRP617  ASP618  TYR619  PRO620  LYS621  CYS622 
 ASP623  PHE694  ASN695  SER759  ASP760  ASP761  ALA762  ILE779  LEU786  VAL792 
 PHE793  MET794  SER795  GLU796  ALA797  LYS798  CYS799  TRP800  GLU811  SER814 

> <Gold.Protein.RotatedAtoms>
  150.6867  134.3093  159.4739 H   0  0  0  0  0  0  0  0  0  0  0  0  # atno 6907 bound_to 6896
  152.0981  134.9358  160.0579 H   0  0  0  0  0  0  0  0  0  0  0  0  # atno 6908 bound_to 6896
  152.0648  133.4044  159.4470 H   0  0  0  0  0  0  0  0  0  0  0  0  # atno 6909 bound_to 6896
  144.7388  140.3385  143.6139 H   0  0  0  0  0  0  0  0  0  0  0  0  # atno 7974 bound_to 7965
  154.5133  140.0805  156.8032 H   0  0  0  0  0  0  0  0  0  0  0  0  # atno 8008 bound_to 7997
  155.3737  140.3424  155.4226 H   0  0  0  0  0  0  0  0  0  0  0  0  # atno 8009 bound_to 7997
  156.1598  140.1585  156.8618 H   0  0  0  0  0  0  0  0  0  0  0  0  # atno 8010 bound_to 7997
  139.8058  143.7771  152.2661 H   0  0  0  0  0  0  0  0  0  0  0  0  # atno 10167 bound_to 10162
  156.2357  130.4176  149.8821 H   0  0  0  0  0  0  0  0  0  0  0  0  # atno 10718 bound_to 10713
  154.8707  135.3711  154.4860 H   0  0  0  0  0  0  0  0  0  0  0  0  # atno 10763 bound_to 10752
  153.5510  135.7025  153.5596 H   0  0  0  0  0  0  0  0  0  0  0  0  # atno 10764 bound_to 10752
  153.3715  135.4020  155.1756 H   0  0  0  0  0  0  0  0  0  0  0  0  # atno 10765 bound_to 10752
  140.6708  134.4250  157.5231 H   0  0  0  0  0  0  0  0  0  0  0  0  # atno 11005 bound_to 11000
  145.7399  139.1761  143.2382 LP  0  0  0  0  0  0  0  0  0  0  0  0  # atno 17320 bound_to 7965
  146.1142  140.7390  142.9488 LP  0  0  0  0  0  0  0  0  0  0  0  0  # atno 17321 bound_to 7965
  139.7905  144.7412  150.9962 LP  0  0  0  0  0  0  0  0  0  0  0  0  # atno 17342 bound_to 10162
  140.7819  143.4448  151.0499 LP  0  0  0  0  0  0  0  0  0  0  0  0  # atno 17343 bound_to 10162
  156.6420  130.8708  151.3515 LP  0  0  0  0  0  0  0  0  0  0  0  0  # atno 17370 bound_to 10713
  157.7153  130.9490  150.1233 LP  0  0  0  0  0  0  0  0  0  0  0  0  # atno 17371 bound_to 10713
  139.8982  134.8618  156.2010 LP  0  0  0  0  0  0  0  0  0  0  0  0  # atno 17394 bound_to 11000
  141.0394  133.6946  156.1570 LP  0  0  0  0  0  0  0  0  0  0  0  0  # atno 17395 bound_to 11000

$$$$
