AV-unprocessed.smi:2243|AV-procd|sdf|9068|dock6
  -GOLD-   2272012273D 1   1.00000     0.00000
 Structure written by MMmdl.
 34 35  0  0  0  0  0  0  0  0  1 V2000
  146.6875  141.6225  154.0050 C   0  0  0  0  0  0  0  0  0  0  0  0
  147.4922  140.3821  153.5803 C   0  0  2  0  0  0  0  0  0  0  0  0
  146.5835  139.2345  153.5793 N   0  0  0  0  0  0  0  0  0  0  0  0
  146.2816  138.4532  152.5302 C   0  0  0  0  0  0  0  0  0  0  0  0
  146.7741  138.6444  151.4138 O   0  0  0  0  0  0  0  0  0  0  0  0
  145.3874  137.4662  152.9206 N   0  0  0  0  0  0  0  0  0  0  0  0
  144.9950  136.5674  152.0701 C   0  0  0  0  0  0  0  0  0  0  0  0
  145.2847  136.3382  150.7276 N   0  0  0  0  0  0  0  0  0  0  0  0
  144.5840  135.2371  150.3218 C   0  0  0  0  0  0  0  0  0  0  0  0
  143.8833  134.7897  151.3593 C   0  0  0  0  0  0  0  0  0  0  0  0
  144.1140  135.5834  152.4426 O   0  0  0  0  0  0  0  0  0  0  0  0
  148.7175  140.1025  154.4909 C   0  0  0  0  0  0  0  0  0  0  0  0
  149.5033  141.3832  154.8386 C   0  0  0  0  0  0  0  0  0  0  0  0
  150.7520  141.0640  155.6768 C   0  0  0  0  0  0  0  0  0  0  0  0
  151.5820  140.1401  154.9845 O   0  0  0  0  0  0  0  0  0  0  0  0
  150.9396  138.8921  154.7566 C   0  0  0  0  0  0  0  0  0  0  0  0
  149.7034  139.0921  153.8657 C   0  0  0  0  0  0  0  0  0  0  0  0
  147.2675  142.5382  153.8961 H   0  0  0  0  0  0  0  0  0  0  0  0
  146.3642  141.5502  155.0439 H   0  0  0  0  0  0  0  0  0  0  0  0
  145.7958  141.7394  153.3879 H   0  0  0  0  0  0  0  0  0  0  0  0
  147.8597  140.5656  152.5694 H   0  0  0  0  0  0  0  0  0  0  0  0
  146.1436  139.0130  154.4608 H   0  0  0  0  0  0  0  0  0  0  0  0
  145.8963  136.8662  150.1215 H   0  0  0  0  0  0  0  0  0  0  0  0
  144.6637  134.8815  149.3052 H   0  0  0  0  0  0  0  0  0  0  0  0
  143.2055  133.9580  151.4827 H   0  0  0  0  0  0  0  0  0  0  0  0
  148.3514  139.6722  155.4247 H   0  0  0  0  0  0  0  0  0  0  0  0
  149.8038  141.8931  153.9224 H   0  0  0  0  0  0  0  0  0  0  0  0
  148.8792  142.0815  155.3952 H   0  0  0  0  0  0  0  0  0  0  0  0
  151.3206  141.9756  155.8612 H   0  0  0  0  0  0  0  0  0  0  0  0
  150.4738  140.6609  156.6519 H   0  0  0  0  0  0  0  0  0  0  0  0
  151.6451  138.2177  154.2709 H   0  0  0  0  0  0  0  0  0  0  0  0
  150.6639  138.4325  155.7071 H   0  0  0  0  0  0  0  0  0  0  0  0
  149.2231  138.1261  153.7091 H   0  0  0  0  0  0  0  0  0  0  0  0
  150.0186  139.4450  152.8829 H   0  0  0  0  0  0  0  0  0  0  0  0
  1  2  1  0  0  0  0
  1 18  1  0  0  0  0
  1 19  1  0  0  0  0
  1 20  1  0  0  0  0
  2  3  1  0  0  0  0
  2 12  1  0  0  0  0
  2 21  1  0  0  0  0
  3 22  1  0  0  0  0
  3  4  1  0  0  0  0
  4  6  1  0  0  0  0
  4  5  2  0  0  0  0
  6  7  2  0  0  0  0
  7 11  1  0  0  0  0
  7  8  1  0  0  0  0
  8 23  1  0  0  0  0
  8  9  1  0  0  0  0
  9 24  1  0  0  0  0
  9 10  2  0  0  0  0
 10 25  1  0  0  0  0
 10 11  1  0  0  0  0
 12 17  1  0  0  0  0
 12 13  1  0  0  0  0
 12 26  1  0  0  0  0
 13 14  1  0  0  0  0
 13 27  1  0  0  0  0
 13 28  1  0  0  0  0
 14 15  1  0  0  0  0
 14 29  1  0  0  0  0
 14 30  1  0  0  0  0
 15 16  1  0  0  0  0
 16 17  1  0  0  0  0
 16 31  1  0  0  0  0
 16 32  1  0  0  0  0
 17 33  1  0  0  0  0
 17 34  1  0  0  0  0
M  END
> <s_m_source_file>
AV-unprocessed.smi

> <i_m_source_file_index>
2243

> <i_lp_mmshare_version>
43012

> <i_f3d_flags>
0

> <s_epik_input>
W0NIMl0xW0NIMl1PW0NIMl1bQ0gyXVtDSF0xW0NASF0oW0NIM10pW05IXUMoPU8pW05IXWMybltjSF1bY0hdbzI=

> <s_epik_cmdline>
J2VwaWtfcHl0aG9uJywgJy1waCcsICc3LjAnLCAnLXRuJywgJzgnLCAnLW1hJywgJzIwMCcsICctbWV0YWxfYmluZGluZycsICctaW1hZScsICc8aW5maWxlLm1hZT4nLCAnLW9tYWUnLCAnPG91dGZpbGUubWFlPic=

> <r_lp_tautomer_probability>
0.107061

> <r_epik_Ionization_Penalty>
1.44639

> <r_epik_Ionization_Penalty_Charging>
1.44602

> <r_epik_Ionization_Penalty_Neutral>
0.000368208

> <r_epik_State_Penalty>
2.61815

> <r_epik_Charging_Adjusted_Penalty>
4.06418

> <i_epik_Tot_Q>
0

> <i_epik_Tot_abs_Q>
0

> <r_epik_Metal_State_Penalty>
3.54171

> <b_epik_Metal_Only>
0

> <s_lp_Force_Field>
OPLS_2005

> <r_lp_Energy>
34.9147

> <b_lp_Chiralities_Consistent>
1

> <s_lp_Variant>
AV-unprocessed.smi:2243-7

> <Gold.Version>
5.8.1

> <Gold.Id.Protein>
6NUR|6NUR_protein|mol2

> <Gold.PLP.Fitness>
37.7587

> <Gold.PLP.PLP>
-30.1549

> <Gold.PLP.part.hbond>
-2.7448

> <Gold.PLP.part.metal>
0.0000

> <Gold.PLP.part.buried>
-1.6378

> <Gold.PLP.part.nonpolar>
-26.9681

> <Gold.PLP.part.repulsive>
0.9685

> <Gold.PLP.ligand.clash>
0.0000

> <Gold.PLP.ligand.torsion>
0.2291

> <Gold.PLP.Chemscore.Hbond>
1.6825

> <Gold.PLP.Chemscore.CHOScore>
1.0000

> <Gold.PLP.Chemscore.Metal>
0.0000

> <Gold.Chemscore.Hbonds>
donor molecule, donor type, donor heavy atom, donor atom, acceptor molecule, acceptor atom, score
      P1  H  7954  7966       L1     5  0.59
      P1  H  7989  7998       L1    15  1.00
      L1  C     9    24       P1  7921  1.00

> <Gold.PLP.Chemscore.Internal.Correction>
0.0144

> <Gold.Rescore>
     Score         DG    S(hbond)    S(metal)    S(lipo)     H(rot)  DE(clash)    DE(int)     intcor
     11.43     -11.76       0.82        0.00      59.29       1.32       0.13       0.20       ----

> <Gold.Chemscore.Fitness>
11.4327

> <Gold.Chemscore.DG>
-11.7630

> <Gold.Chemscore.ZeroCoef>
-5.4800

> <Gold.Chemscore.Hbond>
0.8159

> <Gold.Chemscore.Metal>
0.0000

> <Gold.Chemscore.Lipo>
59.2933

> <Gold.Chemscore.Internal_Hbond>
0.0000

> <Gold.Chemscore.DEClash>
0.1326

> <Gold.Chemscore.DEInternal>
0.1977

> <Gold.Chemscore.Rot>
1.3201

> <Gold.Chemscore.Internal.Correction>
   9.000000E+99

> <Gold.Chemscore.Hbonds>
donor molecule, donor type, donor heavy atom, donor atom, acceptor molecule, acceptor atom, score
      P1  H  7954  7966       L1     5  0.57
      P1  H  7989  7998       L1    15  0.13

> <Gold.Chemscore.Hbond.Weighted>
-2.7250

> <Gold.Chemscore.Metal.Weighted>
-0.0000

> <Gold.Chemscore.Lipo.Weighted>
-6.9373

> <Gold.Chemscore.Internal_Hbond.Weighted>
0.0000

> <Gold.Chemscore.DEClash.Weighted>
0.1326

> <Gold.Chemscore.DEInternal.Weighted>
0.1977

> <Gold.Chemscore.Rot.Weighted>
3.3794

> <Gold.Chemscore.Internal.Correction.Weighted>
   9.000000E+99

> <Gold.Protein.RotatedTorsions>
[ 6907 6896 6895 6894 ] final   -0.87 input  -60.11 | X-H torsion
[ 7974 7965 7964 7962 ] final   73.01 input  175.53 | X-H torsion
[ 8008 7997 7996 7995 ] final -169.00 input   59.86 | X-H torsion
[ 10167 10162 10161 10158 ] final -158.47 input  -65.29 | X-H torsion
[ 10718 10713 10712 10709 ] final  -31.88 input   66.30 | X-H torsion
[ 10763 10752 10751 10750 ] final   45.50 input  -60.55 | X-H torsion
[ 11005 11000 10999 10996 ] final    7.52 input  -57.11 | X-H torsion

> <Gold.Protein.ActiveResidues>
 VAL166  LYS551  ARG553  GLY616  TRP617  ASP618  TYR619  PRO620  LYS621  CYS622 
 ASP623  PHE694  ASN695  SER759  ASP760  ASP761  ALA762  ILE779  LEU786  VAL792 
 PHE793  MET794  SER795  GLU796  ALA797  LYS798  CYS799  TRP800  GLU811  SER814 

> <Gold.Protein.RotatedAtoms>
  151.5552  135.1066  159.9959 H   0  0  0  0  0  0  0  0  0  0  0  0  # atno 6907 bound_to 6896
  152.4472  133.7556  159.6729 H   0  0  0  0  0  0  0  0  0  0  0  0  # atno 6908 bound_to 6896
  150.8391  133.7897  159.3092 H   0  0  0  0  0  0  0  0  0  0  0  0  # atno 6909 bound_to 6896
  145.7462  139.2741  143.1458 H   0  0  0  0  0  0  0  0  0  0  0  0  # atno 7974 bound_to 7965
  155.8991  140.1038  157.1363 H   0  0  0  0  0  0  0  0  0  0  0  0  # atno 8008 bound_to 7997
  154.4024  140.1296  156.4477 H   0  0  0  0  0  0  0  0  0  0  0  0  # atno 8009 bound_to 7997
  155.7444  140.3466  155.5122 H   0  0  0  0  0  0  0  0  0  0  0  0  # atno 8010 bound_to 7997
  139.6690  143.9779  152.2272 H   0  0  0  0  0  0  0  0  0  0  0  0  # atno 10167 bound_to 10162
  156.3818  130.4357  149.7463 H   0  0  0  0  0  0  0  0  0  0  0  0  # atno 10718 bound_to 10713
  152.9823  135.6037  154.3447 H   0  0  0  0  0  0  0  0  0  0  0  0  # atno 10763 bound_to 10752
  154.3141  135.2770  155.2553 H   0  0  0  0  0  0  0  0  0  0  0  0  # atno 10764 bound_to 10752
  154.4750  135.5932  153.6404 H   0  0  0  0  0  0  0  0  0  0  0  0  # atno 10765 bound_to 10752
  140.5473  134.0317  155.7924 H   0  0  0  0  0  0  0  0  0  0  0  0  # atno 11005 bound_to 11000
  146.0401  140.8174  142.9833 LP  0  0  0  0  0  0  0  0  0  0  0  0  # atno 17320 bound_to 7965
  144.6859  140.2897  143.7280 LP  0  0  0  0  0  0  0  0  0  0  0  0  # atno 17321 bound_to 7965
  139.9538  144.6603  150.8146 LP  0  0  0  0  0  0  0  0  0  0  0  0  # atno 17342 bound_to 10162
  140.7610  143.3165  151.2720 LP  0  0  0  0  0  0  0  0  0  0  0  0  # atno 17343 bound_to 10162
  156.4550  130.7925  151.2946 LP  0  0  0  0  0  0  0  0  0  0  0  0  # atno 17370 bound_to 10713
  157.7493  131.0083  150.3225 LP  0  0  0  0  0  0  0  0  0  0  0  0  # atno 17371 bound_to 10713
  141.1192  133.9489  157.2762 LP  0  0  0  0  0  0  0  0  0  0  0  0  # atno 17394 bound_to 11000
  139.9473  135.0182  156.8891 LP  0  0  0  0  0  0  0  0  0  0  0  0  # atno 17395 bound_to 11000

$$$$
