AV-unprocessed.smi:864|AV-procd|sdf|3988|dock2
  -GOLD-   22720 1463D 1   1.00000     0.00000
 Structure written by MMmdl.
 45 47  0  0  0  0  0  0  0  0  2 V2000
  146.0454  132.2909  149.6239 C   0  0  0  0  0  0  0  0  0  0  0  0
  146.1862  132.7979  151.0435 C   0  0  0  0  0  0  0  0  0  0  0  0
  145.1647  133.5269  151.6902 C   0  0  0  0  0  0  0  0  0  0  0  0
  145.3661  133.9690  153.0144 C   0  0  0  0  0  0  0  0  0  0  0  0
  146.5839  133.6739  153.6648 C   0  0  0  0  0  0  0  0  0  0  0  0
  146.8350  134.1452  155.0874 C   0  0  0  0  0  0  0  0  0  0  0  0
  146.8358  135.6810  155.2445 C   0  0  0  0  0  0  0  0  0  0  0  0
  147.9034  136.3428  154.4987 N   0  0  0  0  0  0  0  0  0  0  0  0
  148.6847  137.3225  154.9738 C   0  0  0  0  0  0  0  0  0  0  0  0
  148.5838  137.7985  156.1044 O   0  0  0  0  0  0  0  0  0  0  0  0
  149.6128  137.6955  154.0828 N   0  0  0  0  0  0  0  0  0  0  0  0
  150.6638  138.6755  154.3416 C   0  0  2  0  0  0  0  0  0  0  0  0
  151.5625  138.2531  155.5110 C   0  0  0  0  0  0  0  0  0  0  0  0
  151.6196  139.4921  156.3888 C   0  0  0  0  0  0  0  0  0  0  0  0
  152.3019  139.5465  157.4110 O   0  0  0  0  0  0  0  0  0  0  0  0
  150.8408  140.4697  155.9101 N   0  0  0  0  0  0  0  0  0  0  0  0
  150.5755  141.7070  156.5868 C   0  0  0  0  0  0  0  0  0  0  0  0
  151.2706  142.0618  157.8882 C   0  0  0  0  0  0  0  0  0  0  0  0
  149.8194  141.6514  157.8949 C   0  0  0  0  0  0  0  0  0  0  0  0
  150.0769  140.0419  154.7470 C   0  0  0  0  0  0  0  0  0  0  0  0
  147.5682  132.9380  152.9691 C   0  0  0  0  0  0  0  0  0  0  0  0
  147.3378  132.5344  151.7009 N   0  3  0  0  0  0  0  0  0  0  0  0
  145.0707  132.5491  149.2087 H   0  0  0  0  0  0  0  0  0  0  0  0
  146.1504  131.2060  149.5954 H   0  0  0  0  0  0  0  0  0  0  0  0
  146.8141  132.7285  148.9863 H   0  0  0  0  0  0  0  0  0  0  0  0
  144.2376  133.7468  151.1809 H   0  0  0  0  0  0  0  0  0  0  0  0
  144.5951  134.5301  153.5223 H   0  0  0  0  0  0  0  0  0  0  0  0
  146.0784  133.7116  155.7423 H   0  0  0  0  0  0  0  0  0  0  0  0
  147.7882  133.7389  155.4279 H   0  0  0  0  0  0  0  0  0  0  0  0
  145.8920  136.0800  154.8722 H   0  0  0  0  0  0  0  0  0  0  0  0
  146.8913  135.9556  156.2989 H   0  0  0  0  0  0  0  0  0  0  0  0
  148.0648  136.0218  153.5552 H   0  0  0  0  0  0  0  0  0  0  0  0
  149.6141  137.2512  153.1762 H   0  0  0  0  0  0  0  0  0  0  0  0
  151.2841  138.7931  153.4507 H   0  0  0  0  0  0  0  0  0  0  0  0
  151.1402  137.4270  156.0846 H   0  0  0  0  0  0  0  0  0  0  0  0
  152.5600  137.9668  155.1764 H   0  0  0  0  0  0  0  0  0  0  0  0
  150.3502  142.5564  155.9433 H   0  0  0  0  0  0  0  0  0  0  0  0
  151.9835  141.3664  158.3250 H   0  0  0  0  0  0  0  0  0  0  0  0
  151.4905  143.1128  158.0642 H   0  0  0  0  0  0  0  0  0  0  0  0
  149.0777  142.4260  158.0787 H   0  0  0  0  0  0  0  0  0  0  0  0
  149.5787  140.6709  158.3018 H   0  0  0  0  0  0  0  0  0  0  0  0
  150.1671  140.7580  153.9294 H   0  0  0  0  0  0  0  0  0  0  0  0
  149.0228  139.9699  155.0213 H   0  0  0  0  0  0  0  0  0  0  0  0
  148.5297  132.6691  153.3825 H   0  0  0  0  0  0  0  0  0  0  0  0
  148.0651  132.0064  151.2180 H   0  0  0  0  0  0  0  0  0  0  0  0
  1  2  1  0  0  0  0
  1 23  1  0  0  0  0
  1 24  1  0  0  0  0
  1 25  1  0  0  0  0
  2 22  1  0  0  0  0
  2  3  2  0  0  0  0
  3  4  1  0  0  0  0
  3 26  1  0  0  0  0
  4  5  2  0  0  0  0
  4 27  1  0  0  0  0
  5  6  1  0  0  0  0
  5 21  1  0  0  0  0
  6  7  1  0  0  0  0
  6 28  1  0  0  0  0
  6 29  1  0  0  0  0
  7  8  1  0  0  0  0
  7 30  1  0  0  0  0
  7 31  1  0  0  0  0
  8  9  1  0  0  0  0
  8 32  1  0  0  0  0
  9 10  2  0  0  0  0
  9 11  1  0  0  0  0
 11 12  1  0  0  0  0
 11 33  1  0  0  0  0
 12 20  1  0  0  0  0
 12 13  1  0  0  0  0
 12 34  1  0  0  0  0
 13 14  1  0  0  0  0
 13 35  1  0  0  0  0
 13 36  1  0  0  0  0
 14 15  2  0  0  0  0
 14 16  1  0  0  0  0
 16 17  1  0  0  0  0
 16 20  1  0  0  0  0
 17 19  1  0  0  0  0
 17 18  1  0  0  0  0
 17 37  1  0  0  0  0
 18 19  1  0  0  0  0
 18 38  1  0  0  0  0
 18 39  1  0  0  0  0
 19 40  1  0  0  0  0
 19 41  1  0  0  0  0
 20 42  1  0  0  0  0
 20 43  1  0  0  0  0
 21 22  2  0  0  0  0
 21 44  1  0  0  0  0
 22 45  1  0  0  0  0
M  CHG  1  22   1
M  END
> <s_m_source_file>
AV-unprocessed.smi

> <i_m_source_file_index>
864

> <i_lp_mmshare_version>
43012

> <i_f3d_flags>
0

> <s_epik_input>
W0NIM11jMVtjSF1bY0hdYyhbY0hdbjEpW0NIMl1bQ0gyXVtOSF1DKD1PKVtOSF1bQ0BASF0yW0NIMl1DKD1PKU4oW0NIMl0yKVtDSF0zW0NIMl1bQ0gyXTM=

> <s_epik_cmdline>
J2VwaWtfcHl0aG9uJywgJy1waCcsICc3LjAnLCAnLXRuJywgJzgnLCAnLW1hJywgJzIwMCcsICctbWV0YWxfYmluZGluZycsICctaW1hZScsICc8aW5maWxlLm1hZT4nLCAnLW9tYWUnLCAnPG91dGZpbGUubWFlPic=

> <r_epik_Ionization_Penalty>
1.42657

> <r_epik_Ionization_Penalty_Charging>
1.42653

> <r_epik_Ionization_Penalty_Neutral>
4.57062e-05

> <r_epik_State_Penalty>
1.51075

> <r_epik_Charging_Adjusted_Penalty>
2.93728

> <i_epik_Tot_Q>
1

> <i_epik_Tot_abs_Q>
1

> <r_epik_Metal_State_Penalty>
1.56242

> <b_epik_Metal_Only>
0

> <s_lp_Force_Field>
OPLS_2005

> <r_lp_Energy>
41.1174

> <b_lp_Chiralities_Consistent>
1

> <s_lp_Variant>
AV-unprocessed.smi:864-3

> <Gold.Version>
5.8.1

> <Gold.Id.Protein>
6NUR|6NUR_protein|mol2

> <Gold.PLP.Fitness>
49.5149

> <Gold.PLP.PLP>
-37.8195

> <Gold.PLP.part.hbond>
-4.0000

> <Gold.PLP.part.metal>
0.0000

> <Gold.PLP.part.buried>
-3.1592

> <Gold.PLP.part.nonpolar>
-29.3909

> <Gold.PLP.part.repulsive>
0.0880

> <Gold.PLP.ligand.clash>
0.0000

> <Gold.PLP.ligand.torsion>
0.2702

> <Gold.PLP.Chemscore.Hbond>
3.9920

> <Gold.PLP.Chemscore.CHOScore>
0.0000

> <Gold.PLP.Chemscore.Metal>
0.0000

> <Gold.Chemscore.Hbonds>
donor molecule, donor type, donor heavy atom, donor atom, acceptor molecule, acceptor atom, score
      L1  H     8    32       P1  7948  0.99
      L1  H    11    33       P1  7948  1.00
      L1  H    22    45       P1 10747  1.00
      P1  H  7997  8009       L1    15  0.39

> <Gold.PLP.Chemscore.Internal.Correction>
0.2599

> <Gold.Rescore>
     Score         DG    S(hbond)    S(metal)    S(lipo)     H(rot)  DE(clash)    DE(int)     intcor
     19.28     -22.53       3.71        0.00      79.94       1.84       0.00       3.24       ----

> <Gold.Chemscore.Fitness>
19.2804

> <Gold.Chemscore.DG>
-22.5262

> <Gold.Chemscore.ZeroCoef>
-5.4800

> <Gold.Chemscore.Hbond>
3.7120

> <Gold.Chemscore.Metal>
0.0000

> <Gold.Chemscore.Lipo>
79.9445

> <Gold.Chemscore.Internal_Hbond>
0.0000

> <Gold.Chemscore.DEClash>
0.0042

> <Gold.Chemscore.DEInternal>
3.2416

> <Gold.Chemscore.Rot>
1.8381

> <Gold.Chemscore.Internal.Correction>
   9.000000E+99

> <Gold.Chemscore.Hbonds>
donor molecule, donor type, donor heavy atom, donor atom, acceptor molecule, acceptor atom, score
      L1  H     8    32       P1  7948  0.94
      L1  H    11    33       P1  7948  0.69
      L1  H    22    45       P1 10747  1.00
      P1  H  7997  8009       L1    15  0.24

> <Gold.Chemscore.Hbond.Weighted>
-12.3981

> <Gold.Chemscore.Metal.Weighted>
-0.0000

> <Gold.Chemscore.Lipo.Weighted>
-9.3535

> <Gold.Chemscore.Internal_Hbond.Weighted>
0.0000

> <Gold.Chemscore.DEClash.Weighted>
0.0042

> <Gold.Chemscore.DEInternal.Weighted>
3.2416

> <Gold.Chemscore.Rot.Weighted>
4.7054

> <Gold.Chemscore.Internal.Correction.Weighted>
   9.000000E+99

> <Gold.Protein.RotatedTorsions>
[ 6907 6896 6895 6894 ] final   53.39 input  -60.11 | X-H torsion
[ 7974 7965 7964 7962 ] final   98.42 input  175.53 | X-H torsion
[ 8008 7997 7996 7995 ] final  172.19 input   59.86 | X-H torsion
[ 10167 10162 10161 10158 ] final  -58.05 input  -65.29 | X-H torsion
[ 10718 10713 10712 10709 ] final  -20.25 input   66.30 | X-H torsion
[ 10763 10752 10751 10750 ] final  103.44 input  -60.55 | X-H torsion
[ 11005 11000 10999 10996 ] final    7.79 input  -57.11 | X-H torsion

> <Gold.Protein.ActiveResidues>
 VAL166  LYS551  ARG553  GLY616  TRP617  ASP618  TYR619  PRO620  LYS621  CYS622 
 ASP623  PHE694  ASN695  SER759  ASP760  ASP761  ALA762  ILE779  LEU786  VAL792 
 PHE793  MET794  SER795  GLU796  ALA797  LYS798  CYS799  TRP800  GLU811  SER814 

> <Gold.Protein.RotatedAtoms>
  152.3332  134.7232  160.0283 H   0  0  0  0  0  0  0  0  0  0  0  0  # atno 6907 bound_to 6896
  151.7642  133.3330  159.3434 H   0  0  0  0  0  0  0  0  0  0  0  0  # atno 6908 bound_to 6896
  150.7435  134.6010  159.6081 H   0  0  0  0  0  0  0  0  0  0  0  0  # atno 6909 bound_to 6896
  145.4124  139.2332  143.3241 H   0  0  0  0  0  0  0  0  0  0  0  0  # atno 7974 bound_to 7965
  156.1199  140.1492  156.9219 H   0  0  0  0  0  0  0  0  0  0  0  0  # atno 8008 bound_to 7997
  154.4828  140.0874  156.7458 H   0  0  0  0  0  0  0  0  0  0  0  0  # atno 8009 bound_to 7997
  155.4447  140.3432  155.4296 H   0  0  0  0  0  0  0  0  0  0  0  0  # atno 8010 bound_to 7997
  140.6221  143.2424  151.5454 H   0  0  0  0  0  0  0  0  0  0  0  0  # atno 10167 bound_to 10162
  156.5345  130.4663  149.6530 H   0  0  0  0  0  0  0  0  0  0  0  0  # atno 10718 bound_to 10713
  153.3527  135.3977  155.1658 H   0  0  0  0  0  0  0  0  0  0  0  0  # atno 10763 bound_to 10752
  154.8665  135.3660  154.5201 H   0  0  0  0  0  0  0  0  0  0  0  0  # atno 10764 bound_to 10752
  153.5654  135.7080  153.5588 H   0  0  0  0  0  0  0  0  0  0  0  0  # atno 10765 bound_to 10752
  140.5443  134.0344  155.7915 H   0  0  0  0  0  0  0  0  0  0  0  0  # atno 11005 bound_to 11000
  146.2698  140.4838  142.8819 LP  0  0  0  0  0  0  0  0  0  0  0  0  # atno 17320 bound_to 7965
  144.8300  140.6691  143.6297 LP  0  0  0  0  0  0  0  0  0  0  0  0  # atno 17321 bound_to 7965
  139.5448  144.2551  152.1420 LP  0  0  0  0  0  0  0  0  0  0  0  0  # atno 17342 bound_to 10162
  140.1774  144.4878  150.6547 LP  0  0  0  0  0  0  0  0  0  0  0  0  # atno 17343 bound_to 10162
  156.3029  130.7187  151.2062 LP  0  0  0  0  0  0  0  0  0  0  0  0  # atno 17370 bound_to 10713
  157.7416  131.0501  150.5085 LP  0  0  0  0  0  0  0  0  0  0  0  0  # atno 17371 bound_to 10713
  141.1209  133.9463  157.2732 LP  0  0  0  0  0  0  0  0  0  0  0  0  # atno 17394 bound_to 11000
  139.9488  135.0179  156.8931 LP  0  0  0  0  0  0  0  0  0  0  0  0  # atno 17395 bound_to 11000

$$$$
