AV-unprocessed.smi:2916|AV-procd|sdf|11188|dock3
  -GOLD-   2272016 83D 1   1.00000     0.00000
 Structure written by MMmdl.
 38 39  0  0  0  0  0  0  0  0  2 V2000
  148.9077  139.0201  154.0840 N   0  0  0  0  0  0  0  0  0  0  0  0
  149.7285  139.9770  154.5307 C   0  0  0  0  0  0  0  0  0  0  0  0
  150.9490  139.8396  154.4738 O   0  0  0  0  0  0  0  0  0  0  0  0
  149.0937  141.2830  155.0791 C   0  0  0  0  0  0  0  0  0  0  0  0
  150.1979  142.1891  155.4987 N   0  3  0  0  0  0  0  0  0  0  0  0
  151.0111  141.8044  156.6793 C   0  0  0  0  0  0  0  0  0  0  0  0
  150.3168  142.2235  157.9865 C   0  0  0  0  0  0  0  0  0  0  0  0
  151.0482  143.2507  158.7087 N   0  0  0  0  0  0  0  0  0  0  0  0
  151.3997  144.5129  158.2782 C   0  0  0  0  0  0  0  0  0  0  0  0
  152.0910  145.1108  159.2925 C   0  0  0  0  0  0  0  0  0  0  0  0
  152.1245  144.1179  160.3109 C   0  0  0  0  0  0  0  0  0  0  0  0
  151.5036  143.0046  159.9564 N   0  0  0  0  0  0  0  0  0  0  0  0
  148.2908  142.0208  153.9695 C   0  0  0  0  0  0  0  0  0  0  0  0
  147.0119  141.2808  153.5372 C   0  0  0  0  0  0  0  0  0  0  0  0
  146.0852  141.0491  154.7373 C   0  0  0  0  0  0  0  0  0  0  0  0
  146.8164  140.3001  155.8592 C   0  0  0  0  0  0  0  0  0  0  0  0
  148.1182  141.0197  156.2681 C   0  0  0  0  0  0  0  0  0  0  0  0
  149.2956  138.1508  153.7453 H   0  0  0  0  0  0  0  0  0  0  0  0
  147.9070  139.1523  154.1069 H   0  0  0  0  0  0  0  0  0  0  0  0
  150.8222  142.2975  154.7128 H   0  0  0  0  0  0  0  0  0  0  0  0
  151.1835  140.7287  156.6914 H   0  0  0  0  0  0  0  0  0  0  0  0
  151.9905  142.2803  156.6315 H   0  0  0  0  0  0  0  0  0  0  0  0
  149.3171  142.6043  157.7740 H   0  0  0  0  0  0  0  0  0  0  0  0
  150.1908  141.3588  158.6394 H   0  0  0  0  0  0  0  0  0  0  0  0
  151.1303  144.8784  157.2981 H   0  0  0  0  0  0  0  0  0  0  0  0
  152.5135  146.1047  159.3033 H   0  0  0  0  0  0  0  0  0  0  0  0
  152.5793  144.1719  161.2891 H   0  0  0  0  0  0  0  0  0  0  0  0
  148.0047  143.0087  154.3343 H   0  0  0  0  0  0  0  0  0  0  0  0
  148.9118  142.2118  153.0933 H   0  0  0  0  0  0  0  0  0  0  0  0
  146.4889  141.8621  152.7773 H   0  0  0  0  0  0  0  0  0  0  0  0
  147.2634  140.3270  153.0723 H   0  0  0  0  0  0  0  0  0  0  0  0
  145.7257  142.0084  155.1123 H   0  0  0  0  0  0  0  0  0  0  0  0
  145.2031  140.4883  154.4265 H   0  0  0  0  0  0  0  0  0  0  0  0
  146.1607  140.2078  156.7254 H   0  0  0  0  0  0  0  0  0  0  0  0
  147.0313  139.2816  155.5359 H   0  0  0  0  0  0  0  0  0  0  0  0
  148.5998  140.4325  157.0507 H   0  0  0  0  0  0  0  0  0  0  0  0
  147.8553  141.9712  156.7330 H   0  0  0  0  0  0  0  0  0  0  0  0
  149.7882  143.0898  155.7029 H   0  0  0  0  0  0  0  0  0  0  0  0
  1  2  1  0  0  0  0
  1 18  1  0  0  0  0
  1 19  1  0  0  0  0
  2  3  2  0  0  0  0
  2  4  1  0  0  0  0
  4 17  1  0  0  0  0
  4  5  1  0  0  0  0
  4 13  1  0  0  0  0
  5  6  1  0  0  0  0
  5 20  1  0  0  0  0
  5 38  1  0  0  0  0
  6  7  1  0  0  0  0
  6 21  1  0  0  0  0
  6 22  1  0  0  0  0
  7  8  1  0  0  0  0
  7 23  1  0  0  0  0
  7 24  1  0  0  0  0
  8 12  1  0  0  0  0
  8  9  1  0  0  0  0
  9 10  2  0  0  0  0
  9 25  1  0  0  0  0
 10 11  1  0  0  0  0
 10 26  1  0  0  0  0
 11 12  2  0  0  0  0
 11 27  1  0  0  0  0
 13 14  1  0  0  0  0
 13 28  1  0  0  0  0
 13 29  1  0  0  0  0
 14 15  1  0  0  0  0
 14 30  1  0  0  0  0
 14 31  1  0  0  0  0
 15 16  1  0  0  0  0
 15 32  1  0  0  0  0
 15 33  1  0  0  0  0
 16 17  1  0  0  0  0
 16 34  1  0  0  0  0
 16 35  1  0  0  0  0
 17 36  1  0  0  0  0
 17 37  1  0  0  0  0
M  CHG  1   5   1
M  END
> <s_m_source_file>
AV-unprocessed.smi

> <i_m_source_file_index>
2916

> <i_lp_mmshare_version>
43012

> <i_f3d_flags>
0

> <s_epik_input>
W0NIMl0xW0NIMl1bQ0gyXVtDSDJdW0NIMl1DMShDKD1PKVtOSDJdKVtOSF1bQ0gyXVtDSDJdbjJbY0hdW2NIXVtjSF1uMg==

> <s_epik_cmdline>
J2VwaWtfcHl0aG9uJywgJy1waCcsICc3LjAnLCAnLXRuJywgJzgnLCAnLW1hJywgJzIwMCcsICctbWV0YWxfYmluZGluZycsICctaW1hZScsICc8aW5maWxlLm1hZT4nLCAnLW9tYWUnLCAnPG91dGZpbGUubWFlPic=

> <r_lp_tautomer_probability>
1

> <r_epik_Ionization_Penalty>
0.147888

> <r_epik_Ionization_Penalty_Charging>
0.147883

> <r_epik_Ionization_Penalty_Neutral>
4.65475e-06

> <r_epik_State_Penalty>
0.137176

> <r_epik_Charging_Adjusted_Penalty>
0.285059

> <i_epik_Tot_Q>
1

> <i_epik_Tot_abs_Q>
1

> <r_epik_Metal_State_Penalty>
0.137393

> <b_epik_Metal_Only>
0

> <s_lp_Force_Field>
OPLS_2005

> <r_lp_Energy>
14.4928

> <b_lp_Chiralities_Consistent>
1

> <s_lp_Variant>
AV-unprocessed.smi:2916-1

> <Gold.Version>
5.8.1

> <Gold.Id.Protein>
6NUR|6NUR_protein|mol2

> <Gold.PLP.Fitness>
45.3397

> <Gold.PLP.PLP>
-34.3734

> <Gold.PLP.part.hbond>
-2.1119

> <Gold.PLP.part.metal>
0.0000

> <Gold.PLP.part.buried>
-4.7485

> <Gold.PLP.part.nonpolar>
-27.9048

> <Gold.PLP.part.repulsive>
0.3413

> <Gold.PLP.ligand.clash>
0.0000

> <Gold.PLP.ligand.torsion>
0.5513

> <Gold.PLP.Chemscore.Hbond>
3.0000

> <Gold.PLP.Chemscore.CHOScore>
0.9943

> <Gold.PLP.Chemscore.Metal>
0.0000

> <Gold.Chemscore.Hbonds>
donor molecule, donor type, donor heavy atom, donor atom, acceptor molecule, acceptor atom, score
      L1  H     5    38       P1  8028  2.00
      P1  H  7989  7998       L1     3  1.00
      L1  C     9    25       P1  8028  0.48

> <Gold.PLP.Chemscore.Internal.Correction>
0.0861

> <Gold.Rescore>
     Score         DG    S(hbond)    S(metal)    S(lipo)     H(rot)  DE(clash)    DE(int)     intcor
     13.51     -15.78       2.00        0.00      80.52       2.26       0.03       2.24       ----

> <Gold.Chemscore.Fitness>
13.5113

> <Gold.Chemscore.DG>
-15.7842

> <Gold.Chemscore.ZeroCoef>
-5.4800

> <Gold.Chemscore.Hbond>
1.9982

> <Gold.Chemscore.Metal>
0.0000

> <Gold.Chemscore.Lipo>
80.5195

> <Gold.Chemscore.Internal_Hbond>
0.0000

> <Gold.Chemscore.DEClash>
0.0283

> <Gold.Chemscore.DEInternal>
2.2447

> <Gold.Chemscore.Rot>
2.2619

> <Gold.Chemscore.Internal.Correction>
   9.000000E+99

> <Gold.Chemscore.Hbonds>
donor molecule, donor type, donor heavy atom, donor atom, acceptor molecule, acceptor atom, score
      L1  H     5    38       P1  8028  1.00
      P1  H  7989  7998       L1     3  0.83

> <Gold.Chemscore.Hbond.Weighted>
-6.6738

> <Gold.Chemscore.Metal.Weighted>
-0.0000

> <Gold.Chemscore.Lipo.Weighted>
-9.4208

> <Gold.Chemscore.Internal_Hbond.Weighted>
0.0000

> <Gold.Chemscore.DEClash.Weighted>
0.0283

> <Gold.Chemscore.DEInternal.Weighted>
2.2447

> <Gold.Chemscore.Rot.Weighted>
5.7904

> <Gold.Chemscore.Internal.Correction.Weighted>
   9.000000E+99

> <Gold.Protein.RotatedTorsions>
[ 6907 6896 6895 6894 ] final   22.85 input  -60.11 | X-H torsion
[ 7974 7965 7964 7962 ] final   36.08 input  175.53 | X-H torsion
[ 8008 7997 7996 7995 ] final  -34.32 input   59.86 | X-H torsion
[ 10167 10162 10161 10158 ] final -163.64 input  -65.29 | X-H torsion
[ 10718 10713 10712 10709 ] final  -82.57 input   66.30 | X-H torsion
[ 10763 10752 10751 10750 ] final  101.41 input  -60.55 | X-H torsion
[ 11005 11000 10999 10996 ] final  -90.43 input  -57.11 | X-H torsion

> <Gold.Protein.ActiveResidues>
 VAL166  LYS551  ARG553  GLY616  TRP617  ASP618  TYR619  PRO620  LYS621  CYS622 
 ASP623  PHE694  ASN695  SER759  ASP760  ASP761  ALA762  ILE779  LEU786  VAL792 
 PHE793  MET794  SER795  GLU796  ALA797  LYS798  CYS799  TRP800  GLU811  SER814 

> <Gold.Protein.RotatedAtoms>
  151.9334  135.0246  160.0530 H   0  0  0  0  0  0  0  0  0  0  0  0  # atno 6907 bound_to 6896
  152.2098  133.4898  159.5112 H   0  0  0  0  0  0  0  0  0  0  0  0  # atno 6908 bound_to 6896
  150.6973  134.1398  159.4143 H   0  0  0  0  0  0  0  0  0  0  0  0  # atno 6909 bound_to 6896
  146.1237  139.6061  142.9273 H   0  0  0  0  0  0  0  0  0  0  0  0  # atno 7974 bound_to 7965
  154.4124  140.1687  156.2030 H   0  0  0  0  0  0  0  0  0  0  0  0  # atno 8008 bound_to 7997
  155.9508  140.3401  155.6383 H   0  0  0  0  0  0  0  0  0  0  0  0  # atno 8009 bound_to 7997
  155.6872  140.0729  157.2453 H   0  0  0  0  0  0  0  0  0  0  0  0  # atno 8010 bound_to 7997
  139.6307  144.0446  152.2013 H   0  0  0  0  0  0  0  0  0  0  0  0  # atno 10167 bound_to 10162
  156.0031  130.4638  150.4124 H   0  0  0  0  0  0  0  0  0  0  0  0  # atno 10718 bound_to 10713
  153.3263  135.4045  155.1458 H   0  0  0  0  0  0  0  0  0  0  0  0  # atno 10763 bound_to 10752
  154.8612  135.3599  154.5530 H   0  0  0  0  0  0  0  0  0  0  0  0  # atno 10764 bound_to 10752
  153.5966  135.7072  153.5460 H   0  0  0  0  0  0  0  0  0  0  0  0  # atno 10765 bound_to 10752
  141.1566  133.7691  156.9736 H   0  0  0  0  0  0  0  0  0  0  0  0  # atno 11005 bound_to 11000
  145.5412  141.0420  143.2329 LP  0  0  0  0  0  0  0  0  0  0  0  0  # atno 17320 bound_to 7965
  144.7621  139.6931  143.7230 LP  0  0  0  0  0  0  0  0  0  0  0  0  # atno 17321 bound_to 7965
  140.0110  144.6223  150.7647 LP  0  0  0  0  0  0  0  0  0  0  0  0  # atno 17342 bound_to 10162
  140.7437  143.2850  151.3489 LP  0  0  0  0  0  0  0  0  0  0  0  0  # atno 17343 bound_to 10162
  157.2186  131.0477  151.2559 LP  0  0  0  0  0  0  0  0  0  0  0  0  # atno 17370 bound_to 10713
  157.3821  130.7237  149.6638 LP  0  0  0  0  0  0  0  0  0  0  0  0  # atno 17371 bound_to 10713
  140.1112  134.9475  157.2069 LP  0  0  0  0  0  0  0  0  0  0  0  0  # atno 17394 bound_to 11000
  140.3191  134.2937  155.7250 LP  0  0  0  0  0  0  0  0  0  0  0  0  # atno 17395 bound_to 11000

$$$$
