AV-unprocessed.smi:3324|AV-procd|sdf|12783|dock9
  -GOLD-   2272019133D 1   1.00000     0.00000
 Structure written by MMmdl.
 30 30  0  0  0  0  0  0  0  0  3 V2000
  146.8641  139.0732  151.7029 O   0  0  0  0  0  0  0  0  0  0  0  0
  146.7487  138.5535  152.8172 C   0  0  0  0  0  0  0  0  0  0  0  0
  145.8150  137.3508  152.9647 C   0  0  0  0  0  0  0  0  0  0  0  0
  146.3201  136.2358  152.1405 N   0  3  0  0  0  0  0  0  0  0  0  0
  145.7113  136.1525  150.8004 C   0  0  0  0  0  0  0  0  0  0  0  0
  144.4484  135.2808  150.8230 C   0  0  0  0  0  0  0  0  0  0  0  0
  144.7641  133.8782  150.6354 N   0  0  0  0  0  0  0  0  0  0  0  0
  143.9017  132.8273  150.4033 C   0  0  0  0  0  0  0  0  0  0  0  0
  144.6604  131.6977  150.2892 C   0  0  0  0  0  0  0  0  0  0  0  0
  145.9923  132.1651  150.4700 C   0  0  0  0  0  0  0  0  0  0  0  0
  146.0508  133.4713  150.6758 N   0  0  0  0  0  0  0  0  0  0  0  0
  147.3264  138.8698  154.0083 N   0  5  0  0  0  0  0  0  0  0  0  0
  148.5928  139.5943  154.1247 C   0  0  0  0  0  0  0  0  0  0  0  0
  148.3942  140.9239  154.8765 C   0  0  0  0  0  0  0  0  0  0  0  0
  149.5722  141.5334  155.0087 F   0  0  0  0  0  0  0  0  0  0  0  0
  147.5742  141.7297  154.1995 F   0  0  0  0  0  0  0  0  0  0  0  0
  147.8907  140.7069  156.0927 F   0  0  0  0  0  0  0  0  0  0  0  0
  145.7665  137.0435  154.0104 H   0  0  0  0  0  0  0  0  0  0  0  0
  144.8036  137.6214  152.6567 H   0  0  0  0  0  0  0  0  0  0  0  0
  147.3187  136.3575  152.0441 H   0  0  0  0  0  0  0  0  0  0  0  0
  145.4654  137.1581  150.4558 H   0  0  0  0  0  0  0  0  0  0  0  0
  146.4409  135.7402  150.1018 H   0  0  0  0  0  0  0  0  0  0  0  0
  143.9195  135.3958  151.7705 H   0  0  0  0  0  0  0  0  0  0  0  0
  143.7588  135.5886  150.0357 H   0  0  0  0  0  0  0  0  0  0  0  0
  142.8327  132.9684  150.3385 H   0  0  0  0  0  0  0  0  0  0  0  0
  144.3167  130.6905  150.1049 H   0  0  0  0  0  0  0  0  0  0  0  0
  146.9117  131.5986  150.4572 H   0  0  0  0  0  0  0  0  0  0  0  0
  149.3441  139.0021  154.6493 H   0  0  0  0  0  0  0  0  0  0  0  0
  149.0172  139.8055  153.1421 H   0  0  0  0  0  0  0  0  0  0  0  0
  146.1485  135.3738  152.6371 H   0  0  0  0  0  0  0  0  0  0  0  0
  1  2  2  0  0  0  0
  2  3  1  0  0  0  0
  2 12  1  0  0  0  0
  3  4  1  0  0  0  0
  3 18  1  0  0  0  0
  3 19  1  0  0  0  0
  4  5  1  0  0  0  0
  4 20  1  0  0  0  0
  4 30  1  0  0  0  0
  5  6  1  0  0  0  0
  5 21  1  0  0  0  0
  5 22  1  0  0  0  0
  6  7  1  0  0  0  0
  6 23  1  0  0  0  0
  6 24  1  0  0  0  0
  7 11  1  0  0  0  0
  7  8  1  0  0  0  0
  8  9  2  0  0  0  0
  8 25  1  0  0  0  0
  9 10  1  0  0  0  0
  9 26  1  0  0  0  0
 10 11  2  0  0  0  0
 10 27  1  0  0  0  0
 12 13  1  0  0  0  0
 13 14  1  0  0  0  0
 13 28  1  0  0  0  0
 13 29  1  0  0  0  0
 14 15  1  0  0  0  0
 14 16  1  0  0  0  0
 14 17  1  0  0  0  0
M  CHG  1   4   1
M  CHG  1  12  -1
M  END
> <s_m_source_file>
AV-unprocessed.smi

> <i_m_source_file_index>
3324

> <i_lp_mmshare_version>
43012

> <i_f3d_flags>
0

> <s_epik_input>
RkMoRikoRilbQ0gyXVtOSF1DKD1PKVtDSDJdW05IXVtDSDJdW0NIMl1uMVtjSF1bY0hdW2NIXW4x

> <s_epik_cmdline>
J2VwaWtfcHl0aG9uJywgJy1waCcsICc3LjAnLCAnLXRuJywgJzgnLCAnLW1hJywgJzIwMCcsICctbWV0YWxfYmluZGluZycsICctaW1hZScsICc8aW5maWxlLm1hZT4nLCAnLW9tYWUnLCAnPG91dGZpbGUubWFlPic=

> <r_lp_tautomer_probability>
1

> <r_epik_Ionization_Penalty>
6.17309

> <r_epik_Ionization_Penalty_Charging>
6.17309

> <r_epik_Ionization_Penalty_Neutral>
2.40201e-06

> <r_epik_State_Penalty>
6.46579

> <r_epik_Charging_Adjusted_Penalty>
12.6389

> <i_epik_Tot_Q>
0

> <i_epik_Tot_abs_Q>
2

> <r_epik_Metal_State_Penalty>
2.40143

> <b_epik_Metal_Only>
1

> <s_lp_Force_Field>
OPLS_2005

> <r_lp_Energy>
2.56422

> <b_lp_Chiralities_Consistent>
1

> <s_lp_Variant>
AV-unprocessed.smi:3324-3

> <Gold.Version>
5.8.1

> <Gold.Id.Protein>
6NUR|6NUR_protein|mol2

> <Gold.PLP.Fitness>
43.4435

> <Gold.PLP.PLP>
-32.9749

> <Gold.PLP.part.hbond>
-1.0000

> <Gold.PLP.part.metal>
0.0000

> <Gold.PLP.part.buried>
-4.1733

> <Gold.PLP.part.nonpolar>
-29.1316

> <Gold.PLP.part.repulsive>
1.8316

> <Gold.PLP.ligand.clash>
0.0000

> <Gold.PLP.ligand.torsion>
0.8093

> <Gold.PLP.Chemscore.Hbond>
2.0000

> <Gold.PLP.Chemscore.CHOScore>
2.0000

> <Gold.PLP.Chemscore.Metal>
0.0000

> <Gold.Chemscore.Hbonds>
donor molecule, donor type, donor heavy atom, donor atom, acceptor molecule, acceptor atom, score
      L1  H     4    20       P1  7948  2.00
      L1  C     8    25       P1 10186  1.00
      L1  C    10    27       P1 10747  1.00

> <Gold.PLP.Chemscore.Internal.Correction>
0.0872

> <Gold.Rescore>
     Score         DG    S(hbond)    S(metal)    S(lipo)     H(rot)  DE(clash)    DE(int)     intcor
      7.27      -8.35       1.00        0.00      58.02       2.83       0.04       1.05       ----

> <Gold.Chemscore.Fitness>
7.2671

> <Gold.Chemscore.DG>
-8.3529

> <Gold.Chemscore.ZeroCoef>
-5.4800

> <Gold.Chemscore.Hbond>
1.0000

> <Gold.Chemscore.Metal>
0.0000

> <Gold.Chemscore.Lipo>
58.0203

> <Gold.Chemscore.Internal_Hbond>
0.0000

> <Gold.Chemscore.DEClash>
0.0392

> <Gold.Chemscore.DEInternal>
1.0466

> <Gold.Chemscore.Rot>
2.8342

> <Gold.Chemscore.Internal.Correction>
   9.000000E+99

> <Gold.Chemscore.Hbonds>
donor molecule, donor type, donor heavy atom, donor atom, acceptor molecule, acceptor atom, score
      L1  H     4    20       P1  7948  0.99
      P1  H  7954  7966       L1     1  0.01

> <Gold.Chemscore.Hbond.Weighted>
-3.3399

> <Gold.Chemscore.Metal.Weighted>
-0.0000

> <Gold.Chemscore.Lipo.Weighted>
-6.7884

> <Gold.Chemscore.Internal_Hbond.Weighted>
0.0000

> <Gold.Chemscore.DEClash.Weighted>
0.0392

> <Gold.Chemscore.DEInternal.Weighted>
1.0466

> <Gold.Chemscore.Rot.Weighted>
7.2555

> <Gold.Chemscore.Internal.Correction.Weighted>
   9.000000E+99

> <Gold.Protein.RotatedTorsions>
[ 6907 6896 6895 6894 ] final   95.02 input  -60.11 | X-H torsion
[ 7974 7965 7964 7962 ] final   44.21 input  175.53 | X-H torsion
[ 8008 7997 7996 7995 ] final -100.30 input   59.86 | X-H torsion
[ 10167 10162 10161 10158 ] final -119.86 input  -65.29 | X-H torsion
[ 10718 10713 10712 10709 ] final  -90.76 input   66.30 | X-H torsion
[ 10763 10752 10751 10750 ] final   46.05 input  -60.55 | X-H torsion
[ 11005 11000 10999 10996 ] final  -74.25 input  -57.11 | X-H torsion

> <Gold.Protein.ActiveResidues>
 VAL166  LYS551  ARG553  GLY616  TRP617  ASP618  TYR619  PRO620  LYS621  CYS622 
 ASP623  PHE694  ASN695  SER759  ASP760  ASP761  ALA762  ILE779  LEU786  VAL792 
 PHE793  MET794  SER795  GLU796  ALA797  LYS798  CYS799  TRP800  GLU811  SER814 

> <Gold.Protein.RotatedAtoms>
  152.5446  134.1104  159.8355 H   0  0  0  0  0  0  0  0  0  0  0  0  # atno 6907 bound_to 6896
  151.1171  133.5123  159.2611 H   0  0  0  0  0  0  0  0  0  0  0  0  # atno 6908 bound_to 6896
  151.1820  135.0374  159.8851 H   0  0  0  0  0  0  0  0  0  0  0  0  # atno 6909 bound_to 6896
  146.0588  139.5100  142.9671 H   0  0  0  0  0  0  0  0  0  0  0  0  # atno 7974 bound_to 7965
  154.8268  140.0442  157.1449 H   0  0  0  0  0  0  0  0  0  0  0  0  # atno 8008 bound_to 7997
  154.9197  140.3025  155.5202 H   0  0  0  0  0  0  0  0  0  0  0  0  # atno 8009 bound_to 7997
  156.2984  140.2343  156.4246 H   0  0  0  0  0  0  0  0  0  0  0  0  # atno 8010 bound_to 7997
  140.0421  143.5143  152.2125 H   0  0  0  0  0  0  0  0  0  0  0  0  # atno 10167 bound_to 10162
  155.9989  130.4922  150.5371 H   0  0  0  0  0  0  0  0  0  0  0  0  # atno 10718 bound_to 10713
  152.9816  135.6020  154.3536 H   0  0  0  0  0  0  0  0  0  0  0  0  # atno 10763 bound_to 10752
  154.3224  135.2769  155.2515 H   0  0  0  0  0  0  0  0  0  0  0  0  # atno 10764 bound_to 10752
  154.4675  135.5950  153.6354 H   0  0  0  0  0  0  0  0  0  0  0  0  # atno 10765 bound_to 10752
  141.1633  133.6905  156.7336 H   0  0  0  0  0  0  0  0  0  0  0  0  # atno 11005 bound_to 11000
  145.6596  141.0244  143.1716 LP  0  0  0  0  0  0  0  0  0  0  0  0  # atno 17320 bound_to 7965
  144.7163  139.8185  143.7397 LP  0  0  0  0  0  0  0  0  0  0  0  0  # atno 17321 bound_to 7965
  139.6007  144.7581  151.3179 LP  0  0  0  0  0  0  0  0  0  0  0  0  # atno 17342 bound_to 10162
  140.7255  143.7015  150.7841 LP  0  0  0  0  0  0  0  0  0  0  0  0  # atno 17343 bound_to 10162
  157.3312  131.0700  151.1859 LP  0  0  0  0  0  0  0  0  0  0  0  0  # atno 17370 bound_to 10713
  157.2739  130.6717  149.6033 LP  0  0  0  0  0  0  0  0  0  0  0  0  # atno 17371 bound_to 10713
  140.2726  134.8380  157.3861 LP  0  0  0  0  0  0  0  0  0  0  0  0  # atno 17394 bound_to 11000
  140.1507  134.4854  155.7963 LP  0  0  0  0  0  0  0  0  0  0  0  0  # atno 17395 bound_to 11000

$$$$
