#       Name:                AV-unprocessed.smi:3112
#       Creating user name   scv26
#       Creation time:       Fri Mar 27 17:22:25 2020


#       File generated by GOLD software.
#

@<TRIPOS>MOLECULE
AV-unprocessed.smi:3112
    40    40     1
SMALL
NO_CHARGES


@<TRIPOS>ATOM
      1 ****        -2.1744   4.3671   1.6118 C.3            1 S1                 0.0000
      2 ****        -1.9096   2.8558   1.5668 C.3            1 S1                 0.0000
      3 ****        -1.9112   2.2774   0.1377 C.3            1 S1                 0.0000
      4 ****        -3.2214   2.3685  -0.3832 O.3            1 S1                 0.0000
      5 ****        -1.4957   0.7974   0.0863 C.3            1 S1                 0.0000
      6 ****        -0.0743   0.6316   0.3953 N.3            1 S1                 0.0000
      7 ****         0.4157  -0.7488   0.3312 C.3            1 S1                 0.0000
      8 ****         1.3883  -0.9665   1.5058 C.3            1 S1                 0.0000
      9 ****         1.0716  -1.0679  -1.0461 C.3            1 S1                 0.0000
     10 ****         0.1061  -0.9965  -2.2439 C.3            1 S1                 0.0000
     11 ****         1.7427  -2.3624  -1.0383 N.pl3          1 S1                 0.0000
     12 ****         3.0901  -2.6260  -1.1761 C.2            1 S1                 0.0000
     13 ****         3.2520  -3.9796  -1.1014 C.2            1 S1                 0.0000
     14 ****         1.9288  -4.4682  -0.9164 C.2            1 S1                 0.0000
     15 ****         1.0282  -3.5000  -0.8785 N.2            1 S1                 0.0000
     16 ****        -2.1360   4.7362   2.6368 H              1 S1                 0.0000
     17 ****        -3.1575   4.6131   1.2101 H              1 S1                 0.0000
     18 ****        -1.4287   4.9144   1.0342 H              1 S1                 0.0000
     19 ****        -0.9422   2.6698   2.0341 H              1 S1                 0.0000
     20 ****        -2.6458   2.3355   2.1809 H              1 S1                 0.0000
     21 ****        -1.2513   2.8622  -0.5047 H              1 S1                 0.0000
     22 ****        -3.4762   3.2785  -0.3961 H              1 S1                 0.0000
     23 ****        -2.1002   0.2228   0.7895 H              1 S1                 0.0000
     24 ****        -1.7205   0.3975  -0.9005 H              1 S1                 0.0000
     25 ****         0.1036   1.0064   1.3216 H              1 S1                 0.0000
     26 ****        -0.4179  -1.4352   0.4879 H              1 S1                 0.0000
     27 ****         1.6941  -2.0091   1.5937 H              1 S1                 0.0000
     28 ****         0.9234  -0.6945   2.4541 H              1 S1                 0.0000
     29 ****         2.2894  -0.3627   1.3926 H              1 S1                 0.0000
     30 ****         1.8500  -0.3229  -1.2199 H              1 S1                 0.0000
     31 ****        -0.2124   0.0274  -2.4366 H              1 S1                 0.0000
     32 ****        -0.7827  -1.6067  -2.0806 H              1 S1                 0.0000
     33 ****         0.5879  -1.3497  -3.1562 H              1 S1                 0.0000
     34 ****         3.8143  -1.8365  -1.3128 H              1 S1                 0.0000
     35 ****         4.1748  -4.5364  -1.1689 H              1 S1                 0.0000
     36 ****         1.5980  -5.4908  -0.8089 H              1 S1                 0.0000
     37 ****        -3.8512   1.8499   0.1951 LP             1 S1                 0.0000
     38 ****        -3.2415   1.9993  -1.3124 LP             1 S1                 0.0000
     39 ****         0.4243   1.1275  -0.3156 LP             1 S1                 0.0000
     40 ****         0.0394  -3.5892  -0.7585 LP             1 S1                 0.0000
@<TRIPOS>BOND
    1    1    2 1     
    2    1   16 1     
    3    1   17 1     
    4    1   18 1     
    5    2    3 1     
    6    2   19 1     
    7    2   20 1     
    8    3    4 1     
    9    3    5 1     
   10    3   21 1     
   11    4   22 1     
   12    5    6 1     
   13    5   23 1     
   14    5   24 1     
   15    6    7 1     
   16    6   25 1     
   17    7    8 1     
   18    7    9 1     
   19    7   26 1     
   20    8   27 1     
   21    8   28 1     
   22    8   29 1     
   23    9   10 1     
   24    9   11 1     
   25    9   30 1     
   26   10   31 1     
   27   10   32 1     
   28   10   33 1     
   29   11   15 1     
   30   11   12 1     
   31   12   13 2     
   32   12   34 1     
   33   13   14 1     
   34   13   35 1     
   35   14   15 2     
   36   14   36 1     
   37    4   37 1     
   38    4   38 1     
   39    6   39 1     
   40   15   40 1     
@<TRIPOS>SUBSTRUCTURE
      1 S1             1
@<TRIPOS>SET
LONE_PAIRS      STATIC     ATOMS    <user>   **** ""
4 37 38 39 40
DONOR_HYDROGENS      STATIC     ATOMS    <user>   **** ""
2 22 25
ATOM$BLUE        STATIC     ATOMS    COLORGROUP SYSTEM
4 37 38 39 40
ATOM$RED        STATIC     ATOMS    COLORGROUP SYSTEM
2 22 25
