AV-unprocessed.smi:1352|AV-procd|sdf|5530|dock3
  -GOLD-   22720 5123D 1   1.00000     0.00000
 Structure written by MMmdl.
 47 48  0  0  0  0  0  0  0  0  2 V2000
  145.6975  132.5554  149.8589 C   0  0  0  0  0  0  0  0  0  0  0  0
  146.3919  133.4890  150.8604 C   0  0  2  0  0  0  0  0  0  0  0  0
  146.8276  132.7312  152.1255 C   0  0  0  0  0  0  0  0  0  0  0  0
  147.5024  133.6865  153.1238 C   0  0  2  0  0  0  0  0  0  0  0  0
  147.9261  132.9521  154.4039 C   0  0  0  0  0  0  0  0  0  0  0  0
  146.5723  134.8745  153.4365 C   0  0  0  0  0  0  0  0  0  0  0  0
  146.1709  135.5911  152.1983 N   0  3  2  0  0  0  0  0  0  0  0  0
  145.3918  136.8210  152.4904 C   0  0  0  0  0  0  0  0  0  0  0  0
  146.1982  138.1058  152.2186 C   0  0  0  0  0  0  0  0  0  0  0  0
  147.5034  138.0675  152.8677 N   0  0  0  0  0  0  0  0  0  0  0  0
  147.8534  138.8018  153.9346 C   0  0  0  0  0  0  0  0  0  0  0  0
  147.0967  139.6152  154.4669 O   0  0  0  0  0  0  0  0  0  0  0  0
  149.2823  138.5931  154.4563 C   0  0  0  0  0  0  0  0  0  0  0  0
  149.6721  139.5605  155.4960 N   0  0  0  0  0  0  0  0  0  0  0  0
  149.9842  139.0436  156.7693 C   0  0  0  0  0  0  0  0  0  0  0  0
  150.3518  139.8377  157.7874 C   0  0  0  0  0  0  0  0  0  0  0  0
  150.4225  141.2603  157.5522 C   0  0  0  0  0  0  0  0  0  0  0  0
  150.1293  141.7650  156.3371 C   0  0  0  0  0  0  0  0  0  0  0  0
  149.7305  140.9002  155.2203 C   0  0  0  0  0  0  0  0  0  0  0  0
  149.4659  141.3513  154.1054 O   0  0  0  0  0  0  0  0  0  0  0  0
  145.4917  134.6814  151.2376 C   0  0  0  0  0  0  0  0  0  0  0  0
  144.7876  132.1271  150.2806 H   0  0  0  0  0  0  0  0  0  0  0  0
  146.3515  131.7312  149.5718 H   0  0  0  0  0  0  0  0  0  0  0  0
  145.4234  133.0892  148.9485 H   0  0  0  0  0  0  0  0  0  0  0  0
  147.2874  133.8814  150.3757 H   0  0  0  0  0  0  0  0  0  0  0  0
  145.9609  132.2598  152.5917 H   0  0  0  0  0  0  0  0  0  0  0  0
  147.5137  131.9262  151.8593 H   0  0  0  0  0  0  0  0  0  0  0  0
  148.4069  134.0798  152.6570 H   0  0  0  0  0  0  0  0  0  0  0  0
  147.0644  132.5345  154.9258 H   0  0  0  0  0  0  0  0  0  0  0  0
  148.4382  133.6251  155.0924 H   0  0  0  0  0  0  0  0  0  0  0  0
  148.6082  132.1316  154.1785 H   0  0  0  0  0  0  0  0  0  0  0  0
  145.6800  134.5319  153.9633 H   0  0  0  0  0  0  0  0  0  0  0  0
  147.0890  135.5648  154.1049 H   0  0  0  0  0  0  0  0  0  0  0  0
  144.4622  136.8166  151.9192 H   0  0  0  0  0  0  0  0  0  0  0  0
  145.1037  136.8152  153.5426 H   0  0  0  0  0  0  0  0  0  0  0  0
  146.3214  138.2596  151.1450 H   0  0  0  0  0  0  0  0  0  0  0  0
  145.6757  138.9827  152.5989 H   0  0  0  0  0  0  0  0  0  0  0  0
  148.1856  137.4256  152.4894 H   0  0  0  0  0  0  0  0  0  0  0  0
  149.3837  137.5749  154.8377 H   0  0  0  0  0  0  0  0  0  0  0  0
  149.9653  138.6480  153.6072 H   0  0  0  0  0  0  0  0  0  0  0  0
  149.9130  137.9695  156.8612 H   0  0  0  0  0  0  0  0  0  0  0  0
  150.5911  139.4231  158.7558 H   0  0  0  0  0  0  0  0  0  0  0  0
  150.7130  141.9229  158.3543 H   0  0  0  0  0  0  0  0  0  0  0  0
  150.1886  142.8319  156.1794 H   0  0  0  0  0  0  0  0  0  0  0  0
  145.2281  135.2241  150.3305 H   0  0  0  0  0  0  0  0  0  0  0  0
  144.5564  134.3258  151.6737 H   0  0  0  0  0  0  0  0  0  0  0  0
  147.0295  135.8954  151.7617 H   0  0  0  0  0  0  0  0  0  0  0  0
  1  2  1  0  0  0  0
  1 22  1  0  0  0  0
  1 23  1  0  0  0  0
  1 24  1  0  0  0  0
  2 21  1  0  0  0  0
  2  3  1  0  0  0  0
  2 25  1  0  0  0  0
  3  4  1  0  0  0  0
  3 26  1  0  0  0  0
  3 27  1  0  0  0  0
  4  5  1  0  0  0  0
  4  6  1  0  0  0  0
  4 28  1  0  0  0  0
  5 29  1  0  0  0  0
  5 30  1  0  0  0  0
  5 31  1  0  0  0  0
  6  7  1  0  0  0  0
  6 32  1  0  0  0  0
  6 33  1  0  0  0  0
  7  8  1  0  0  0  0
  7 21  1  0  0  0  0
  7 47  1  0  0  0  0
  8  9  1  0  0  0  0
  8 34  1  0  0  0  0
  8 35  1  0  0  0  0
  9 10  1  0  0  0  0
  9 36  1  0  0  0  0
  9 37  1  0  0  0  0
 10 11  1  0  0  0  0
 10 38  1  0  0  0  0
 11 12  2  0  0  0  0
 11 13  1  0  0  0  0
 13 14  1  0  0  0  0
 13 39  1  0  0  0  0
 13 40  1  0  0  0  0
 14 19  1  0  0  0  0
 14 15  1  0  0  0  0
 15 16  2  0  0  0  0
 15 41  1  0  0  0  0
 16 17  1  0  0  0  0
 16 42  1  0  0  0  0
 17 18  2  0  0  0  0
 17 43  1  0  0  0  0
 18 19  1  0  0  0  0
 18 44  1  0  0  0  0
 19 20  2  0  0  0  0
 21 45  1  0  0  0  0
 21 46  1  0  0  0  0
M  CHG  1   7   1
M  END
> <s_m_source_file>
AV-unprocessed.smi

> <i_m_source_file_index>
1352

> <i_lp_mmshare_version>
43012

> <i_f3d_flags>
0

> <s_epik_input>
W0NIM11bQ0BASF0xW0NIMl1bQ0BASF0oW0NIM10pW0NIMl1OKFtDSDJdMSlbQ0gyXVtDSDJdW05IXUMoPU8pW0NIMl1uMltjSF1bY0hdW2NIXVtjSF1jMj1P

> <s_epik_cmdline>
J2VwaWtfcHl0aG9uJywgJy1waCcsICc3LjAnLCAnLXRuJywgJzgnLCAnLW1hJywgJzIwMCcsICctbWV0YWxfYmluZGluZycsICctaW1hZScsICc8aW5maWxlLm1hZT4nLCAnLW9tYWUnLCAnPG91dGZpbGUubWFlPic=

> <r_lp_tautomer_probability>
1

> <r_epik_Ionization_Penalty>
0.00156146

> <r_epik_Ionization_Penalty_Charging>
0.00156138

> <r_epik_Ionization_Penalty_Neutral>
8.12891e-08

> <r_epik_State_Penalty>
0.00104868

> <r_epik_Charging_Adjusted_Penalty>
0.00261006

> <i_epik_Tot_Q>
1

> <i_epik_Tot_abs_Q>
1

> <r_epik_Metal_State_Penalty>
-0

> <b_epik_Metal_Only>
0

> <s_lp_Force_Field>
OPLS_2005

> <r_lp_Energy>
25.1883

> <b_lp_Chiralities_Consistent>
1

> <s_lp_Variant>
AV-unprocessed.smi:1352-3

> <Gold.Version>
5.8.1

> <Gold.Id.Protein>
6NUR|6NUR_protein|mol2

> <Gold.PLP.Fitness>
43.2435

> <Gold.PLP.PLP>
-33.6608

> <Gold.PLP.part.hbond>
-4.0093

> <Gold.PLP.part.metal>
0.0000

> <Gold.PLP.part.buried>
-2.3847

> <Gold.PLP.part.nonpolar>
-28.4548

> <Gold.PLP.part.repulsive>
0.3746

> <Gold.PLP.ligand.clash>
0.0000

> <Gold.PLP.ligand.torsion>
0.8553

> <Gold.PLP.Chemscore.Hbond>
3.7553

> <Gold.PLP.Chemscore.CHOScore>
0.0000

> <Gold.PLP.Chemscore.Metal>
0.0000

> <Gold.Chemscore.Hbonds>
donor molecule, donor type, donor heavy atom, donor atom, acceptor molecule, acceptor atom, score
      L1  H     7    47       P1  7948  2.00
      L1  H    10    38       P1  7948  1.00
      P1  H  7989  7998       L1    20  0.06
      P1  H  8011  8017       L1    20  0.61

> <Gold.PLP.Chemscore.Internal.Correction>
0.0276

> <Gold.Rescore>
     Score         DG    S(hbond)    S(metal)    S(lipo)     H(rot)  DE(clash)    DE(int)     intcor
     17.26     -18.43       2.64        0.00      75.56       1.83       0.20       0.97       ----

> <Gold.Chemscore.Fitness>
17.2627

> <Gold.Chemscore.DG>
-18.4331

> <Gold.Chemscore.ZeroCoef>
-5.4800

> <Gold.Chemscore.Hbond>
2.6361

> <Gold.Chemscore.Metal>
0.0000

> <Gold.Chemscore.Lipo>
75.5611

> <Gold.Chemscore.Internal_Hbond>
0.0000

> <Gold.Chemscore.DEClash>
0.2007

> <Gold.Chemscore.DEInternal>
0.9697

> <Gold.Chemscore.Rot>
1.8329

> <Gold.Chemscore.Internal.Correction>
   9.000000E+99

> <Gold.Chemscore.Hbonds>
donor molecule, donor type, donor heavy atom, donor atom, acceptor molecule, acceptor atom, score
      L1  H     7    47       P1  7948  0.95
      L1  H    10    38       P1  7948  0.93
      P1  H  8011  8017       L1    20  0.60

> <Gold.Chemscore.Hbond.Weighted>
-8.8047

> <Gold.Chemscore.Metal.Weighted>
-0.0000

> <Gold.Chemscore.Lipo.Weighted>
-8.8407

> <Gold.Chemscore.Internal_Hbond.Weighted>
0.0000

> <Gold.Chemscore.DEClash.Weighted>
0.2007

> <Gold.Chemscore.DEInternal.Weighted>
0.9697

> <Gold.Chemscore.Rot.Weighted>
4.6922

> <Gold.Chemscore.Internal.Correction.Weighted>
   9.000000E+99

> <Gold.Protein.RotatedTorsions>
[ 6907 6896 6895 6894 ] final   73.97 input  -60.11 | X-H torsion
[ 7974 7965 7964 7962 ] final  -57.43 input  175.53 | X-H torsion
[ 8008 7997 7996 7995 ] final   28.53 input   59.86 | X-H torsion
[ 10167 10162 10161 10158 ] final  -96.74 input  -65.29 | X-H torsion
[ 10718 10713 10712 10709 ] final -127.01 input   66.30 | X-H torsion
[ 10763 10752 10751 10750 ] final  -77.36 input  -60.55 | X-H torsion
[ 11005 11000 10999 10996 ] final  -42.19 input  -57.11 | X-H torsion

> <Gold.Protein.ActiveResidues>
 VAL166  LYS551  ARG553  GLY616  TRP617  ASP618  TYR619  PRO620  LYS621  CYS622 
 ASP623  PHE694  ASN695  SER759  ASP760  ASP761  ALA762  ILE779  LEU786  VAL792 
 PHE793  MET794  SER795  GLU796  ALA797  LYS798  CYS799  TRP800  GLU811  SER814 

> <Gold.Protein.RotatedAtoms>
  152.4951  134.4342  159.9521 H   0  0  0  0  0  0  0  0  0  0  0  0  # atno 6907 bound_to 6896
  151.4322  133.3661  159.2778 H   0  0  0  0  0  0  0  0  0  0  0  0  # atno 6908 bound_to 6896
  150.9147  134.8587  159.7508 H   0  0  0  0  0  0  0  0  0  0  0  0  # atno 6909 bound_to 6896
  145.8512  140.8351  142.9985 H   0  0  0  0  0  0  0  0  0  0  0  0  # atno 7974 bound_to 7965
  155.0601  140.3189  155.4663 H   0  0  0  0  0  0  0  0  0  0  0  0  # atno 8008 bound_to 7997
  156.2815  140.2130  156.5673 H   0  0  0  0  0  0  0  0  0  0  0  0  # atno 8009 bound_to 7997
  154.7139  140.0495  157.0563 H   0  0  0  0  0  0  0  0  0  0  0  0  # atno 8010 bound_to 7997
  140.2907  143.3223  152.0349 H   0  0  0  0  0  0  0  0  0  0  0  0  # atno 10167 bound_to 10162
  156.1817  130.6736  151.0313 H   0  0  0  0  0  0  0  0  0  0  0  0  # atno 10718 bound_to 10713
  154.5119  135.5766  153.6612 H   0  0  0  0  0  0  0  0  0  0  0  0  # atno 10763 bound_to 10752
  152.9899  135.6161  154.2867 H   0  0  0  0  0  0  0  0  0  0  0  0  # atno 10764 bound_to 10752
  154.2782  135.2851  155.2688 H   0  0  0  0  0  0  0  0  0  0  0  0  # atno 10765 bound_to 10752
  141.0298  133.6825  156.2561 H   0  0  0  0  0  0  0  0  0  0  0  0  # atno 11005 bound_to 11000
  144.6729  140.0955  143.7463 LP  0  0  0  0  0  0  0  0  0  0  0  0  # atno 17320 bound_to 7965
  145.9356  139.2635  143.1299 LP  0  0  0  0  0  0  0  0  0  0  0  0  # atno 17321 bound_to 7965
  139.4939  144.6527  151.6640 LP  0  0  0  0  0  0  0  0  0  0  0  0  # atno 17342 bound_to 10162
  140.5735  144.0068  150.6229 LP  0  0  0  0  0  0  0  0  0  0  0  0  # atno 17343 bound_to 10162
  157.6872  131.0821  150.7208 LP  0  0  0  0  0  0  0  0  0  0  0  0  # atno 17370 bound_to 10713
  156.7265  130.4696  149.5510 LP  0  0  0  0  0  0  0  0  0  0  0  0  # atno 17371 bound_to 10713
  140.6426  134.5150  157.5571 LP  0  0  0  0  0  0  0  0  0  0  0  0  # atno 17394 bound_to 11000
  139.9200  134.8167  156.1241 LP  0  0  0  0  0  0  0  0  0  0  0  0  # atno 17395 bound_to 11000

$$$$
