AV-unprocessed.smi:26|AV-procd|sdf|183|dock5
  -GOLD-   2262015443D 1   1.00000     0.00000
 Structure written by MMmdl.
 58 61  0  0  0  0  0  0  0  0  1 V2000
  148.4703  138.6123  154.0120 C   0  0  0  0  0  0  0  0  0  0  0  0
  149.0348  137.9920  155.2503 C   0  0  0  0  0  0  0  0  0  0  0  0
  150.0380  138.4510  156.0496 C   0  0  0  0  0  0  0  0  0  0  0  0
  150.2264  137.5305  157.1149 C   0  0  0  0  0  0  0  0  0  0  0  0
  151.2137  137.6028  158.2233 C   0  0  0  0  0  0  0  0  0  0  0  0
  151.0369  137.0764  159.3229 O   0  0  0  0  0  0  0  0  0  0  0  0
  152.5070  138.3808  157.9150 C   0  0  0  0  0  0  0  0  0  0  0  0
  152.7316  139.5039  158.8175 N   0  0  0  0  0  0  0  0  0  0  0  0
  153.6702  139.3321  159.8654 C   0  0  0  0  0  0  0  0  0  0  0  0
  154.2901  138.2790  160.0247 O   0  0  0  0  0  0  0  0  0  0  0  0
  153.8464  140.5023  160.7172 C   0  0  0  0  0  0  0  0  0  0  0  0
  154.7182  140.4561  161.7388 F   0  0  0  0  0  0  0  0  0  0  0  0
  153.1494  141.6373  160.4954 C   0  0  0  0  0  0  0  0  0  0  0  0
  152.2292  141.7766  159.4720 N   0  0  0  0  0  0  0  0  0  0  0  0
  151.5468  143.1140  159.2813 C   0  0  2  0  0  0  0  0  0  0  0  0
  152.2400  144.0258  158.2577 C   0  0  0  0  0  0  0  0  0  0  0  0
  152.0031  145.3887  158.8715 C   0  0  0  0  0  0  0  0  0  0  0  0
  152.0840  145.0833  160.3634 C   0  0  0  0  0  0  0  0  0  0  0  0
  151.5078  143.7876  160.5062 O   0  0  0  0  0  0  0  0  0  0  0  0
  152.0185  140.7033  158.5739 C   0  0  0  0  0  0  0  0  0  0  0  0
  151.2555  140.8130  157.6127 O   0  0  0  0  0  0  0  0  0  0  0  0
  149.3104  136.5162  156.9491 C   0  0  0  0  0  0  0  0  0  0  0  0
  149.0690  135.2994  157.8004 C   0  0  0  0  0  0  0  0  0  0  0  0
  148.5847  136.7839  155.7787 N   0  0  0  0  0  0  0  0  0  0  0  0
  147.5116  135.9709  155.1849 C   0  0  2  0  0  0  0  0  0  0  0  0
  146.2591  135.9528  156.0840 C   0  0  0  0  0  0  0  0  0  0  0  0
  148.0152  134.6110  154.6916 C   0  0  0  0  0  0  0  0  0  0  0  0
  147.1687  133.8225  153.8797 C   0  0  0  0  0  0  0  0  0  0  0  0
  147.5900  132.5625  153.4133 C   0  0  0  0  0  0  0  0  0  0  0  0
  148.8631  132.0738  153.7598 C   0  0  0  0  0  0  0  0  0  0  0  0
  149.7122  132.8466  154.5737 C   0  0  0  0  0  0  0  0  0  0  0  0
  149.2909  134.1070  155.0404 C   0  0  0  0  0  0  0  0  0  0  0  0
  148.9127  139.5926  153.8335 H   0  0  0  0  0  0  0  0  0  0  0  0
  147.3921  138.7474  154.0966 H   0  0  0  0  0  0  0  0  0  0  0  0
  148.6748  137.9936  153.1381 H   0  0  0  0  0  0  0  0  0  0  0  0
  150.5860  139.3659  155.8790 H   0  0  0  0  0  0  0  0  0  0  0  0
  153.3776  137.7253  157.9693 H   0  0  0  0  0  0  0  0  0  0  0  0
  152.4992  138.7642  156.8936 H   0  0  0  0  0  0  0  0  0  0  0  0
  153.3255  142.4732  161.1568 H   0  0  0  0  0  0  0  0  0  0  0  0
  150.5200  142.8897  158.9896 H   0  0  0  0  0  0  0  0  0  0  0  0
  153.3067  143.8172  158.1883 H   0  0  0  0  0  0  0  0  0  0  0  0
  151.7969  143.9106  157.2685 H   0  0  0  0  0  0  0  0  0  0  0  0
  152.7275  146.1366  158.5485 H   0  0  0  0  0  0  0  0  0  0  0  0
  151.0045  145.7455  158.6163 H   0  0  0  0  0  0  0  0  0  0  0  0
  153.1228  145.0570  160.6930 H   0  0  0  0  0  0  0  0  0  0  0  0
  151.5581  145.8204  160.9704 H   0  0  0  0  0  0  0  0  0  0  0  0
  149.8803  134.5816  157.6798 H   0  0  0  0  0  0  0  0  0  0  0  0
  148.1401  134.7873  157.5718 H   0  0  0  0  0  0  0  0  0  0  0  0
  149.0128  135.5697  158.8545 H   0  0  0  0  0  0  0  0  0  0  0  0
  147.1924  136.4563  154.2644 H   0  0  0  0  0  0  0  0  0  0  0  0
  145.4197  135.4750  155.5783 H   0  0  0  0  0  0  0  0  0  0  0  0
  145.9483  136.9691  156.3283 H   0  0  0  0  0  0  0  0  0  0  0  0
  146.4216  135.4309  157.0258 H   0  0  0  0  0  0  0  0  0  0  0  0
  146.1878  134.1861  153.6095 H   0  0  0  0  0  0  0  0  0  0  0  0
  146.9350  131.9710  152.7906 H   0  0  0  0  0  0  0  0  0  0  0  0
  149.1873  131.1073  153.4030 H   0  0  0  0  0  0  0  0  0  0  0  0
  150.6889  132.4719  154.8421 H   0  0  0  0  0  0  0  0  0  0  0  0
  149.9648  134.6759  155.6624 H   0  0  0  0  0  0  0  0  0  0  0  0
  1  2  1  0  0  0  0
  1 33  1  0  0  0  0
  1 34  1  0  0  0  0
  1 35  1  0  0  0  0
  2 24  1  0  0  0  0
  2  3  2  0  0  0  0
  3  4  1  0  0  0  0
  3 36  1  0  0  0  0
  4  5  1  0  0  0  0
  4 22  2  0  0  0  0
  5  6  2  0  0  0  0
  5  7  1  0  0  0  0
  7  8  1  0  0  0  0
  7 37  1  0  0  0  0
  7 38  1  0  0  0  0
  8 20  1  0  0  0  0
  8  9  1  0  0  0  0
  9 10  2  0  0  0  0
  9 11  1  0  0  0  0
 11 12  1  0  0  0  0
 11 13  2  0  0  0  0
 13 14  1  0  0  0  0
 13 39  1  0  0  0  0
 14 15  1  0  0  0  0
 14 20  1  0  0  0  0
 15 19  1  0  0  0  0
 15 16  1  0  0  0  0
 15 40  1  0  0  0  0
 16 17  1  0  0  0  0
 16 41  1  0  0  0  0
 16 42  1  0  0  0  0
 17 18  1  0  0  0  0
 17 43  1  0  0  0  0
 17 44  1  0  0  0  0
 18 19  1  0  0  0  0
 18 45  1  0  0  0  0
 18 46  1  0  0  0  0
 20 21  2  0  0  0  0
 22 23  1  0  0  0  0
 22 24  1  0  0  0  0
 23 47  1  0  0  0  0
 23 48  1  0  0  0  0
 23 49  1  0  0  0  0
 24 25  1  0  0  0  0
 25 26  1  0  0  0  0
 25 27  1  0  0  0  0
 25 50  1  0  0  0  0
 26 51  1  0  0  0  0
 26 52  1  0  0  0  0
 26 53  1  0  0  0  0
 27 32  1  0  0  0  0
 27 28  2  0  0  0  0
 28 29  1  0  0  0  0
 28 54  1  0  0  0  0
 29 30  2  0  0  0  0
 29 55  1  0  0  0  0
 30 31  1  0  0  0  0
 30 56  1  0  0  0  0
 31 32  2  0  0  0  0
 31 57  1  0  0  0  0
 32 58  1  0  0  0  0
M  END
> <s_m_source_file>
AV-unprocessed.smi

> <i_m_source_file_index>
26

> <i_lp_mmshare_version>
43012

> <i_f3d_flags>
0

> <s_epik_input>
W2NIXTFbY0hdW2NIXVtjSF1bY0hdYzFbQ0BASF0oW0NIM10pbjJjKFtDSDNdKWMoW2NIXWMyW0NIM10pQyg9TylbQ0gyXW4zYyg9TyljKEYpW2NIXW4oYzM9TylbQ0BASF00W0NIMl1bQ0gyXVtDSDJdTzQ=

> <s_epik_cmdline>
J2VwaWtfcHl0aG9uJywgJy1waCcsICc3LjAnLCAnLXRuJywgJzgnLCAnLW1hJywgJzIwMCcsICctbWV0YWxfYmluZGluZycsICctaW1hZScsICc8aW5maWxlLm1hZT4nLCAnLW9tYWUnLCAnPG91dGZpbGUubWFlPic=

> <r_lp_tautomer_probability>
1

> <r_epik_Ionization_Penalty>
5.02402e-09

> <r_epik_Ionization_Penalty_Charging>
5.01743e-09

> <r_epik_Ionization_Penalty_Neutral>
6.58831e-12

> <r_epik_State_Penalty>
-0

> <r_epik_Charging_Adjusted_Penalty>
5.01743e-09

> <i_epik_Tot_Q>
0

> <i_epik_Tot_abs_Q>
0

> <r_epik_Metal_State_Penalty>
-0

> <b_epik_Metal_Only>
0

> <s_epik_Chemistry_Notes>
This compound contains an acetal/aminal-like group ( X-CH(R)-Y where X, Y are N, S, or O) that may be acid/base labile, releasing an aldehyde.

> <s_lp_Force_Field>
OPLS_2005

> <r_lp_Energy>
45.9461

> <b_lp_Chiralities_Consistent>
1

> <s_lp_Variant>
AV-unprocessed.smi:26-1

> <Gold.Version>
5.8.1

> <Gold.Id.Protein>
6NUR|6NUR_protein|mol2

> <Gold.PLP.Fitness>
51.7526

> <Gold.PLP.PLP>
-51.3640

> <Gold.PLP.part.hbond>
-1.0000

> <Gold.PLP.part.metal>
0.0000

> <Gold.PLP.part.buried>
-7.5242

> <Gold.PLP.part.nonpolar>
-44.4547

> <Gold.PLP.part.repulsive>
0.1084

> <Gold.PLP.ligand.clash>
0.0000

> <Gold.PLP.ligand.torsion>
1.4590

> <Gold.PLP.Chemscore.Hbond>
0.9913

> <Gold.PLP.Chemscore.CHOScore>
0.0000

> <Gold.PLP.Chemscore.Metal>
0.0000

> <Gold.Chemscore.Hbonds>
donor molecule, donor type, donor heavy atom, donor atom, acceptor molecule, acceptor atom, score
      P1  H  6896  6908       L1     6  0.89

> <Gold.PLP.Chemscore.Internal.Correction>
0.3328

> <Gold.Rescore>
     Score         DG    S(hbond)    S(metal)    S(lipo)     H(rot)  DE(clash)    DE(int)     intcor
     15.48     -16.60       0.96        0.00     107.95       1.84       0.11       1.01       ----

> <Gold.Chemscore.Fitness>
15.4836

> <Gold.Chemscore.DG>
-16.6037

> <Gold.Chemscore.ZeroCoef>
-5.4800

> <Gold.Chemscore.Hbond>
0.9560

> <Gold.Chemscore.Metal>
0.0000

> <Gold.Chemscore.Lipo>
107.9534

> <Gold.Chemscore.Internal_Hbond>
0.0000

> <Gold.Chemscore.DEClash>
0.1139

> <Gold.Chemscore.DEInternal>
1.0062

> <Gold.Chemscore.Rot>
1.8359

> <Gold.Chemscore.Internal.Correction>
   9.000000E+99

> <Gold.Chemscore.Hbonds>
donor molecule, donor type, donor heavy atom, donor atom, acceptor molecule, acceptor atom, score
      P1  H  6896  6908       L1     6  0.84

> <Gold.Chemscore.Hbond.Weighted>
-3.1932

> <Gold.Chemscore.Metal.Weighted>
-0.0000

> <Gold.Chemscore.Lipo.Weighted>
-12.6305

> <Gold.Chemscore.Internal_Hbond.Weighted>
0.0000

> <Gold.Chemscore.DEClash.Weighted>
0.1139

> <Gold.Chemscore.DEInternal.Weighted>
1.0062

> <Gold.Chemscore.Rot.Weighted>
4.7000

> <Gold.Chemscore.Internal.Correction.Weighted>
   9.000000E+99

> <Gold.Protein.RotatedTorsions>
[ 6907 6896 6895 6894 ] final -150.82 input  -60.11 | X-H torsion
[ 7974 7965 7964 7962 ] final -145.85 input  175.53 | X-H torsion
[ 8008 7997 7996 7995 ] final -125.21 input   59.86 | X-H torsion
[ 10167 10162 10161 10158 ] final  108.46 input  -65.29 | X-H torsion
[ 10718 10713 10712 10709 ] final   70.75 input   66.30 | X-H torsion
[ 10763 10752 10751 10750 ] final  -42.54 input  -60.55 | X-H torsion
[ 11005 11000 10999 10996 ] final  178.43 input  -57.11 | X-H torsion

> <Gold.Protein.ActiveResidues>
 VAL166  LYS551  ARG553  GLY616  TRP617  ASP618  TYR619  PRO620  LYS621  CYS622 
 ASP623  PHE694  ASN695  SER759  ASP760  ASP761  ALA762  ILE779  LEU786  VAL792 
 PHE793  MET794  SER795  GLU796  ALA797  LYS798  CYS799  TRP800  GLU811  SER814 

> <Gold.Protein.RotatedAtoms>
  151.2040  133.4594  159.2596 H   0  0  0  0  0  0  0  0  0  0  0  0  # atno 6907 bound_to 6896
  151.1041  134.9989  159.8473 H   0  0  0  0  0  0  0  0  0  0  0  0  # atno 6908 bound_to 6896
  152.5445  134.1965  159.8748 H   0  0  0  0  0  0  0  0  0  0  0  0  # atno 6909 bound_to 6896
  144.8199  140.5532  143.5585 H   0  0  0  0  0  0  0  0  0  0  0  0  # atno 7974 bound_to 7965
  155.2096  140.0418  157.2931 H   0  0  0  0  0  0  0  0  0  0  0  0  # atno 8008 bound_to 7997
  154.6020  140.2454  155.7751 H   0  0  0  0  0  0  0  0  0  0  0  0  # atno 8009 bound_to 7997
  156.2327  140.2932  156.0240 H   0  0  0  0  0  0  0  0  0  0  0  0  # atno 8010 bound_to 7997
  139.6844  144.7115  151.1458 H   0  0  0  0  0  0  0  0  0  0  0  0  # atno 10167 bound_to 10162
  157.6416  130.9493  150.0693 H   0  0  0  0  0  0  0  0  0  0  0  0  # atno 10718 bound_to 10713
  153.9808  135.6717  153.4750 H   0  0  0  0  0  0  0  0  0  0  0  0  # atno 10763 bound_to 10752
  153.0749  135.4954  154.8380 H   0  0  0  0  0  0  0  0  0  0  0  0  # atno 10764 bound_to 10752
  154.7166  135.3108  154.9076 H   0  0  0  0  0  0  0  0  0  0  0  0  # atno 10765 bound_to 10752
  140.3950  134.6828  157.4529 H   0  0  0  0  0  0  0  0  0  0  0  0  # atno 11005 bound_to 11000
  145.5128  139.1479  143.3595 LP  0  0  0  0  0  0  0  0  0  0  0  0  # atno 17320 bound_to 7965
  146.2504  140.5269  142.8896 LP  0  0  0  0  0  0  0  0  0  0  0  0  # atno 17321 bound_to 7965
  140.7663  143.5651  150.9057 LP  0  0  0  0  0  0  0  0  0  0  0  0  # atno 17342 bound_to 10162
  139.9325  143.6477  152.3073 LP  0  0  0  0  0  0  0  0  0  0  0  0  # atno 17343 bound_to 10162
  156.1702  130.3646  149.9175 LP  0  0  0  0  0  0  0  0  0  0  0  0  # atno 17370 bound_to 10713
  156.7153  130.8986  151.3613 LP  0  0  0  0  0  0  0  0  0  0  0  0  # atno 17371 bound_to 10713
  140.0378  134.6311  155.9020 LP  0  0  0  0  0  0  0  0  0  0  0  0  # atno 17394 bound_to 11000
  141.1877  133.6560  156.5294 LP  0  0  0  0  0  0  0  0  0  0  0  0  # atno 17395 bound_to 11000

$$$$
