AV-unprocessed.smi:3301|AV-procd|sdf|12655|dock3
  -GOLD-   2272018593D 1   1.00000     0.00000
 Structure written by MMmdl.
 36 37  0  0  0  0  0  0  0  0  1 V2000
  148.0254  141.7651  157.2673 C   0  0  0  0  0  0  0  0  0  0  0  0
  149.3457  141.6162  156.4927 C   0  0  1  0  0  0  0  0  0  0  0  0
  149.1930  141.8333  154.9742 C   0  0  0  0  0  0  0  0  0  0  0  0
  148.2438  140.9193  154.3677 N   0  0  0  0  0  0  0  0  0  0  0  0
  148.3332  139.5346  154.3169 C   0  0  0  0  0  0  0  0  0  0  0  0
  147.2174  139.0932  153.6424 C   0  0  0  0  0  0  0  0  0  0  0  0
  146.4338  140.1828  153.2686 N   0  0  0  0  0  0  0  0  0  0  0  0
  147.1064  141.2292  153.7298 C   0  0  0  0  0  0  0  0  0  0  0  0
  150.3253  142.5662  157.0142 N   0  0  0  0  0  0  0  0  0  0  0  0
  151.4735  142.2561  157.6359 C   0  0  0  0  0  0  0  0  0  0  0  0
  151.8301  141.1000  157.8680 O   0  0  0  0  0  0  0  0  0  0  0  0
  152.3350  143.4473  158.0756 C   0  0  0  0  0  0  0  0  0  0  0  0
  152.7075  143.4004  159.4903 N   0  0  0  0  0  0  0  0  0  0  0  0
  153.4578  142.2751  160.0233 C   0  0  0  0  0  0  0  0  0  0  0  0
  153.4872  142.4972  161.5423 C   0  0  0  0  0  0  0  0  0  0  0  0
  153.0196  143.9398  161.7637 C   0  0  0  0  0  0  0  0  0  0  0  0
  152.4526  144.3377  160.4118 C   0  0  0  0  0  0  0  0  0  0  0  0
  151.8474  145.3923  160.2254 O   0  0  0  0  0  0  0  0  0  0  0  0
  147.2939  141.0188  156.9568 H   0  0  0  0  0  0  0  0  0  0  0  0
  147.5834  142.7500  157.1130 H   0  0  0  0  0  0  0  0  0  0  0  0
  148.1837  141.6347  158.3384 H   0  0  0  0  0  0  0  0  0  0  0  0
  149.6995  140.5955  156.6476 H   0  0  0  0  0  0  0  0  0  0  0  0
  148.8728  142.8555  154.7661 H   0  0  0  0  0  0  0  0  0  0  0  0
  150.1545  141.7001  154.4764 H   0  0  0  0  0  0  0  0  0  0  0  0
  149.1602  138.9938  154.7532 H   0  0  0  0  0  0  0  0  0  0  0  0
  146.9214  138.0837  153.3978 H   0  0  0  0  0  0  0  0  0  0  0  0
  146.7615  142.2451  153.6033 H   0  0  0  0  0  0  0  0  0  0  0  0
  150.1181  143.5451  156.8792 H   0  0  0  0  0  0  0  0  0  0  0  0
  153.2401  143.4882  157.4670 H   0  0  0  0  0  0  0  0  0  0  0  0
  151.7844  144.3665  157.8725 H   0  0  0  0  0  0  0  0  0  0  0  0
  152.9896  141.3246  159.7647 H   0  0  0  0  0  0  0  0  0  0  0  0
  154.4656  142.2855  159.6060 H   0  0  0  0  0  0  0  0  0  0  0  0
  152.8022  141.8060  162.0351 H   0  0  0  0  0  0  0  0  0  0  0  0
  154.4811  142.3232  161.9554 H   0  0  0  0  0  0  0  0  0  0  0  0
  152.2673  144.0140  162.5497 H   0  0  0  0  0  0  0  0  0  0  0  0
  153.8545  144.5951  162.0131 H   0  0  0  0  0  0  0  0  0  0  0  0
  1  2  1  0  0  0  0
  1 19  1  0  0  0  0
  1 20  1  0  0  0  0
  1 21  1  0  0  0  0
  2  3  1  0  0  0  0
  2  9  1  0  0  0  0
  2 22  1  0  0  0  0
  3  4  1  0  0  0  0
  3 23  1  0  0  0  0
  3 24  1  0  0  0  0
  4  8  1  0  0  0  0
  4  5  1  0  0  0  0
  5  6  2  0  0  0  0
  5 25  1  0  0  0  0
  6  7  1  0  0  0  0
  6 26  1  0  0  0  0
  7  8  2  0  0  0  0
  8 27  1  0  0  0  0
  9 10  1  0  0  0  0
  9 28  1  0  0  0  0
 10 11  2  0  0  0  0
 10 12  1  0  0  0  0
 12 13  1  0  0  0  0
 12 29  1  0  0  0  0
 12 30  1  0  0  0  0
 13 17  1  0  0  0  0
 13 14  1  0  0  0  0
 14 15  1  0  0  0  0
 14 31  1  0  0  0  0
 14 32  1  0  0  0  0
 15 16  1  0  0  0  0
 15 33  1  0  0  0  0
 15 34  1  0  0  0  0
 16 17  1  0  0  0  0
 16 35  1  0  0  0  0
 16 36  1  0  0  0  0
 17 18  2  0  0  0  0
M  END
> <s_m_source_file>
AV-unprocessed.smi

> <i_m_source_file_index>
3301

> <i_lp_mmshare_version>
43012

> <i_f3d_flags>
0

> <s_epik_input>
W2NIXTFuW2NIXVtjSF1uMVtDSDJdW0NAQEhdKFtDSDNdKVtOSF1DKD1PKVtDSDJdTjJbQ0gyXVtDSDJdW0NIMl1DMj1P

> <s_epik_cmdline>
J2VwaWtfcHl0aG9uJywgJy1waCcsICc3LjAnLCAnLXRuJywgJzgnLCAnLW1hJywgJzIwMCcsICctbWV0YWxfYmluZGluZycsICctaW1hZScsICc8aW5maWxlLm1hZT4nLCAnLW9tYWUnLCAnPG91dGZpbGUubWFlPic=

> <r_lp_tautomer_probability>
1

> <r_epik_Ionization_Penalty>
0.623868

> <r_epik_Ionization_Penalty_Charging>
0.623868

> <r_epik_Ionization_Penalty_Neutral>
4.45089e-08

> <r_epik_State_Penalty>
0.640129

> <r_epik_Charging_Adjusted_Penalty>
1.264

> <i_epik_Tot_Q>
0

> <i_epik_Tot_abs_Q>
0

> <r_epik_Metal_State_Penalty>
0.307431

> <b_epik_Metal_Only>
0

> <s_lp_Force_Field>
OPLS_2005

> <r_lp_Energy>
14.8621

> <b_lp_Chiralities_Consistent>
1

> <s_lp_Variant>
AV-unprocessed.smi:3301-4

> <Gold.Version>
5.8.1

> <Gold.Id.Protein>
6NUR|6NUR_protein|mol2

> <Gold.PLP.Fitness>
46.7066

> <Gold.PLP.PLP>
-41.2500

> <Gold.PLP.part.hbond>
-1.0000

> <Gold.PLP.part.metal>
0.0000

> <Gold.PLP.part.buried>
-3.2960

> <Gold.PLP.part.nonpolar>
-36.2337

> <Gold.PLP.part.repulsive>
0.4724

> <Gold.PLP.ligand.clash>
0.0000

> <Gold.PLP.ligand.torsion>
0.0775

> <Gold.PLP.Chemscore.Hbond>
0.8800

> <Gold.PLP.Chemscore.CHOScore>
0.9753

> <Gold.PLP.Chemscore.Metal>
0.0000

> <Gold.Chemscore.Hbonds>
donor molecule, donor type, donor heavy atom, donor atom, acceptor molecule, acceptor atom, score
      L1  H     9    28       P1  8028  0.68

> <Gold.PLP.Chemscore.Internal.Correction>
0.0456

> <Gold.Rescore>
     Score         DG    S(hbond)    S(metal)    S(lipo)     H(rot)  DE(clash)    DE(int)     intcor
     11.63     -11.79       0.92        0.00      77.20       2.26       0.04       0.12       ----

> <Gold.Chemscore.Fitness>
11.6261

> <Gold.Chemscore.DG>
-11.7888

> <Gold.Chemscore.ZeroCoef>
-5.4800

> <Gold.Chemscore.Hbond>
0.9204

> <Gold.Chemscore.Metal>
0.0000

> <Gold.Chemscore.Lipo>
77.1984

> <Gold.Chemscore.Internal_Hbond>
0.0000

> <Gold.Chemscore.DEClash>
0.0439

> <Gold.Chemscore.DEInternal>
0.1189

> <Gold.Chemscore.Rot>
2.2647

> <Gold.Chemscore.Internal.Correction>
   9.000000E+99

> <Gold.Chemscore.Hbonds>
donor molecule, donor type, donor heavy atom, donor atom, acceptor molecule, acceptor atom, score
      L1  H     9    28       P1  8028  0.65

> <Gold.Chemscore.Hbond.Weighted>
-3.0741

> <Gold.Chemscore.Metal.Weighted>
-0.0000

> <Gold.Chemscore.Lipo.Weighted>
-9.0322

> <Gold.Chemscore.Internal_Hbond.Weighted>
0.0000

> <Gold.Chemscore.DEClash.Weighted>
0.0439

> <Gold.Chemscore.DEInternal.Weighted>
0.1189

> <Gold.Chemscore.Rot.Weighted>
5.7975

> <Gold.Chemscore.Internal.Correction.Weighted>
   9.000000E+99

> <Gold.Protein.RotatedTorsions>
[ 6907 6896 6895 6894 ] final  -12.90 input  -60.11 | X-H torsion
[ 7974 7965 7964 7962 ] final  111.73 input  175.53 | X-H torsion
[ 8008 7997 7996 7995 ] final -116.33 input   59.86 | X-H torsion
[ 10167 10162 10161 10158 ] final   75.59 input  -65.29 | X-H torsion
[ 10718 10713 10712 10709 ] final  -62.84 input   66.30 | X-H torsion
[ 10763 10752 10751 10750 ] final   11.02 input  -60.55 | X-H torsion
[ 11005 11000 10999 10996 ] final  -29.54 input  -57.11 | X-H torsion

> <Gold.Protein.ActiveResidues>
 VAL166  LYS551  ARG553  GLY616  TRP617  ASP618  TYR619  PRO620  LYS621  CYS622 
 ASP623  PHE694  ASN695  SER759  ASP760  ASP761  ALA762  ILE779  LEU786  VAL792 
 PHE793  MET794  SER795  GLU796  ALA797  LYS798  CYS799  TRP800  GLU811  SER814 

> <Gold.Protein.RotatedAtoms>
  151.3633  135.0908  159.9441 H   0  0  0  0  0  0  0  0  0  0  0  0  # atno 6907 bound_to 6896
  152.5156  133.9237  159.7557 H   0  0  0  0  0  0  0  0  0  0  0  0  # atno 6908 bound_to 6896
  150.9636  133.6365  159.2779 H   0  0  0  0  0  0  0  0  0  0  0  0  # atno 6909 bound_to 6896
  145.2385  139.2789  143.4130 H   0  0  0  0  0  0  0  0  0  0  0  0  # atno 7974 bound_to 7965
  155.0662  140.0393  157.2593 H   0  0  0  0  0  0  0  0  0  0  0  0  # atno 8008 bound_to 7997
  154.7020  140.2675  155.6686 H   0  0  0  0  0  0  0  0  0  0  0  0  # atno 8009 bound_to 7997
  156.2763  140.2738  156.1633 H   0  0  0  0  0  0  0  0  0  0  0  0  # atno 8010 bound_to 7997
  140.0013  144.5684  150.7735 H   0  0  0  0  0  0  0  0  0  0  0  0  # atno 10167 bound_to 10162
  156.0829  130.4214  150.1193 H   0  0  0  0  0  0  0  0  0  0  0  0  # atno 10718 bound_to 10713
  153.1970  135.6850  153.8279 H   0  0  0  0  0  0  0  0  0  0  0  0  # atno 10763 bound_to 10752
  153.7559  135.3217  155.3330 H   0  0  0  0  0  0  0  0  0  0  0  0  # atno 10764 bound_to 10752
  154.8150  135.4692  154.0719 H   0  0  0  0  0  0  0  0  0  0  0  0  # atno 10765 bound_to 10752
  140.9305  133.7341  156.0929 H   0  0  0  0  0  0  0  0  0  0  0  0  # atno 11005 bound_to 11000
  146.3335  140.2741  142.8607 LP  0  0  0  0  0  0  0  0  0  0  0  0  # atno 17320 bound_to 7965
  144.9611  140.8276  143.5513 LP  0  0  0  0  0  0  0  0  0  0  0  0  # atno 17321 bound_to 7965
  140.7418  143.2822  151.3564 LP  0  0  0  0  0  0  0  0  0  0  0  0  # atno 17342 bound_to 10162
  139.6270  144.0795  152.2443 LP  0  0  0  0  0  0  0  0  0  0  0  0  # atno 17343 bound_to 10162
  156.9220  130.9686  151.3547 LP  0  0  0  0  0  0  0  0  0  0  0  0  # atno 17370 bound_to 10713
  157.5952  130.8473  149.8719 LP  0  0  0  0  0  0  0  0  0  0  0  0  # atno 17371 bound_to 10713
  140.7869  134.3662  157.5474 LP  0  0  0  0  0  0  0  0  0  0  0  0  # atno 17394 bound_to 11000
  139.8795  134.9116  156.3041 LP  0  0  0  0  0  0  0  0  0  0  0  0  # atno 17395 bound_to 11000

$$$$
