AV-unprocessed.smi:3075|AV-procd|sdf|11724|dock7
  -GOLD-   2272017123D 1   1.00000     0.00000
 Structure written by MMmdl.
 29 30  0  0  0  0  0  0  0  0  1 V2000
  149.4054  142.8404  157.3485 N   0  0  0  0  0  0  0  0  0  0  0  0
  150.0824  141.6102  156.9875 C   0  0  0  0  0  0  0  0  0  0  0  0
  151.2879  141.3230  157.8705 C   0  0  0  0  0  0  0  0  0  0  0  0
  151.6354  142.2522  158.8739 C   0  0  0  0  0  0  0  0  0  0  0  0
  152.7612  142.0068  159.6803 C   0  0  0  0  0  0  0  0  0  0  0  0
  153.5024  140.8346  159.4480 C   0  0  0  0  0  0  0  0  0  0  0  0
  153.1829  139.9357  158.4944 N   0  0  0  0  0  0  0  0  0  0  0  0
  152.0962  140.1639  157.7158 C   0  0  0  0  0  0  0  0  0  0  0  0
  151.7762  139.1897  156.7518 N   0  0  0  0  0  0  0  0  0  0  0  0
  152.6563  139.0950  155.5912 C   0  0  0  0  0  0  0  0  0  0  0  0
  152.0531  138.1310  154.5554 C   0  0  0  0  0  0  0  0  0  0  0  0
  151.8218  136.8629  155.1630 O   0  0  0  0  0  0  0  0  0  0  0  0
  150.9066  136.9491  156.2516 C   0  0  0  0  0  0  0  0  0  0  0  0
  151.4712  137.8878  157.3319 C   0  0  0  0  0  0  0  0  0  0  0  0
  149.2925  143.4132  156.5243 H   0  0  0  0  0  0  0  0  0  0  0  0
  148.4712  142.6256  157.6663 H   0  0  0  0  0  0  0  0  0  0  0  0
  149.3679  140.7877  157.0059 H   0  0  0  0  0  0  0  0  0  0  0  0
  150.4216  141.6960  155.9548 H   0  0  0  0  0  0  0  0  0  0  0  0
  151.0467  143.1458  159.0222 H   0  0  0  0  0  0  0  0  0  0  0  0
  153.0504  142.7010  160.4553 H   0  0  0  0  0  0  0  0  0  0  0  0
  154.3743  140.6112  160.0449 H   0  0  0  0  0  0  0  0  0  0  0  0
  152.7948  140.0826  155.1495 H   0  0  0  0  0  0  0  0  0  0  0  0
  153.6389  138.7340  155.8986 H   0  0  0  0  0  0  0  0  0  0  0  0
  151.1208  138.5280  154.1505 H   0  0  0  0  0  0  0  0  0  0  0  0
  152.7373  138.0040  153.7163 H   0  0  0  0  0  0  0  0  0  0  0  0
  149.9370  137.3036  155.8977 H   0  0  0  0  0  0  0  0  0  0  0  0
  150.7501  135.9523  156.6646 H   0  0  0  0  0  0  0  0  0  0  0  0
  152.3821  137.4636  157.7564 H   0  0  0  0  0  0  0  0  0  0  0  0
  150.7563  137.9871  158.1481 H   0  0  0  0  0  0  0  0  0  0  0  0
  1  2  1  0  0  0  0
  1 15  1  0  0  0  0
  1 16  1  0  0  0  0
  2  3  1  0  0  0  0
  2 17  1  0  0  0  0
  2 18  1  0  0  0  0
  3  8  1  0  0  0  0
  3  4  2  0  0  0  0
  4  5  1  0  0  0  0
  4 19  1  0  0  0  0
  5  6  2  0  0  0  0
  5 20  1  0  0  0  0
  6  7  1  0  0  0  0
  6 21  1  0  0  0  0
  7  8  2  0  0  0  0
  8  9  1  0  0  0  0
  9 14  1  0  0  0  0
  9 10  1  0  0  0  0
 10 11  1  0  0  0  0
 10 22  1  0  0  0  0
 10 23  1  0  0  0  0
 11 12  1  0  0  0  0
 11 24  1  0  0  0  0
 11 25  1  0  0  0  0
 12 13  1  0  0  0  0
 13 14  1  0  0  0  0
 13 26  1  0  0  0  0
 13 27  1  0  0  0  0
 14 28  1  0  0  0  0
 14 29  1  0  0  0  0
M  END
> <s_m_source_file>
AV-unprocessed.smi

> <i_m_source_file_index>
3075

> <i_lp_mmshare_version>
43012

> <i_f3d_flags>
0

> <s_epik_input>
W05IMl1bQ0gyXWMxW2NIXVtjSF1bY0hdbmMxTjJbQ0gyXVtDSDJdT1tDSDJdW0NIMl0y

> <s_epik_cmdline>
J2VwaWtfcHl0aG9uJywgJy1waCcsICc3LjAnLCAnLXRuJywgJzgnLCAnLW1hJywgJzIwMCcsICctbWV0YWxfYmluZGluZycsICctaW1hZScsICc8aW5maWxlLm1hZT4nLCAnLW9tYWUnLCAnPG91dGZpbGUubWFlPic=

> <r_lp_tautomer_probability>
1

> <r_epik_Ionization_Penalty>
1.38161

> <r_epik_Ionization_Penalty_Charging>
0

> <r_epik_Ionization_Penalty_Neutral>
1.38161

> <r_epik_State_Penalty>
1.45585

> <r_epik_Charging_Adjusted_Penalty>
1.45585

> <i_epik_Tot_Q>
0

> <i_epik_Tot_abs_Q>
0

> <r_epik_Metal_State_Penalty>
1.45048

> <b_epik_Metal_Only>
0

> <s_lp_Force_Field>
OPLS_2005

> <r_lp_Energy>
18.9945

> <b_lp_Chiralities_Consistent>
1

> <s_lp_Variant>
AV-unprocessed.smi:3075-2

> <Gold.Version>
5.8.1

> <Gold.Id.Protein>
6NUR|6NUR_protein|mol2

> <Gold.PLP.Fitness>
32.9411

> <Gold.PLP.PLP>
-24.0154

> <Gold.PLP.part.hbond>
-3.0000

> <Gold.PLP.part.metal>
0.0000

> <Gold.PLP.part.buried>
-3.4855

> <Gold.PLP.part.nonpolar>
-17.3084

> <Gold.PLP.part.repulsive>
0.1172

> <Gold.PLP.ligand.clash>
0.0000

> <Gold.PLP.ligand.torsion>
0.1257

> <Gold.PLP.Chemscore.Hbond>
3.0000

> <Gold.PLP.Chemscore.CHOScore>
0.0000

> <Gold.PLP.Chemscore.Metal>
0.0000

> <Gold.Chemscore.Hbonds>
donor molecule, donor type, donor heavy atom, donor atom, acceptor molecule, acceptor atom, score
      L1  H     1    15       P1  8028  1.00
      P1  H  7997  8008       L1     7  0.78
      P1  H 10752 10765       L1    12  1.00

> <Gold.PLP.Chemscore.Internal.Correction>
0.1771

> <Gold.Rescore>
     Score         DG    S(hbond)    S(metal)    S(lipo)     H(rot)  DE(clash)    DE(int)     intcor
     16.48     -16.95       2.19        0.00      63.64       1.29       0.35       0.11       ----

> <Gold.Chemscore.Fitness>
16.4833

> <Gold.Chemscore.DG>
-16.9462

> <Gold.Chemscore.ZeroCoef>
-5.4800

> <Gold.Chemscore.Hbond>
2.1906

> <Gold.Chemscore.Metal>
0.0000

> <Gold.Chemscore.Lipo>
63.6373

> <Gold.Chemscore.Internal_Hbond>
0.0000

> <Gold.Chemscore.DEClash>
0.3480

> <Gold.Chemscore.DEInternal>
0.1149

> <Gold.Chemscore.Rot>
1.2875

> <Gold.Chemscore.Internal.Correction>
   9.000000E+99

> <Gold.Chemscore.Hbonds>
donor molecule, donor type, donor heavy atom, donor atom, acceptor molecule, acceptor atom, score
      L1  H     1    15       P1  8028  0.97
      P1  H  7997  8008       L1     7  0.07
      P1  H 10752 10765       L1    12  0.73

> <Gold.Chemscore.Hbond.Weighted>
-7.3167

> <Gold.Chemscore.Metal.Weighted>
-0.0000

> <Gold.Chemscore.Lipo.Weighted>
-7.4456

> <Gold.Chemscore.Internal_Hbond.Weighted>
0.0000

> <Gold.Chemscore.DEClash.Weighted>
0.3480

> <Gold.Chemscore.DEInternal.Weighted>
0.1149

> <Gold.Chemscore.Rot.Weighted>
3.2961

> <Gold.Chemscore.Internal.Correction.Weighted>
   9.000000E+99

> <Gold.Protein.RotatedTorsions>
[ 6907 6896 6895 6894 ] final   45.36 input  -60.11 | X-H torsion
[ 7974 7965 7964 7962 ] final -115.81 input  175.53 | X-H torsion
[ 8008 7997 7996 7995 ] final  -81.97 input   59.86 | X-H torsion
[ 10167 10162 10161 10158 ] final    0.89 input  -65.29 | X-H torsion
[ 10718 10713 10712 10709 ] final   87.74 input   66.30 | X-H torsion
[ 10763 10752 10751 10750 ] final  173.24 input  -60.55 | X-H torsion
[ 11005 11000 10999 10996 ] final  102.46 input  -57.11 | X-H torsion

> <Gold.Protein.ActiveResidues>
 VAL166  LYS551  ARG553  GLY616  TRP617  ASP618  TYR619  PRO620  LYS621  CYS622 
 ASP623  PHE694  ASN695  SER759  ASP760  ASP761  ALA762  ILE779  LEU786  VAL792 
 PHE793  MET794  SER795  GLU796  ALA797  LYS798  CYS799  TRP800  GLU811  SER814 

> <Gold.Protein.RotatedAtoms>
  152.2436  134.8203  160.0456 H   0  0  0  0  0  0  0  0  0  0  0  0  # atno 6907 bound_to 6896
  151.8909  133.3511  159.3806 H   0  0  0  0  0  0  0  0  0  0  0  0  # atno 6908 bound_to 6896
  150.7061  134.4851  159.5533 H   0  0  0  0  0  0  0  0  0  0  0  0  # atno 6909 bound_to 6896
  145.1041  140.8570  143.3909 H   0  0  0  0  0  0  0  0  0  0  0  0  # atno 7974 bound_to 7965
  154.6038  140.0640  156.9404 H   0  0  0  0  0  0  0  0  0  0  0  0  # atno 8008 bound_to 7997
  155.2087  140.3321  155.4314 H   0  0  0  0  0  0  0  0  0  0  0  0  # atno 8009 bound_to 7997
  156.2335  140.1852  156.7165 H   0  0  0  0  0  0  0  0  0  0  0  0  # atno 8010 bound_to 7997
  140.6708  143.7054  150.7919 H   0  0  0  0  0  0  0  0  0  0  0  0  # atno 10167 bound_to 10162
  157.6943  131.0267  150.3170 H   0  0  0  0  0  0  0  0  0  0  0  0  # atno 10718 bound_to 10713
  154.4372  135.2761  155.1872 H   0  0  0  0  0  0  0  0  0  0  0  0  # atno 10763 bound_to 10752
  154.3753  135.6099  153.5765 H   0  0  0  0  0  0  0  0  0  0  0  0  # atno 10764 bound_to 10752
  152.9839  135.5867  154.4694 H   0  0  0  0  0  0  0  0  0  0  0  0  # atno 10765 bound_to 10752
  139.8778  134.9225  156.5061 H   0  0  0  0  0  0  0  0  0  0  0  0  # atno 11005 bound_to 11000
  145.0922  139.2882  143.5729 LP  0  0  0  0  0  0  0  0  0  0  0  0  # atno 17320 bound_to 7965
  146.3529  140.0463  142.8639 LP  0  0  0  0  0  0  0  0  0  0  0  0  # atno 17321 bound_to 7965
  140.0739  143.5034  152.2565 LP  0  0  0  0  0  0  0  0  0  0  0  0  # atno 17342 bound_to 10162
  139.5976  144.7572  151.3250 LP  0  0  0  0  0  0  0  0  0  0  0  0  # atno 17343 bound_to 10162
  156.3663  130.3855  149.7211 LP  0  0  0  0  0  0  0  0  0  0  0  0  # atno 17370 bound_to 10713
  156.4641  130.7965  151.2985 LP  0  0  0  0  0  0  0  0  0  0  0  0  # atno 17371 bound_to 10713
  140.8554  133.8100  155.9211 LP  0  0  0  0  0  0  0  0  0  0  0  0  # atno 17394 bound_to 11000
  140.9103  134.2269  157.4990 LP  0  0  0  0  0  0  0  0  0  0  0  0  # atno 17395 bound_to 11000

$$$$
