AV-unprocessed.smi:2385|AV-procd|sdf|9465|dock8
  -GOLD-   2272013 93D 1   1.00000     0.00000
 Structure written by MMmdl.
 50 52  0  0  0  0  0  0  0  0  2 V2000
  152.1947  145.8986  160.2070 C   0  0  0  0  0  0  0  0  0  0  0  0
  151.8561  144.6319  159.4495 C   0  0  0  0  0  0  0  0  0  0  0  0
  151.8498  143.3806  160.0940 C   0  0  0  0  0  0  0  0  0  0  0  0
  151.5263  142.2331  159.3446 C   0  0  0  0  0  0  0  0  0  0  0  0
  151.2162  142.3629  157.9722 C   0  0  0  0  0  0  0  0  0  0  0  0
  150.9071  141.1457  157.3088 N   0  0  0  0  0  0  0  0  0  0  0  0
  150.6492  140.9522  156.0035 C   0  0  0  0  0  0  0  0  0  0  0  0
  150.6292  141.8303  155.1410 O   0  0  0  0  0  0  0  0  0  0  0  0
  150.4051  139.6591  155.7450 N   0  0  0  0  0  0  0  0  0  0  0  0
  150.0987  139.1008  154.4282 C   0  0  2  0  0  0  0  0  0  0  0  0
  148.6887  138.4830  154.3768 C   0  0  0  0  0  0  0  0  0  0  0  0
  148.5913  137.2000  155.2207 C   0  0  0  0  0  0  0  0  0  0  0  0
  149.6101  136.1962  154.8121 N   0  3  2  0  0  0  0  0  0  0  0  0
  149.4449  134.9131  155.5469 C   0  0  0  0  0  0  0  0  0  0  0  0
  149.5986  133.6626  154.6534 C   0  0  2  0  0  0  0  0  0  0  0  0
  148.3934  133.4307  153.7582 C   0  0  0  0  0  0  0  0  0  0  0  0
  148.5241  131.9531  153.4222 C   0  0  0  0  0  0  0  0  0  0  0  0
  148.9369  131.3701  154.6475 O   0  0  0  0  0  0  0  0  0  0  0  0
  149.6966  132.3175  155.3927 C   0  0  0  0  0  0  0  0  0  0  0  0
  150.9866  136.7548  154.8957 C   0  0  0  0  0  0  0  0  0  0  0  0
  151.1339  138.0310  154.0464 C   0  0  0  0  0  0  0  0  0  0  0  0
  151.2220  143.5733  157.3606 N   0  0  0  0  0  0  0  0  0  0  0  0
  151.5329  144.6729  158.0792 C   0  0  0  0  0  0  0  0  0  0  0  0
  152.8019  145.6775  161.0854 H   0  0  0  0  0  0  0  0  0  0  0  0
  151.2816  146.3945  160.5364 H   0  0  0  0  0  0  0  0  0  0  0  0
  152.7528  146.5892  159.5742 H   0  0  0  0  0  0  0  0  0  0  0  0
  152.0885  143.2973  161.1442 H   0  0  0  0  0  0  0  0  0  0  0  0
  151.5181  141.2650  159.8242 H   0  0  0  0  0  0  0  0  0  0  0  0
  150.8841  140.3268  157.8980 H   0  0  0  0  0  0  0  0  0  0  0  0
  150.4511  139.0086  156.5156 H   0  0  0  0  0  0  0  0  0  0  0  0
  150.1582  139.9091  153.6970 H   0  0  0  0  0  0  0  0  0  0  0  0
  147.9396  139.2045  154.7053 H   0  0  0  0  0  0  0  0  0  0  0  0
  148.4409  138.2462  153.3412 H   0  0  0  0  0  0  0  0  0  0  0  0
  148.7118  137.4329  156.2799 H   0  0  0  0  0  0  0  0  0  0  0  0
  147.5916  136.7799  155.1028 H   0  0  0  0  0  0  0  0  0  0  0  0
  150.1111  134.8740  156.4100 H   0  0  0  0  0  0  0  0  0  0  0  0
  148.4329  134.8872  155.9541 H   0  0  0  0  0  0  0  0  0  0  0  0
  150.4704  133.7776  154.0070 H   0  0  0  0  0  0  0  0  0  0  0  0
  147.4667  133.6045  154.3073 H   0  0  0  0  0  0  0  0  0  0  0  0
  148.3899  134.0667  152.8726 H   0  0  0  0  0  0  0  0  0  0  0  0
  147.5931  131.5150  153.0619 H   0  0  0  0  0  0  0  0  0  0  0  0
  149.2958  131.7938  152.6677 H   0  0  0  0  0  0  0  0  0  0  0  0
  150.7310  131.9829  155.4744 H   0  0  0  0  0  0  0  0  0  0  0  0
  149.2793  132.3753  156.3984 H   0  0  0  0  0  0  0  0  0  0  0  0
  151.2345  136.9621  155.9379 H   0  0  0  0  0  0  0  0  0  0  0  0
  151.7133  136.0289  154.5400 H   0  0  0  0  0  0  0  0  0  0  0  0
  151.0112  137.7737  152.9935 H   0  0  0  0  0  0  0  0  0  0  0  0
  152.1439  138.4313  154.1429 H   0  0  0  0  0  0  0  0  0  0  0  0
  151.5222  145.6108  157.5437 H   0  0  0  0  0  0  0  0  0  0  0  0
  149.4292  135.9958  153.8387 H   0  0  0  0  0  0  0  0  0  0  0  0
  1  2  1  0  0  0  0
  1 24  1  0  0  0  0
  1 25  1  0  0  0  0
  1 26  1  0  0  0  0
  2 23  1  0  0  0  0
  2  3  2  0  0  0  0
  3  4  1  0  0  0  0
  3 27  1  0  0  0  0
  4  5  2  0  0  0  0
  4 28  1  0  0  0  0
  5  6  1  0  0  0  0
  5 22  1  0  0  0  0
  6  7  1  0  0  0  0
  6 29  1  0  0  0  0
  7  8  2  0  0  0  0
  7  9  1  0  0  0  0
  9 10  1  0  0  0  0
  9 30  1  0  0  0  0
 10 21  1  0  0  0  0
 10 11  1  0  0  0  0
 10 31  1  0  0  0  0
 11 12  1  0  0  0  0
 11 32  1  0  0  0  0
 11 33  1  0  0  0  0
 12 13  1  0  0  0  0
 12 34  1  0  0  0  0
 12 35  1  0  0  0  0
 13 14  1  0  0  0  0
 13 20  1  0  0  0  0
 13 50  1  0  0  0  0
 14 15  1  0  0  0  0
 14 36  1  0  0  0  0
 14 37  1  0  0  0  0
 15 19  1  0  0  0  0
 15 16  1  0  0  0  0
 15 38  1  0  0  0  0
 16 17  1  0  0  0  0
 16 39  1  0  0  0  0
 16 40  1  0  0  0  0
 17 18  1  0  0  0  0
 17 41  1  0  0  0  0
 17 42  1  0  0  0  0
 18 19  1  0  0  0  0
 19 43  1  0  0  0  0
 19 44  1  0  0  0  0
 20 21  1  0  0  0  0
 20 45  1  0  0  0  0
 20 46  1  0  0  0  0
 21 47  1  0  0  0  0
 21 48  1  0  0  0  0
 22 23  2  0  0  0  0
 23 49  1  0  0  0  0
M  CHG  1  13   1
M  END
> <s_m_source_file>
AV-unprocessed.smi

> <i_m_source_file_index>
2385

> <i_lp_mmshare_version>
43012

> <i_f3d_flags>
0

> <s_epik_input>
W0NIM11jMVtjSF1bY0hdYyhuW2NIXTEpW05IXUMoPU8pW05IXVtDSF0yW0NIMl1bQ0gyXU4oW0NIMl1bQ0gyXTIpW0NIMl1bQ0BASF0zW0NIMl1bQ0gyXU9bQ0gyXTM=

> <s_epik_cmdline>
J2VwaWtfcHl0aG9uJywgJy1waCcsICc3LjAnLCAnLXRuJywgJzgnLCAnLW1hJywgJzIwMCcsICctbWV0YWxfYmluZGluZycsICctaW1hZScsICc8aW5maWxlLm1hZT4nLCAnLW9tYWUnLCAnPG91dGZpbGUubWFlPic=

> <r_epik_Ionization_Penalty>
0.00752367

> <r_epik_Ionization_Penalty_Charging>
0.00747775

> <r_epik_Ionization_Penalty_Neutral>
4.59207e-05

> <r_epik_State_Penalty>
0.00558817

> <r_epik_Charging_Adjusted_Penalty>
0.0130659

> <i_epik_Tot_Q>
1

> <i_epik_Tot_abs_Q>
1

> <r_epik_Metal_State_Penalty>
-0

> <b_epik_Metal_Only>
0

> <s_lp_Force_Field>
OPLS_2005

> <r_lp_Energy>
35.6171

> <b_lp_Chiralities_Consistent>
1

> <s_lp_Variant>
AV-unprocessed.smi:2385-3

> <Gold.Version>
5.8.1

> <Gold.Id.Protein>
6NUR|6NUR_protein|mol2

> <Gold.PLP.Fitness>
46.5505

> <Gold.PLP.PLP>
-41.2489

> <Gold.PLP.part.hbond>
-2.0000

> <Gold.PLP.part.metal>
0.0000

> <Gold.PLP.part.buried>
-3.1347

> <Gold.PLP.part.nonpolar>
-36.5026

> <Gold.PLP.part.repulsive>
0.9199

> <Gold.PLP.ligand.clash>
0.0000

> <Gold.PLP.ligand.torsion>
0.6370

> <Gold.PLP.Chemscore.Hbond>
2.1825

> <Gold.PLP.Chemscore.CHOScore>
0.0000

> <Gold.PLP.Chemscore.Metal>
0.0000

> <Gold.Chemscore.Hbonds>
donor molecule, donor type, donor heavy atom, donor atom, acceptor molecule, acceptor atom, score
      L1  H    13    50       P1  7948  2.00
      P1  H  7989  7998       L1     8  0.21

> <Gold.PLP.Chemscore.Internal.Correction>
0.0281

> <Gold.Rescore>
     Score         DG    S(hbond)    S(metal)    S(lipo)     H(rot)  DE(clash)    DE(int)     intcor
     14.56     -17.94       1.02        0.00     108.11       1.41       1.53       1.85       ----

> <Gold.Chemscore.Fitness>
14.5613

> <Gold.Chemscore.DG>
-17.9433

> <Gold.Chemscore.ZeroCoef>
-5.4800

> <Gold.Chemscore.Hbond>
1.0216

> <Gold.Chemscore.Metal>
0.0000

> <Gold.Chemscore.Lipo>
108.1135

> <Gold.Chemscore.Internal_Hbond>
0.0000

> <Gold.Chemscore.DEClash>
1.5300

> <Gold.Chemscore.DEInternal>
1.8520

> <Gold.Chemscore.Rot>
1.4056

> <Gold.Chemscore.Internal.Correction>
   9.000000E+99

> <Gold.Chemscore.Hbonds>
donor molecule, donor type, donor heavy atom, donor atom, acceptor molecule, acceptor atom, score
      L1  H    13    50       P1  7948  0.62
      P1  H  7989  7998       L1     8  0.09

> <Gold.Chemscore.Hbond.Weighted>
-3.4123

> <Gold.Chemscore.Metal.Weighted>
-0.0000

> <Gold.Chemscore.Lipo.Weighted>
-12.6493

> <Gold.Chemscore.Internal_Hbond.Weighted>
0.0000

> <Gold.Chemscore.DEClash.Weighted>
1.5300

> <Gold.Chemscore.DEInternal.Weighted>
1.8520

> <Gold.Chemscore.Rot.Weighted>
3.5982

> <Gold.Chemscore.Internal.Correction.Weighted>
   9.000000E+99

> <Gold.Protein.RotatedTorsions>
[ 6907 6896 6895 6894 ] final   27.64 input  -60.11 | X-H torsion
[ 7974 7965 7964 7962 ] final  -53.46 input  175.53 | X-H torsion
[ 8008 7997 7996 7995 ] final  -21.35 input   59.86 | X-H torsion
[ 10167 10162 10161 10158 ] final   27.19 input  -65.29 | X-H torsion
[ 10718 10713 10712 10709 ] final  -88.76 input   66.30 | X-H torsion
[ 10763 10752 10751 10750 ] final  -21.39 input  -60.55 | X-H torsion
[ 11005 11000 10999 10996 ] final  -19.06 input  -57.11 | X-H torsion

> <Gold.Protein.ActiveResidues>
 VAL166  LYS551  ARG553  GLY616  TRP617  ASP618  TYR619  PRO620  LYS621  CYS622 
 ASP623  PHE694  ASN695  SER759  ASP760  ASP761  ALA762  ILE779  LEU786  VAL792 
 PHE793  MET794  SER795  GLU796  ALA797  LYS798  CYS799  TRP800  GLU811  SER814 

> <Gold.Protein.RotatedAtoms>
  152.0053  134.9906  160.0566 H   0  0  0  0  0  0  0  0  0  0  0  0  # atno 6907 bound_to 6896
  152.1481  133.4500  159.4808 H   0  0  0  0  0  0  0  0  0  0  0  0  # atno 6908 bound_to 6896
  150.6872  134.2141  159.4414 H   0  0  0  0  0  0  0  0  0  0  0  0  # atno 6909 bound_to 6896
  145.8965  140.8028  142.9765 H   0  0  0  0  0  0  0  0  0  0  0  0  # atno 7974 bound_to 7965
  154.4711  140.2037  155.9992 H   0  0  0  0  0  0  0  0  0  0  0  0  # atno 8008 bound_to 7997
  156.1012  140.3243  155.7915 H   0  0  0  0  0  0  0  0  0  0  0  0  # atno 8009 bound_to 7997
  155.4794  140.0537  157.2960 H   0  0  0  0  0  0  0  0  0  0  0  0  # atno 8010 bound_to 7997
  140.4959  144.0392  150.6314 H   0  0  0  0  0  0  0  0  0  0  0  0  # atno 10167 bound_to 10162
  155.9983  130.4847  150.5068 H   0  0  0  0  0  0  0  0  0  0  0  0  # atno 10718 bound_to 10713
  153.6354  135.6987  153.5260 H   0  0  0  0  0  0  0  0  0  0  0  0  # atno 10763 bound_to 10752
  153.2826  135.4181  155.1092 H   0  0  0  0  0  0  0  0  0  0  0  0  # atno 10764 bound_to 10752
  154.8512  135.3605  154.5897 H   0  0  0  0  0  0  0  0  0  0  0  0  # atno 10765 bound_to 10752
  140.8329  133.7983  155.9778 H   0  0  0  0  0  0  0  0  0  0  0  0  # atno 11005 bound_to 11000
  144.6733  140.1611  143.7422 LP  0  0  0  0  0  0  0  0  0  0  0  0  # atno 17320 bound_to 7965
  145.8843  139.2340  143.1586 LP  0  0  0  0  0  0  0  0  0  0  0  0  # atno 17321 bound_to 7965
  140.3675  143.2873  152.0316 LP  0  0  0  0  0  0  0  0  0  0  0  0  # atno 17342 bound_to 10162
  139.4861  144.6256  151.7171 LP  0  0  0  0  0  0  0  0  0  0  0  0  # atno 17343 bound_to 10162
  157.3046  131.0652  151.2044 LP  0  0  0  0  0  0  0  0  0  0  0  0  # atno 17370 bound_to 10713
  157.3011  130.6843  149.6165 LP  0  0  0  0  0  0  0  0  0  0  0  0  # atno 17371 bound_to 10713
  140.8978  134.2416  157.5059 LP  0  0  0  0  0  0  0  0  0  0  0  0  # atno 17394 bound_to 11000
  139.8704  134.9692  156.4658 LP  0  0  0  0  0  0  0  0  0  0  0  0  # atno 17395 bound_to 11000

$$$$
