AV-unprocessed.smi:1771|AV-procd|sdf|7158|dock1
  -GOLD-   22720 8393D 1   1.00000     0.00000
 Structure written by MMmdl.
 31 32  0  0  0  0  0  0  0  0  1 V2000
  144.7395  137.6666  152.6164 O   0  0  0  0  0  0  0  0  0  0  0  0
  145.9030  137.3343  152.3888 C   0  0  0  0  0  0  0  0  0  0  0  0
  146.9698  138.0335  152.8024 N   0  0  0  0  0  0  0  0  0  0  0  0
  146.9259  139.2591  153.5947 C   0  0  0  0  0  0  0  0  0  0  0  0
  148.3333  139.8103  153.8959 C   0  0  1  0  0  0  0  0  0  0  0  0
  148.3345  141.1766  154.6150 C   0  0  0  0  0  0  0  0  0  0  0  0
  149.7531  141.4710  155.1154 C   0  0  0  0  0  0  0  0  0  0  0  0
  150.4855  139.8436  155.5261 S   0  0  0  0  0  0  0  0  0  0  0  0
  151.7343  139.6772  154.7672 O   0  0  0  0  0  0  0  0  0  0  0  0
  150.4511  139.6400  156.9822 O   0  0  0  0  0  0  0  0  0  0  0  0
  149.1624  138.8401  154.7512 C   0  0  0  0  0  0  0  0  0  0  0  0
  146.2735  136.2426  151.6998 N   0  0  0  0  0  0  0  0  0  0  0  0
  145.4292  135.2577  151.1275 C   0  0  0  0  0  0  0  0  0  0  0  0
  145.7805  133.8909  150.9574 C   0  0  0  0  0  0  0  0  0  0  0  0
  144.7937  133.2036  150.4002 N   0  0  0  0  0  0  0  0  0  0  0  0
  143.8161  134.1189  150.2124 N   0  0  0  0  0  0  0  0  0  0  0  0
  144.1582  135.3826  150.6406 C   0  0  0  0  0  0  0  0  0  0  0  0
  142.9302  133.8681  149.7966 H   0  0  0  0  0  0  0  0  0  0  0  0
  147.8858  137.6835  152.5626 H   0  0  0  0  0  0  0  0  0  0  0  0
  146.3128  140.0191  153.1069 H   0  0  0  0  0  0  0  0  0  0  0  0
  146.4221  139.0213  154.5319 H   0  0  0  0  0  0  0  0  0  0  0  0
  148.8627  139.9399  152.9505 H   0  0  0  0  0  0  0  0  0  0  0  0
  147.9734  141.9782  153.9703 H   0  0  0  0  0  0  0  0  0  0  0  0
  147.6607  141.1297  155.4717 H   0  0  0  0  0  0  0  0  0  0  0  0
  150.3564  141.9225  154.3276 H   0  0  0  0  0  0  0  0  0  0  0  0
  149.7703  142.1247  155.9876 H   0  0  0  0  0  0  0  0  0  0  0  0
  148.5600  138.4117  155.5529 H   0  0  0  0  0  0  0  0  0  0  0  0
  149.5984  138.0260  154.1723 H   0  0  0  0  0  0  0  0  0  0  0  0
  147.2648  136.0946  151.5788 H   0  0  0  0  0  0  0  0  0  0  0  0
  146.6994  133.3851  151.2153 H   0  0  0  0  0  0  0  0  0  0  0  0
  143.4838  136.2225  150.5608 H   0  0  0  0  0  0  0  0  0  0  0  0
  1  2  2  0  0  0  0
  2  3  1  0  0  0  0
  2 12  1  0  0  0  0
  3  4  1  0  0  0  0
  3 19  1  0  0  0  0
  4  5  1  0  0  0  0
  4 20  1  0  0  0  0
  4 21  1  0  0  0  0
  5 11  1  0  0  0  0
  5  6  1  0  0  0  0
  5 22  1  0  0  0  0
  6  7  1  0  0  0  0
  6 23  1  0  0  0  0
  6 24  1  0  0  0  0
  7  8  1  0  0  0  0
  7 25  1  0  0  0  0
  7 26  1  0  0  0  0
  8  9  2  0  0  0  0
  8 10  2  0  0  0  0
  8 11  1  0  0  0  0
 11 27  1  0  0  0  0
 11 28  1  0  0  0  0
 12 13  1  0  0  0  0
 12 29  1  0  0  0  0
 13 17  2  0  0  0  0
 13 14  1  0  0  0  0
 14 15  2  0  0  0  0
 14 30  1  0  0  0  0
 15 16  1  0  0  0  0
 16 18  1  0  0  0  0
 16 17  1  0  0  0  0
 17 31  1  0  0  0  0
M  END
> <s_m_source_file>
AV-unprocessed.smi

> <i_m_source_file_index>
1771

> <i_lp_mmshare_version>
43012

> <i_f3d_flags>
0

> <s_epik_input>
W2NIXTFbbkhdbltjSF1jMVtOSF1DKD1PKVtOSF1bQ0gyXVtDQEBIXShbQ0gyXTIpW0NIMl1bQ0gyXVMyKD1PKT1P

> <s_epik_cmdline>
J2VwaWtfcHl0aG9uJywgJy1waCcsICc3LjAnLCAnLXRuJywgJzgnLCAnLW1hJywgJzIwMCcsICctbWV0YWxfYmluZGluZycsICctaW1hZScsICc8aW5maWxlLm1hZT4nLCAnLW9tYWUnLCAnPG91dGZpbGUubWFlPic=

> <r_lp_tautomer_probability>
1

> <r_epik_Ionization_Penalty>
4.89708e-05

> <r_epik_Ionization_Penalty_Charging>
0

> <r_epik_Ionization_Penalty_Neutral>
4.89708e-05

> <r_epik_State_Penalty>
-0

> <r_epik_Charging_Adjusted_Penalty>
0

> <i_epik_Tot_Q>
0

> <i_epik_Tot_abs_Q>
0

> <r_epik_Metal_State_Penalty>
-0

> <b_epik_Metal_Only>
0

> <s_lp_Force_Field>
OPLS_2005

> <r_lp_Energy>
7.81667

> <b_lp_Chiralities_Consistent>
1

> <s_lp_Variant>
AV-unprocessed.smi:1771-2

> <Gold.Version>
5.8.1

> <Gold.Id.Protein>
6NUR|6NUR_protein|mol2

> <Gold.PLP.Fitness>
40.9235

> <Gold.PLP.PLP>
-26.7443

> <Gold.PLP.part.hbond>
-4.0000

> <Gold.PLP.part.metal>
0.0000

> <Gold.PLP.part.buried>
-4.4393

> <Gold.PLP.part.nonpolar>
-20.7966

> <Gold.PLP.part.repulsive>
1.2896

> <Gold.PLP.ligand.clash>
0.0000

> <Gold.PLP.ligand.torsion>
0.1962

> <Gold.PLP.Chemscore.Hbond>
3.8560

> <Gold.PLP.Chemscore.CHOScore>
1.0000

> <Gold.PLP.Chemscore.Metal>
0.0000

> <Gold.Chemscore.Hbonds>
donor molecule, donor type, donor heavy atom, donor atom, acceptor molecule, acceptor atom, score
      L1  H     3    19       P1  7948  0.98
      L1  H    12    29       P1  7948  1.00
      L1  H    16    18       P1 10186  0.90
      P1  H  7989  7998       L1     9  1.00
      L1  C    17    31       P1 10171  1.00

> <Gold.PLP.Chemscore.Internal.Correction>
0.0036

> <Gold.Rescore>
     Score         DG    S(hbond)    S(metal)    S(lipo)     H(rot)  DE(clash)    DE(int)     intcor
     19.07     -19.34       3.71        0.00      42.93       1.39       0.03       0.24       ----

> <Gold.Chemscore.Fitness>
19.0666

> <Gold.Chemscore.DG>
-19.3367

> <Gold.Chemscore.ZeroCoef>
-5.4800

> <Gold.Chemscore.Hbond>
3.7109

> <Gold.Chemscore.Metal>
0.0000

> <Gold.Chemscore.Lipo>
42.9279

> <Gold.Chemscore.Internal_Hbond>
0.0000

> <Gold.Chemscore.DEClash>
0.0256

> <Gold.Chemscore.DEInternal>
0.2445

> <Gold.Chemscore.Rot>
1.3908

> <Gold.Chemscore.Internal.Correction>
   9.000000E+99

> <Gold.Chemscore.Hbonds>
donor molecule, donor type, donor heavy atom, donor atom, acceptor molecule, acceptor atom, score
      L1  H     3    19       P1  7948  0.92
      L1  H    12    29       P1  7948  1.00
      L1  H    16    18       P1 10186  0.83
      P1  H  7989  7998       L1     9  0.54

> <Gold.Chemscore.Hbond.Weighted>
-12.3945

> <Gold.Chemscore.Metal.Weighted>
-0.0000

> <Gold.Chemscore.Lipo.Weighted>
-5.0226

> <Gold.Chemscore.Internal_Hbond.Weighted>
0.0000

> <Gold.Chemscore.DEClash.Weighted>
0.0256

> <Gold.Chemscore.DEInternal.Weighted>
0.2445

> <Gold.Chemscore.Rot.Weighted>
3.5603

> <Gold.Chemscore.Internal.Correction.Weighted>
   9.000000E+99

> <Gold.Protein.RotatedTorsions>
[ 6907 6896 6895 6894 ] final  -26.70 input  -60.11 | X-H torsion
[ 7974 7965 7964 7962 ] final   82.42 input  175.53 | X-H torsion
[ 8008 7997 7996 7995 ] final  100.31 input   59.86 | X-H torsion
[ 10167 10162 10161 10158 ] final  -23.80 input  -65.29 | X-H torsion
[ 10718 10713 10712 10709 ] final   35.55 input   66.30 | X-H torsion
[ 10763 10752 10751 10750 ] final -173.09 input  -60.55 | X-H torsion
[ 11005 11000 10999 10996 ] final  150.47 input  -57.11 | X-H torsion

> <Gold.Protein.ActiveResidues>
 VAL166  LYS551  ARG553  GLY616  TRP617  ASP618  TYR619  PRO620  LYS621  CYS622 
 ASP623  PHE694  ASN695  SER759  ASP760  ASP761  ALA762  ILE779  LEU786  VAL792 
 PHE793  MET794  SER795  GLU796  ALA797  LYS798  CYS799  TRP800  GLU811  SER814 

> <Gold.Protein.RotatedAtoms>
  151.1573  135.0256  159.8694 H   0  0  0  0  0  0  0  0  0  0  0  0  # atno 6907 bound_to 6896
  152.5452  134.1320  159.8453 H   0  0  0  0  0  0  0  0  0  0  0  0  # atno 6908 bound_to 6896
  151.1411  133.4924  159.2629 H   0  0  0  0  0  0  0  0  0  0  0  0  # atno 6909 bound_to 6896
  145.6253  139.2394  143.2115 H   0  0  0  0  0  0  0  0  0  0  0  0  # atno 7974 bound_to 7965
  156.1191  140.3215  155.8182 H   0  0  0  0  0  0  0  0  0  0  0  0  # atno 8008 bound_to 7997
  155.4537  140.0534  157.3015 H   0  0  0  0  0  0  0  0  0  0  0  0  # atno 8009 bound_to 7997
  154.4814  140.2054  155.9768 H   0  0  0  0  0  0  0  0  0  0  0  0  # atno 8010 bound_to 7997
  140.7288  143.4410  151.0657 H   0  0  0  0  0  0  0  0  0  0  0  0  # atno 10167 bound_to 10162
  157.3241  130.7463  149.6804 H   0  0  0  0  0  0  0  0  0  0  0  0  # atno 10718 bound_to 10713
  154.6118  135.2865  155.0423 H   0  0  0  0  0  0  0  0  0  0  0  0  # atno 10763 bound_to 10752
  154.1650  135.6482  153.4999 H   0  0  0  0  0  0  0  0  0  0  0  0  # atno 10764 bound_to 10752
  153.0198  135.5387  154.6875 H   0  0  0  0  0  0  0  0  0  0  0  0  # atno 10765 bound_to 10752
  140.1134  134.8910  157.1968 H   0  0  0  0  0  0  0  0  0  0  0  0  # atno 11005 bound_to 11000
  146.1399  140.7072  142.9372 LP  0  0  0  0  0  0  0  0  0  0  0  0  # atno 17320 bound_to 7965
  144.7215  140.4387  143.7005 LP  0  0  0  0  0  0  0  0  0  0  0  0  # atno 17321 bound_to 7965
  139.8077  143.7994  152.3169 LP  0  0  0  0  0  0  0  0  0  0  0  0  # atno 17342 bound_to 10162
  139.8033  144.7365  150.9795 LP  0  0  0  0  0  0  0  0  0  0  0  0  # atno 17343 bound_to 10162
  155.9689  130.4214  150.4470 LP  0  0  0  0  0  0  0  0  0  0  0  0  # atno 17370 bound_to 10713
  157.2490  131.0542  151.2390 LP  0  0  0  0  0  0  0  0  0  0  0  0  # atno 17371 bound_to 10713
  140.3061  134.3076  155.7278 LP  0  0  0  0  0  0  0  0  0  0  0  0  # atno 17394 bound_to 11000
  141.2135  133.7621  156.9710 LP  0  0  0  0  0  0  0  0  0  0  0  0  # atno 17395 bound_to 11000

$$$$
