AV-unprocessed.smi:275|AV-procd|sdf|2066|dock8
  -GOLD-   2262021313D 1   1.00000     0.00000
 Structure written by MMmdl.
 65 69  0  0  0  0  0  0  0  0  1 V2000
  149.1679  140.0447  154.5085 C   0  0  0  0  0  0  0  0  0  0  0  0
  150.3300  140.6396  155.3231 C   0  0  0  0  0  0  0  0  0  0  0  0
  151.5731  139.7532  155.1381 C   0  0  0  0  0  0  0  0  0  0  0  0
  149.9772  140.7988  156.8121 C   0  0  2  0  0  0  0  0  0  0  0  0
  148.7695  141.5857  157.0494 N   0  0  0  0  0  0  0  0  0  0  0  0
  147.5594  140.8474  157.1571 C   0  0  0  0  0  0  0  0  0  0  0  0
  146.3595  141.3934  156.8174 N   0  0  0  0  0  0  0  0  0  0  0  0
  145.2294  140.6896  156.9326 C   0  0  0  0  0  0  0  0  0  0  0  0
  145.0671  139.4381  157.3646 N   0  0  0  0  0  0  0  0  0  0  0  0
  146.2628  138.8827  157.7100 C   0  0  0  0  0  0  0  0  0  0  0  0
  147.5378  139.5095  157.6343 C   0  0  0  0  0  0  0  0  0  0  0  0
  148.5238  138.6348  158.0735 N   0  0  0  0  0  0  0  0  0  0  0  0
  147.8688  137.5520  158.3934 C   0  0  0  0  0  0  0  0  0  0  0  0
  146.5058  137.6170  158.2109 N   0  0  0  0  0  0  0  0  0  0  0  0
  145.5371  136.5715  158.4862 C   0  0  0  0  0  0  0  0  0  0  0  0
  145.3129  136.3339  160.0003 C   0  0  2  0  0  0  0  0  0  0  0  0
  144.8380  137.6082  160.7402 C   0  0  0  0  0  0  0  0  0  0  0  0
  145.9136  138.2710  161.3726 O   0  0  0  0  0  0  0  0  0  0  0  0
  146.5562  135.6900  160.6636 C   0  0  1  0  0  0  0  0  0  0  0  0
  146.3655  135.2683  162.1101 C   0  0  0  0  0  0  0  0  0  0  0  0
  147.5101  134.2816  162.3163 C   0  0  0  0  0  0  0  0  0  0  0  0
  147.7337  133.6755  161.0482 O   0  0  0  0  0  0  0  0  0  0  0  0
  146.9878  134.3563  160.0448 C   0  0  0  0  0  0  0  0  0  0  0  0
  149.3007  142.0573  158.3197 C   0  0  0  0  0  0  0  0  0  0  0  0
  150.7001  141.8130  157.7327 C   0  0  0  0  0  0  0  0  0  0  0  0
  151.7366  141.2070  158.6926 C   0  0  0  0  0  0  0  0  0  0  0  0
  152.2198  142.2059  159.7571 C   0  0  0  0  0  0  0  0  0  0  0  0
  152.8162  143.4618  159.1091 C   0  0  0  0  0  0  0  0  0  0  0  0
  151.8357  144.0874  158.1089 C   0  0  0  0  0  0  0  0  0  0  0  0
  151.3562  143.0505  157.0781 C   0  0  0  0  0  0  0  0  0  0  0  0
  148.8511  139.0829  154.9133 H   0  0  0  0  0  0  0  0  0  0  0  0
  149.4562  139.8895  153.4684 H   0  0  0  0  0  0  0  0  0  0  0  0
  148.3021  140.7049  154.5005 H   0  0  0  0  0  0  0  0  0  0  0  0
  150.5608  141.6178  154.8993 H   0  0  0  0  0  0  0  0  0  0  0  0
  151.3993  138.7493  155.5267 H   0  0  0  0  0  0  0  0  0  0  0  0
  152.4449  140.1544  155.6511 H   0  0  0  0  0  0  0  0  0  0  0  0
  151.8351  139.6595  154.0838 H   0  0  0  0  0  0  0  0  0  0  0  0
  149.9186  139.8318  157.3158 H   0  0  0  0  0  0  0  0  0  0  0  0
  144.3263  141.2036  156.6384 H   0  0  0  0  0  0  0  0  0  0  0  0
  148.3634  136.6734  158.7817 H   0  0  0  0  0  0  0  0  0  0  0  0
  144.6039  136.8525  157.9976 H   0  0  0  0  0  0  0  0  0  0  0  0
  145.8730  135.6524  158.0041 H   0  0  0  0  0  0  0  0  0  0  0  0
  144.4984  135.6134  160.0885 H   0  0  0  0  0  0  0  0  0  0  0  0
  144.3559  138.3032  160.0524 H   0  0  0  0  0  0  0  0  0  0  0  0
  144.0859  137.3655  161.4903 H   0  0  0  0  0  0  0  0  0  0  0  0
  146.2269  137.7279  162.0797 H   0  0  0  0  0  0  0  0  0  0  0  0
  147.3984  136.3817  160.6126 H   0  0  0  0  0  0  0  0  0  0  0  0
  146.4056  136.1019  162.8118 H   0  0  0  0  0  0  0  0  0  0  0  0
  145.4082  134.7603  162.2370 H   0  0  0  0  0  0  0  0  0  0  0  0
  148.4180  134.8077  162.6132 H   0  0  0  0  0  0  0  0  0  0  0  0
  147.2849  133.5371  163.0802 H   0  0  0  0  0  0  0  0  0  0  0  0
  146.1191  133.7466  159.7925 H   0  0  0  0  0  0  0  0  0  0  0  0
  147.5817  134.4875  159.1400 H   0  0  0  0  0  0  0  0  0  0  0  0
  149.0658  143.1013  158.5268 H   0  0  0  0  0  0  0  0  0  0  0  0
  149.0730  141.4131  159.1707 H   0  0  0  0  0  0  0  0  0  0  0  0
  151.3205  140.3329  159.1944 H   0  0  0  0  0  0  0  0  0  0  0  0
  152.5957  140.8399  158.1300 H   0  0  0  0  0  0  0  0  0  0  0  0
  151.3848  142.4875  160.4001 H   0  0  0  0  0  0  0  0  0  0  0  0
  152.9605  141.7339  160.4031 H   0  0  0  0  0  0  0  0  0  0  0  0
  153.0858  144.1888  159.8758 H   0  0  0  0  0  0  0  0  0  0  0  0
  153.7406  143.1987  158.5933 H   0  0  0  0  0  0  0  0  0  0  0  0
  150.9800  144.4987  158.6450 H   0  0  0  0  0  0  0  0  0  0  0  0
  152.3106  144.9264  157.5998 H   0  0  0  0  0  0  0  0  0  0  0  0
  152.2085  142.7554  156.4678 H   0  0  0  0  0  0  0  0  0  0  0  0
  150.6605  143.5358  156.3925 H   0  0  0  0  0  0  0  0  0  0  0  0
  1  2  1  0  0  0  0
  1 31  1  0  0  0  0
  1 32  1  0  0  0  0
  1 33  1  0  0  0  0
  2  3  1  0  0  0  0
  2  4  1  0  0  0  0
  2 34  1  0  0  0  0
  3 35  1  0  0  0  0
  3 36  1  0  0  0  0
  3 37  1  0  0  0  0
  4 25  1  0  0  0  0
  4  5  1  0  0  0  0
  4 38  1  0  0  0  0
  5  6  1  0  0  0  0
  5 24  1  0  0  0  0
  6 11  1  0  0  0  0
  6  7  2  0  0  0  0
  7  8  1  0  0  0  0
  8  9  2  0  0  0  0
  8 39  1  0  0  0  0
  9 10  1  0  0  0  0
 10 14  1  0  0  0  0
 10 11  2  0  0  0  0
 11 12  1  0  0  0  0
 12 13  2  0  0  0  0
 13 14  1  0  0  0  0
 13 40  1  0  0  0  0
 14 15  1  0  0  0  0
 15 16  1  0  0  0  0
 15 41  1  0  0  0  0
 15 42  1  0  0  0  0
 16 17  1  0  0  0  0
 16 19  1  0  0  0  0
 16 43  1  0  0  0  0
 17 18  1  0  0  0  0
 17 44  1  0  0  0  0
 17 45  1  0  0  0  0
 18 46  1  0  0  0  0
 19 23  1  0  0  0  0
 19 20  1  0  0  0  0
 19 47  1  0  0  0  0
 20 21  1  0  0  0  0
 20 48  1  0  0  0  0
 20 49  1  0  0  0  0
 21 22  1  0  0  0  0
 21 50  1  0  0  0  0
 21 51  1  0  0  0  0
 22 23  1  0  0  0  0
 23 52  1  0  0  0  0
 23 53  1  0  0  0  0
 24 25  1  0  0  0  0
 24 54  1  0  0  0  0
 24 55  1  0  0  0  0
 25 30  1  0  0  0  0
 25 26  1  0  0  0  0
 26 27  1  0  0  0  0
 26 56  1  0  0  0  0
 26 57  1  0  0  0  0
 27 28  1  0  0  0  0
 27 58  1  0  0  0  0
 27 59  1  0  0  0  0
 28 29  1  0  0  0  0
 28 60  1  0  0  0  0
 28 61  1  0  0  0  0
 29 30  1  0  0  0  0
 29 62  1  0  0  0  0
 29 63  1  0  0  0  0
 30 64  1  0  0  0  0
 30 65  1  0  0  0  0
M  END
> <s_m_source_file>
AV-unprocessed.smi

> <i_m_source_file_index>
275

> <i_lp_mmshare_version>
43012

> <i_f3d_flags>
0

> <s_epik_input>
W0NIMl0xW0NIMl1bQ0gyXVtDSDJdW0NIMl1DMTJbQ0BIXShbQ0hdKFtDSDNdKVtDSDNdKU4oW0NIMl0yKWMobltjSF1uMyljKGMzNCluW2NIXW40W0NIMl1bQ0BIXShbQ0gyXVtPSF0pW0NAQEhdNVtDSDJdW0NIMl1PW0NIMl01

> <s_epik_cmdline>
J2VwaWtfcHl0aG9uJywgJy1waCcsICc3LjAnLCAnLXRuJywgJzgnLCAnLW1hJywgJzIwMCcsICctbWV0YWxfYmluZGluZycsICctaW1hZScsICc8aW5maWxlLm1hZT4nLCAnLW9tYWUnLCAnPG91dGZpbGUubWFlPic=

> <r_lp_tautomer_probability>
1

> <r_epik_Ionization_Penalty>
0.00375122

> <r_epik_Ionization_Penalty_Charging>
0

> <r_epik_Ionization_Penalty_Neutral>
0.00375122

> <r_epik_State_Penalty>
0.00260593

> <r_epik_Charging_Adjusted_Penalty>
0.00260593

> <i_epik_Tot_Q>
0

> <i_epik_Tot_abs_Q>
0

> <r_epik_Metal_State_Penalty>
-0

> <b_epik_Metal_Only>
0

> <s_lp_Force_Field>
OPLS_2005

> <r_lp_Energy>
62.8916

> <b_lp_Chiralities_Consistent>
1

> <s_lp_Variant>
AV-unprocessed.smi:275-5

> <Gold.Version>
5.8.1

> <Gold.Id.Protein>
6NUR|6NUR_protein|mol2

> <Gold.PLP.Fitness>
42.3347

> <Gold.PLP.PLP>
-42.8274

> <Gold.PLP.part.hbond>
-0.3424

> <Gold.PLP.part.metal>
0.0000

> <Gold.PLP.part.buried>
-5.8278

> <Gold.PLP.part.nonpolar>
-36.8884

> <Gold.PLP.part.repulsive>
0.1391

> <Gold.PLP.ligand.clash>
0.0000

> <Gold.PLP.ligand.torsion>
1.4215

> <Gold.PLP.Chemscore.Hbond>
0.5772

> <Gold.PLP.Chemscore.CHOScore>
0.0000

> <Gold.PLP.Chemscore.Metal>
0.0000

> <Gold.Chemscore.Hbonds>
donor molecule, donor type, donor heavy atom, donor atom, acceptor molecule, acceptor atom, score
      P1  H  6934  6947       L1    18  0.65

> <Gold.PLP.Chemscore.Internal.Correction>
0.6187

> <Gold.Rescore>
     Score         DG    S(hbond)    S(metal)    S(lipo)     H(rot)  DE(clash)    DE(int)     intcor
     11.65     -14.52       0.41        0.00     120.99       2.54       0.03       2.84       ----

> <Gold.Chemscore.Fitness>
11.6508

> <Gold.Chemscore.DG>
-14.5216

> <Gold.Chemscore.ZeroCoef>
-5.4800

> <Gold.Chemscore.Hbond>
0.4139

> <Gold.Chemscore.Metal>
0.0000

> <Gold.Chemscore.Lipo>
120.9888

> <Gold.Chemscore.Internal_Hbond>
0.0000

> <Gold.Chemscore.DEClash>
0.0270

> <Gold.Chemscore.DEInternal>
2.8438

> <Gold.Chemscore.Rot>
2.5377

> <Gold.Chemscore.Internal.Correction>
   9.000000E+99

> <Gold.Chemscore.Hbonds>
donor molecule, donor type, donor heavy atom, donor atom, acceptor molecule, acceptor atom, score
      P1  H  6934  6947       L1    18  0.28

> <Gold.Chemscore.Hbond.Weighted>
-1.3825

> <Gold.Chemscore.Metal.Weighted>
-0.0000

> <Gold.Chemscore.Lipo.Weighted>
-14.1557

> <Gold.Chemscore.Internal_Hbond.Weighted>
0.0000

> <Gold.Chemscore.DEClash.Weighted>
0.0270

> <Gold.Chemscore.DEInternal.Weighted>
2.8438

> <Gold.Chemscore.Rot.Weighted>
6.4966

> <Gold.Chemscore.Internal.Correction.Weighted>
   9.000000E+99

> <Gold.Protein.RotatedTorsions>
[ 6907 6896 6895 6894 ] final -140.14 input  -60.11 | X-H torsion
[ 7974 7965 7964 7962 ] final  124.87 input  175.53 | X-H torsion
[ 8008 7997 7996 7995 ] final  109.80 input   59.86 | X-H torsion
[ 10167 10162 10161 10158 ] final  -31.43 input  -65.29 | X-H torsion
[ 10718 10713 10712 10709 ] final  129.75 input   66.30 | X-H torsion
[ 10763 10752 10751 10750 ] final  103.46 input  -60.55 | X-H torsion
[ 11005 11000 10999 10996 ] final  142.58 input  -57.11 | X-H torsion

> <Gold.Protein.ActiveResidues>
 VAL166  LYS551  ARG553  GLY616  TRP617  ASP618  TYR619  PRO620  LYS621  CYS622 
 ASP623  PHE694  ASN695  SER759  ASP760  ASP761  ALA762  ILE779  LEU786  VAL792 
 PHE793  MET794  SER795  GLU796  ALA797  LYS798  CYS799  TRP800  GLU811  SER814 

> <Gold.Protein.RotatedAtoms>
  151.0568  133.5577  159.2637 H   0  0  0  0  0  0  0  0  0  0  0  0  # atno 6907 bound_to 6896
  151.2567  135.0640  159.9092 H   0  0  0  0  0  0  0  0  0  0  0  0  # atno 6908 bound_to 6896
  152.5391  134.0320  159.8083 H   0  0  0  0  0  0  0  0  0  0  0  0  # atno 6909 bound_to 6896
  145.0794  139.3668  143.4917 H   0  0  0  0  0  0  0  0  0  0  0  0  # atno 7974 bound_to 7965
  156.2006  140.3051  155.9519 H   0  0  0  0  0  0  0  0  0  0  0  0  # atno 8008 bound_to 7997
  155.2963  140.0444  157.3043 H   0  0  0  0  0  0  0  0  0  0  0  0  # atno 8009 bound_to 7997
  154.5566  140.2307  155.8410 H   0  0  0  0  0  0  0  0  0  0  0  0  # atno 8010 bound_to 7997
  140.7236  143.3772  151.1668 H   0  0  0  0  0  0  0  0  0  0  0  0  # atno 10167 bound_to 10162
  157.5125  131.1097  150.9271 H   0  0  0  0  0  0  0  0  0  0  0  0  # atno 10718 bound_to 10713
  153.3530  135.3976  155.1660 H   0  0  0  0  0  0  0  0  0  0  0  0  # atno 10763 bound_to 10752
  154.8665  135.3661  154.5198 H   0  0  0  0  0  0  0  0  0  0  0  0  # atno 10764 bound_to 10752
  153.5651  135.7080  153.5590 H   0  0  0  0  0  0  0  0  0  0  0  0  # atno 10765 bound_to 10752
  140.0488  134.9267  157.0979 H   0  0  0  0  0  0  0  0  0  0  0  0  # atno 11005 bound_to 11000
  146.3530  140.0577  142.8631 LP  0  0  0  0  0  0  0  0  0  0  0  0  # atno 17320 bound_to 7965
  145.1196  140.9454  143.4608 LP  0  0  0  0  0  0  0  0  0  0  0  0  # atno 17321 bound_to 7965
  139.7354  143.9007  152.3033 LP  0  0  0  0  0  0  0  0  0  0  0  0  # atno 17342 bound_to 10162
  139.8810  144.7017  150.8877 LP  0  0  0  0  0  0  0  0  0  0  0  0  # atno 17343 bound_to 10162
  156.9907  130.5562  149.5303 LP  0  0  0  0  0  0  0  0  0  0  0  0  # atno 17370 bound_to 10713
  156.0299  130.5391  150.8505 LP  0  0  0  0  0  0  0  0  0  0  0  0  # atno 17371 bound_to 10713
  140.3951  134.2143  155.7165 LP  0  0  0  0  0  0  0  0  0  0  0  0  # atno 17394 bound_to 11000
  141.1920  133.8183  157.0857 LP  0  0  0  0  0  0  0  0  0  0  0  0  # atno 17395 bound_to 11000

$$$$
