#       Name:                AV-unprocessed.smi:1230
#       Creating user name   scv26
#       Creation time:       Fri Mar 27 04:23:16 2020


#       File generated by GOLD software.
#

@<TRIPOS>MOLECULE
AV-unprocessed.smi:1230
    46    47     1
SMALL
NO_CHARGES


@<TRIPOS>ATOM
      1 ****        -0.0045   1.6024   1.5478 C.3            1 S1                 0.0000
      2 ****        -0.8888   1.8346   0.3131 C.3            1 S1                 0.0000
      3 ****        -2.0765   0.8521   0.2753 C.3            1 S1                 0.0000
      4 ****        -2.9889   1.1173  -0.9327 C.3            1 S1                 0.0000
      5 ****        -2.1996   1.0698  -2.2495 C.3            1 S1                 0.0000
      6 ****        -1.0080   2.0421  -2.2220 C.3            1 S1                 0.0000
      7 ****        -0.0893   1.7932  -1.0112 C.3            1 S1                 0.0000
      8 ****         0.5018   0.5102  -1.1712 O.3            1 S1                 0.0000
      9 ****         1.9183   0.4920  -1.0833 C.3            1 S1                 0.0000
     10 ****         2.3747  -0.9727  -1.0052 C.3            1 S1                 0.0000
     11 ****         1.8982  -1.6267   0.1885 N.am           1 S1                 0.0000
     12 ****         0.7155  -2.3496   0.2108 C.2            1 S1                 0.0000
     13 ****         0.2205  -2.9107   1.3389 C.2            1 S1                 0.0000
     14 ****        -1.0026  -3.6424   1.3476 C.1            1 S1                 0.0000
     15 ****        -1.9991  -4.2305   1.3303 N.1            1 S1                 0.0000
     16 ****         0.9267  -2.7764   2.6117 C.2            1 S1                 0.0000
     17 ****         0.5634  -3.2496   3.6868 O.2            1 S1                 0.0000
     18 ****         2.1089  -2.0323   2.5393 N.am           1 S1                 0.0000
     19 ****         2.6289  -1.4415   1.3860 C.2            1 S1                 0.0000
     20 ****         3.6700  -0.7875   1.4486 O.2            1 S1                 0.0000
     21 ****         2.6275  -1.9056   3.3963 H              1 S1                 0.0000
     22 ****         0.3987   0.5903   1.5639 H              1 S1                 0.0000
     23 ****        -0.5726   1.7431   2.4676 H              1 S1                 0.0000
     24 ****         0.8343   2.2983   1.5690 H              1 S1                 0.0000
     25 ****        -1.3010   2.8403   0.4077 H              1 S1                 0.0000
     26 ****        -1.7081  -0.1742   0.2374 H              1 S1                 0.0000
     27 ****        -2.6580   0.9353   1.1940 H              1 S1                 0.0000
     28 ****        -3.7968   0.3854  -0.9566 H              1 S1                 0.0000
     29 ****        -3.4608   2.0949  -0.8259 H              1 S1                 0.0000
     30 ****        -1.8420   0.0542  -2.4247 H              1 S1                 0.0000
     31 ****        -2.8567   1.3123  -3.0850 H              1 S1                 0.0000
     32 ****        -0.4368   1.9571  -3.1469 H              1 S1                 0.0000
     33 ****        -1.3816   3.0662  -2.1861 H              1 S1                 0.0000
     34 ****         0.6725   2.5754  -0.9989 H              1 S1                 0.0000
     35 ****         2.3421   0.9767  -1.9634 H              1 S1                 0.0000
     36 ****         2.2647   1.0439  -0.2083 H              1 S1                 0.0000
     37 ****         1.9896  -1.5501  -1.8471 H              1 S1                 0.0000
     38 ****         3.4613  -1.0750  -1.0352 H              1 S1                 0.0000
     39 ****         0.1559  -2.4631  -0.7074 H              1 S1                 0.0000
     40 ****         0.2413   0.1577  -2.0700 LP             1 S1                 0.0000
     41 ****         0.1382  -0.0907  -0.4594 LP             1 S1                 0.0000
     42 ****        -2.8603  -4.7387   1.3154 LP             1 S1                 0.0000
     43 ****        -0.2832  -3.7793   3.7394 LP             1 S1                 0.0000
     44 ****         1.1144  -3.1047   4.5086 LP             1 S1                 0.0000
     45 ****         4.0390  -0.3551   0.6259 LP             1 S1                 0.0000
     46 ****         4.1466  -0.6886   2.3221 LP             1 S1                 0.0000
@<TRIPOS>BOND
    1    1    2 1     
    2    1   22 1     
    3    1   23 1     
    4    1   24 1     
    5    2    7 1     
    6    2    3 1     
    7    2   25 1     
    8    3    4 1     
    9    3   26 1     
   10    3   27 1     
   11    4    5 1     
   12    4   28 1     
   13    4   29 1     
   14    5    6 1     
   15    5   30 1     
   16    5   31 1     
   17    6    7 1     
   18    6   32 1     
   19    6   33 1     
   20    7    8 1     
   21    7   34 1     
   22    8    9 1     
   23    9   10 1     
   24    9   35 1     
   25    9   36 1     
   26   10   11 1     
   27   10   37 1     
   28   10   38 1     
   29   11   19 1     
   30   11   12 1     
   31   12   13 2     
   32   12   39 1     
   33   13   14 1     
   34   13   16 1     
   35   14   15 3     
   36   16   17 2     
   37   16   18 1     
   38   18   21 1     
   39   18   19 1     
   40   19   20 2     
   41    8   40 1     
   42    8   41 1     
   43   15   42 1     
   44   17   43 1     
   45   17   44 1     
   46   20   45 1     
   47   20   46 1     
@<TRIPOS>SUBSTRUCTURE
      1 S1             1
@<TRIPOS>SET
LONE_PAIRS      STATIC     ATOMS    <user>   **** ""
7 40 41 42 43 44 45 46
DONOR_HYDROGENS      STATIC     ATOMS    <user>   **** ""
1 21
ATOM$BLUE        STATIC     ATOMS    COLORGROUP SYSTEM
7 40 41 42 43 44 45 46
ATOM$RED        STATIC     ATOMS    COLORGROUP SYSTEM
1 21
