AV-unprocessed.smi:528|AV-procd|sdf|2838|dock6
  -GOLD-   2262023333D 1   1.00000     0.00000
 Structure written by MMmdl.
 45 47  0  0  0  0  0  0  0  0  1 V2000
  152.2760  140.9968  153.7547 C   0  0  0  0  0  0  0  0  0  0  0  0
  151.4701  141.5710  154.9327 C   0  0  1  0  0  0  0  0  0  0  0  0
  152.3734  142.2515  155.8576 N   0  0  0  0  0  0  0  0  0  0  0  0
  153.1823  141.6505  156.7433 C   0  0  0  0  0  0  0  0  0  0  0  0
  153.2721  140.4269  156.8551 O   0  0  0  0  0  0  0  0  0  0  0  0
  154.0242  142.5886  157.6202 C   0  0  0  0  0  0  0  0  0  0  0  0
  153.7508  142.4511  159.0606 N   0  0  0  0  0  0  0  0  0  0  0  0
  152.4696  142.8284  159.5088 C   0  0  0  0  0  0  0  0  0  0  0  0
  152.0874  142.7385  160.7971 C   0  0  0  0  0  0  0  0  0  0  0  0
  150.7160  143.2078  161.2574 C   0  0  0  0  0  0  0  0  0  0  0  0
  150.5429  142.9846  162.5603 F   0  0  0  0  0  0  0  0  0  0  0  0
  150.5526  144.5116  161.0303 F   0  0  0  0  0  0  0  0  0  0  0  0
  149.7667  142.5496  160.5937 F   0  0  0  0  0  0  0  0  0  0  0  0
  153.0837  142.2558  161.7333 C   0  0  0  0  0  0  0  0  0  0  0  0
  154.3176  141.9019  161.3232 C   0  0  0  0  0  0  0  0  0  0  0  0
  154.7119  141.9878  159.9152 C   0  0  0  0  0  0  0  0  0  0  0  0
  155.8354  141.6648  159.5278 O   0  0  0  0  0  0  0  0  0  0  0  0
  150.3709  142.5518  154.4610 C   0  0  1  0  0  0  0  0  0  0  0  0
  149.4449  142.0060  153.3506 C   0  0  0  0  0  0  0  0  0  0  0  0
  148.0358  142.3100  153.8932 C   0  0  1  0  0  0  0  0  0  0  0  0
  147.7146  141.3282  155.0346 C   0  0  0  0  0  0  0  0  0  0  0  0
  148.6112  141.8358  156.1784 C   0  0  0  0  0  0  0  0  0  0  0  0
  149.3529  143.0235  155.5308 C   0  0  2  0  0  0  0  0  0  0  0  0
  148.2542  143.6136  154.6524 C   0  0  0  0  0  0  0  0  0  0  0  0
  151.6328  140.4596  153.0579 H   0  0  0  0  0  0  0  0  0  0  0  0
  153.0345  140.2944  154.1013 H   0  0  0  0  0  0  0  0  0  0  0  0
  152.7833  141.7854  153.1979 H   0  0  0  0  0  0  0  0  0  0  0  0
  150.9936  140.7354  155.4472 H   0  0  0  0  0  0  0  0  0  0  0  0
  152.3693  143.2611  155.8330 H   0  0  0  0  0  0  0  0  0  0  0  0
  155.0772  142.3948  157.4106 H   0  0  0  0  0  0  0  0  0  0  0  0
  153.8570  143.6206  157.3059 H   0  0  0  0  0  0  0  0  0  0  0  0
  151.8163  143.2060  158.7356 H   0  0  0  0  0  0  0  0  0  0  0  0
  152.8363  142.1730  162.7814 H   0  0  0  0  0  0  0  0  0  0  0  0
  155.0340  141.5449  162.0485 H   0  0  0  0  0  0  0  0  0  0  0  0
  150.8680  143.4443  154.0762 H   0  0  0  0  0  0  0  0  0  0  0  0
  149.6253  142.5303  152.4113 H   0  0  0  0  0  0  0  0  0  0  0  0
  149.5817  140.9399  153.1645 H   0  0  0  0  0  0  0  0  0  0  0  0
  147.2680  142.3475  153.1201 H   0  0  0  0  0  0  0  0  0  0  0  0
  146.6628  141.3888  155.3169 H   0  0  0  0  0  0  0  0  0  0  0  0
  147.9297  140.2937  154.7646 H   0  0  0  0  0  0  0  0  0  0  0  0
  147.9983  142.1805  157.0123 H   0  0  0  0  0  0  0  0  0  0  0  0
  149.2784  141.0672  156.5669 H   0  0  0  0  0  0  0  0  0  0  0  0
  149.7723  143.7214  156.2562 H   0  0  0  0  0  0  0  0  0  0  0  0
  148.5965  144.4326  154.0173 H   0  0  0  0  0  0  0  0  0  0  0  0
  147.3771  143.9394  155.2145 H   0  0  0  0  0  0  0  0  0  0  0  0
  1  2  1  0  0  0  0
  1 25  1  0  0  0  0
  1 26  1  0  0  0  0
  1 27  1  0  0  0  0
  2  3  1  0  0  0  0
  2 18  1  0  0  0  0
  2 28  1  0  0  0  0
  3  4  1  0  0  0  0
  3 29  1  0  0  0  0
  4  5  2  0  0  0  0
  4  6  1  0  0  0  0
  6  7  1  0  0  0  0
  6 30  1  0  0  0  0
  6 31  1  0  0  0  0
  7 16  1  0  0  0  0
  7  8  1  0  0  0  0
  8  9  2  0  0  0  0
  8 32  1  0  0  0  0
  9 10  1  0  0  0  0
  9 14  1  0  0  0  0
 10 11  1  0  0  0  0
 10 12  1  0  0  0  0
 10 13  1  0  0  0  0
 14 15  2  0  0  0  0
 14 33  1  0  0  0  0
 15 16  1  0  0  0  0
 15 34  1  0  0  0  0
 16 17  2  0  0  0  0
 18 23  1  0  0  0  0
 18 19  1  0  0  0  0
 18 35  1  0  0  0  0
 19 20  1  0  0  0  0
 19 36  1  0  0  0  0
 19 37  1  0  0  0  0
 20 24  1  0  0  0  0
 20 21  1  0  0  0  0
 20 38  1  0  0  0  0
 21 22  1  0  0  0  0
 21 39  1  0  0  0  0
 21 40  1  0  0  0  0
 22 23  1  0  0  0  0
 22 41  1  0  0  0  0
 22 42  1  0  0  0  0
 23 24  1  0  0  0  0
 23 43  1  0  0  0  0
 24 44  1  0  0  0  0
 24 45  1  0  0  0  0
M  END
> <s_m_source_file>
AV-unprocessed.smi

> <i_m_source_file_index>
528

> <i_lp_mmshare_version>
43012

> <i_f3d_flags>
0

> <s_epik_input>
W0NIMl0xW0NIMl1bQ0BASF0oW0NIMl0yKVtDQEBIXShbQ0gyXVtDQEhdMTIpW0NASF0oW0NIM10pW05IXUMoPU8pW0NIMl1uM1tjSF1jKEMoRikoRilGKVtjSF1bY0hdYzM9Tw==

> <s_epik_cmdline>
J2VwaWtfcHl0aG9uJywgJy1waCcsICc3LjAnLCAnLXRuJywgJzgnLCAnLW1hJywgJzIwMCcsICctbWV0YWxfYmluZGluZycsICctaW1hZScsICc8aW5maWxlLm1hZT4nLCAnLW9tYWUnLCAnPG91dGZpbGUubWFlPic=

> <r_lp_tautomer_probability>
1

> <r_epik_Ionization_Penalty>
4.09479e-08

> <r_epik_Ionization_Penalty_Charging>
1.9321e-08

> <r_epik_Ionization_Penalty_Neutral>
2.16269e-08

> <r_epik_State_Penalty>
-0

> <r_epik_Charging_Adjusted_Penalty>
1.9321e-08

> <i_epik_Tot_Q>
0

> <i_epik_Tot_abs_Q>
0

> <r_epik_Metal_State_Penalty>
-0

> <b_epik_Metal_Only>
0

> <s_lp_Force_Field>
OPLS_2005

> <r_lp_Energy>
62.533

> <b_lp_Chiralities_Consistent>
1

> <s_lp_Variant>
AV-unprocessed.smi:528-8

> <Gold.Version>
5.8.1

> <Gold.Id.Protein>
6NUR|6NUR_protein|mol2

> <Gold.PLP.Fitness>
47.5816

> <Gold.PLP.PLP>
-48.3387

> <Gold.PLP.part.hbond>
-0.3831

> <Gold.PLP.part.metal>
0.0000

> <Gold.PLP.part.buried>
-4.8680

> <Gold.PLP.part.nonpolar>
-42.2682

> <Gold.PLP.part.repulsive>
0.0282

> <Gold.PLP.ligand.clash>
0.0000

> <Gold.PLP.ligand.torsion>
0.4091

> <Gold.PLP.Chemscore.Hbond>
0.0000

> <Gold.PLP.Chemscore.CHOScore>
0.0000

> <Gold.PLP.Chemscore.Metal>
0.0000

> <Gold.Chemscore.Hbonds>
donor molecule, donor type, donor heavy atom, donor atom, acceptor molecule, acceptor atom, score
      P1  H  7997  8008       L1     5  0.09

> <Gold.PLP.Chemscore.Internal.Correction>
0.0611

> <Gold.Rescore>
     Score         DG    S(hbond)    S(metal)    S(lipo)     H(rot)  DE(clash)    DE(int)     intcor
     12.47     -12.80       0.00        0.00     100.04       1.71       0.11       0.22       ----

> <Gold.Chemscore.Fitness>
12.4685

> <Gold.Chemscore.DG>
-12.8007

> <Gold.Chemscore.ZeroCoef>
-5.4800

> <Gold.Chemscore.Hbond>
0.0000

> <Gold.Chemscore.Metal>
0.0000

> <Gold.Chemscore.Lipo>
100.0402

> <Gold.Chemscore.Internal_Hbond>
0.0000

> <Gold.Chemscore.DEClash>
0.1148

> <Gold.Chemscore.DEInternal>
0.2175

> <Gold.Chemscore.Rot>
1.7125

> <Gold.Chemscore.Internal.Correction>
   9.000000E+99

> <Gold.Chemscore.Hbonds>
donor molecule, donor type, donor heavy atom, donor atom, acceptor molecule, acceptor atom, score
      P1  H  7997  8008       L1     5  0.06

> <Gold.Chemscore.Hbond.Weighted>
-0.0000

> <Gold.Chemscore.Metal.Weighted>
-0.0000

> <Gold.Chemscore.Lipo.Weighted>
-11.7047

> <Gold.Chemscore.Internal_Hbond.Weighted>
0.0000

> <Gold.Chemscore.DEClash.Weighted>
0.1148

> <Gold.Chemscore.DEInternal.Weighted>
0.2175

> <Gold.Chemscore.Rot.Weighted>
4.3840

> <Gold.Chemscore.Internal.Correction.Weighted>
   9.000000E+99

> <Gold.Protein.RotatedTorsions>
[ 6907 6896 6895 6894 ] final  -57.55 input  -60.11 | X-H torsion
[ 7974 7965 7964 7962 ] final   99.41 input  175.53 | X-H torsion
[ 8008 7997 7996 7995 ] final  -47.78 input   59.86 | X-H torsion
[ 10167 10162 10161 10158 ] final   90.19 input  -65.29 | X-H torsion
[ 10718 10713 10712 10709 ] final -130.56 input   66.30 | X-H torsion
[ 10763 10752 10751 10750 ] final   26.58 input  -60.55 | X-H torsion
[ 11005 11000 10999 10996 ] final  169.07 input  -57.11 | X-H torsion

> <Gold.Protein.ActiveResidues>
 VAL166  LYS551  ARG553  GLY616  TRP617  ASP618  TYR619  PRO620  LYS621  CYS622 
 ASP623  PHE694  ASN695  SER759  ASP760  ASP761  ALA762  ILE779  LEU786  VAL792 
 PHE793  MET794  SER795  GLU796  ALA797  LYS798  CYS799  TRP800  GLU811  SER814 

> <Gold.Protein.RotatedAtoms>
  150.8077  134.7213  159.6659 H   0  0  0  0  0  0  0  0  0  0  0  0  # atno 6907 bound_to 6896
  152.4197  134.5974  160.0000 H   0  0  0  0  0  0  0  0  0  0  0  0  # atno 6908 bound_to 6896
  151.6193  133.3303  159.3120 H   0  0  0  0  0  0  0  0  0  0  0  0  # atno 6909 bound_to 6896
  145.3992  139.2350  143.3309 H   0  0  0  0  0  0  0  0  0  0  0  0  # atno 7974 bound_to 7965
  154.4020  140.1338  156.4231 H   0  0  0  0  0  0  0  0  0  0  0  0  # atno 8008 bound_to 7997
  155.7623  140.3486  155.5184 H   0  0  0  0  0  0  0  0  0  0  0  0  # atno 8009 bound_to 7997
  155.8847  140.0993  157.1451 H   0  0  0  0  0  0  0  0  0  0  0  0  # atno 8010 bound_to 7997
  139.8497  144.6599  150.9184 H   0  0  0  0  0  0  0  0  0  0  0  0  # atno 10167 bound_to 10162
  156.2157  130.6946  151.0699 H   0  0  0  0  0  0  0  0  0  0  0  0  # atno 10718 bound_to 10713
  153.0613  135.6557  154.0457 H   0  0  0  0  0  0  0  0  0  0  0  0  # atno 10763 bound_to 10752
  154.0124  135.2927  155.3392 H   0  0  0  0  0  0  0  0  0  0  0  0  # atno 10764 bound_to 10752
  154.6952  135.5267  153.8516 H   0  0  0  0  0  0  0  0  0  0  0  0  # atno 10765 bound_to 10752
  140.2939  134.7651  157.3861 H   0  0  0  0  0  0  0  0  0  0  0  0  # atno 11005 bound_to 11000
  146.2760  140.4687  142.8795 LP  0  0  0  0  0  0  0  0  0  0  0  0  # atno 17320 bound_to 7965
  144.8385  140.6821  143.6244 LP  0  0  0  0  0  0  0  0  0  0  0  0  # atno 17321 bound_to 7965
  140.7789  143.3838  151.1430 LP  0  0  0  0  0  0  0  0  0  0  0  0  # atno 17342 bound_to 10162
  139.7477  143.8826  152.3068 LP  0  0  0  0  0  0  0  0  0  0  0  0  # atno 17343 bound_to 10162
  157.7062  131.0755  150.6660 LP  0  0  0  0  0  0  0  0  0  0  0  0  # atno 17370 bound_to 10713
  156.6721  130.4542  149.5654 LP  0  0  0  0  0  0  0  0  0  0  0  0  # atno 17371 bound_to 10713
  140.1170  134.5269  155.8216 LP  0  0  0  0  0  0  0  0  0  0  0  0  # atno 17394 bound_to 11000
  141.2141  133.6743  156.6796 LP  0  0  0  0  0  0  0  0  0  0  0  0  # atno 17395 bound_to 11000

$$$$
