AV-unprocessed.smi:2855|AV-procd|sdf|10982|dock9
  -GOLD-   2272015433D 1   1.00000     0.00000
 Structure written by MMmdl.
 47 48  0  0  0  0  0  0  0  0  1 V2000
  153.2198  144.0489  158.6075 C   0  0  0  0  0  0  0  0  0  0  0  0
  151.9904  143.4551  159.3176 C   0  0  1  0  0  0  0  0  0  0  0  0
  150.7069  143.5593  158.4741 C   0  0  0  0  0  0  0  0  0  0  0  0
  150.6939  142.5673  157.2996 C   0  0  0  0  0  0  0  0  0  0  0  0
  150.8945  141.1068  157.7695 C   0  0  1  0  0  0  0  0  0  0  0  0
  150.7899  140.0686  156.6112 C   0  0  0  0  0  0  0  0  0  0  0  0
  152.0750  139.9276  155.7746 C   0  0  0  0  0  0  0  0  0  0  0  0
  149.5758  140.3239  155.7008 C   0  0  0  0  0  0  0  0  0  0  0  0
  152.1988  140.9915  158.6081 C   0  0  2  0  0  0  0  0  0  0  0  0
  152.3473  139.6462  159.1611 N   0  0  0  0  0  0  0  0  0  0  0  0
  153.4400  138.8721  159.0712 C   0  0  0  0  0  0  0  0  0  0  0  0
  154.4866  139.2321  158.5309 O   0  0  0  0  0  0  0  0  0  0  0  0
  153.3327  137.4777  159.7027 C   0  0  0  0  0  0  0  0  0  0  0  0
  154.0588  137.3809  160.9766 N   0  0  0  0  0  0  0  0  0  0  0  0
  154.3043  138.5180  161.7333 C   0  0  0  0  0  0  0  0  0  0  0  0
  154.9804  138.5006  162.9065 C   0  0  0  0  0  0  0  0  0  0  0  0
  155.4967  137.2461  163.4434 C   0  0  0  0  0  0  0  0  0  0  0  0
  156.1194  137.1283  164.4965 O   0  0  0  0  0  0  0  0  0  0  0  0
  155.2308  136.1252  162.6524 N   0  0  0  0  0  0  0  0  0  0  0  0
  154.5368  136.1361  161.4416 C   0  0  0  0  0  0  0  0  0  0  0  0
  154.3616  135.0888  160.8196 O   0  0  0  0  0  0  0  0  0  0  0  0
  152.2123  142.0012  159.7748 C   0  0  0  0  0  0  0  0  0  0  0  0
  155.5714  135.2341  162.9828 H   0  0  0  0  0  0  0  0  0  0  0  0
  153.4642  143.5148  157.6897 H   0  0  0  0  0  0  0  0  0  0  0  0
  154.0978  144.0125  159.2527 H   0  0  0  0  0  0  0  0  0  0  0  0
  153.0514  145.0936  158.3447 H   0  0  0  0  0  0  0  0  0  0  0  0
  151.8372  144.0568  160.2146 H   0  0  0  0  0  0  0  0  0  0  0  0
  149.8443  143.3621  159.1117 H   0  0  0  0  0  0  0  0  0  0  0  0
  150.5809  144.5774  158.1042 H   0  0  0  0  0  0  0  0  0  0  0  0
  149.7457  142.6722  156.7739 H   0  0  0  0  0  0  0  0  0  0  0  0
  151.4689  142.8447  156.5855 H   0  0  0  0  0  0  0  0  0  0  0  0
  150.0718  140.8849  158.4518 H   0  0  0  0  0  0  0  0  0  0  0  0
  150.6048  139.0924  157.0595 H   0  0  0  0  0  0  0  0  0  0  0  0
  152.3098  140.8450  155.2351 H   0  0  0  0  0  0  0  0  0  0  0  0
  151.9678  139.1348  155.0339 H   0  0  0  0  0  0  0  0  0  0  0  0
  152.9353  139.6710  156.3915 H   0  0  0  0  0  0  0  0  0  0  0  0
  149.6888  141.2367  155.1164 H   0  0  0  0  0  0  0  0  0  0  0  0
  148.6565  140.4076  156.2809 H   0  0  0  0  0  0  0  0  0  0  0  0
  149.4410  139.5035  154.9953 H   0  0  0  0  0  0  0  0  0  0  0  0
  153.0465  141.2237  157.9633 H   0  0  0  0  0  0  0  0  0  0  0  0
  151.5407  139.2631  159.6322 H   0  0  0  0  0  0  0  0  0  0  0  0
  152.2752  137.2528  159.8467 H   0  0  0  0  0  0  0  0  0  0  0  0
  153.6975  136.7183  159.0076 H   0  0  0  0  0  0  0  0  0  0  0  0
  153.9449  139.4711  161.3723 H   0  0  0  0  0  0  0  0  0  0  0  0
  155.1411  139.4206  163.4498 H   0  0  0  0  0  0  0  0  0  0  0  0
  153.1515  141.9261  160.3247 H   0  0  0  0  0  0  0  0  0  0  0  0
  151.4275  141.7357  160.4851 H   0  0  0  0  0  0  0  0  0  0  0  0
  1  2  1  0  0  0  0
  1 24  1  0  0  0  0
  1 25  1  0  0  0  0
  1 26  1  0  0  0  0
  2 22  1  0  0  0  0
  2  3  1  0  0  0  0
  2 27  1  0  0  0  0
  3  4  1  0  0  0  0
  3 28  1  0  0  0  0
  3 29  1  0  0  0  0
  4  5  1  0  0  0  0
  4 30  1  0  0  0  0
  4 31  1  0  0  0  0
  5  6  1  0  0  0  0
  5  9  1  0  0  0  0
  5 32  1  0  0  0  0
  6  7  1  0  0  0  0
  6  8  1  0  0  0  0
  6 33  1  0  0  0  0
  7 34  1  0  0  0  0
  7 35  1  0  0  0  0
  7 36  1  0  0  0  0
  8 37  1  0  0  0  0
  8 38  1  0  0  0  0
  8 39  1  0  0  0  0
  9 10  1  0  0  0  0
  9 22  1  0  0  0  0
  9 40  1  0  0  0  0
 10 11  1  0  0  0  0
 10 41  1  0  0  0  0
 11 12  2  0  0  0  0
 11 13  1  0  0  0  0
 13 14  1  0  0  0  0
 13 42  1  0  0  0  0
 13 43  1  0  0  0  0
 14 20  1  0  0  0  0
 14 15  1  0  0  0  0
 15 16  2  0  0  0  0
 15 44  1  0  0  0  0
 16 17  1  0  0  0  0
 16 45  1  0  0  0  0
 17 18  2  0  0  0  0
 17 19  1  0  0  0  0
 19 23  1  0  0  0  0
 19 20  1  0  0  0  0
 20 21  2  0  0  0  0
 22 46  1  0  0  0  0
 22 47  1  0  0  0  0
M  END
> <s_m_source_file>
AV-unprocessed.smi

> <i_m_source_file_index>
2855

> <i_lp_mmshare_version>
43012

> <i_f3d_flags>
0

> <s_epik_input>
W0NIM11bQ0BASF0xW0NIMl1bQ0gyXVtDQEBIXShbQ0hdKFtDSDNdKVtDSDNdKVtDQEhdKFtDSDJdMSlbTkhdQyg9TylbQ0gyXW4yW2NIXVtjSF1jKD1PKVtuSF1jMj1P

> <s_epik_cmdline>
J2VwaWtfcHl0aG9uJywgJy1waCcsICc3LjAnLCAnLXRuJywgJzgnLCAnLW1hJywgJzIwMCcsICctbWV0YWxfYmluZGluZycsICctaW1hZScsICc8aW5maWxlLm1hZT4nLCAnLW9tYWUnLCAnPG91dGZpbGUubWFlPic=

> <r_lp_tautomer_probability>
0.999537

> <r_epik_Ionization_Penalty>
0.00306256

> <r_epik_Ionization_Penalty_Charging>
0.00306254

> <r_epik_Ionization_Penalty_Neutral>
2.0223e-08

> <r_epik_State_Penalty>
0.0021533

> <r_epik_Charging_Adjusted_Penalty>
0.00521583

> <i_epik_Tot_Q>
0

> <i_epik_Tot_abs_Q>
0

> <r_epik_Metal_State_Penalty>
0.362116

> <b_epik_Metal_Only>
0

> <s_lp_Force_Field>
OPLS_2005

> <r_lp_Energy>
15.8562

> <b_lp_Chiralities_Consistent>
1

> <s_lp_Variant>
AV-unprocessed.smi:2855-6

> <Gold.Version>
5.8.1

> <Gold.Id.Protein>
6NUR|6NUR_protein|mol2

> <Gold.PLP.Fitness>
39.2055

> <Gold.PLP.PLP>
-34.8340

> <Gold.PLP.part.hbond>
-2.0000

> <Gold.PLP.part.metal>
0.0000

> <Gold.PLP.part.buried>
-4.2942

> <Gold.PLP.part.nonpolar>
-29.1910

> <Gold.PLP.part.repulsive>
0.1850

> <Gold.PLP.ligand.clash>
0.0000

> <Gold.PLP.ligand.torsion>
0.8456

> <Gold.PLP.Chemscore.Hbond>
2.0000

> <Gold.PLP.Chemscore.CHOScore>
0.0000

> <Gold.PLP.Chemscore.Metal>
0.0000

> <Gold.Chemscore.Hbonds>
donor molecule, donor type, donor heavy atom, donor atom, acceptor molecule, acceptor atom, score
      P1  H  6896  6909       L1    21  0.86
      P1  H  7997  8008       L1    12  1.00

> <Gold.PLP.Chemscore.Internal.Correction>
0.0628

> <Gold.Rescore>
     Score         DG    S(hbond)    S(metal)    S(lipo)     H(rot)  DE(clash)    DE(int)     intcor
     18.35     -19.30       1.97        0.00     102.37       1.85       0.04       0.90       ----

> <Gold.Chemscore.Fitness>
18.3534

> <Gold.Chemscore.DG>
-19.2969

> <Gold.Chemscore.ZeroCoef>
-5.4800

> <Gold.Chemscore.Hbond>
1.9717

> <Gold.Chemscore.Metal>
0.0000

> <Gold.Chemscore.Lipo>
102.3716

> <Gold.Chemscore.Internal_Hbond>
0.0000

> <Gold.Chemscore.DEClash>
0.0417

> <Gold.Chemscore.DEInternal>
0.9018

> <Gold.Chemscore.Rot>
1.8539

> <Gold.Chemscore.Internal.Correction>
   9.000000E+99

> <Gold.Chemscore.Hbonds>
donor molecule, donor type, donor heavy atom, donor atom, acceptor molecule, acceptor atom, score
      P1  H  6896  6909       L1    21  0.82
      P1  H  7997  8008       L1    12  0.97

> <Gold.Chemscore.Hbond.Weighted>
-6.5855

> <Gold.Chemscore.Metal.Weighted>
-0.0000

> <Gold.Chemscore.Lipo.Weighted>
-11.9775

> <Gold.Chemscore.Internal_Hbond.Weighted>
0.0000

> <Gold.Chemscore.DEClash.Weighted>
0.0417

> <Gold.Chemscore.DEInternal.Weighted>
0.9018

> <Gold.Chemscore.Rot.Weighted>
4.7460

> <Gold.Chemscore.Internal.Correction.Weighted>
   9.000000E+99

> <Gold.Protein.RotatedTorsions>
[ 6907 6896 6895 6894 ] final -174.44 input  -60.11 | X-H torsion
[ 7974 7965 7964 7962 ] final -150.90 input  175.53 | X-H torsion
[ 8008 7997 7996 7995 ] final -124.38 input   59.86 | X-H torsion
[ 10167 10162 10161 10158 ] final  -32.48 input  -65.29 | X-H torsion
[ 10718 10713 10712 10709 ] final -164.84 input   66.30 | X-H torsion
[ 10763 10752 10751 10750 ] final  143.59 input  -60.55 | X-H torsion
[ 11005 11000 10999 10996 ] final -163.94 input  -57.11 | X-H torsion

> <Gold.Protein.ActiveResidues>
 VAL166  LYS551  ARG553  GLY616  TRP617  ASP618  TYR619  PRO620  LYS621  CYS622 
 ASP623  PHE694  ASN695  SER759  ASP760  ASP761  ALA762  ILE779  LEU786  VAL792 
 PHE793  MET794  SER795  GLU796  ALA797  LYS798  CYS799  TRP800  GLU811  SER814 

> <Gold.Protein.RotatedAtoms>
  151.5723  133.3388  159.2991 H   0  0  0  0  0  0  0  0  0  0  0  0  # atno 6907 bound_to 6896
  150.8360  134.7637  159.6905 H   0  0  0  0  0  0  0  0  0  0  0  0  # atno 6908 bound_to 6896
  152.4436  134.5546  159.9928 H   0  0  0  0  0  0  0  0  0  0  0  0  # atno 6909 bound_to 6896
  144.7880  140.4869  143.5792 H   0  0  0  0  0  0  0  0  0  0  0  0  # atno 7974 bound_to 7965
  155.1960  140.0414  157.2909 H   0  0  0  0  0  0  0  0  0  0  0  0  # atno 8008 bound_to 7997
  154.6106  140.2476  155.7645 H   0  0  0  0  0  0  0  0  0  0  0  0  # atno 8009 bound_to 7997
  156.2377  140.2915  156.0367 H   0  0  0  0  0  0  0  0  0  0  0  0  # atno 8010 bound_to 7997
  140.7220  143.3691  151.1813 H   0  0  0  0  0  0  0  0  0  0  0  0  # atno 10167 bound_to 10162
  156.6448  130.8983  151.3003 H   0  0  0  0  0  0  0  0  0  0  0  0  # atno 10718 bound_to 10713
  153.9748  135.2947  155.3425 H   0  0  0  0  0  0  0  0  0  0  0  0  # atno 10763 bound_to 10752
  154.7302  135.5071  153.8955 H   0  0  0  0  0  0  0  0  0  0  0  0  # atno 10764 bound_to 10752
  153.0883  135.6700  154.0018 H   0  0  0  0  0  0  0  0  0  0  0  0  # atno 10765 bound_to 10752
  140.5925  134.5030  157.5195 H   0  0  0  0  0  0  0  0  0  0  0  0  # atno 11005 bound_to 11000
  145.5869  139.1493  143.3204 LP  0  0  0  0  0  0  0  0  0  0  0  0  # atno 17320 bound_to 7965
  146.2121  140.5996  142.9055 LP  0  0  0  0  0  0  0  0  0  0  0  0  # atno 17321 bound_to 7965
  139.7259  143.9149  152.3002 LP  0  0  0  0  0  0  0  0  0  0  0  0  # atno 17342 bound_to 10162
  139.8922  144.6959  150.8758 LP  0  0  0  0  0  0  0  0  0  0  0  0  # atno 17343 bound_to 10162
  157.7159  130.9497  150.1255 LP  0  0  0  0  0  0  0  0  0  0  0  0  # atno 17370 bound_to 10713
  156.2130  130.3668  149.8647 LP  0  0  0  0  0  0  0  0  0  0  0  0  # atno 17371 bound_to 10713
  139.9268  134.8041  156.1046 LP  0  0  0  0  0  0  0  0  0  0  0  0  # atno 17394 bound_to 11000
  141.0926  133.6708  156.2573 LP  0  0  0  0  0  0  0  0  0  0  0  0  # atno 17395 bound_to 11000

$$$$
