AV-unprocessed.smi:3322|AV-procd|sdf|12776|dock8
  -GOLD-   2272019123D 1   1.00000     0.00000
 Structure written by MMmdl.
 38 39  0  0  0  0  0  0  0  0  1 V2000
  147.9642  141.5929  154.1985 C   0  0  0  0  0  0  0  0  0  0  0  0
  149.1938  141.0808  154.9668 C   0  0  1  0  0  0  0  0  0  0  0  0
  149.5444  142.0560  156.0165 N   0  0  0  0  0  0  0  0  0  0  0  0
  150.9733  142.1135  156.3115 C   0  0  0  0  0  0  0  0  0  0  0  0
  151.2107  141.9489  157.8220 C   0  0  0  0  0  0  0  0  0  0  0  0
  151.6086  143.1927  158.4586 N   0  0  0  0  0  0  0  0  0  0  0  0
  151.9783  143.4016  159.7706 C   0  0  0  0  0  0  0  0  0  0  0  0
  152.2750  144.7279  159.9034 C   0  0  0  0  0  0  0  0  0  0  0  0
  152.0540  145.2555  158.6004 C   0  0  0  0  0  0  0  0  0  0  0  0
  151.6554  144.3345  157.7380 N   0  0  0  0  0  0  0  0  0  0  0  0
  148.9272  139.6540  155.5044 C   0  0  0  0  0  0  0  0  0  0  0  0
  148.0123  139.5005  156.3161 O   0  0  0  0  0  0  0  0  0  0  0  0
  149.6831  138.6095  155.0797 N   0  0  0  0  0  0  0  0  0  0  0  0
  150.7556  138.7598  154.0894 C   0  0  0  0  0  0  0  0  0  0  0  0
  152.0986  138.4309  154.7638 C   0  0  0  0  0  0  0  0  0  0  0  0
  152.0562  137.1046  155.2819 O   0  0  0  0  0  0  0  0  0  0  0  0
  151.0106  136.9128  156.2304 C   0  0  0  0  0  0  0  0  0  0  0  0
  149.6496  137.2311  155.5840 C   0  0  0  0  0  0  0  0  0  0  0  0
  147.7019  140.9355  153.3694 H   0  0  0  0  0  0  0  0  0  0  0  0
  148.1496  142.5825  153.7795 H   0  0  0  0  0  0  0  0  0  0  0  0
  147.0913  141.6681  154.8485 H   0  0  0  0  0  0  0  0  0  0  0  0
  150.0410  141.0607  154.2831 H   0  0  0  0  0  0  0  0  0  0  0  0
  149.2226  142.9837  155.7785 H   0  0  0  0  0  0  0  0  0  0  0  0
  151.5023  141.3230  155.7793 H   0  0  0  0  0  0  0  0  0  0  0  0
  151.3902  143.0632  155.9736 H   0  0  0  0  0  0  0  0  0  0  0  0
  150.3199  141.5568  158.3162 H   0  0  0  0  0  0  0  0  0  0  0  0
  152.0035  141.2193  157.9900 H   0  0  0  0  0  0  0  0  0  0  0  0
  152.0005  142.5977  160.4916 H   0  0  0  0  0  0  0  0  0  0  0  0
  152.6007  145.2428  160.7949 H   0  0  0  0  0  0  0  0  0  0  0  0
  152.1709  146.2731  158.2575 H   0  0  0  0  0  0  0  0  0  0  0  0
  150.5766  138.0773  153.2574 H   0  0  0  0  0  0  0  0  0  0  0  0
  150.8003  139.7580  153.6522 H   0  0  0  0  0  0  0  0  0  0  0  0
  152.9118  138.5021  154.0416 H   0  0  0  0  0  0  0  0  0  0  0  0
  152.3170  139.1399  155.5640 H   0  0  0  0  0  0  0  0  0  0  0  0
  151.0323  135.8782  156.5730 H   0  0  0  0  0  0  0  0  0  0  0  0
  151.1823  137.5424  157.1049 H   0  0  0  0  0  0  0  0  0  0  0  0
  148.8681  137.0367  156.3137 H   0  0  0  0  0  0  0  0  0  0  0  0
  149.4601  136.5495  154.7535 H   0  0  0  0  0  0  0  0  0  0  0  0
  1  2  1  0  0  0  0
  1 19  1  0  0  0  0
  1 20  1  0  0  0  0
  1 21  1  0  0  0  0
  2  3  1  0  0  0  0
  2 11  1  0  0  0  0
  2 22  1  0  0  0  0
  3  4  1  0  0  0  0
  3 23  1  0  0  0  0
  4  5  1  0  0  0  0
  4 24  1  0  0  0  0
  4 25  1  0  0  0  0
  5  6  1  0  0  0  0
  5 26  1  0  0  0  0
  5 27  1  0  0  0  0
  6 10  1  0  0  0  0
  6  7  1  0  0  0  0
  7  8  2  0  0  0  0
  7 28  1  0  0  0  0
  8  9  1  0  0  0  0
  8 29  1  0  0  0  0
  9 10  2  0  0  0  0
  9 30  1  0  0  0  0
 11 12  2  0  0  0  0
 11 13  1  0  0  0  0
 13 18  1  0  0  0  0
 13 14  1  0  0  0  0
 14 15  1  0  0  0  0
 14 31  1  0  0  0  0
 14 32  1  0  0  0  0
 15 16  1  0  0  0  0
 15 33  1  0  0  0  0
 15 34  1  0  0  0  0
 16 17  1  0  0  0  0
 17 18  1  0  0  0  0
 17 35  1  0  0  0  0
 17 36  1  0  0  0  0
 18 37  1  0  0  0  0
 18 38  1  0  0  0  0
M  END
> <s_m_source_file>
AV-unprocessed.smi

> <i_m_source_file_index>
3322

> <i_lp_mmshare_version>
43012

> <i_f3d_flags>
0

> <s_epik_input>
W0NIMl0xW0NIMl1PW0NIMl1bQ0gyXU4xQyg9TylbQ0BIXShbQ0gzXSlbTkhdW0NIMl1bQ0gyXW4yW2NIXVtjSF1bY0hdbjI=

> <s_epik_cmdline>
J2VwaWtfcHl0aG9uJywgJy1waCcsICc3LjAnLCAnLXRuJywgJzgnLCAnLW1hJywgJzIwMCcsICctbWV0YWxfYmluZGluZycsICctaW1hZScsICc8aW5maWxlLm1hZT4nLCAnLW9tYWUnLCAnPG91dGZpbGUubWFlPic=

> <r_lp_tautomer_probability>
1

> <r_epik_Ionization_Penalty>
0.511228

> <r_epik_Ionization_Penalty_Charging>
0

> <r_epik_Ionization_Penalty_Neutral>
0.511228

> <r_epik_State_Penalty>
0.51753

> <r_epik_Charging_Adjusted_Penalty>
0.51753

> <i_epik_Tot_Q>
0

> <i_epik_Tot_abs_Q>
0

> <r_epik_Metal_State_Penalty>
0.517012

> <b_epik_Metal_Only>
0

> <s_lp_Force_Field>
OPLS_2005

> <r_lp_Energy>
27.6931

> <b_lp_Chiralities_Consistent>
1

> <s_lp_Variant>
AV-unprocessed.smi:3322-4

> <Gold.Version>
5.8.1

> <Gold.Id.Protein>
6NUR|6NUR_protein|mol2

> <Gold.PLP.Fitness>
41.7299

> <Gold.PLP.PLP>
-37.8313

> <Gold.PLP.part.hbond>
-2.0000

> <Gold.PLP.part.metal>
0.0000

> <Gold.PLP.part.buried>
-7.1006

> <Gold.PLP.part.nonpolar>
-29.2669

> <Gold.PLP.part.repulsive>
0.1943

> <Gold.PLP.ligand.clash>
0.0000

> <Gold.PLP.ligand.torsion>
1.0962

> <Gold.PLP.Chemscore.Hbond>
2.0000

> <Gold.PLP.Chemscore.CHOScore>
0.0000

> <Gold.PLP.Chemscore.Metal>
0.0000

> <Gold.Chemscore.Hbonds>
donor molecule, donor type, donor heavy atom, donor atom, acceptor molecule, acceptor atom, score
      L1  H     3    23       P1  8028  1.00
      P1  H 10752 10765       L1    16  0.93

> <Gold.PLP.Chemscore.Internal.Correction>
0.0911

> <Gold.Rescore>
     Score         DG    S(hbond)    S(metal)    S(lipo)     H(rot)  DE(clash)    DE(int)     intcor
     16.91     -18.03       1.96        0.00      91.79       1.84       0.04       1.08       ----

> <Gold.Chemscore.Fitness>
16.9143

> <Gold.Chemscore.DG>
-18.0303

> <Gold.Chemscore.ZeroCoef>
-5.4800

> <Gold.Chemscore.Hbond>
1.9556

> <Gold.Chemscore.Metal>
0.0000

> <Gold.Chemscore.Lipo>
91.7930

> <Gold.Chemscore.Internal_Hbond>
0.0000

> <Gold.Chemscore.DEClash>
0.0368

> <Gold.Chemscore.DEInternal>
1.0791

> <Gold.Chemscore.Rot>
1.8442

> <Gold.Chemscore.Internal.Correction>
   9.000000E+99

> <Gold.Chemscore.Hbonds>
donor molecule, donor type, donor heavy atom, donor atom, acceptor molecule, acceptor atom, score
      L1  H     3    23       P1  8028  1.00
      P1  H 10752 10765       L1    16  0.87

> <Gold.Chemscore.Hbond.Weighted>
-6.5317

> <Gold.Chemscore.Metal.Weighted>
-0.0000

> <Gold.Chemscore.Lipo.Weighted>
-10.7398

> <Gold.Chemscore.Internal_Hbond.Weighted>
0.0000

> <Gold.Chemscore.DEClash.Weighted>
0.0368

> <Gold.Chemscore.DEInternal.Weighted>
1.0791

> <Gold.Chemscore.Rot.Weighted>
4.7212

> <Gold.Chemscore.Internal.Correction.Weighted>
   9.000000E+99

> <Gold.Protein.RotatedTorsions>
[ 6907 6896 6895 6894 ] final -106.73 input  -60.11 | X-H torsion
[ 7974 7965 7964 7962 ] final -117.18 input  175.53 | X-H torsion
[ 8008 7997 7996 7995 ] final   34.85 input   59.86 | X-H torsion
[ 10167 10162 10161 10158 ] final -127.31 input  -65.29 | X-H torsion
[ 10718 10713 10712 10709 ] final  108.39 input   66.30 | X-H torsion
[ 10763 10752 10751 10750 ] final -175.80 input  -60.55 | X-H torsion
[ 11005 11000 10999 10996 ] final  -70.59 input  -57.11 | X-H torsion

> <Gold.Protein.ActiveResidues>
 VAL166  LYS551  ARG553  GLY616  TRP617  ASP618  TYR619  PRO620  LYS621  CYS622 
 ASP623  PHE694  ASN695  SER759  ASP760  ASP761  ALA762  ILE779  LEU786  VAL792 
 PHE793  MET794  SER795  GLU796  ALA797  LYS798  CYS799  TRP800  GLU811  SER814 

> <Gold.Protein.RotatedAtoms>
  150.7405  133.9932  159.3613 H   0  0  0  0  0  0  0  0  0  0  0  0  # atno 6907 bound_to 6896
  151.7881  135.0741  160.0393 H   0  0  0  0  0  0  0  0  0  0  0  0  # atno 6908 bound_to 6896
  152.3227  133.5834  159.5791 H   0  0  0  0  0  0  0  0  0  0  0  0  # atno 6909 bound_to 6896
  145.0882  140.8472  143.3998 H   0  0  0  0  0  0  0  0  0  0  0  0  # atno 7974 bound_to 7965
  155.1615  140.3284  155.4410 H   0  0  0  0  0  0  0  0  0  0  0  0  # atno 8008 bound_to 7997
  156.2541  140.1959  156.6672 H   0  0  0  0  0  0  0  0  0  0  0  0  # atno 8009 bound_to 7997
  154.6402  140.0571  156.9822 H   0  0  0  0  0  0  0  0  0  0  0  0  # atno 8010 bound_to 7997
  139.9622  143.5937  152.2441 H   0  0  0  0  0  0  0  0  0  0  0  0  # atno 10167 bound_to 10162
  157.6588  131.0893  150.6298 H   0  0  0  0  0  0  0  0  0  0  0  0  # atno 10718 bound_to 10713
  154.5801  135.2835  155.0741 H   0  0  0  0  0  0  0  0  0  0  0  0  # atno 10763 bound_to 10752
  154.2081  135.6412  153.5111 H   0  0  0  0  0  0  0  0  0  0  0  0  # atno 10764 bound_to 10752
  153.0085  135.5485  154.6452 H   0  0  0  0  0  0  0  0  0  0  0  0  # atno 10765 bound_to 10752
  141.1577  133.6794  156.6775 H   0  0  0  0  0  0  0  0  0  0  0  0  # atno 11005 bound_to 11000
  145.1097  139.2765  143.5643 LP  0  0  0  0  0  0  0  0  0  0  0  0  # atno 17320 bound_to 7965
  146.3531  140.0690  142.8624 LP  0  0  0  0  0  0  0  0  0  0  0  0  # atno 17321 bound_to 7965
  139.6545  144.7662  151.2082 LP  0  0  0  0  0  0  0  0  0  0  0  0  # atno 17342 bound_to 10162
  140.7549  143.6107  150.8608 LP  0  0  0  0  0  0  0  0  0  0  0  0  # atno 17343 bound_to 10162
  156.6603  130.4510  149.5690 LP  0  0  0  0  0  0  0  0  0  0  0  0  # atno 17370 bound_to 10713
  156.2072  130.6656  151.1231 LP  0  0  0  0  0  0  0  0  0  0  0  0  # atno 17371 bound_to 10713
  140.3128  134.8072  157.4190 LP  0  0  0  0  0  0  0  0  0  0  0  0  # atno 17394 bound_to 11000
  140.1164  134.5277  155.8221 LP  0  0  0  0  0  0  0  0  0  0  0  0  # atno 17395 bound_to 11000

$$$$
