AV-unprocessed.smi:37|AV-procd|sdf|316|dock9
  -GOLD-   2262016133D 1   1.00000     0.00000
 Structure written by MMmdl.
 44 45  0  0  0  0  0  0  0  0  1 V2000
  149.6782  132.0043  154.5219 C   0  0  0  0  0  0  0  0  0  0  0  0
  150.5626  132.9040  155.3967 C   0  0  0  0  0  0  0  0  0  0  0  0
  150.1534  134.3777  155.3734 C   0  0  0  0  0  0  0  0  0  0  0  0
  150.9029  135.2658  154.9636 O   0  0  0  0  0  0  0  0  0  0  0  0
  148.9099  134.5589  155.8396 O   0  0  0  0  0  0  0  0  0  0  0  0
  148.5257  135.8262  156.3489 C   0  0  0  0  0  0  0  0  0  0  0  0
  149.6269  136.4055  157.2485 C   0  0  1  0  0  0  0  0  0  0  0  0
  150.5377  137.2105  156.5001 O   0  0  0  0  0  0  0  0  0  0  0  0
  150.5840  138.5092  157.0151 C   0  0  1  0  0  0  0  0  0  0  0  0
  149.6526  139.3796  156.1791 N   0  0  0  0  0  0  0  0  0  0  0  0
  148.4123  139.8461  156.6109 C   0  0  0  0  0  0  0  0  0  0  0  0
  147.5907  140.5918  155.8344 C   0  0  0  0  0  0  0  0  0  0  0  0
  146.4087  141.0023  156.3242 F   0  0  0  0  0  0  0  0  0  0  0  0
  147.9698  140.9481  154.4717 C   0  0  0  0  0  0  0  0  0  0  0  0
  147.2905  141.6137  153.6930 O   0  0  0  0  0  0  0  0  0  0  0  0
  149.2152  140.4571  154.0756 N   0  0  0  0  0  0  0  0  0  0  0  0
  150.0723  139.6889  154.8645 C   0  0  0  0  0  0  0  0  0  0  0  0
  151.1483  139.3091  154.4045 O   0  0  0  0  0  0  0  0  0  0  0  0
  150.1895  138.3630  158.4887 C   0  0  2  0  0  0  0  0  0  0  0  0
  151.7894  137.7272  159.5001 Br  0  0  0  0  0  0  0  0  0  0  0  0
  149.1318  137.2640  158.4195 C   0  0  2  0  0  0  0  0  0  0  0  0
  149.0277  136.5157  159.6239 O   0  0  0  0  0  0  0  0  0  0  0  0
  147.9251  136.6146  160.3865 C   0  0  0  0  0  0  0  0  0  0  0  0
  146.9181  137.2692  160.1105 O   0  0  0  0  0  0  0  0  0  0  0  0
  148.0543  135.8134  161.6836 C   0  0  0  0  0  0  0  0  0  0  0  0
  146.7191  135.6073  162.4143 C   0  0  0  0  0  0  0  0  0  0  0  0
  149.5206  140.6749  153.1382 H   0  0  0  0  0  0  0  0  0  0  0  0
  150.0180  130.9697  154.5711 H   0  0  0  0  0  0  0  0  0  0  0  0
  149.7094  132.3122  153.4763 H   0  0  0  0  0  0  0  0  0  0  0  0
  148.6388  132.0253  154.8510 H   0  0  0  0  0  0  0  0  0  0  0  0
  150.5273  132.5558  156.4288 H   0  0  0  0  0  0  0  0  0  0  0  0
  151.6003  132.8263  155.0713 H   0  0  0  0  0  0  0  0  0  0  0  0
  148.3352  136.5080  155.5188 H   0  0  0  0  0  0  0  0  0  0  0  0
  147.5963  135.7305  156.9119 H   0  0  0  0  0  0  0  0  0  0  0  0
  150.2205  135.5783  157.6403 H   0  0  0  0  0  0  0  0  0  0  0  0
  151.5681  138.9653  156.8906 H   0  0  0  0  0  0  0  0  0  0  0  0
  148.0480  139.6304  157.6012 H   0  0  0  0  0  0  0  0  0  0  0  0
  149.8697  139.2985  158.9463 H   0  0  0  0  0  0  0  0  0  0  0  0
  148.1643  137.6908  158.1563 H   0  0  0  0  0  0  0  0  0  0  0  0
  148.4973  134.8451  161.4497 H   0  0  0  0  0  0  0  0  0  0  0  0
  148.7552  136.3305  162.3391 H   0  0  0  0  0  0  0  0  0  0  0  0
  146.8663  135.0254  163.3243 H   0  0  0  0  0  0  0  0  0  0  0  0
  146.0039  135.0687  161.7915 H   0  0  0  0  0  0  0  0  0  0  0  0
  146.2698  136.5588  162.7011 H   0  0  0  0  0  0  0  0  0  0  0  0
  1  2  1  0  0  0  0
  1 28  1  0  0  0  0
  1 29  1  0  0  0  0
  1 30  1  0  0  0  0
  2  3  1  0  0  0  0
  2 31  1  0  0  0  0
  2 32  1  0  0  0  0
  3  4  2  0  0  0  0
  3  5  1  0  0  0  0
  5  6  1  0  0  0  0
  6  7  1  0  0  0  0
  6 33  1  0  0  0  0
  6 34  1  0  0  0  0
  7 21  1  0  0  0  0
  7  8  1  0  0  0  0
  7 35  1  0  0  0  0
  8  9  1  0  0  0  0
  9 10  1  0  0  0  0
  9 19  1  0  0  0  0
  9 36  1  0  0  0  0
 10 17  1  0  0  0  0
 10 11  1  0  0  0  0
 11 12  2  0  0  0  0
 11 37  1  0  0  0  0
 12 13  1  0  0  0  0
 12 14  1  0  0  0  0
 14 15  2  0  0  0  0
 14 16  1  0  0  0  0
 16 27  1  0  0  0  0
 16 17  1  0  0  0  0
 17 18  2  0  0  0  0
 19 20  1  0  0  0  0
 19 21  1  0  0  0  0
 19 38  1  0  0  0  0
 21 22  1  0  0  0  0
 21 39  1  0  0  0  0
 22 23  1  0  0  0  0
 23 24  2  0  0  0  0
 23 25  1  0  0  0  0
 25 26  1  0  0  0  0
 25 40  1  0  0  0  0
 25 41  1  0  0  0  0
 26 42  1  0  0  0  0
 26 43  1  0  0  0  0
 26 44  1  0  0  0  0
M  END
> <s_m_source_file>
AV-unprocessed.smi

> <i_m_source_file_index>
37

> <i_lp_mmshare_version>
43012

> <i_f3d_flags>
0

> <s_epik_input>
W0NIM11bQ0gyXUMoPU8pT1tDSDJdW0NAQEhdMU9bQ0BASF0objJbY0hdYyhGKWMoPU8pW25IXWMyPU8pW0NAQEhdKEJyKVtDQEhdMU9DKD1PKVtDSDJdW0NIM10=

> <s_epik_cmdline>
J2VwaWtfcHl0aG9uJywgJy1waCcsICc3LjAnLCAnLXRuJywgJzgnLCAnLW1hJywgJzIwMCcsICctbWV0YWxfYmluZGluZycsICctaW1hZScsICc8aW5maWxlLm1hZT4nLCAnLW9tYWUnLCAnPG91dGZpbGUubWFlPic=

> <r_lp_tautomer_probability>
0.999537

> <r_epik_Ionization_Penalty>
0.104106

> <r_epik_Ionization_Penalty_Charging>
0.104106

> <r_epik_Ionization_Penalty_Neutral>
3.94675e-16

> <r_epik_State_Penalty>
0.0940182

> <r_epik_Charging_Adjusted_Penalty>
0.198124

> <i_epik_Tot_Q>
0

> <i_epik_Tot_abs_Q>
0

> <r_epik_Metal_State_Penalty>
3.05314

> <b_epik_Metal_Only>
0

> <s_epik_Chemistry_Notes>
This compound has an ester and may undergo hydrolysis at high or low pH. This compound contains an acetal/aminal-like group ( X-CH(R)-Y where X, Y are N, S, or O) that may be acid/base labile, releasing an aldehyde.

> <s_lp_Force_Field>
OPLS_2005

> <r_lp_Energy>
20.7256

> <b_lp_Chiralities_Consistent>
1

> <s_lp_Variant>
AV-unprocessed.smi:37-14

> <Gold.Version>
5.8.1

> <Gold.Id.Protein>
6NUR|6NUR_protein|mol2

> <Gold.PLP.Fitness>
37.9603

> <Gold.PLP.PLP>
-29.6966

> <Gold.PLP.part.hbond>
-4.0000

> <Gold.PLP.part.metal>
0.0000

> <Gold.PLP.part.buried>
-4.9821

> <Gold.PLP.part.nonpolar>
-20.3262

> <Gold.PLP.part.repulsive>
0.6389

> <Gold.PLP.ligand.clash>
0.0000

> <Gold.PLP.ligand.torsion>
1.9082

> <Gold.PLP.Chemscore.Hbond>
3.9840

> <Gold.PLP.Chemscore.CHOScore>
0.0000

> <Gold.PLP.Chemscore.Metal>
0.0000

> <Gold.Chemscore.Hbonds>
donor molecule, donor type, donor heavy atom, donor atom, acceptor molecule, acceptor atom, score
      L1  H    16    27       P1  7957  0.83
      P1  H  6934  6947       L1    24  1.00
      P1  H  7989  7998       L1    18  0.95
      P1  H 10752 10763       L1     4  0.87

> <Gold.PLP.Chemscore.Internal.Correction>
0.1281

> <Gold.Rescore>
     Score         DG    S(hbond)    S(metal)    S(lipo)     H(rot)  DE(clash)    DE(int)     intcor
      7.43     -14.73       3.66        0.00      47.37       3.33       0.63       6.67       ----

> <Gold.Chemscore.Fitness>
7.4271

> <Gold.Chemscore.DG>
-14.7341

> <Gold.Chemscore.ZeroCoef>
-5.4800

> <Gold.Chemscore.Hbond>
3.6640

> <Gold.Chemscore.Metal>
0.0000

> <Gold.Chemscore.Lipo>
47.3673

> <Gold.Chemscore.Internal_Hbond>
0.0000

> <Gold.Chemscore.DEClash>
0.6322

> <Gold.Chemscore.DEInternal>
6.6749

> <Gold.Chemscore.Rot>
3.3303

> <Gold.Chemscore.Internal.Correction>
   9.000000E+99

> <Gold.Chemscore.Hbonds>
donor molecule, donor type, donor heavy atom, donor atom, acceptor molecule, acceptor atom, score
      L1  H    16    27       P1  7957  0.78
      P1  H  6934  6947       L1    24  0.54
      P1  H  7989  7998       L1    18  0.22
      P1  H 10752 10763       L1     4  0.81

> <Gold.Chemscore.Hbond.Weighted>
-12.2377

> <Gold.Chemscore.Metal.Weighted>
-0.0000

> <Gold.Chemscore.Lipo.Weighted>
-5.5420

> <Gold.Chemscore.Internal_Hbond.Weighted>
0.0000

> <Gold.Chemscore.DEClash.Weighted>
0.6322

> <Gold.Chemscore.DEInternal.Weighted>
6.6749

> <Gold.Chemscore.Rot.Weighted>
8.5256

> <Gold.Chemscore.Internal.Correction.Weighted>
   9.000000E+99

> <Gold.Protein.RotatedTorsions>
[ 6907 6896 6895 6894 ] final  167.00 input  -60.11 | X-H torsion
[ 7974 7965 7964 7962 ] final  -51.42 input  175.53 | X-H torsion
[ 8008 7997 7996 7995 ] final   51.41 input   59.86 | X-H torsion
[ 10167 10162 10161 10158 ] final  137.35 input  -65.29 | X-H torsion
[ 10718 10713 10712 10709 ] final    2.57 input   66.30 | X-H torsion
[ 10763 10752 10751 10750 ] final   59.99 input  -60.55 | X-H torsion
[ 11005 11000 10999 10996 ] final  126.58 input  -57.11 | X-H torsion

> <Gold.Protein.ActiveResidues>
 VAL166  LYS551  ARG553  GLY616  TRP617  ASP618  TYR619  PRO620  LYS621  CYS622 
 ASP623  PHE694  ASN695  SER759  ASP760  ASP761  ALA762  ILE779  LEU786  VAL792 
 PHE793  MET794  SER795  GLU796  ALA797  LYS798  CYS799  TRP800  GLU811  SER814 

> <Gold.Protein.RotatedAtoms>
  151.8701  133.3474  159.3731 H   0  0  0  0  0  0  0  0  0  0  0  0  # atno 6907 bound_to 6896
  150.7155  134.5121  159.5622 H   0  0  0  0  0  0  0  0  0  0  0  0  # atno 6908 bound_to 6896
  152.2652  134.7992  160.0475 H   0  0  0  0  0  0  0  0  0  0  0  0  # atno 6909 bound_to 6896
  145.9192  140.7848  142.9656 H   0  0  0  0  0  0  0  0  0  0  0  0  # atno 7974 bound_to 7965
  155.4348  140.3452  155.4284 H   0  0  0  0  0  0  0  0  0  0  0  0  # atno 8008 bound_to 7997
  156.1315  140.1515  156.9089 H   0  0  0  0  0  0  0  0  0  0  0  0  # atno 8009 bound_to 7997
  154.4898  140.0844  156.7549 H   0  0  0  0  0  0  0  0  0  0  0  0  # atno 8010 bound_to 7997
  139.5147  144.6414  151.5557 H   0  0  0  0  0  0  0  0  0  0  0  0  # atno 10167 bound_to 10162
  156.8650  130.5600  149.5660 H   0  0  0  0  0  0  0  0  0  0  0  0  # atno 10718 bound_to 10713
  152.9909  135.5552  154.5802 H   0  0  0  0  0  0  0  0  0  0  0  0  # atno 10763 bound_to 10752
  154.5184  135.2806  155.1285 H   0  0  0  0  0  0  0  0  0  0  0  0  # atno 10764 bound_to 10752
  154.2648  135.6374  153.5341 H   0  0  0  0  0  0  0  0  0  0  0  0  # atno 10765 bound_to 10752
  139.9463  134.9629  156.8728 H   0  0  0  0  0  0  0  0  0  0  0  0  # atno 11005 bound_to 11000
  144.6751  140.1948  143.7393 LP  0  0  0  0  0  0  0  0  0  0  0  0  # atno 17320 bound_to 7965
  145.8572  139.2204  143.1738 LP  0  0  0  0  0  0  0  0  0  0  0  0  # atno 17321 bound_to 7965
  140.6183  143.9307  150.6506 LP  0  0  0  0  0  0  0  0  0  0  0  0  # atno 17342 bound_to 10162
  140.2572  143.3550  152.1354 LP  0  0  0  0  0  0  0  0  0  0  0  0  # atno 17343 bound_to 10162
  156.0757  130.5779  150.9468 LP  0  0  0  0  0  0  0  0  0  0  0  0  # atno 17370 bound_to 10713
  157.6229  131.0928  150.8589 LP  0  0  0  0  0  0  0  0  0  0  0  0  # atno 17371 bound_to 10713
  140.5826  134.0337  155.7470 LP  0  0  0  0  0  0  0  0  0  0  0  0  # atno 17394 bound_to 11000
  141.1114  133.9610  157.2902 LP  0  0  0  0  0  0  0  0  0  0  0  0  # atno 17395 bound_to 11000

$$$$
