AV-unprocessed.smi:100|AV-procd|sdf|901|dock5
  -GOLD-   2262017393D 1   1.00000     0.00000
 Structure written by MMmdl.
 31 33  0  0  0  0  0  0  0  0  1 V2000
  149.9926  138.4412  153.4894 N   0  0  0  0  0  0  0  0  0  0  0  0
  150.3290  138.3882  154.7856 C   0  0  0  0  0  0  0  0  0  0  0  0
  150.3739  137.1774  155.3893 N   0  0  0  0  0  0  0  0  0  0  0  0
  150.7057  137.0983  156.6823 C   0  0  0  0  0  0  0  0  0  0  0  0
  151.0199  138.0848  157.5268 N   0  0  0  0  0  0  0  0  0  0  0  0
  150.9735  139.3052  156.9152 C   0  0  0  0  0  0  0  0  0  0  0  0
  150.6388  139.5396  155.5530 C   0  0  0  0  0  0  0  0  0  0  0  0
  150.6947  140.8992  155.2805 N   0  0  0  0  0  0  0  0  0  0  0  0
  151.0391  141.4343  156.4212 C   0  0  0  0  0  0  0  0  0  0  0  0
  151.2323  140.5459  157.4597 N   0  0  0  0  0  0  0  0  0  0  0  0
  151.6172  140.8193  158.8819 C   0  0  2  0  0  0  0  0  0  0  0  0
  150.9374  141.9703  159.2941 O   0  0  0  0  0  0  0  0  0  0  0  0
  151.8443  143.0666  159.3840 C   0  0  1  0  0  0  0  0  0  0  0  0
  151.3157  144.1425  160.3457 C   0  0  0  0  0  0  0  0  0  0  0  0
  150.9900  143.5600  161.5895 O   0  0  0  0  0  0  0  0  0  0  0  0
  153.1239  142.3748  159.8511 C   0  0  1  0  0  0  0  0  0  0  0  0
  153.0000  142.0614  161.1448 F   0  0  0  0  0  0  0  0  0  0  0  0
  153.1215  141.1222  158.9883 C   0  0  1  0  0  0  0  0  0  0  0  0
  153.8722  140.0906  159.5972 O   0  0  0  0  0  0  0  0  0  0  0  0
  149.9519  139.3335  153.0179 H   0  0  0  0  0  0  0  0  0  0  0  0
  149.7764  137.5913  152.9891 H   0  0  0  0  0  0  0  0  0  0  0  0
  150.7224  136.1025  157.1000 H   0  0  0  0  0  0  0  0  0  0  0  0
  151.1624  142.5010  156.5274 H   0  0  0  0  0  0  0  0  0  0  0  0
  151.2847  139.9607  159.4660 H   0  0  0  0  0  0  0  0  0  0  0  0
  152.0186  143.4956  158.3968 H   0  0  0  0  0  0  0  0  0  0  0  0
  152.0397  144.9465  160.4816 H   0  0  0  0  0  0  0  0  0  0  0  0
  150.4049  144.5887  159.9452 H   0  0  0  0  0  0  0  0  0  0  0  0
  151.6286  143.8374  162.2283 H   0  0  0  0  0  0  0  0  0  0  0  0
  154.0198  142.9851  159.7338 H   0  0  0  0  0  0  0  0  0  0  0  0
  153.5311  141.3487  158.0026 H   0  0  0  0  0  0  0  0  0  0  0  0
  153.7474  140.1425  160.5327 H   0  0  0  0  0  0  0  0  0  0  0  0
  1  2  1  0  0  0  0
  1 20  1  0  0  0  0
  1 21  1  0  0  0  0
  2  7  1  0  0  0  0
  2  3  2  0  0  0  0
  3  4  1  0  0  0  0
  4  5  2  0  0  0  0
  4 22  1  0  0  0  0
  5  6  1  0  0  0  0
  6 10  1  0  0  0  0
  6  7  2  0  0  0  0
  7  8  1  0  0  0  0
  8  9  2  0  0  0  0
  9 10  1  0  0  0  0
  9 23  1  0  0  0  0
 10 11  1  0  0  0  0
 11 18  1  0  0  0  0
 11 12  1  0  0  0  0
 11 24  1  0  0  0  0
 12 13  1  0  0  0  0
 13 14  1  0  0  0  0
 13 16  1  0  0  0  0
 13 25  1  0  0  0  0
 14 15  1  0  0  0  0
 14 26  1  0  0  0  0
 14 27  1  0  0  0  0
 15 28  1  0  0  0  0
 16 17  1  0  0  0  0
 16 18  1  0  0  0  0
 16 29  1  0  0  0  0
 18 19  1  0  0  0  0
 18 30  1  0  0  0  0
 19 31  1  0  0  0  0
M  END
> <s_m_source_file>
AV-unprocessed.smi

> <i_m_source_file_index>
100

> <i_lp_mmshare_version>
43012

> <i_f3d_flags>
0

> <s_epik_input>
bjFbY0hdbmMoW05IMl0pYyhjMTIpbltjSF1uMltDQEBIXTNPW0NAQEhdKFtDSDJdW09IXSlbQ0BIXShGKVtDQEhdM1tPSF0=

> <s_epik_cmdline>
J2VwaWtfcHl0aG9uJywgJy1waCcsICc3LjAnLCAnLXRuJywgJzgnLCAnLW1hJywgJzIwMCcsICctbWV0YWxfYmluZGluZycsICctaW1hZScsICc8aW5maWxlLm1hZT4nLCAnLW9tYWUnLCAnPG91dGZpbGUubWFlPic=

> <r_lp_tautomer_probability>
1

> <r_epik_Ionization_Penalty>
0.000750324

> <r_epik_Ionization_Penalty_Charging>
0

> <r_epik_Ionization_Penalty_Neutral>
0.000750324

> <r_epik_State_Penalty>
-0

> <r_epik_Charging_Adjusted_Penalty>
0

> <i_epik_Tot_Q>
0

> <i_epik_Tot_abs_Q>
0

> <r_epik_Metal_State_Penalty>
-0

> <b_epik_Metal_Only>
0

> <s_epik_Chemistry_Notes>
This compound contains an acetal/aminal-like group ( X-CH(R)-Y where X, Y are N, S, or O) that may be acid/base labile, releasing an aldehyde.

> <s_lp_Force_Field>
OPLS_2005

> <r_lp_Energy>
31.3803

> <b_lp_Chiralities_Consistent>
1

> <s_lp_Variant>
AV-unprocessed.smi:100-5

> <Gold.Version>
5.8.1

> <Gold.Id.Protein>
6NUR|6NUR_protein|mol2

> <Gold.PLP.Fitness>
42.4983

> <Gold.PLP.PLP>
-35.0330

> <Gold.PLP.part.hbond>
-5.8547

> <Gold.PLP.part.metal>
0.0000

> <Gold.PLP.part.buried>
-5.3737

> <Gold.PLP.part.nonpolar>
-23.6338

> <Gold.PLP.part.repulsive>
0.2555

> <Gold.PLP.ligand.clash>
0.0000

> <Gold.PLP.ligand.torsion>
0.5130

> <Gold.PLP.Chemscore.Hbond>
2.8237

> <Gold.PLP.Chemscore.CHOScore>
0.0000

> <Gold.PLP.Chemscore.Metal>
0.0000

> <Gold.Chemscore.Hbonds>
donor molecule, donor type, donor heavy atom, donor atom, acceptor molecule, acceptor atom, score
      L1  H     1    20       P1  7957  0.75
      L1  H     1    21       P1  7948  1.00
      P1  H  6933  6945       L1    15  0.24
      P1  H  7989  7998       L1     8  0.77

> <Gold.PLP.Chemscore.Internal.Correction>
0.0199

> <Gold.Rescore>
     Score         DG    S(hbond)    S(metal)    S(lipo)     H(rot)  DE(clash)    DE(int)     intcor
      9.89     -12.09       2.74        0.00      48.09       3.19       0.17       2.03       ----

> <Gold.Chemscore.Fitness>
9.8925

> <Gold.Chemscore.DG>
-12.0897

> <Gold.Chemscore.ZeroCoef>
-5.4800

> <Gold.Chemscore.Hbond>
2.7395

> <Gold.Chemscore.Metal>
0.0000

> <Gold.Chemscore.Lipo>
48.0892

> <Gold.Chemscore.Internal_Hbond>
0.0000

> <Gold.Chemscore.DEClash>
0.1686

> <Gold.Chemscore.DEInternal>
2.0285

> <Gold.Chemscore.Rot>
3.1901

> <Gold.Chemscore.Internal.Correction>
   9.000000E+99

> <Gold.Chemscore.Hbonds>
donor molecule, donor type, donor heavy atom, donor atom, acceptor molecule, acceptor atom, score
      L1  H     1    20       P1  7957  0.71
      L1  H     1    21       P1  7948  0.50
      P1  H  6933  6945       L1    15  0.19
      P1  H  7989  7998       L1     8  0.22

> <Gold.Chemscore.Hbond.Weighted>
-9.1499

> <Gold.Chemscore.Metal.Weighted>
-0.0000

> <Gold.Chemscore.Lipo.Weighted>
-5.6264

> <Gold.Chemscore.Internal_Hbond.Weighted>
0.0000

> <Gold.Chemscore.DEClash.Weighted>
0.1686

> <Gold.Chemscore.DEInternal.Weighted>
2.0285

> <Gold.Chemscore.Rot.Weighted>
8.1667

> <Gold.Chemscore.Internal.Correction.Weighted>
   9.000000E+99

> <Gold.Protein.RotatedTorsions>
[ 6907 6896 6895 6894 ] final -107.18 input  -60.11 | X-H torsion
[ 7974 7965 7964 7962 ] final   60.07 input  175.53 | X-H torsion
[ 8008 7997 7996 7995 ] final  111.82 input   59.86 | X-H torsion
[ 10167 10162 10161 10158 ] final   66.83 input  -65.29 | X-H torsion
[ 10718 10713 10712 10709 ] final  -83.54 input   66.30 | X-H torsion
[ 10763 10752 10751 10750 ] final   67.30 input  -60.55 | X-H torsion
[ 11005 11000 10999 10996 ] final  -62.16 input  -57.11 | X-H torsion

> <Gold.Protein.ActiveResidues>
 VAL166  LYS551  ARG553  GLY616  TRP617  ASP618  TYR619  PRO620  LYS621  CYS622 
 ASP623  PHE694  ASN695  SER759  ASP760  ASP761  ALA762  ILE779  LEU786  VAL792 
 PHE793  MET794  SER795  GLU796  ALA797  LYS798  CYS799  TRP800  GLU811  SER814 

> <Gold.Protein.RotatedAtoms>
  150.7430  133.9864  159.3592 H   0  0  0  0  0  0  0  0  0  0  0  0  # atno 6907 bound_to 6896
  151.7809  135.0759  160.0383 H   0  0  0  0  0  0  0  0  0  0  0  0  # atno 6908 bound_to 6896
  152.3274  133.5884  159.5822 H   0  0  0  0  0  0  0  0  0  0  0  0  # atno 6909 bound_to 6896
  145.9001  139.3575  143.0598 H   0  0  0  0  0  0  0  0  0  0  0  0  # atno 7974 bound_to 7965
  156.2150  140.3011  155.9819 H   0  0  0  0  0  0  0  0  0  0  0  0  # atno 8008 bound_to 7997
  155.2627  140.0430  157.3016 H   0  0  0  0  0  0  0  0  0  0  0  0  # atno 8009 bound_to 7997
  154.5755  140.2360  155.8137 H   0  0  0  0  0  0  0  0  0  0  0  0  # atno 8010 bound_to 7997
  140.0961  144.4945  150.7067 H   0  0  0  0  0  0  0  0  0  0  0  0  # atno 10167 bound_to 10162
  156.0017  130.4669  150.4273 H   0  0  0  0  0  0  0  0  0  0  0  0  # atno 10718 bound_to 10713
  153.0180  135.5289  154.6958 H   0  0  0  0  0  0  0  0  0  0  0  0  # atno 10763 bound_to 10752
  154.6080  135.2875  155.0465 H   0  0  0  0  0  0  0  0  0  0  0  0  # atno 10764 bound_to 10752
  154.1498  135.6565  153.5013 H   0  0  0  0  0  0  0  0  0  0  0  0  # atno 10765 bound_to 10752
  141.1350  133.6637  156.5486 H   0  0  0  0  0  0  0  0  0  0  0  0  # atno 11005 bound_to 11000
  145.8802  140.9367  143.0605 LP  0  0  0  0  0  0  0  0  0  0  0  0  # atno 17320 bound_to 7965
  144.6735  140.0769  143.7471 LP  0  0  0  0  0  0  0  0  0  0  0  0  # atno 17321 bound_to 7965
  140.7003  143.2430  151.4884 LP  0  0  0  0  0  0  0  0  0  0  0  0  # atno 17342 bound_to 10162
  139.5697  144.1957  152.1818 LP  0  0  0  0  0  0  0  0  0  0  0  0  # atno 17343 bound_to 10162
  157.2325  131.0507  151.2484 LP  0  0  0  0  0  0  0  0  0  0  0  0  # atno 17370 bound_to 10713
  157.3698  130.7175  149.6557 LP  0  0  0  0  0  0  0  0  0  0  0  0  # atno 17371 bound_to 10713
  140.4082  134.7296  157.4820 LP  0  0  0  0  0  0  0  0  0  0  0  0  # atno 17394 bound_to 11000
  140.0446  134.6218  155.8937 LP  0  0  0  0  0  0  0  0  0  0  0  0  # atno 17395 bound_to 11000

$$$$
