AV-unprocessed.smi:1259|AV-procd|sdf|5292|dock4
  -GOLD-   22720 4413D 1   1.00000     0.00000
 Structure written by MMmdl.
 34 35  0  0  0  0  0  0  0  0  1 V2000
  147.4915  138.3584  153.0748 C   0  0  0  0  0  0  0  0  0  0  0  0
  147.7343  139.6872  153.7276 C   0  0  0  0  0  0  0  0  0  0  0  0
  148.8726  140.1010  154.4789 C   0  0  0  0  0  0  0  0  0  0  0  0
  148.5552  141.3865  154.8233 C   0  0  0  0  0  0  0  0  0  0  0  0
  149.2794  142.2820  155.5458 N   0  0  0  0  0  0  0  0  0  0  0  0
  150.3509  142.0618  156.3272 C   0  0  0  0  0  0  0  0  0  0  0  0
  150.8816  140.9676  156.5192 O   0  0  0  0  0  0  0  0  0  0  0  0
  150.7820  143.2020  156.8862 N   0  0  0  0  0  0  0  0  0  0  0  0
  151.9137  143.3218  157.8000 C   0  0  1  0  0  0  0  0  0  0  0  0
  152.2365  144.8105  157.9890 C   0  0  0  0  0  0  0  0  0  0  0  0
  151.6820  142.6441  159.1404 C   0  0  0  0  0  0  0  0  0  0  0  0
  151.9515  143.3719  160.4361 C   0  0  0  0  0  0  0  0  0  0  0  0
  152.8357  142.2197  160.0184 C   0  0  0  0  0  0  0  0  0  0  0  0
  147.3160  141.6927  154.3054 N   0  0  0  0  0  0  0  0  0  0  0  0
  146.5567  142.9247  154.3942 C   0  0  0  0  0  0  0  0  0  0  0  0
  146.8129  140.6387  153.6272 N   0  0  0  0  0  0  0  0  0  0  0  0
  148.3047  137.6627  153.2828 H   0  0  0  0  0  0  0  0  0  0  0  0
  147.4125  138.4621  151.9924 H   0  0  0  0  0  0  0  0  0  0  0  0
  146.5677  137.9060  153.4359 H   0  0  0  0  0  0  0  0  0  0  0  0
  149.7615  139.5340  154.7115 H   0  0  0  0  0  0  0  0  0  0  0  0
  148.9585  143.2373  155.4912 H   0  0  0  0  0  0  0  0  0  0  0  0
  150.2848  144.0534  156.6695 H   0  0  0  0  0  0  0  0  0  0  0  0
  152.7858  142.8594  157.3339 H   0  0  0  0  0  0  0  0  0  0  0  0
  153.1124  144.9446  158.6245 H   0  0  0  0  0  0  0  0  0  0  0  0
  151.4051  145.3420  158.4533 H   0  0  0  0  0  0  0  0  0  0  0  0
  152.4492  145.2918  157.0338 H   0  0  0  0  0  0  0  0  0  0  0  0
  150.8137  141.9873  159.1487 H   0  0  0  0  0  0  0  0  0  0  0  0
  152.3732  144.3732  160.3778 H   0  0  0  0  0  0  0  0  0  0  0  0
  151.2603  143.2037  161.2594 H   0  0  0  0  0  0  0  0  0  0  0  0
  152.7336  141.2823  160.5614 H   0  0  0  0  0  0  0  0  0  0  0  0
  153.8442  142.4584  159.6865 H   0  0  0  0  0  0  0  0  0  0  0  0
  146.9655  143.6560  153.6968 H   0  0  0  0  0  0  0  0  0  0  0  0
  146.6153  143.3242  155.4068 H   0  0  0  0  0  0  0  0  0  0  0  0
  145.5088  142.7458  154.1496 H   0  0  0  0  0  0  0  0  0  0  0  0
  1  2  1  0  0  0  0
  1 17  1  0  0  0  0
  1 18  1  0  0  0  0
  1 19  1  0  0  0  0
  2 16  2  0  0  0  0
  2  3  1  0  0  0  0
  3  4  2  0  0  0  0
  3 20  1  0  0  0  0
  4  5  1  0  0  0  0
  4 14  1  0  0  0  0
  5  6  1  0  0  0  0
  5 21  1  0  0  0  0
  6  7  2  0  0  0  0
  6  8  1  0  0  0  0
  8  9  1  0  0  0  0
  8 22  1  0  0  0  0
  9 10  1  0  0  0  0
  9 11  1  0  0  0  0
  9 23  1  0  0  0  0
 10 24  1  0  0  0  0
 10 25  1  0  0  0  0
 10 26  1  0  0  0  0
 11 13  1  0  0  0  0
 11 12  1  0  0  0  0
 11 27  1  0  0  0  0
 12 13  1  0  0  0  0
 12 28  1  0  0  0  0
 12 29  1  0  0  0  0
 13 30  1  0  0  0  0
 13 31  1  0  0  0  0
 14 15  1  0  0  0  0
 14 16  1  0  0  0  0
 15 32  1  0  0  0  0
 15 33  1  0  0  0  0
 15 34  1  0  0  0  0
M  END
> <s_m_source_file>
AV-unprocessed.smi

> <i_m_source_file_index>
1259

> <i_lp_mmshare_version>
43012

> <i_f3d_flags>
0

> <s_epik_input>
W0NIM11jMVtjSF1jKG4objEpW0NIM10pW05IXUMoPU8pW05IXVtDQEhdKFtDSDNdKVtDSF0yW0NIMl1bQ0gyXTI=

> <s_epik_cmdline>
J2VwaWtfcHl0aG9uJywgJy1waCcsICc3LjAnLCAnLXRuJywgJzgnLCAnLW1hJywgJzIwMCcsICctbWV0YWxfYmluZGluZycsICctaW1hZScsICc8aW5maWxlLm1hZT4nLCAnLW9tYWUnLCAnPG91dGZpbGUubWFlPic=

> <r_lp_tautomer_probability>
1

> <r_epik_Ionization_Penalty>
0.000100032

> <r_epik_Ionization_Penalty_Charging>
0

> <r_epik_Ionization_Penalty_Neutral>
0.000100032

> <r_epik_State_Penalty>
-0

> <r_epik_Charging_Adjusted_Penalty>
0

> <i_epik_Tot_Q>
0

> <i_epik_Tot_abs_Q>
0

> <r_epik_Metal_State_Penalty>
-0

> <b_epik_Metal_Only>
0

> <s_lp_Force_Field>
OPLS_2005

> <r_lp_Energy>
14.2964

> <b_lp_Chiralities_Consistent>
1

> <s_lp_Variant>
AV-unprocessed.smi:1259-2

> <Gold.Version>
5.8.1

> <Gold.Id.Protein>
6NUR|6NUR_protein|mol2

> <Gold.PLP.Fitness>
38.4435

> <Gold.PLP.PLP>
-33.7915

> <Gold.PLP.part.hbond>
-1.9353

> <Gold.PLP.part.metal>
0.0000

> <Gold.PLP.part.buried>
-0.4693

> <Gold.PLP.part.nonpolar>
-31.6130

> <Gold.PLP.part.repulsive>
0.3970

> <Gold.PLP.ligand.clash>
0.0000

> <Gold.PLP.ligand.torsion>
1.0364

> <Gold.PLP.Chemscore.Hbond>
1.8873

> <Gold.PLP.Chemscore.CHOScore>
0.0000

> <Gold.PLP.Chemscore.Metal>
0.0000

> <Gold.Chemscore.Hbonds>
donor molecule, donor type, donor heavy atom, donor atom, acceptor molecule, acceptor atom, score
      L1  H     5    21       P1  8028  0.89
      L1  H     8    22       P1  8028  0.88

> <Gold.PLP.Chemscore.Internal.Correction>
1.0631

> <Gold.Rescore>
     Score         DG    S(hbond)    S(metal)    S(lipo)     H(rot)  DE(clash)    DE(int)     intcor
     14.58     -18.57       1.90        0.00      83.97       1.20       1.91       2.08       ----

> <Gold.Chemscore.Fitness>
14.5767

> <Gold.Chemscore.DG>
-18.5691

> <Gold.Chemscore.ZeroCoef>
-5.4800

> <Gold.Chemscore.Hbond>
1.8964

> <Gold.Chemscore.Metal>
0.0000

> <Gold.Chemscore.Lipo>
83.9717

> <Gold.Chemscore.Internal_Hbond>
0.0000

> <Gold.Chemscore.DEClash>
1.9094

> <Gold.Chemscore.DEInternal>
2.0830

> <Gold.Chemscore.Rot>
1.1990

> <Gold.Chemscore.Internal.Correction>
   9.000000E+99

> <Gold.Chemscore.Hbonds>
donor molecule, donor type, donor heavy atom, donor atom, acceptor molecule, acceptor atom, score
      L1  H     5    21       P1  8028  0.87
      L1  H     8    22       P1  8028  0.86

> <Gold.Chemscore.Hbond.Weighted>
-6.3340

> <Gold.Chemscore.Metal.Weighted>
-0.0000

> <Gold.Chemscore.Lipo.Weighted>
-9.8247

> <Gold.Chemscore.Internal_Hbond.Weighted>
0.0000

> <Gold.Chemscore.DEClash.Weighted>
1.9094

> <Gold.Chemscore.DEInternal.Weighted>
2.0830

> <Gold.Chemscore.Rot.Weighted>
3.0695

> <Gold.Chemscore.Internal.Correction.Weighted>
   9.000000E+99

> <Gold.Protein.RotatedTorsions>
[ 6907 6896 6895 6894 ] final  -50.72 input  -60.11 | X-H torsion
[ 7974 7965 7964 7962 ] final -168.34 input  175.53 | X-H torsion
[ 8008 7997 7996 7995 ] final  -69.39 input   59.86 | X-H torsion
[ 10167 10162 10161 10158 ] final  167.85 input  -65.29 | X-H torsion
[ 10718 10713 10712 10709 ] final   36.34 input   66.30 | X-H torsion
[ 10763 10752 10751 10750 ] final  -70.68 input  -60.55 | X-H torsion
[ 11005 11000 10999 10996 ] final    5.69 input  -57.11 | X-H torsion

> <Gold.Protein.ActiveResidues>
 VAL166  LYS551  ARG553  GLY616  TRP617  ASP618  TYR619  PRO620  LYS621  CYS622 
 ASP623  PHE694  ASN695  SER759  ASP760  ASP761  ALA762  ILE779  LEU786  VAL792 
 PHE793  MET794  SER795  GLU796  ALA797  LYS798  CYS799  TRP800  GLU811  SER814 

> <Gold.Protein.RotatedAtoms>
  150.8680  134.8047  159.7132 H   0  0  0  0  0  0  0  0  0  0  0  0  # atno 6907 bound_to 6896
  152.4694  134.4993  159.9729 H   0  0  0  0  0  0  0  0  0  0  0  0  # atno 6908 bound_to 6896
  151.5086  133.3451  159.2916 H   0  0  0  0  0  0  0  0  0  0  0  0  # atno 6909 bound_to 6896
  144.7205  140.2385  143.6295 H   0  0  0  0  0  0  0  0  0  0  0  0  # atno 7974 bound_to 7965
  154.4935  140.0854  156.7646 H   0  0  0  0  0  0  0  0  0  0  0  0  # atno 8008 bound_to 7997
  155.4172  140.3444  155.4250 H   0  0  0  0  0  0  0  0  0  0  0  0  # atno 8009 bound_to 7997
  156.1362  140.1516  156.8978 H   0  0  0  0  0  0  0  0  0  0  0  0  # atno 8010 bound_to 7997
  139.4954  144.3877  151.9552 H   0  0  0  0  0  0  0  0  0  0  0  0  # atno 10167 bound_to 10162
  157.3337  130.7511  149.6865 H   0  0  0  0  0  0  0  0  0  0  0  0  # atno 10718 bound_to 10713
  154.4211  135.5986  153.6010 H   0  0  0  0  0  0  0  0  0  0  0  0  # atno 10763 bound_to 10752
  152.9794  135.5952  154.3953 H   0  0  0  0  0  0  0  0  0  0  0  0  # atno 10764 bound_to 10752
  154.3779  135.2841  155.2207 H   0  0  0  0  0  0  0  0  0  0  0  0  # atno 10765 bound_to 10752
  140.5679  134.0130  155.7997 H   0  0  0  0  0  0  0  0  0  0  0  0  # atno 11005 bound_to 11000
  145.8342  139.2100  143.1865 LP  0  0  0  0  0  0  0  0  0  0  0  0  # atno 17320 bound_to 7965
  146.0404  140.8171  142.9832 LP  0  0  0  0  0  0  0  0  0  0  0  0  # atno 17321 bound_to 7965
  140.3314  144.3311  150.5986 LP  0  0  0  0  0  0  0  0  0  0  0  0  # atno 17342 bound_to 10162
  140.5641  143.2188  151.7713 LP  0  0  0  0  0  0  0  0  0  0  0  0  # atno 17343 bound_to 10162
  155.9699  130.4188  150.4343 LP  0  0  0  0  0  0  0  0  0  0  0  0  # atno 17370 bound_to 10713
  157.2379  131.0519  151.2454 LP  0  0  0  0  0  0  0  0  0  0  0  0  # atno 17371 bound_to 10713
  141.1074  133.9671  157.2972 LP  0  0  0  0  0  0  0  0  0  0  0  0  # atno 17394 bound_to 11000
  139.9376  135.0195  156.8605 LP  0  0  0  0  0  0  0  0  0  0  0  0  # atno 17395 bound_to 11000

$$$$
