AV-unprocessed.smi:1504|AV-procd|sdf|6071|dock8
  -GOLD-   22720 6193D 1   1.00000     0.00000
 Structure written by MMmdl.
 39 40  0  0  0  0  0  0  0  0  1 V2000
  146.1508  137.1398  154.4319 O   0  0  0  0  0  0  0  0  0  0  0  0
  145.5466  138.0151  153.8119 C   0  0  0  0  0  0  0  0  0  0  0  0
  145.1424  137.8907  152.5405 N   0  0  0  0  0  0  0  0  0  0  0  0
  145.3687  136.7175  151.7013 C   0  0  0  0  0  0  0  0  0  0  0  0
  144.4619  135.5257  152.0686 C   0  0  0  0  0  0  0  0  0  0  0  0
  144.8061  134.2459  151.3258 C   0  0  0  0  0  0  0  0  0  0  0  0
  143.7885  133.3864  150.8590 C   0  0  0  0  0  0  0  0  0  0  0  0
  144.1617  132.2142  150.1739 C   0  0  0  0  0  0  0  0  0  0  0  0
  145.5312  131.9472  149.9835 C   0  0  0  0  0  0  0  0  0  0  0  0
  146.4701  132.8683  150.4892 C   0  0  0  0  0  0  0  0  0  0  0  0
  146.1229  133.9959  151.1466 N   0  0  0  0  0  0  0  0  0  0  0  0
  145.2186  139.2098  154.3238 N   0  0  0  0  0  0  0  0  0  0  0  0
  145.5101  139.6562  155.6829 C   0  0  0  0  0  0  0  0  0  0  0  0
  146.7878  140.5166  155.7580 C   0  0  2  0  0  0  0  0  0  0  0  0
  147.1615  141.2093  154.4296 C   0  0  0  0  0  0  0  0  0  0  0  0
  148.5785  141.7766  154.5518 C   0  0  0  0  0  0  0  0  0  0  0  0
  149.4900  140.5934  155.6092 S   0  0  0  0  0  0  0  0  0  0  0  0
  150.2797  139.6869  154.7620 O   0  0  0  0  0  0  0  0  0  0  0  0
  150.1137  141.3260  156.7215 O   0  0  0  0  0  0  0  0  0  0  0  0
  148.0077  139.6996  156.2150 C   0  0  0  0  0  0  0  0  0  0  0  0
  144.6490  138.6635  152.1181 H   0  0  0  0  0  0  0  0  0  0  0  0
  145.1775  137.0133  150.6694 H   0  0  0  0  0  0  0  0  0  0  0  0
  146.4183  136.4229  151.7460 H   0  0  0  0  0  0  0  0  0  0  0  0
  144.5226  135.3383  153.1413 H   0  0  0  0  0  0  0  0  0  0  0  0
  143.4199  135.7808  151.8708 H   0  0  0  0  0  0  0  0  0  0  0  0
  142.7460  133.6203  151.0186 H   0  0  0  0  0  0  0  0  0  0  0  0
  143.4114  131.5326  149.8017 H   0  0  0  0  0  0  0  0  0  0  0  0
  145.8545  131.0574  149.4639 H   0  0  0  0  0  0  0  0  0  0  0  0
  147.5284  132.6946  150.3618 H   0  0  0  0  0  0  0  0  0  0  0  0
  144.7222  139.8589  153.7309 H   0  0  0  0  0  0  0  0  0  0  0  0
  144.6572  140.2456  156.0205 H   0  0  0  0  0  0  0  0  0  0  0  0
  145.5786  138.8062  156.3641 H   0  0  0  0  0  0  0  0  0  0  0  0
  146.6310  141.3021  156.4991 H   0  0  0  0  0  0  0  0  0  0  0  0
  147.1450  140.4729  153.6249 H   0  0  0  0  0  0  0  0  0  0  0  0
  146.4510  141.9912  154.1612 H   0  0  0  0  0  0  0  0  0  0  0  0
  149.0797  141.8911  153.5905 H   0  0  0  0  0  0  0  0  0  0  0  0
  148.5661  142.7419  155.0585 H   0  0  0  0  0  0  0  0  0  0  0  0
  148.0576  139.5823  157.2976 H   0  0  0  0  0  0  0  0  0  0  0  0
  148.0111  138.7088  155.7598 H   0  0  0  0  0  0  0  0  0  0  0  0
  1  2  2  0  0  0  0
  2  3  1  0  0  0  0
  2 12  1  0  0  0  0
  3  4  1  0  0  0  0
  3 21  1  0  0  0  0
  4  5  1  0  0  0  0
  4 22  1  0  0  0  0
  4 23  1  0  0  0  0
  5  6  1  0  0  0  0
  5 24  1  0  0  0  0
  5 25  1  0  0  0  0
  6 11  1  0  0  0  0
  6  7  2  0  0  0  0
  7  8  1  0  0  0  0
  7 26  1  0  0  0  0
  8  9  2  0  0  0  0
  8 27  1  0  0  0  0
  9 10  1  0  0  0  0
  9 28  1  0  0  0  0
 10 11  2  0  0  0  0
 10 29  1  0  0  0  0
 12 13  1  0  0  0  0
 12 30  1  0  0  0  0
 13 14  1  0  0  0  0
 13 31  1  0  0  0  0
 13 32  1  0  0  0  0
 14 20  1  0  0  0  0
 14 15  1  0  0  0  0
 14 33  1  0  0  0  0
 15 16  1  0  0  0  0
 15 34  1  0  0  0  0
 15 35  1  0  0  0  0
 16 17  1  0  0  0  0
 16 36  1  0  0  0  0
 16 37  1  0  0  0  0
 17 18  2  0  0  0  0
 17 19  2  0  0  0  0
 17 20  1  0  0  0  0
 20 38  1  0  0  0  0
 20 39  1  0  0  0  0
M  END
> <s_m_source_file>
AV-unprocessed.smi

> <i_m_source_file_index>
1504

> <i_lp_mmshare_version>
43012

> <i_f3d_flags>
0

> <s_epik_input>
Tz1TMSg9TylbQ0gyXVtDSDJdW0NASF0oW0NIMl0xKVtDSDJdW05IXUMoPU8pW05IXVtDSDJdW0NIMl1jMltjSF1bY0hdW2NIXVtjSF1uMg==

> <s_epik_cmdline>
J2VwaWtfcHl0aG9uJywgJy1waCcsICc3LjAnLCAnLXRuJywgJzgnLCAnLW1hJywgJzIwMCcsICctbWV0YWxfYmluZGluZycsICctaW1hZScsICc8aW5maWxlLm1hZT4nLCAnLW9tYWUnLCAnPG91dGZpbGUubWFlPic=

> <r_epik_Ionization_Penalty>
0.0431785

> <r_epik_Ionization_Penalty_Charging>
0

> <r_epik_Ionization_Penalty_Neutral>
0.0431785

> <r_epik_State_Penalty>
0.0364691

> <r_epik_Charging_Adjusted_Penalty>
0.0364691

> <i_epik_Tot_Q>
0

> <i_epik_Tot_abs_Q>
0

> <r_epik_Metal_State_Penalty>
0.0339827

> <b_epik_Metal_Only>
0

> <s_lp_Force_Field>
OPLS_2005

> <r_lp_Energy>
2.61241

> <b_lp_Chiralities_Consistent>
1

> <s_lp_Variant>
AV-unprocessed.smi:1504-1

> <Gold.Version>
5.8.1

> <Gold.Id.Protein>
6NUR|6NUR_protein|mol2

> <Gold.PLP.Fitness>
40.0450

> <Gold.PLP.PLP>
-30.3792

> <Gold.PLP.part.hbond>
-4.0000

> <Gold.PLP.part.metal>
0.0000

> <Gold.PLP.part.buried>
-1.1392

> <Gold.PLP.part.nonpolar>
-26.4554

> <Gold.PLP.part.repulsive>
0.8649

> <Gold.PLP.ligand.clash>
0.0000

> <Gold.PLP.ligand.torsion>
1.0792

> <Gold.PLP.Chemscore.Hbond>
2.9357

> <Gold.PLP.Chemscore.CHOScore>
1.0000

> <Gold.PLP.Chemscore.Metal>
0.0000

> <Gold.Chemscore.Hbonds>
donor molecule, donor type, donor heavy atom, donor atom, acceptor molecule, acceptor atom, score
      L1  H     3    21       P1 10175  0.86
      L1  H    12    30       P1 10175  1.00
      P1  H  7989  7998       L1    18  0.59
      L1  C    10    29       P1 10747  1.00

> <Gold.PLP.Chemscore.Internal.Correction>
0.0170

> <Gold.Rescore>
     Score         DG    S(hbond)    S(metal)    S(lipo)     H(rot)  DE(clash)    DE(int)     intcor
     16.96     -18.45       2.88        0.00      70.51       1.91       0.28       1.21       ----

> <Gold.Chemscore.Fitness>
16.9563

> <Gold.Chemscore.DG>
-18.4455

> <Gold.Chemscore.ZeroCoef>
-5.4800

> <Gold.Chemscore.Hbond>
2.8761

> <Gold.Chemscore.Metal>
0.0000

> <Gold.Chemscore.Lipo>
70.5128

> <Gold.Chemscore.Internal_Hbond>
0.0000

> <Gold.Chemscore.DEClash>
0.2828

> <Gold.Chemscore.DEInternal>
1.2065

> <Gold.Chemscore.Rot>
1.9105

> <Gold.Chemscore.Internal.Correction>
   9.000000E+99

> <Gold.Chemscore.Hbonds>
donor molecule, donor type, donor heavy atom, donor atom, acceptor molecule, acceptor atom, score
      L1  H     3    21       P1 10175  0.79
      L1  H    12    30       P1 10175  1.00
      P1  H  7989  7998       L1    18  0.41

> <Gold.Chemscore.Hbond.Weighted>
-9.6063

> <Gold.Chemscore.Metal.Weighted>
-0.0000

> <Gold.Chemscore.Lipo.Weighted>
-8.2500

> <Gold.Chemscore.Internal_Hbond.Weighted>
0.0000

> <Gold.Chemscore.DEClash.Weighted>
0.2828

> <Gold.Chemscore.DEInternal.Weighted>
1.2065

> <Gold.Chemscore.Rot.Weighted>
4.8908

> <Gold.Chemscore.Internal.Correction.Weighted>
   9.000000E+99

> <Gold.Protein.RotatedTorsions>
[ 6907 6896 6895 6894 ] final  120.35 input  -60.11 | X-H torsion
[ 7974 7965 7964 7962 ] final -146.24 input  175.53 | X-H torsion
[ 8008 7997 7996 7995 ] final  135.96 input   59.86 | X-H torsion
[ 10167 10162 10161 10158 ] final  -92.61 input  -65.29 | X-H torsion
[ 10718 10713 10712 10709 ] final  178.46 input   66.30 | X-H torsion
[ 10763 10752 10751 10750 ] final  120.61 input  -60.55 | X-H torsion
[ 11005 11000 10999 10996 ] final   59.46 input  -57.11 | X-H torsion

> <Gold.Protein.ActiveResidues>
 VAL166  LYS551  ARG553  GLY616  TRP617  ASP618  TYR619  PRO620  LYS621  CYS622 
 ASP623  PHE694  ASN695  SER759  ASP760  ASP761  ALA762  ILE779  LEU786  VAL792 
 PHE793  MET794  SER795  GLU796  ALA797  LYS798  CYS799  TRP800  GLU811  SER814 

> <Gold.Protein.RotatedAtoms>
  152.4405  133.7438  159.6655 H   0  0  0  0  0  0  0  0  0  0  0  0  # atno 6907 bound_to 6896
  150.8294  133.8105  159.3111 H   0  0  0  0  0  0  0  0  0  0  0  0  # atno 6908 bound_to 6896
  151.5764  135.1063  160.0059 H   0  0  0  0  0  0  0  0  0  0  0  0  # atno 6909 bound_to 6896
  144.8173  140.5481  143.5602 H   0  0  0  0  0  0  0  0  0  0  0  0  # atno 7974 bound_to 7965
  156.3004  140.2457  156.3667 H   0  0  0  0  0  0  0  0  0  0  0  0  # atno 8008 bound_to 7997
  154.8826  140.0412  157.1811 H   0  0  0  0  0  0  0  0  0  0  0  0  # atno 8009 bound_to 7997
  154.8680  140.2930  155.5503 H   0  0  0  0  0  0  0  0  0  0  0  0  # atno 8010 bound_to 7997
  140.3331  143.2984  151.9920 H   0  0  0  0  0  0  0  0  0  0  0  0  # atno 10167 bound_to 10162
  156.8902  130.9845  151.3050 H   0  0  0  0  0  0  0  0  0  0  0  0  # atno 10718 bound_to 10713
  153.6012  135.3447  155.2946 H   0  0  0  0  0  0  0  0  0  0  0  0  # atno 10763 bound_to 10752
  154.8635  135.4228  154.2410 H   0  0  0  0  0  0  0  0  0  0  0  0  # atno 10764 bound_to 10752
  153.3239  135.7040  153.7077 H   0  0  0  0  0  0  0  0  0  0  0  0  # atno 10765 bound_to 10752
  140.0302  134.6023  155.9517 H   0  0  0  0  0  0  0  0  0  0  0  0  # atno 11005 bound_to 11000
  145.5186  139.1477  143.3565 LP  0  0  0  0  0  0  0  0  0  0  0  0  # atno 17320 bound_to 7965
  146.2476  140.5327  142.8907 LP  0  0  0  0  0  0  0  0  0  0  0  0  # atno 17321 bound_to 7965
  139.4853  144.6219  151.7239 LP  0  0  0  0  0  0  0  0  0  0  0  0  # atno 17342 bound_to 10162
  140.5379  144.0626  150.6077 LP  0  0  0  0  0  0  0  0  0  0  0  0  # atno 17343 bound_to 10162
  157.6088  130.8567  149.8918 LP  0  0  0  0  0  0  0  0  0  0  0  0  # atno 17370 bound_to 10713
  156.0633  130.3696  150.0934 LP  0  0  0  0  0  0  0  0  0  0  0  0  # atno 17371 bound_to 10713
  141.1826  133.6549  156.5084 LP  0  0  0  0  0  0  0  0  0  0  0  0  # atno 17394 bound_to 11000
  140.4239  134.7163  157.4905 LP  0  0  0  0  0  0  0  0  0  0  0  0  # atno 17395 bound_to 11000

$$$$
