AV-unprocessed.smi:790|AV-procd|sdf|3741|dock5
  -GOLD-   22720 1173D 1   1.00000     0.00000
 Structure written by MMmdl.
 38 40  0  0  0  0  0  0  0  0  1 V2000
  145.4879  137.3555  153.9101 O   0  0  0  0  0  0  0  0  0  0  0  0
  146.5560  137.0009  153.4117 C   0  0  0  0  0  0  0  0  0  0  0  0
  147.6478  137.7733  153.2804 N   0  0  0  0  0  0  0  0  0  0  0  0
  147.8348  139.1180  153.7006 C   0  0  0  0  0  0  0  0  0  0  0  0
  149.0486  139.6286  154.2213 C   0  0  0  0  0  0  0  0  0  0  0  0
  149.1135  140.9875  154.5850 C   0  0  0  0  0  0  0  0  0  0  0  0
  147.9676  141.7869  154.4090 C   0  0  0  0  0  0  0  0  0  0  0  0
  146.8087  141.3170  153.9011 N   0  0  0  0  0  0  0  0  0  0  0  0
  146.7540  140.0134  153.5538 C   0  0  0  0  0  0  0  0  0  0  0  0
  146.7686  135.7744  152.9140 N   0  0  0  0  0  0  0  0  0  0  0  0
  145.7797  134.6963  152.8682 C   0  0  1  0  0  0  0  0  0  0  0  0
  144.8089  134.9133  151.6871 C   0  0  2  0  0  0  0  0  0  0  0  0
  143.5700  134.0207  151.8840 C   0  0  0  0  0  0  0  0  0  0  0  0
  144.1267  132.6115  151.6060 C   0  0  0  0  0  0  0  0  0  0  0  0
  145.6100  132.8846  151.2850 C   0  0  1  0  0  0  0  0  0  0  0  0
  145.5183  134.2085  150.5372 C   0  0  0  0  0  0  0  0  0  0  0  0
  146.3548  133.2744  152.5857 C   0  0  1  0  0  0  0  0  0  0  0  0
  147.8923  133.1682  152.4643 C   0  0  0  0  0  0  0  0  0  0  0  0
  148.2791  131.8247  152.2648 O   0  0  0  0  0  0  0  0  0  0  0  0
  148.4208  137.3676  152.7733 H   0  0  0  0  0  0  0  0  0  0  0  0
  149.9288  139.0153  154.3348 H   0  0  0  0  0  0  0  0  0  0  0  0
  150.0239  141.4086  154.9858 H   0  0  0  0  0  0  0  0  0  0  0  0
  147.9842  142.8327  154.6777 H   0  0  0  0  0  0  0  0  0  0  0  0
  145.8121  139.6729  153.1490 H   0  0  0  0  0  0  0  0  0  0  0  0
  147.6765  135.5713  152.5224 H   0  0  0  0  0  0  0  0  0  0  0  0
  145.2179  134.6977  153.8044 H   0  0  0  0  0  0  0  0  0  0  0  0
  144.5582  135.9588  151.5032 H   0  0  0  0  0  0  0  0  0  0  0  0
  143.1427  134.1119  152.8832 H   0  0  0  0  0  0  0  0  0  0  0  0
  142.7908  134.2736  151.1637 H   0  0  0  0  0  0  0  0  0  0  0  0
  144.0008  131.9383  152.4548 H   0  0  0  0  0  0  0  0  0  0  0  0
  143.6214  132.1634  150.7494 H   0  0  0  0  0  0  0  0  0  0  0  0
  146.0801  132.0754  150.7254 H   0  0  0  0  0  0  0  0  0  0  0  0
  144.9168  134.1508  149.6282 H   0  0  0  0  0  0  0  0  0  0  0  0
  146.4890  134.6422  150.2932 H   0  0  0  0  0  0  0  0  0  0  0  0
  146.0495  132.6078  153.3940 H   0  0  0  0  0  0  0  0  0  0  0  0
  148.2744  133.7759  151.6440 H   0  0  0  0  0  0  0  0  0  0  0  0
  148.3733  133.5140  153.3792 H   0  0  0  0  0  0  0  0  0  0  0  0
  148.5243  131.7136  151.3589 H   0  0  0  0  0  0  0  0  0  0  0  0
  1  2  2  0  0  0  0
  2  3  1  0  0  0  0
  2 10  1  0  0  0  0
  3  4  1  0  0  0  0
  3 20  1  0  0  0  0
  4  9  1  0  0  0  0
  4  5  2  0  0  0  0
  5  6  1  0  0  0  0
  5 21  1  0  0  0  0
  6  7  2  0  0  0  0
  6 22  1  0  0  0  0
  7  8  1  0  0  0  0
  7 23  1  0  0  0  0
  8  9  2  0  0  0  0
  9 24  1  0  0  0  0
 10 11  1  0  0  0  0
 10 25  1  0  0  0  0
 11 17  1  0  0  0  0
 11 12  1  0  0  0  0
 11 26  1  0  0  0  0
 12 16  1  0  0  0  0
 12 13  1  0  0  0  0
 12 27  1  0  0  0  0
 13 14  1  0  0  0  0
 13 28  1  0  0  0  0
 13 29  1  0  0  0  0
 14 15  1  0  0  0  0
 14 30  1  0  0  0  0
 14 31  1  0  0  0  0
 15 16  1  0  0  0  0
 15 17  1  0  0  0  0
 15 32  1  0  0  0  0
 16 33  1  0  0  0  0
 16 34  1  0  0  0  0
 17 18  1  0  0  0  0
 17 35  1  0  0  0  0
 18 19  1  0  0  0  0
 18 36  1  0  0  0  0
 18 37  1  0  0  0  0
 19 38  1  0  0  0  0
M  END
> <s_m_source_file>
AV-unprocessed.smi

> <i_m_source_file_index>
790

> <i_lp_mmshare_version>
43012

> <i_f3d_flags>
0

> <s_epik_input>
W0NIMl0xW0NIMl1bQ0BASF0oW0NIMl0yKVtDQEBIXShbQ0gyXVtPSF0pW0NAQEhdKFtDQEhdMTIpW05IXUMoPU8pW05IXWMzW2NIXVtjSF1bY0hdbltjSF0z

> <s_epik_cmdline>
J2VwaWtfcHl0aG9uJywgJy1waCcsICc3LjAnLCAnLXRuJywgJzgnLCAnLW1hJywgJzIwMCcsICctbWV0YWxfYmluZGluZycsICctaW1hZScsICc8aW5maWxlLm1hZT4nLCAnLW9tYWUnLCAnPG91dGZpbGUubWFlPic=

> <r_epik_Ionization_Penalty>
0.00497582

> <r_epik_Ionization_Penalty_Charging>
0

> <r_epik_Ionization_Penalty_Neutral>
0.00497582

> <r_epik_State_Penalty>
0.00358602

> <r_epik_Charging_Adjusted_Penalty>
0.00358602

> <i_epik_Tot_Q>
0

> <i_epik_Tot_abs_Q>
0

> <r_epik_Metal_State_Penalty>
-0

> <b_epik_Metal_Only>
0

> <s_lp_Force_Field>
OPLS_2005

> <r_lp_Energy>
53.2312

> <b_lp_Chiralities_Consistent>
1

> <s_lp_Variant>
AV-unprocessed.smi:790-2

> <Gold.Version>
5.8.1

> <Gold.Id.Protein>
6NUR|6NUR_protein|mol2

> <Gold.PLP.Fitness>
43.4936

> <Gold.PLP.PLP>
-30.0946

> <Gold.PLP.part.hbond>
-2.6401

> <Gold.PLP.part.metal>
0.0000

> <Gold.PLP.part.buried>
1.2045

> <Gold.PLP.part.nonpolar>
-27.8148

> <Gold.PLP.part.repulsive>
0.3876

> <Gold.PLP.ligand.clash>
0.0000

> <Gold.PLP.ligand.torsion>
0.5186

> <Gold.PLP.Chemscore.Hbond>
2.8080

> <Gold.PLP.Chemscore.CHOScore>
2.0000

> <Gold.PLP.Chemscore.Metal>
0.0000

> <Gold.Chemscore.Hbonds>
donor molecule, donor type, donor heavy atom, donor atom, acceptor molecule, acceptor atom, score
      L1  H     3    20       P1  7948  0.99
      L1  H    10    25       P1  7948  0.90
      L1  H    19    38       P1 10747  0.77
      L1  C     7    23       P1  8028  1.00
      L1  C     9    24       P1 10175  1.00

> <Gold.PLP.Chemscore.Internal.Correction>
0.0122

> <Gold.Rescore>
     Score         DG    S(hbond)    S(metal)    S(lipo)     H(rot)  DE(clash)    DE(int)     intcor
     17.22     -19.22       2.89        0.00      73.82       1.78       0.20       1.80       ----

> <Gold.Chemscore.Fitness>
17.2178

> <Gold.Chemscore.DG>
-19.2211

> <Gold.Chemscore.ZeroCoef>
-5.4800

> <Gold.Chemscore.Hbond>
2.8910

> <Gold.Chemscore.Metal>
0.0000

> <Gold.Chemscore.Lipo>
73.8250

> <Gold.Chemscore.Internal_Hbond>
0.0000

> <Gold.Chemscore.DEClash>
0.2016

> <Gold.Chemscore.DEInternal>
1.8016

> <Gold.Chemscore.Rot>
1.7783

> <Gold.Chemscore.Internal.Correction>
   9.000000E+99

> <Gold.Chemscore.Hbonds>
donor molecule, donor type, donor heavy atom, donor atom, acceptor molecule, acceptor atom, score
      L1  H     3    20       P1  7948  0.89
      L1  H    10    25       P1  7948  0.85
      L1  H    19    38       P1 10747  0.72

> <Gold.Chemscore.Hbond.Weighted>
-9.6561

> <Gold.Chemscore.Metal.Weighted>
-0.0000

> <Gold.Chemscore.Lipo.Weighted>
-8.6375

> <Gold.Chemscore.Internal_Hbond.Weighted>
0.0000

> <Gold.Chemscore.DEClash.Weighted>
0.2016

> <Gold.Chemscore.DEInternal.Weighted>
1.8016

> <Gold.Chemscore.Rot.Weighted>
4.5525

> <Gold.Chemscore.Internal.Correction.Weighted>
   9.000000E+99

> <Gold.Protein.RotatedTorsions>
[ 6907 6896 6895 6894 ] final   -9.59 input  -60.11 | X-H torsion
[ 7974 7965 7964 7962 ] final  -10.61 input  175.53 | X-H torsion
[ 8008 7997 7996 7995 ] final -133.69 input   59.86 | X-H torsion
[ 10167 10162 10161 10158 ] final   61.25 input  -65.29 | X-H torsion
[ 10718 10713 10712 10709 ] final  -24.76 input   66.30 | X-H torsion
[ 10763 10752 10751 10750 ] final -179.11 input  -60.55 | X-H torsion
[ 11005 11000 10999 10996 ] final  108.43 input  -57.11 | X-H torsion

> <Gold.Protein.ActiveResidues>
 VAL166  LYS551  ARG553  GLY616  TRP617  ASP618  TYR619  PRO620  LYS621  CYS622 
 ASP623  PHE694  ASN695  SER759  ASP760  ASP761  ALA762  ILE779  LEU786  VAL792 
 PHE793  MET794  SER795  GLU796  ALA797  LYS798  CYS799  TRP800  GLU811  SER814 

> <Gold.Protein.RotatedAtoms>
  151.4153  135.0990  159.9597 H   0  0  0  0  0  0  0  0  0  0  0  0  # atno 6907 bound_to 6896
  152.5006  133.8758  159.7332 H   0  0  0  0  0  0  0  0  0  0  0  0  # atno 6908 bound_to 6896
  150.9262  133.6764  159.2849 H   0  0  0  0  0  0  0  0  0  0  0  0  # atno 6909 bound_to 6896
  146.2215  140.2789  142.8361 H   0  0  0  0  0  0  0  0  0  0  0  0  # atno 7974 bound_to 7965
  155.3497  140.0476  157.3046 H   0  0  0  0  0  0  0  0  0  0  0  0  # atno 8008 bound_to 7997
  154.5233  140.2232  155.8899 H   0  0  0  0  0  0  0  0  0  0  0  0  # atno 8009 bound_to 7997
  156.1713  140.3095  155.8985 H   0  0  0  0  0  0  0  0  0  0  0  0  # atno 8010 bound_to 7997
  140.1568  144.4409  150.6730 H   0  0  0  0  0  0  0  0  0  0  0  0  # atno 10167 bound_to 10162
  156.4733  130.4529  149.6856 H   0  0  0  0  0  0  0  0  0  0  0  0  # atno 10718 bound_to 10713
  154.5392  135.2805  155.1111 H   0  0  0  0  0  0  0  0  0  0  0  0  # atno 10763 bound_to 10752
  154.2600  135.6323  153.5275 H   0  0  0  0  0  0  0  0  0  0  0  0  # atno 10764 bound_to 10752
  152.9975  135.5603  154.5927 H   0  0  0  0  0  0  0  0  0  0  0  0  # atno 10765 bound_to 10752
  139.8844  134.9430  156.5971 H   0  0  0  0  0  0  0  0  0  0  0  0  # atno 11005 bound_to 11000
  144.9212  140.7870  143.5747 LP  0  0  0  0  0  0  0  0  0  0  0  0  # atno 17320 bound_to 7965
  145.2726  139.1949  143.4833 LP  0  0  0  0  0  0  0  0  0  0  0  0  # atno 17321 bound_to 7965
  140.6668  143.2271  151.5723 LP  0  0  0  0  0  0  0  0  0  0  0  0  # atno 17342 bound_to 10162
  139.5400  144.2675  152.1330 LP  0  0  0  0  0  0  0  0  0  0  0  0  # atno 17343 bound_to 10162
  156.3596  130.7474  151.2445 LP  0  0  0  0  0  0  0  0  0  0  0  0  # atno 17370 bound_to 10713
  157.7489  131.0354  150.4361 LP  0  0  0  0  0  0  0  0  0  0  0  0  # atno 17371 bound_to 10713
  140.7912  133.8581  155.8647 LP  0  0  0  0  0  0  0  0  0  0  0  0  # atno 17394 bound_to 11000
  140.9676  134.1574  157.4603 LP  0  0  0  0  0  0  0  0  0  0  0  0  # atno 17395 bound_to 11000

$$$$
