AV-unprocessed.smi:2618|AV-procd|sdf|10220|dock2
  -GOLD-   2272014223D 1   1.00000     0.00000
 Structure written by MMmdl.
 38 39  0  0  0  0  0  0  0  0  2 V2000
  146.4674  142.7741  154.0892 C   0  0  0  0  0  0  0  0  0  0  0  0
  146.6801  141.5854  154.8296 O   0  0  0  0  0  0  0  0  0  0  0  0
  147.7196  140.7875  154.2877 C   0  0  0  0  0  0  0  0  0  0  0  0
  149.0141  141.6119  154.2635 C   0  0  0  0  0  0  0  0  0  0  0  0
  149.9817  141.1607  155.3225 C   0  0  0  0  0  0  0  0  0  0  0  0
  150.4536  141.9494  156.2155 N   0  0  0  0  0  0  0  0  0  0  0  0
  151.2897  141.3068  157.0320 N   0  0  0  0  0  0  0  0  0  0  0  0
  151.8463  141.9346  158.1606 C   0  0  0  0  0  0  0  0  0  0  0  0
  151.4254  143.1862  158.4020 N   0  0  0  0  0  0  0  0  0  0  0  0
  151.9428  143.8309  159.4692 C   0  0  0  0  0  0  0  0  0  0  0  0
  151.4463  145.2395  159.7150 C   0  0  0  0  0  0  0  0  0  0  0  0
  152.8960  143.2268  160.3131 C   0  0  0  0  0  0  0  0  0  0  0  0
  153.2767  141.9134  159.9722 C   0  0  0  0  0  0  0  0  0  0  0  0
  154.2901  141.1428  160.7905 C   0  0  0  0  0  0  0  0  0  0  0  0
  152.7579  141.2784  158.9006 N   0  0  0  0  0  0  0  0  0  0  0  0
  151.4087  139.8791  156.6659 C   0  0  1  0  0  0  0  0  0  0  0  0
  152.6309  139.5817  156.2848 O   0  5  0  0  0  0  0  0  0  0  0  0
  150.9665  138.9339  157.8179 C   0  0  0  0  0  0  0  0  0  0  0  0
  149.7687  139.3006  158.2780 F   0  0  0  0  0  0  0  0  0  0  0  0
  150.8740  137.6763  157.3804 F   0  0  0  0  0  0  0  0  0  0  0  0
  151.8255  138.9601  158.8386 F   0  0  0  0  0  0  0  0  0  0  0  0
  150.4834  139.7649  155.4462 C   0  0  0  0  0  0  0  0  0  0  0  0
  145.6611  143.3495  154.5438 H   0  0  0  0  0  0  0  0  0  0  0  0
  146.1834  142.5522  153.0598 H   0  0  0  0  0  0  0  0  0  0  0  0
  147.3618  143.3983  154.0795 H   0  0  0  0  0  0  0  0  0  0  0  0
  147.8493  139.8908  154.8958 H   0  0  0  0  0  0  0  0  0  0  0  0
  147.4541  140.4680  153.2784 H   0  0  0  0  0  0  0  0  0  0  0  0
  149.4762  141.5244  153.2792 H   0  0  0  0  0  0  0  0  0  0  0  0
  148.7874  142.6687  154.4047 H   0  0  0  0  0  0  0  0  0  0  0  0
  151.9419  145.6873  160.5766 H   0  0  0  0  0  0  0  0  0  0  0  0
  150.3724  145.2344  159.9031 H   0  0  0  0  0  0  0  0  0  0  0  0
  151.6414  145.8670  158.8450 H   0  0  0  0  0  0  0  0  0  0  0  0
  153.3108  143.7391  161.1686 H   0  0  0  0  0  0  0  0  0  0  0  0
  154.6165  141.7182  161.6570 H   0  0  0  0  0  0  0  0  0  0  0  0
  155.1659  140.9094  160.1847 H   0  0  0  0  0  0  0  0  0  0  0  0
  153.8573  140.2071  161.1453 H   0  0  0  0  0  0  0  0  0  0  0  0
  149.6538  139.0783  155.6158 H   0  0  0  0  0  0  0  0  0  0  0  0
  150.9943  139.4535  154.5327 H   0  0  0  0  0  0  0  0  0  0  0  0
  1  2  1  0  0  0  0
  1 23  1  0  0  0  0
  1 24  1  0  0  0  0
  1 25  1  0  0  0  0
  2  3  1  0  0  0  0
  3  4  1  0  0  0  0
  3 26  1  0  0  0  0
  3 27  1  0  0  0  0
  4  5  1  0  0  0  0
  4 28  1  0  0  0  0
  4 29  1  0  0  0  0
  5 22  1  0  0  0  0
  5  6  2  0  0  0  0
  6  7  1  0  0  0  0
  7  8  1  0  0  0  0
  7 16  1  0  0  0  0
  8 15  1  0  0  0  0
  8  9  2  0  0  0  0
  9 10  1  0  0  0  0
 10 11  1  0  0  0  0
 10 12  2  0  0  0  0
 11 30  1  0  0  0  0
 11 31  1  0  0  0  0
 11 32  1  0  0  0  0
 12 13  1  0  0  0  0
 12 33  1  0  0  0  0
 13 14  1  0  0  0  0
 13 15  2  0  0  0  0
 14 34  1  0  0  0  0
 14 35  1  0  0  0  0
 14 36  1  0  0  0  0
 16 17  1  0  0  0  0
 16 18  1  0  0  0  0
 16 22  1  0  0  0  0
 18 19  1  0  0  0  0
 18 20  1  0  0  0  0
 18 21  1  0  0  0  0
 22 37  1  0  0  0  0
 22 38  1  0  0  0  0
M  CHG  1  17  -1
M  END
> <s_m_source_file>
AV-unprocessed.smi

> <i_m_source_file_index>
2618

> <i_lp_mmshare_version>
43012

> <i_f3d_flags>
0

> <s_epik_input>
W0NIM11PW0NIMl1bQ0gyXUMoW0NIMl0xKT1OTihbQ0BAXTEoW09IXSlDKEYpKEYpRiljMm5jKFtDSDNdKVtjSF1jKG4yKVtDSDNd

> <s_epik_cmdline>
J2VwaWtfcHl0aG9uJywgJy1waCcsICc3LjAnLCAnLXRuJywgJzgnLCAnLW1hJywgJzIwMCcsICctbWV0YWxfYmluZGluZycsICctaW1hZScsICc8aW5maWxlLm1hZT4nLCAnLW9tYWUnLCAnPG91dGZpbGUubWFlPic=

> <r_lp_tautomer_probability>
1

> <r_epik_Ionization_Penalty>
1.35617

> <r_epik_Ionization_Penalty_Charging>
1.35566

> <r_epik_Ionization_Penalty_Neutral>
0.000506926

> <r_epik_State_Penalty>
1.43411

> <r_epik_Charging_Adjusted_Penalty>
2.78977

> <i_epik_Tot_Q>
-1

> <i_epik_Tot_abs_Q>
1

> <r_epik_Metal_State_Penalty>
1.43499

> <b_epik_Metal_Only>
0

> <s_epik_Chemistry_Notes>
This compound has an imine and may undergo hydrolysis.

> <s_lp_Force_Field>
OPLS_2005

> <r_lp_Energy>
21.2733

> <b_lp_Chiralities_Consistent>
1

> <s_lp_Variant>
AV-unprocessed.smi:2618-3

> <Gold.Version>
5.8.1

> <Gold.Id.Protein>
6NUR|6NUR_protein|mol2

> <Gold.PLP.Fitness>
49.5514

> <Gold.PLP.PLP>
-44.2318

> <Gold.PLP.part.hbond>
-1.0000

> <Gold.PLP.part.metal>
0.0000

> <Gold.PLP.part.buried>
-5.9405

> <Gold.PLP.part.nonpolar>
-38.1943

> <Gold.PLP.part.repulsive>
0.2871

> <Gold.PLP.ligand.clash>
0.0174

> <Gold.PLP.ligand.torsion>
0.4882

> <Gold.PLP.Chemscore.Hbond>
2.0000

> <Gold.PLP.Chemscore.CHOScore>
0.0000

> <Gold.PLP.Chemscore.Metal>
0.0000

> <Gold.Chemscore.Hbonds>
donor molecule, donor type, donor heavy atom, donor atom, acceptor molecule, acceptor atom, score
      P1  H  7997  8008       L1    17  2.00

> <Gold.PLP.Chemscore.Internal.Correction>
0.3134

> <Gold.Rescore>
     Score         DG    S(hbond)    S(metal)    S(lipo)     H(rot)  DE(clash)    DE(int)     intcor
     13.76     -16.05       1.00        0.00      94.01       1.47       0.01       2.27       ----

> <Gold.Chemscore.Fitness>
13.7635

> <Gold.Chemscore.DG>
-16.0452

> <Gold.Chemscore.ZeroCoef>
-5.4800

> <Gold.Chemscore.Hbond>
1.0000

> <Gold.Chemscore.Metal>
0.0000

> <Gold.Chemscore.Lipo>
94.0100

> <Gold.Chemscore.Internal_Hbond>
0.0000

> <Gold.Chemscore.DEClash>
0.0106

> <Gold.Chemscore.DEInternal>
2.2711

> <Gold.Chemscore.Rot>
1.4742

> <Gold.Chemscore.Internal.Correction>
   9.000000E+99

> <Gold.Chemscore.Hbonds>
donor molecule, donor type, donor heavy atom, donor atom, acceptor molecule, acceptor atom, score
      P1  H  7997  8008       L1    17  1.00

> <Gold.Chemscore.Hbond.Weighted>
-3.3400

> <Gold.Chemscore.Metal.Weighted>
-0.0000

> <Gold.Chemscore.Lipo.Weighted>
-10.9992

> <Gold.Chemscore.Internal_Hbond.Weighted>
0.0000

> <Gold.Chemscore.DEClash.Weighted>
0.0106

> <Gold.Chemscore.DEInternal.Weighted>
2.2711

> <Gold.Chemscore.Rot.Weighted>
3.7740

> <Gold.Chemscore.Internal.Correction.Weighted>
   9.000000E+99

> <Gold.Protein.RotatedTorsions>
[ 6907 6896 6895 6894 ] final  -46.47 input  -60.11 | X-H torsion
[ 7974 7965 7964 7962 ] final -136.60 input  175.53 | X-H torsion
[ 8008 7997 7996 7995 ] final  -46.74 input   59.86 | X-H torsion
[ 10167 10162 10161 10158 ] final  148.02 input  -65.29 | X-H torsion
[ 10718 10713 10712 10709 ] final -157.83 input   66.30 | X-H torsion
[ 10763 10752 10751 10750 ] final  133.17 input  -60.55 | X-H torsion
[ 11005 11000 10999 10996 ] final -115.18 input  -57.11 | X-H torsion

> <Gold.Protein.ActiveResidues>
 VAL166  LYS551  ARG553  GLY616  TRP617  ASP618  TYR619  PRO620  LYS621  CYS622 
 ASP623  PHE694  ASN695  SER759  ASP760  ASP761  ALA762  ILE779  LEU786  VAL792 
 PHE793  MET794  SER795  GLU796  ALA797  LYS798  CYS799  TRP800  GLU811  SER814 

> <Gold.Protein.RotatedAtoms>
  150.9110  134.8526  159.7424 H   0  0  0  0  0  0  0  0  0  0  0  0  # atno 6907 bound_to 6896
  152.4944  134.4360  159.9538 H   0  0  0  0  0  0  0  0  0  0  0  0  # atno 6908 bound_to 6896
  151.4402  133.3606  159.2816 H   0  0  0  0  0  0  0  0  0  0  0  0  # atno 6909 bound_to 6896
  144.8913  140.6646  143.5143 H   0  0  0  0  0  0  0  0  0  0  0  0  # atno 7974 bound_to 7965
  154.4010  140.1364  156.4061 H   0  0  0  0  0  0  0  0  0  0  0  0  # atno 8008 bound_to 7997
  155.7778  140.3482  155.5261 H   0  0  0  0  0  0  0  0  0  0  0  0  # atno 8009 bound_to 7997
  155.8703  140.0971  157.1545 H   0  0  0  0  0  0  0  0  0  0  0  0  # atno 8010 bound_to 7997
  139.4881  144.5711  151.7052 H   0  0  0  0  0  0  0  0  0  0  0  0  # atno 10167 bound_to 10162
  156.5457  130.8583  151.2763 H   0  0  0  0  0  0  0  0  0  0  0  0  # atno 10718 bound_to 10713
  153.8028  135.3139  155.3392 H   0  0  0  0  0  0  0  0  0  0  0  0  # atno 10763 bound_to 10752
  154.8082  135.4684  154.0451 H   0  0  0  0  0  0  0  0  0  0  0  0  # atno 10764 bound_to 10752
  153.1804  135.6892  153.8574 H   0  0  0  0  0  0  0  0  0  0  0  0  # atno 10765 bound_to 10752
  141.0504  133.9696  157.2845 H   0  0  0  0  0  0  0  0  0  0  0  0  # atno 11005 bound_to 11000
  145.3778  139.1644  143.4297 LP  0  0  0  0  0  0  0  0  0  0  0  0  # atno 17320 bound_to 7965
  146.3055  140.3856  142.8688 LP  0  0  0  0  0  0  0  0  0  0  0  0  # atno 17321 bound_to 7965
  140.5299  144.0747  150.6050 LP  0  0  0  0  0  0  0  0  0  0  0  0  # atno 17342 bound_to 10162
  140.3734  143.2842  152.0253 LP  0  0  0  0  0  0  0  0  0  0  0  0  # atno 17343 bound_to 10162
  157.7397  130.9836  150.2331 LP  0  0  0  0  0  0  0  0  0  0  0  0  # atno 17370 bound_to 10713
  156.2931  130.3748  149.7822 LP  0  0  0  0  0  0  0  0  0  0  0  0  # atno 17371 bound_to 10713
  139.9346  135.0197  156.8513 LP  0  0  0  0  0  0  0  0  0  0  0  0  # atno 17394 bound_to 11000
  140.6066  134.0122  155.7559 LP  0  0  0  0  0  0  0  0  0  0  0  0  # atno 17395 bound_to 11000

$$$$
