AV-unprocessed.smi:2256|AV-procd|sdf|9127|dock2
  -GOLD-   2272012333D 1   1.00000     0.00000
 Structure written by MMmdl.
 42 44  0  0  0  0  0  0  0  0  1 V2000
  152.3636  137.8441  157.1735 C   0  0  0  0  0  0  0  0  0  0  0  0
  151.3174  136.8303  156.7453 C   0  0  0  0  0  0  0  0  0  0  0  0
  151.4073  136.3920  155.4209 N   0  0  0  0  0  0  0  0  0  0  0  0
  150.5610  135.5248  154.9699 C   0  0  0  0  0  0  0  0  0  0  0  0
  149.5410  134.9994  155.7795 N   0  0  0  0  0  0  0  0  0  0  0  0
  148.6445  134.0195  155.1441 C   0  0  0  0  0  0  0  0  0  0  0  0
  149.3869  133.1348  154.1175 C   0  0  1  0  0  0  0  0  0  0  0  0
  150.2405  132.2231  154.7791 O   0  0  0  0  0  0  0  0  0  0  0  0
  148.4381  132.3194  153.2231 C   0  0  0  0  0  0  0  0  0  0  0  0
  147.6043  133.1980  152.4771 O   0  0  0  0  0  0  0  0  0  0  0  0
  146.5022  132.6743  151.8349 C   0  0  0  0  0  0  0  0  0  0  0  0
  146.2911  131.2849  151.6349 C   0  0  0  0  0  0  0  0  0  0  0  0
  145.1412  130.8184  150.9698 C   0  0  0  0  0  0  0  0  0  0  0  0
  144.1853  131.7315  150.4948 C   0  0  0  0  0  0  0  0  0  0  0  0
  144.3928  133.1068  150.6923 C   0  0  0  0  0  0  0  0  0  0  0  0
  143.6479  134.2174  150.3469 N   0  0  0  0  0  0  0  0  0  0  0  0
  144.2773  135.3769  150.7639 C   0  0  0  0  0  0  0  0  0  0  0  0
  145.4491  135.0441  151.3921 C   0  0  0  0  0  0  0  0  0  0  0  0
  145.5477  133.6094  151.3617 C   0  0  0  0  0  0  0  0  0  0  0  0
  149.3702  135.3866  157.0767 C   0  0  0  0  0  0  0  0  0  0  0  0
  148.4545  134.9398  157.7703 O   0  0  0  0  0  0  0  0  0  0  0  0
  150.3462  136.3670  157.5788 C   0  0  0  0  0  0  0  0  0  0  0  0
  150.1998  136.8064  159.0304 C   0  0  0  0  0  0  0  0  0  0  0  0
  142.7638  134.2137  149.8586 H   0  0  0  0  0  0  0  0  0  0  0  0
  152.9664  137.4495  157.9917 H   0  0  0  0  0  0  0  0  0  0  0  0
  151.8874  138.7674  157.5039 H   0  0  0  0  0  0  0  0  0  0  0  0
  153.0366  138.0925  156.3520 H   0  0  0  0  0  0  0  0  0  0  0  0
  150.5836  135.1543  153.9435 H   0  0  0  0  0  0  0  0  0  0  0  0
  148.1250  133.4014  155.8795 H   0  0  0  0  0  0  0  0  0  0  0  0
  147.8426  134.5620  154.6396 H   0  0  0  0  0  0  0  0  0  0  0  0
  150.0096  133.7507  153.4675 H   0  0  0  0  0  0  0  0  0  0  0  0
  149.7994  131.9102  155.5544 H   0  0  0  0  0  0  0  0  0  0  0  0
  149.0372  131.7249  152.5315 H   0  0  0  0  0  0  0  0  0  0  0  0
  147.8451  131.6294  153.8260 H   0  0  0  0  0  0  0  0  0  0  0  0
  147.0007  130.5505  151.9842 H   0  0  0  0  0  0  0  0  0  0  0  0
  144.9943  129.7582  150.8248 H   0  0  0  0  0  0  0  0  0  0  0  0
  143.3011  131.3796  149.9841 H   0  0  0  0  0  0  0  0  0  0  0  0
  143.8386  136.3464  150.5790 H   0  0  0  0  0  0  0  0  0  0  0  0
  146.1686  135.7200  151.8300 H   0  0  0  0  0  0  0  0  0  0  0  0
  149.2258  137.2707  159.1858 H   0  0  0  0  0  0  0  0  0  0  0  0
  150.9579  137.5235  159.3408 H   0  0  0  0  0  0  0  0  0  0  0  0
  150.2738  135.9443  159.6938 H   0  0  0  0  0  0  0  0  0  0  0  0
  1  2  1  0  0  0  0
  1 25  1  0  0  0  0
  1 26  1  0  0  0  0
  1 27  1  0  0  0  0
  2 22  2  0  0  0  0
  2  3  1  0  0  0  0
  3  4  2  0  0  0  0
  4  5  1  0  0  0  0
  4 28  1  0  0  0  0
  5  6  1  0  0  0  0
  5 20  1  0  0  0  0
  6  7  1  0  0  0  0
  6 29  1  0  0  0  0
  6 30  1  0  0  0  0
  7  8  1  0  0  0  0
  7  9  1  0  0  0  0
  7 31  1  0  0  0  0
  8 32  1  0  0  0  0
  9 10  1  0  0  0  0
  9 33  1  0  0  0  0
  9 34  1  0  0  0  0
 10 11  1  0  0  0  0
 11 19  1  0  0  0  0
 11 12  2  0  0  0  0
 12 13  1  0  0  0  0
 12 35  1  0  0  0  0
 13 14  2  0  0  0  0
 13 36  1  0  0  0  0
 14 15  1  0  0  0  0
 14 37  1  0  0  0  0
 15 19  2  0  0  0  0
 15 16  1  0  0  0  0
 16 24  1  0  0  0  0
 16 17  1  0  0  0  0
 17 18  2  0  0  0  0
 17 38  1  0  0  0  0
 18 19  1  0  0  0  0
 18 39  1  0  0  0  0
 20 21  2  0  0  0  0
 20 22  1  0  0  0  0
 22 23  1  0  0  0  0
 23 40  1  0  0  0  0
 23 41  1  0  0  0  0
 23 42  1  0  0  0  0
M  END
> <s_m_source_file>
AV-unprocessed.smi

> <i_m_source_file_index>
2256

> <i_lp_mmshare_version>
43012

> <i_f3d_flags>
0

> <s_epik_input>
W0NIM11jMW5bY0hdbihjKD1PKWMxW0NIM10pW0NIMl1bQ0BIXShbT0hdKVtDSDJdT2MoW2NIXVtjSF1bY0hdMiljKGMyMylbY0hdW2NIXVtuSF0z

> <s_epik_cmdline>
J2VwaWtfcHl0aG9uJywgJy1waCcsICc3LjAnLCAnLXRuJywgJzgnLCAnLW1hJywgJzIwMCcsICctbWV0YWxfYmluZGluZycsICctaW1hZScsICc8aW5maWxlLm1hZT4nLCAnLW9tYWUnLCAnPG91dGZpbGUubWFlPic=

> <r_lp_tautomer_probability>
1

> <r_epik_Ionization_Penalty>
4.18314e-05

> <r_epik_Ionization_Penalty_Charging>
1.04093e-07

> <r_epik_Ionization_Penalty_Neutral>
4.17273e-05

> <r_epik_State_Penalty>
-0

> <r_epik_Charging_Adjusted_Penalty>
1.04093e-07

> <i_epik_Tot_Q>
0

> <i_epik_Tot_abs_Q>
0

> <r_epik_Metal_State_Penalty>
-0

> <b_epik_Metal_Only>
0

> <s_lp_Force_Field>
OPLS_2005

> <r_lp_Energy>
26.3199

> <b_lp_Chiralities_Consistent>
1

> <s_lp_Variant>
AV-unprocessed.smi:2256-2

> <Gold.Version>
5.8.1

> <Gold.Id.Protein>
6NUR|6NUR_protein|mol2

> <Gold.PLP.Fitness>
47.2520

> <Gold.PLP.PLP>
-38.3730

> <Gold.PLP.part.hbond>
-2.0000

> <Gold.PLP.part.metal>
0.0000

> <Gold.PLP.part.buried>
-5.8186

> <Gold.PLP.part.nonpolar>
-30.3953

> <Gold.PLP.part.repulsive>
0.3326

> <Gold.PLP.ligand.clash>
0.0000

> <Gold.PLP.ligand.torsion>
0.6396

> <Gold.PLP.Chemscore.Hbond>
1.9000

> <Gold.PLP.Chemscore.CHOScore>
1.4255

> <Gold.PLP.Chemscore.Metal>
0.0000

> <Gold.Chemscore.Hbonds>
donor molecule, donor type, donor heavy atom, donor atom, acceptor molecule, acceptor atom, score
      L1  H    16    24       P1 10186  1.00
      P1  H 10752 10763       L1     3  0.75
      L1  C     4    28       P1  7949  0.26
      L1  C    17    38       P1 10171  1.00

> <Gold.PLP.Chemscore.Internal.Correction>
0.1818

> <Gold.Rescore>
     Score         DG    S(hbond)    S(metal)    S(lipo)     H(rot)  DE(clash)    DE(int)     intcor
     12.81     -13.49       1.23        0.00      89.92       2.58       0.02       0.66       ----

> <Gold.Chemscore.Fitness>
12.8113

> <Gold.Chemscore.DG>
-13.4938

> <Gold.Chemscore.ZeroCoef>
-5.4800

> <Gold.Chemscore.Hbond>
1.2273

> <Gold.Chemscore.Metal>
0.0000

> <Gold.Chemscore.Lipo>
89.9182

> <Gold.Chemscore.Internal_Hbond>
0.0000

> <Gold.Chemscore.DEClash>
0.0240

> <Gold.Chemscore.DEInternal>
0.6584

> <Gold.Chemscore.Rot>
2.5804

> <Gold.Chemscore.Internal.Correction>
   9.000000E+99

> <Gold.Chemscore.Hbonds>
donor molecule, donor type, donor heavy atom, donor atom, acceptor molecule, acceptor atom, score
      L1  H    16    24       P1 10186  0.98
      P1  H 10752 10763       L1     3  0.09

> <Gold.Chemscore.Hbond.Weighted>
-4.0993

> <Gold.Chemscore.Metal.Weighted>
-0.0000

> <Gold.Chemscore.Lipo.Weighted>
-10.5204

> <Gold.Chemscore.Internal_Hbond.Weighted>
0.0000

> <Gold.Chemscore.DEClash.Weighted>
0.0240

> <Gold.Chemscore.DEInternal.Weighted>
0.6584

> <Gold.Chemscore.Rot.Weighted>
6.6059

> <Gold.Chemscore.Internal.Correction.Weighted>
   9.000000E+99

> <Gold.Protein.RotatedTorsions>
[ 6907 6896 6895 6894 ] final -114.77 input  -60.11 | X-H torsion
[ 7974 7965 7964 7962 ] final   98.32 input  175.53 | X-H torsion
[ 8008 7997 7996 7995 ] final  -78.95 input   59.86 | X-H torsion
[ 10167 10162 10161 10158 ] final  124.89 input  -65.29 | X-H torsion
[ 10718 10713 10712 10709 ] final  -71.98 input   66.30 | X-H torsion
[ 10763 10752 10751 10750 ] final   55.03 input  -60.55 | X-H torsion
[ 11005 11000 10999 10996 ] final   65.18 input  -57.11 | X-H torsion

> <Gold.Protein.ActiveResidues>
 VAL166  LYS551  ARG553  GLY616  TRP617  ASP618  TYR619  PRO620  LYS621  CYS622 
 ASP623  PHE694  ASN695  SER759  ASP760  ASP761  ALA762  ILE779  LEU786  VAL792 
 PHE793  MET794  SER795  GLU796  ALA797  LYS798  CYS799  TRP800  GLU811  SER814 

> <Gold.Protein.RotatedAtoms>
  150.7927  133.8754  159.3270 H   0  0  0  0  0  0  0  0  0  0  0  0  # atno 6907 bound_to 6896
  151.6588  135.0990  160.0185 H   0  0  0  0  0  0  0  0  0  0  0  0  # atno 6908 bound_to 6896
  152.4003  133.6769  159.6346 H   0  0  0  0  0  0  0  0  0  0  0  0  # atno 6909 bound_to 6896
  145.4138  139.2330  143.3234 H   0  0  0  0  0  0  0  0  0  0  0  0  # atno 7974 bound_to 7965
  154.5739  140.0686  156.9004 H   0  0  0  0  0  0  0  0  0  0  0  0  # atno 8008 bound_to 7997
  155.2585  140.3357  155.4257 H   0  0  0  0  0  0  0  0  0  0  0  0  # atno 8009 bound_to 7997
  156.2139  140.1770  156.7619 H   0  0  0  0  0  0  0  0  0  0  0  0  # atno 8010 bound_to 7997
  139.5716  144.6942  151.3763 H   0  0  0  0  0  0  0  0  0  0  0  0  # atno 10167 bound_to 10162
  156.0339  130.4362  150.2524 H   0  0  0  0  0  0  0  0  0  0  0  0  # atno 10718 bound_to 10713
  152.9811  135.5724  154.5000 H   0  0  0  0  0  0  0  0  0  0  0  0  # atno 10763 bound_to 10752
  154.4521  135.2779  155.1775 H   0  0  0  0  0  0  0  0  0  0  0  0  # atno 10764 bound_to 10752
  154.3399  135.6231  153.5645 H   0  0  0  0  0  0  0  0  0  0  0  0  # atno 10765 bound_to 10752
  139.9911  134.6590  156.0090 H   0  0  0  0  0  0  0  0  0  0  0  0  # atno 11005 bound_to 11000
  146.2691  140.4853  142.8821 LP  0  0  0  0  0  0  0  0  0  0  0  0  # atno 17320 bound_to 7965
  144.8291  140.6677  143.6303 LP  0  0  0  0  0  0  0  0  0  0  0  0  # atno 17321 bound_to 7965
  140.7000  143.7655  150.7388 LP  0  0  0  0  0  0  0  0  0  0  0  0  # atno 17342 bound_to 10162
  140.1162  143.4653  152.2340 LP  0  0  0  0  0  0  0  0  0  0  0  0  # atno 17343 bound_to 10162
  157.0625  131.0094  151.3218 LP  0  0  0  0  0  0  0  0  0  0  0  0  # atno 17370 bound_to 10713
  157.5060  130.7909  149.7654 LP  0  0  0  0  0  0  0  0  0  0  0  0  # atno 17371 bound_to 10713
  141.1566  133.6542  156.4183 LP  0  0  0  0  0  0  0  0  0  0  0  0  # atno 17394 bound_to 11000
  140.4907  134.6578  157.5209 LP  0  0  0  0  0  0  0  0  0  0  0  0  # atno 17395 bound_to 11000

$$$$
