AV-unprocessed.smi:1389|AV-procd|sdf|5655|dock4
  -GOLD-   22720 5283D 1   1.00000     0.00000
 Structure written by MMmdl.
 52 54  0  0  0  0  0  0  0  0  4 V2000
  147.4682  135.2172  158.0276 C   0  0  0  0  0  0  0  0  0  0  0  0
  148.2332  135.7476  159.2634 C   0  0  1  0  0  0  0  0  0  0  0  0
  148.6685  137.2328  159.1297 C   0  0  0  0  0  0  0  0  0  0  0  0
  150.0528  137.3285  158.6538 N   0  5  0  0  0  0  0  0  0  0  0  0
  150.8220  138.4476  158.7259 C   0  0  0  0  0  0  0  0  0  0  0  0
  151.9543  138.5566  159.2100 O   0  0  0  0  0  0  0  0  0  0  0  0
  150.2150  139.5147  158.1795 N   0  0  0  0  0  0  0  0  0  0  0  0
  150.7396  140.8234  157.9921 C   0  0  0  0  0  0  0  0  0  0  0  0
  151.7477  141.3331  158.8490 C   0  0  0  0  0  0  0  0  0  0  0  0
  152.1997  142.6566  158.6915 C   0  0  0  0  0  0  0  0  0  0  0  0
  151.6225  143.4570  157.6904 C   0  0  0  0  0  0  0  0  0  0  0  0
  150.6541  142.9472  156.9013 N   0  3  0  0  0  0  0  0  0  0  0  0
  150.1881  141.6763  156.9935 C   0  0  0  0  0  0  0  0  0  0  0  0
  149.1783  141.2736  156.0902 N   0  0  0  0  0  0  0  0  0  0  0  0
  147.8071  141.7413  156.2577 C   0  0  0  0  0  0  0  0  0  0  0  0
  147.1162  141.4248  154.9342 C   0  0  0  0  0  0  0  0  0  0  0  0
  148.2349  141.6441  153.9200 C   0  0  0  0  0  0  0  0  0  0  0  0
  149.4944  141.1935  154.6670 C   0  0  0  0  0  0  0  0  0  0  0  0
  147.5086  135.5117  160.5516 N   0  3  0  0  0  0  0  0  0  0  0  0
  147.4003  134.0999  161.0116 C   0  0  0  0  0  0  0  0  0  0  0  0
  146.4794  134.0183  162.2391 C   0  0  0  0  0  0  0  0  0  0  0  0
  146.9906  134.8541  163.2708 O   0  0  0  0  0  0  0  0  0  0  0  0
  147.0372  136.2205  162.8774 C   0  0  0  0  0  0  0  0  0  0  0  0
  147.9646  136.3835  161.6614 C   0  0  0  0  0  0  0  0  0  0  0  0
  148.0762  135.2733  157.1226 H   0  0  0  0  0  0  0  0  0  0  0  0
  146.5452  135.7663  157.8326 H   0  0  0  0  0  0  0  0  0  0  0  0
  147.2024  134.1679  158.1587 H   0  0  0  0  0  0  0  0  0  0  0  0
  149.1602  135.1734  159.3041 H   0  0  0  0  0  0  0  0  0  0  0  0
  147.9738  137.7526  158.4687 H   0  0  0  0  0  0  0  0  0  0  0  0
  148.5592  137.7191  160.0991 H   0  0  0  0  0  0  0  0  0  0  0  0
  149.3366  139.3246  157.7197 H   0  0  0  0  0  0  0  0  0  0  0  0
  152.1659  140.7294  159.6405 H   0  0  0  0  0  0  0  0  0  0  0  0
  152.9686  143.0545  159.3375 H   0  0  0  0  0  0  0  0  0  0  0  0
  151.9000  144.4836  157.5000 H   0  0  0  0  0  0  0  0  0  0  0  0
  147.3178  141.2478  157.0981 H   0  0  0  0  0  0  0  0  0  0  0  0
  147.7886  142.8181  156.4310 H   0  0  0  0  0  0  0  0  0  0  0  0
  146.7990  140.3810  154.9174 H   0  0  0  0  0  0  0  0  0  0  0  0
  146.2418  142.0498  154.7504 H   0  0  0  0  0  0  0  0  0  0  0  0
  148.0785  141.1017  152.9872 H   0  0  0  0  0  0  0  0  0  0  0  0
  148.3092  142.7063  153.6827 H   0  0  0  0  0  0  0  0  0  0  0  0
  150.3552  141.8080  154.3992 H   0  0  0  0  0  0  0  0  0  0  0  0
  149.7261  140.1575  154.4169 H   0  0  0  0  0  0  0  0  0  0  0  0
  147.0048  133.4668  160.2169 H   0  0  0  0  0  0  0  0  0  0  0  0
  148.3849  133.7118  161.2748 H   0  0  0  0  0  0  0  0  0  0  0  0
  145.4603  134.3132  161.9835 H   0  0  0  0  0  0  0  0  0  0  0  0
  146.4327  132.9930  162.6062 H   0  0  0  0  0  0  0  0  0  0  0  0
  146.0318  136.5787  162.6495 H   0  0  0  0  0  0  0  0  0  0  0  0
  147.4051  136.8164  163.7128 H   0  0  0  0  0  0  0  0  0  0  0  0
  148.9915  136.1319  161.9299 H   0  0  0  0  0  0  0  0  0  0  0  0
  147.9593  137.4271  161.3441 H   0  0  0  0  0  0  0  0  0  0  0  0
  146.5643  135.8129  160.3522 H   0  0  0  0  0  0  0  0  0  0  0  0
  150.2538  143.5528  156.1849 H   0  0  0  0  0  0  0  0  0  0  0  0
  1  2  1  0  0  0  0
  1 25  1  0  0  0  0
  1 26  1  0  0  0  0
  1 27  1  0  0  0  0
  2  3  1  0  0  0  0
  2 19  1  0  0  0  0
  2 28  1  0  0  0  0
  3  4  1  0  0  0  0
  3 29  1  0  0  0  0
  3 30  1  0  0  0  0
  4  5  1  0  0  0  0
  5  6  2  0  0  0  0
  5  7  1  0  0  0  0
  7  8  1  0  0  0  0
  7 31  1  0  0  0  0
  8 13  1  0  0  0  0
  8  9  2  0  0  0  0
  9 10  1  0  0  0  0
  9 32  1  0  0  0  0
 10 11  2  0  0  0  0
 10 33  1  0  0  0  0
 11 12  1  0  0  0  0
 11 34  1  0  0  0  0
 12 13  2  0  0  0  0
 12 52  1  0  0  0  0
 13 14  1  0  0  0  0
 14 18  1  0  0  0  0
 14 15  1  0  0  0  0
 15 16  1  0  0  0  0
 15 35  1  0  0  0  0
 15 36  1  0  0  0  0
 16 17  1  0  0  0  0
 16 37  1  0  0  0  0
 16 38  1  0  0  0  0
 17 18  1  0  0  0  0
 17 39  1  0  0  0  0
 17 40  1  0  0  0  0
 18 41  1  0  0  0  0
 18 42  1  0  0  0  0
 19 24  1  0  0  0  0
 19 20  1  0  0  0  0
 19 51  1  0  0  0  0
 20 21  1  0  0  0  0
 20 43  1  0  0  0  0
 20 44  1  0  0  0  0
 21 22  1  0  0  0  0
 21 45  1  0  0  0  0
 21 46  1  0  0  0  0
 22 23  1  0  0  0  0
 23 24  1  0  0  0  0
 23 47  1  0  0  0  0
 23 48  1  0  0  0  0
 24 49  1  0  0  0  0
 24 50  1  0  0  0  0
M  CHG  1   4  -1
M  CHG  1  12   1
M  CHG  1  19   1
M  END
> <s_m_source_file>
AV-unprocessed.smi

> <i_m_source_file_index>
1389

> <i_lp_mmshare_version>
43012

> <i_f3d_flags>
0

> <s_epik_input>
W0NIMl0xW0NIMl1PW0NIMl1bQ0gyXU4xW0NASF0oW0NIM10pW0NIMl1bTkhdQyg9TylbTkhdYzJbY0hdW2NIXVtjSF1uYzJOM1tDSDJdW0NIMl1bQ0gyXVtDSDJdMw==

> <s_epik_cmdline>
J2VwaWtfcHl0aG9uJywgJy1waCcsICc3LjAnLCAnLXRuJywgJzgnLCAnLW1hJywgJzIwMCcsICctbWV0YWxfYmluZGluZycsICctaW1hZScsICc8aW5maWxlLm1hZT4nLCAnLW9tYWUnLCAnPG91dGZpbGUubWFlPic=

> <r_lp_tautomer_probability>
0.999994

> <r_epik_Ionization_Penalty>
8.58362

> <r_epik_Ionization_Penalty_Charging>
8.58361

> <r_epik_Ionization_Penalty_Neutral>
3.55275e-06

> <r_epik_State_Penalty>
8.57766

> <r_epik_Charging_Adjusted_Penalty>
17.1613

> <i_epik_Tot_Q>
1

> <i_epik_Tot_abs_Q>
3

> <r_epik_Metal_State_Penalty>
4.57399

> <b_epik_Metal_Only>
1

> <s_lp_Force_Field>
OPLS_2005

> <r_lp_Energy>
47.3553

> <b_lp_Chiralities_Consistent>
1

> <s_lp_Variant>
AV-unprocessed.smi:1389-10

> <Gold.Version>
5.8.1

> <Gold.Id.Protein>
6NUR|6NUR_protein|mol2

> <Gold.PLP.Fitness>
45.5400

> <Gold.PLP.PLP>
-42.4990

> <Gold.PLP.part.hbond>
-2.5474

> <Gold.PLP.part.metal>
0.0000

> <Gold.PLP.part.buried>
-6.3898

> <Gold.PLP.part.nonpolar>
-33.8138

> <Gold.PLP.part.repulsive>
0.3963

> <Gold.PLP.ligand.clash>
0.0000

> <Gold.PLP.ligand.torsion>
1.8504

> <Gold.PLP.Chemscore.Hbond>
2.0000

> <Gold.PLP.Chemscore.CHOScore>
0.0000

> <Gold.PLP.Chemscore.Metal>
0.0000

> <Gold.Chemscore.Hbonds>
donor molecule, donor type, donor heavy atom, donor atom, acceptor molecule, acceptor atom, score
      L1  H    12    52       P1  8028  1.95

> <Gold.PLP.Chemscore.Internal.Correction>
0.7419

> <Gold.Rescore>
     Score         DG    S(hbond)    S(metal)    S(lipo)     H(rot)  DE(clash)    DE(int)     intcor
     13.16     -16.27       0.95        0.00     100.79       1.63       0.05       3.06       ----

> <Gold.Chemscore.Fitness>
13.1636

> <Gold.Chemscore.DG>
-16.2722

> <Gold.Chemscore.ZeroCoef>
-5.4800

> <Gold.Chemscore.Hbond>
0.9505

> <Gold.Chemscore.Metal>
0.0000

> <Gold.Chemscore.Lipo>
100.7884

> <Gold.Chemscore.Internal_Hbond>
0.0000

> <Gold.Chemscore.DEClash>
0.0468

> <Gold.Chemscore.DEInternal>
3.0618

> <Gold.Chemscore.Rot>
1.6307

> <Gold.Chemscore.Internal.Correction>
   9.000000E+99

> <Gold.Chemscore.Hbonds>
donor molecule, donor type, donor heavy atom, donor atom, acceptor molecule, acceptor atom, score
      L1  H    12    52       P1  8028  0.93

> <Gold.Chemscore.Hbond.Weighted>
-3.1745

> <Gold.Chemscore.Metal.Weighted>
-0.0000

> <Gold.Chemscore.Lipo.Weighted>
-11.7922

> <Gold.Chemscore.Internal_Hbond.Weighted>
0.0000

> <Gold.Chemscore.DEClash.Weighted>
0.0468

> <Gold.Chemscore.DEInternal.Weighted>
3.0618

> <Gold.Chemscore.Rot.Weighted>
4.1746

> <Gold.Chemscore.Internal.Correction.Weighted>
   9.000000E+99

> <Gold.Protein.RotatedTorsions>
[ 6907 6896 6895 6894 ] final  110.66 input  -60.11 | X-H torsion
[ 7974 7965 7964 7962 ] final -170.43 input  175.53 | X-H torsion
[ 8008 7997 7996 7995 ] final -144.69 input   59.86 | X-H torsion
[ 10167 10162 10161 10158 ] final  -31.31 input  -65.29 | X-H torsion
[ 10718 10713 10712 10709 ] final -173.15 input   66.30 | X-H torsion
[ 10763 10752 10751 10750 ] final  -70.78 input  -60.55 | X-H torsion
[ 11005 11000 10999 10996 ] final -135.14 input  -57.11 | X-H torsion

> <Gold.Protein.ActiveResidues>
 VAL166  LYS551  ARG553  GLY616  TRP617  ASP618  TYR619  PRO620  LYS621  CYS622 
 ASP623  PHE694  ASN695  SER759  ASP760  ASP761  ALA762  ILE779  LEU786  VAL792 
 PHE793  MET794  SER795  GLU796  ALA797  LYS798  CYS799  TRP800  GLU811  SER814 

> <Gold.Protein.RotatedAtoms>
  152.5009  133.8769  159.7326 H   0  0  0  0  0  0  0  0  0  0  0  0  # atno 6907 bound_to 6896
  150.9241  133.6836  159.2832 H   0  0  0  0  0  0  0  0  0  0  0  0  # atno 6908 bound_to 6896
  151.4202  135.1001  159.9664 H   0  0  0  0  0  0  0  0  0  0  0  0  # atno 6909 bound_to 6896
  144.7170  140.2073  143.6331 H   0  0  0  0  0  0  0  0  0  0  0  0  # atno 7974 bound_to 7965
  155.5310  140.0599  157.2889 H   0  0  0  0  0  0  0  0  0  0  0  0  # atno 8008 bound_to 7997
  154.4484  140.1936  156.0539 H   0  0  0  0  0  0  0  0  0  0  0  0  # atno 8009 bound_to 7997
  156.0652  140.3267  155.7513 H   0  0  0  0  0  0  0  0  0  0  0  0  # atno 8010 bound_to 7997
  140.7238  143.3780  151.1653 H   0  0  0  0  0  0  0  0  0  0  0  0  # atno 10167 bound_to 10162
  156.7660  130.9431  151.3119 H   0  0  0  0  0  0  0  0  0  0  0  0  # atno 10718 bound_to 10713
  154.4224  135.5983  153.6018 H   0  0  0  0  0  0  0  0  0  0  0  0  # atno 10763 bound_to 10752
  152.9794  135.5955  154.3938 H   0  0  0  0  0  0  0  0  0  0  0  0  # atno 10764 bound_to 10752
  154.3766  135.2841  155.2214 H   0  0  0  0  0  0  0  0  0  0  0  0  # atno 10765 bound_to 10752
  140.8925  134.1793  157.4517 H   0  0  0  0  0  0  0  0  0  0  0  0  # atno 11005 bound_to 11000
  145.8624  139.2229  143.1709 LP  0  0  0  0  0  0  0  0  0  0  0  0  # atno 17320 bound_to 7965
  146.0161  140.8391  142.9946 LP  0  0  0  0  0  0  0  0  0  0  0  0  # atno 17321 bound_to 7965
  139.7364  143.8992  152.3036 LP  0  0  0  0  0  0  0  0  0  0  0  0  # atno 17342 bound_to 10162
  139.8799  144.7023  150.8890 LP  0  0  0  0  0  0  0  0  0  0  0  0  # atno 17343 bound_to 10162
  157.6713  130.9053  150.0046 LP  0  0  0  0  0  0  0  0  0  0  0  0  # atno 17370 bound_to 10713
  156.1308  130.3643  149.9735 LP  0  0  0  0  0  0  0  0  0  0  0  0  # atno 17371 bound_to 10713
  139.8731  134.9864  156.5325 LP  0  0  0  0  0  0  0  0  0  0  0  0  # atno 17394 bound_to 11000
  140.8329  133.8265  155.9001 LP  0  0  0  0  0  0  0  0  0  0  0  0  # atno 17395 bound_to 11000

$$$$
