AV-unprocessed.smi:1328|AV-procd|sdf|5479|dock3
  -GOLD-   22720 5 53D 1   1.00000     0.00000
 Structure written by MMmdl.
 38 39  0  0  0  0  0  0  0  0  1 V2000
  149.1210  142.1014  157.3472 C   0  0  0  0  0  0  0  0  0  0  0  0
  149.8505  141.2234  156.3714 C   0  0  0  0  0  0  0  0  0  0  0  0
  149.7610  141.4768  155.0766 N   0  0  0  0  0  0  0  0  0  0  0  0
  150.5339  140.5008  154.4406 O   0  0  0  0  0  0  0  0  0  0  0  0
  151.0674  139.6898  155.3891 C   0  0  0  0  0  0  0  0  0  0  0  0
  151.9250  138.5704  154.9039 C   0  0  0  0  0  0  0  0  0  0  0  0
  150.6756  140.0923  156.6367 C   0  0  0  0  0  0  0  0  0  0  0  0
  151.0224  139.4866  157.9723 C   0  0  0  0  0  0  0  0  0  0  0  0
  152.3227  140.1016  158.4880 C   0  0  0  0  0  0  0  0  0  0  0  0
  153.3586  139.4372  158.4886 O   0  0  0  0  0  0  0  0  0  0  0  0
  152.2472  141.3668  158.9305 N   0  0  0  0  0  0  0  0  0  0  0  0
  153.3374  142.1386  159.5234 C   0  0  2  0  0  0  0  0  0  0  0  0
  153.6291  141.5730  160.9212 C   0  0  0  0  0  0  0  0  0  0  0  0
  152.9793  143.6386  159.5742 C   0  0  2  0  0  0  0  0  0  0  0  0
  151.9168  144.0172  160.6088 C   0  0  0  0  0  0  0  0  0  0  0  0
  151.3680  145.3000  160.0290 C   0  0  0  0  0  0  0  0  0  0  0  0
  151.3651  144.9862  158.5367 C   0  0  0  0  0  0  0  0  0  0  0  0
  152.4324  144.0651  158.3274 O   0  0  0  0  0  0  0  0  0  0  0  0
  149.7737  142.8884  157.7245 H   0  0  0  0  0  0  0  0  0  0  0  0
  148.7627  141.5282  158.2021 H   0  0  0  0  0  0  0  0  0  0  0  0
  148.2545  142.5780  156.8872 H   0  0  0  0  0  0  0  0  0  0  0  0
  151.3126  137.7194  154.6053 H   0  0  0  0  0  0  0  0  0  0  0  0
  152.6095  138.2359  155.6835 H   0  0  0  0  0  0  0  0  0  0  0  0
  152.5194  138.8794  154.0441 H   0  0  0  0  0  0  0  0  0  0  0  0
  150.2326  139.6606  158.7039 H   0  0  0  0  0  0  0  0  0  0  0  0
  151.1358  138.4039  157.9057 H   0  0  0  0  0  0  0  0  0  0  0  0
  151.3488  141.8246  158.8822 H   0  0  0  0  0  0  0  0  0  0  0  0
  154.2424  142.0190  158.9251 H   0  0  0  0  0  0  0  0  0  0  0  0
  154.4648  142.0924  161.3909 H   0  0  0  0  0  0  0  0  0  0  0  0
  153.8890  140.5153  160.8698 H   0  0  0  0  0  0  0  0  0  0  0  0
  152.7644  141.6722  161.5786 H   0  0  0  0  0  0  0  0  0  0  0  0
  153.8767  144.2317  159.7589 H   0  0  0  0  0  0  0  0  0  0  0  0
  151.1303  143.2620  160.6483 H   0  0  0  0  0  0  0  0  0  0  0  0
  152.3232  144.1417  161.6129 H   0  0  0  0  0  0  0  0  0  0  0  0
  150.3812  145.5598  160.4127 H   0  0  0  0  0  0  0  0  0  0  0  0
  152.0473  146.1271  160.2395 H   0  0  0  0  0  0  0  0  0  0  0  0
  150.4306  144.5014  158.2520 H   0  0  0  0  0  0  0  0  0  0  0  0
  151.4834  145.8802  157.9239 H   0  0  0  0  0  0  0  0  0  0  0  0
  1  2  1  0  0  0  0
  1 19  1  0  0  0  0
  1 20  1  0  0  0  0
  1 21  1  0  0  0  0
  2  7  1  0  0  0  0
  2  3  2  0  0  0  0
  3  4  1  0  0  0  0
  4  5  1  0  0  0  0
  5  6  1  0  0  0  0
  5  7  2  0  0  0  0
  6 22  1  0  0  0  0
  6 23  1  0  0  0  0
  6 24  1  0  0  0  0
  7  8  1  0  0  0  0
  8  9  1  0  0  0  0
  8 25  1  0  0  0  0
  8 26  1  0  0  0  0
  9 10  2  0  0  0  0
  9 11  1  0  0  0  0
 11 12  1  0  0  0  0
 11 27  1  0  0  0  0
 12 13  1  0  0  0  0
 12 14  1  0  0  0  0
 12 28  1  0  0  0  0
 13 29  1  0  0  0  0
 13 30  1  0  0  0  0
 13 31  1  0  0  0  0
 14 18  1  0  0  0  0
 14 15  1  0  0  0  0
 14 32  1  0  0  0  0
 15 16  1  0  0  0  0
 15 33  1  0  0  0  0
 15 34  1  0  0  0  0
 16 17  1  0  0  0  0
 16 35  1  0  0  0  0
 16 36  1  0  0  0  0
 17 18  1  0  0  0  0
 17 37  1  0  0  0  0
 17 38  1  0  0  0  0
M  END
> <s_m_source_file>
AV-unprocessed.smi

> <i_m_source_file_index>
1328

> <i_lp_mmshare_version>
43012

> <i_f3d_flags>
0

> <s_epik_input>
W0NIM11jMW5vYyhbQ0gzXSljMVtDSDJdQyg9TylbTkhdW0NASF0oW0NIM10pW0NAQEhdMltDSDJdW0NIMl1bQ0gyXU8y

> <s_epik_cmdline>
J2VwaWtfcHl0aG9uJywgJy1waCcsICc3LjAnLCAnLXRuJywgJzgnLCAnLW1hJywgJzIwMCcsICctbWV0YWxfYmluZGluZycsICctaW1hZScsICc8aW5maWxlLm1hZT4nLCAnLW9tYWUnLCAnPG91dGZpbGUubWFlPic=

> <r_lp_tautomer_probability>
1

> <r_epik_Ionization_Penalty>
2.66156e-08

> <r_epik_Ionization_Penalty_Charging>
0

> <r_epik_Ionization_Penalty_Neutral>
2.66156e-08

> <r_epik_State_Penalty>
-0

> <r_epik_Charging_Adjusted_Penalty>
0

> <i_epik_Tot_Q>
0

> <i_epik_Tot_abs_Q>
0

> <r_epik_Metal_State_Penalty>
-0

> <b_epik_Metal_Only>
0

> <s_lp_Force_Field>
OPLS_2005

> <r_lp_Energy>
12.1854

> <b_lp_Chiralities_Consistent>
1

> <s_lp_Variant>
AV-unprocessed.smi:1328-1

> <Gold.Version>
5.8.1

> <Gold.Id.Protein>
6NUR|6NUR_protein|mol2

> <Gold.PLP.Fitness>
44.8452

> <Gold.PLP.PLP>
-40.4588

> <Gold.PLP.part.hbond>
-1.9644

> <Gold.PLP.part.metal>
0.0000

> <Gold.PLP.part.buried>
-6.2906

> <Gold.PLP.part.nonpolar>
-32.4049

> <Gold.PLP.part.repulsive>
0.3807

> <Gold.PLP.ligand.clash>
0.0000

> <Gold.PLP.ligand.torsion>
0.8152

> <Gold.PLP.Chemscore.Hbond>
2.0000

> <Gold.PLP.Chemscore.CHOScore>
0.0000

> <Gold.PLP.Chemscore.Metal>
0.0000

> <Gold.Chemscore.Hbonds>
donor molecule, donor type, donor heavy atom, donor atom, acceptor molecule, acceptor atom, score
      P1  H  7989  7998       L1     4  0.89
      P1  H  7997  8009       L1    10  1.00

> <Gold.PLP.Chemscore.Internal.Correction>
0.0169

> <Gold.Rescore>
     Score         DG    S(hbond)    S(metal)    S(lipo)     H(rot)  DE(clash)    DE(int)     intcor
     18.74     -19.36       1.75        0.00     101.72       1.52       0.01       0.62       ----

> <Gold.Chemscore.Fitness>
18.7357

> <Gold.Chemscore.DG>
-19.3616

> <Gold.Chemscore.ZeroCoef>
-5.4800

> <Gold.Chemscore.Hbond>
1.7548

> <Gold.Chemscore.Metal>
0.0000

> <Gold.Chemscore.Lipo>
101.7204

> <Gold.Chemscore.Internal_Hbond>
0.0000

> <Gold.Chemscore.DEClash>
0.0108

> <Gold.Chemscore.DEInternal>
0.6151

> <Gold.Chemscore.Rot>
1.5159

> <Gold.Chemscore.Internal.Correction>
   9.000000E+99

> <Gold.Chemscore.Hbonds>
donor molecule, donor type, donor heavy atom, donor atom, acceptor molecule, acceptor atom, score
      P1  H  7989  7998       L1     4  0.53
      P1  H  7997  8009       L1    10  0.88

> <Gold.Chemscore.Hbond.Weighted>
-5.8610

> <Gold.Chemscore.Metal.Weighted>
-0.0000

> <Gold.Chemscore.Lipo.Weighted>
-11.9013

> <Gold.Chemscore.Internal_Hbond.Weighted>
0.0000

> <Gold.Chemscore.DEClash.Weighted>
0.0108

> <Gold.Chemscore.DEInternal.Weighted>
0.6151

> <Gold.Chemscore.Rot.Weighted>
3.8807

> <Gold.Chemscore.Internal.Correction.Weighted>
   9.000000E+99

> <Gold.Protein.RotatedTorsions>
[ 6907 6896 6895 6894 ] final -103.16 input  -60.11 | X-H torsion
[ 7974 7965 7964 7962 ] final -169.24 input  175.53 | X-H torsion
[ 8008 7997 7996 7995 ] final  139.42 input   59.86 | X-H torsion
[ 10167 10162 10161 10158 ] final  163.40 input  -65.29 | X-H torsion
[ 10718 10713 10712 10709 ] final   25.33 input   66.30 | X-H torsion
[ 10763 10752 10751 10750 ] final  158.45 input  -60.55 | X-H torsion
[ 11005 11000 10999 10996 ] final  -36.92 input  -57.11 | X-H torsion

> <Gold.Protein.ActiveResidues>
 VAL166  LYS551  ARG553  GLY616  TRP617  ASP618  TYR619  PRO620  LYS621  CYS622 
 ASP623  PHE694  ASN695  SER759  ASP760  ASP761  ALA762  ILE779  LEU786  VAL792 
 PHE793  MET794  SER795  GLU796  ALA797  LYS798  CYS799  TRP800  GLU811  SER814 

> <Gold.Protein.RotatedAtoms>
  150.7228  134.0472  159.3785 H   0  0  0  0  0  0  0  0  0  0  0  0  # atno 6907 bound_to 6896
  151.8447  135.0576  160.0461 H   0  0  0  0  0  0  0  0  0  0  0  0  # atno 6908 bound_to 6896
  152.2835  133.5457  159.5549 H   0  0  0  0  0  0  0  0  0  0  0  0  # atno 6909 bound_to 6896
  144.7189  140.2250  143.6311 H   0  0  0  0  0  0  0  0  0  0  0  0  # atno 7974 bound_to 7965
  156.2990  140.2368  156.4234 H   0  0  0  0  0  0  0  0  0  0  0  0  # atno 8008 bound_to 7997
  154.8335  140.0432  157.1513 H   0  0  0  0  0  0  0  0  0  0  0  0  # atno 8009 bound_to 7997
  154.9181  140.3000  155.5234 H   0  0  0  0  0  0  0  0  0  0  0  0  # atno 8010 bound_to 7997
  139.4873  144.4341  151.9034 H   0  0  0  0  0  0  0  0  0  0  0  0  # atno 10167 bound_to 10162
  157.1919  130.6850  149.6153 H   0  0  0  0  0  0  0  0  0  0  0  0  # atno 10718 bound_to 10713
  154.2162  135.2784  155.2941 H   0  0  0  0  0  0  0  0  0  0  0  0  # atno 10763 bound_to 10752
  154.5738  135.5610  153.7124 H   0  0  0  0  0  0  0  0  0  0  0  0  # atno 10764 bound_to 10752
  153.0052  135.6328  154.2302 H   0  0  0  0  0  0  0  0  0  0  0  0  # atno 10765 bound_to 10752
  140.9912  133.7004  156.1853 H   0  0  0  0  0  0  0  0  0  0  0  0  # atno 11005 bound_to 11000
  145.8465  139.2154  143.1797 LP  0  0  0  0  0  0  0  0  0  0  0  0  # atno 17320 bound_to 7965
  146.0299  140.8267  142.9881 LP  0  0  0  0  0  0  0  0  0  0  0  0  # atno 17321 bound_to 7965
  140.3789  144.2761  150.5911 LP  0  0  0  0  0  0  0  0  0  0  0  0  # atno 17342 bound_to 10162
  140.5251  143.2256  151.8328 LP  0  0  0  0  0  0  0  0  0  0  0  0  # atno 17343 bound_to 10162
  155.9710  130.4612  150.6099 LP  0  0  0  0  0  0  0  0  0  0  0  0  # atno 17370 bound_to 10713
  157.3852  131.0787  151.1442 LP  0  0  0  0  0  0  0  0  0  0  0  0  # atno 17371 bound_to 10713
  140.7037  134.4536  157.5585 LP  0  0  0  0  0  0  0  0  0  0  0  0  # atno 17394 bound_to 11000
  139.8993  134.8594  156.1965 LP  0  0  0  0  0  0  0  0  0  0  0  0  # atno 17395 bound_to 11000

$$$$
