AV-unprocessed.smi:1011|AV-procd|sdf|4420|dock6
  -GOLD-   22720 2373D 1   1.00000     0.00000
 Structure written by MMmdl.
 43 45  0  0  0  0  0  0  0  0  1 V2000
  144.2651  145.4525  153.8509 C   0  0  0  0  0  0  0  0  0  0  0  0
  144.9453  144.1418  154.1223 C   0  0  0  0  0  0  0  0  0  0  0  0
  144.7000  143.2362  155.1934 C   0  0  0  0  0  0  0  0  0  0  0  0
  145.4719  142.1629  155.1467 N   0  0  0  0  0  0  0  0  0  0  0  0
  146.2344  142.3438  154.0479 N   0  0  0  0  0  0  0  0  0  0  0  0
  147.2134  141.3402  153.6791 C   0  0  0  0  0  0  0  0  0  0  0  0
  148.6437  141.8856  153.7887 C   0  0  0  0  0  0  0  0  0  0  0  0
  149.5971  140.8119  153.5632 N   0  0  0  0  0  0  0  0  0  0  0  0
  149.5741  139.8894  154.6890 C   0  0  0  0  0  0  0  0  0  0  0  0
  150.3237  140.3736  155.8982 C   0  0  0  0  0  0  0  0  0  0  0  0
  150.1062  141.5586  156.4752 N   0  0  0  0  0  0  0  0  0  0  0  0
  151.0026  141.5574  157.5258 C   0  0  0  0  0  0  0  0  0  0  0  0
  151.2604  142.5335  158.5145 C   0  0  0  0  0  0  0  0  0  0  0  0
  152.2409  142.3072  159.5030 C   0  0  0  0  0  0  0  0  0  0  0  0
  152.5425  143.5092  160.7034 Cl  0  0  0  0  0  0  0  0  0  0  0  0
  152.9765  141.1040  159.5151 C   0  0  0  0  0  0  0  0  0  0  0  0
  152.7357  140.1182  158.5386 C   0  0  0  0  0  0  0  0  0  0  0  0
  151.7543  140.3491  157.5563 C   0  0  0  0  0  0  0  0  0  0  0  0
  151.2785  139.6066  156.4807 N   0  0  0  0  0  0  0  0  0  0  0  0
  151.7330  138.2843  156.0809 C   0  0  0  0  0  0  0  0  0  0  0  0
  152.1662  138.2611  154.6088 C   0  0  0  0  0  0  0  0  0  0  0  0
  151.9133  136.9871  154.0587 O   0  0  0  0  0  0  0  0  0  0  0  0
  145.9381  143.5298  153.4104 C   0  0  0  0  0  0  0  0  0  0  0  0
  143.8728  145.9001  154.7643 H   0  0  0  0  0  0  0  0  0  0  0  0
  143.4264  145.3341  153.1649 H   0  0  0  0  0  0  0  0  0  0  0  0
  144.9465  146.1780  153.4058 H   0  0  0  0  0  0  0  0  0  0  0  0
  143.9866  143.3269  155.9992 H   0  0  0  0  0  0  0  0  0  0  0  0
  147.0837  140.4738  154.3294 H   0  0  0  0  0  0  0  0  0  0  0  0
  147.0044  141.0085  152.6608 H   0  0  0  0  0  0  0  0  0  0  0  0
  148.8029  142.6752  153.0529 H   0  0  0  0  0  0  0  0  0  0  0  0
  148.8025  142.3201  154.7767 H   0  0  0  0  0  0  0  0  0  0  0  0
  149.3475  140.3156  152.7198 H   0  0  0  0  0  0  0  0  0  0  0  0
  148.5396  139.7080  154.9830 H   0  0  0  0  0  0  0  0  0  0  0  0
  149.9957  138.9350  154.3719 H   0  0  0  0  0  0  0  0  0  0  0  0
  150.7015  143.4577  158.5112 H   0  0  0  0  0  0  0  0  0  0  0  0
  153.7264  140.9367  160.2743 H   0  0  0  0  0  0  0  0  0  0  0  0
  153.2976  139.1961  158.5457 H   0  0  0  0  0  0  0  0  0  0  0  0
  152.5654  137.9954  156.7239 H   0  0  0  0  0  0  0  0  0  0  0  0
  150.9398  137.5584  156.2625 H   0  0  0  0  0  0  0  0  0  0  0  0
  151.6237  139.0107  154.0319 H   0  0  0  0  0  0  0  0  0  0  0  0
  153.2298  138.4837  154.5160 H   0  0  0  0  0  0  0  0  0  0  0  0
  151.6330  137.0969  153.1628 H   0  0  0  0  0  0  0  0  0  0  0  0
  146.4517  143.8363  152.5111 H   0  0  0  0  0  0  0  0  0  0  0  0
  1  2  1  0  0  0  0
  1 24  1  0  0  0  0
  1 25  1  0  0  0  0
  1 26  1  0  0  0  0
  2 23  2  0  0  0  0
  2  3  1  0  0  0  0
  3  4  2  0  0  0  0
  3 27  1  0  0  0  0
  4  5  1  0  0  0  0
  5  6  1  0  0  0  0
  5 23  1  0  0  0  0
  6  7  1  0  0  0  0
  6 28  1  0  0  0  0
  6 29  1  0  0  0  0
  7  8  1  0  0  0  0
  7 30  1  0  0  0  0
  7 31  1  0  0  0  0
  8  9  1  0  0  0  0
  8 32  1  0  0  0  0
  9 10  1  0  0  0  0
  9 33  1  0  0  0  0
  9 34  1  0  0  0  0
 10 19  1  0  0  0  0
 10 11  2  0  0  0  0
 11 12  1  0  0  0  0
 12 18  2  0  0  0  0
 12 13  1  0  0  0  0
 13 14  2  0  0  0  0
 13 35  1  0  0  0  0
 14 15  1  0  0  0  0
 14 16  1  0  0  0  0
 16 17  2  0  0  0  0
 16 36  1  0  0  0  0
 17 18  1  0  0  0  0
 17 37  1  0  0  0  0
 18 19  1  0  0  0  0
 19 20  1  0  0  0  0
 20 21  1  0  0  0  0
 20 38  1  0  0  0  0
 20 39  1  0  0  0  0
 21 22  1  0  0  0  0
 21 40  1  0  0  0  0
 21 41  1  0  0  0  0
 22 42  1  0  0  0  0
 23 43  1  0  0  0  0
M  END
> <s_m_source_file>
AV-unprocessed.smi

> <i_m_source_file_index>
1011

> <i_lp_mmshare_version>
43012

> <i_f3d_flags>
0

> <s_epik_input>
W0NIM11jMVtjSF1ubihbY0hdMSlbQ0gyXVtDSDJdW05IXVtDSDJdYyhuMiluKFtDSDJdW0NIMl1bT0hdKWMoYzIzKVtjSF1bY0hdYyhDbClbY0hdMw==

> <s_epik_cmdline>
J2VwaWtfcHl0aG9uJywgJy1waCcsICc3LjAnLCAnLXRuJywgJzgnLCAnLW1hJywgJzIwMCcsICctbWV0YWxfYmluZGluZycsICctaW1hZScsICc8aW5maWxlLm1hZT4nLCAnLW9tYWUnLCAnPG91dGZpbGUubWFlPic=

> <r_lp_tautomer_probability>
1

> <r_epik_Ionization_Penalty>
0.714951

> <r_epik_Ionization_Penalty_Charging>
0

> <r_epik_Ionization_Penalty_Neutral>
0.714951

> <r_epik_State_Penalty>
0.695393

> <r_epik_Charging_Adjusted_Penalty>
0.695393

> <i_epik_Tot_Q>
0

> <i_epik_Tot_abs_Q>
0

> <r_epik_Metal_State_Penalty>
0.662708

> <b_epik_Metal_Only>
0

> <s_lp_Force_Field>
OPLS_2005

> <r_lp_Energy>
11.4797

> <b_lp_Chiralities_Consistent>
1

> <s_lp_Variant>
AV-unprocessed.smi:1011-2

> <Gold.Version>
5.8.1

> <Gold.Id.Protein>
6NUR|6NUR_protein|mol2

> <Gold.PLP.Fitness>
59.1369

> <Gold.PLP.PLP>
-50.8896

> <Gold.PLP.part.hbond>
-4.9720

> <Gold.PLP.part.metal>
0.0000

> <Gold.PLP.part.buried>
-5.4571

> <Gold.PLP.part.nonpolar>
-41.4003

> <Gold.PLP.part.repulsive>
0.2334

> <Gold.PLP.ligand.clash>
0.0000

> <Gold.PLP.ligand.torsion>
0.4246

> <Gold.PLP.Chemscore.Hbond>
2.9758

> <Gold.PLP.Chemscore.CHOScore>
0.0000

> <Gold.PLP.Chemscore.Metal>
0.0000

> <Gold.Chemscore.Hbonds>
donor molecule, donor type, donor heavy atom, donor atom, acceptor molecule, acceptor atom, score
      L1  H     8    32       P1  7957  0.98
      L1  H    22    42       P1  7949  0.76
      P1  H  7989  7998       L1     8  0.28
      P1  H 10752 10764       L1    22  1.00

> <Gold.PLP.Chemscore.Internal.Correction>
0.1692

> <Gold.Rescore>
     Score         DG    S(hbond)    S(metal)    S(lipo)     H(rot)  DE(clash)    DE(int)     intcor
     18.14     -20.27       2.28        0.00     123.50       2.84       1.49       0.65       ----

> <Gold.Chemscore.Fitness>
18.1389

> <Gold.Chemscore.DG>
-20.2746

> <Gold.Chemscore.ZeroCoef>
-5.4800

> <Gold.Chemscore.Hbond>
2.2832

> <Gold.Chemscore.Metal>
0.0000

> <Gold.Chemscore.Lipo>
123.5038

> <Gold.Chemscore.Internal_Hbond>
0.0000

> <Gold.Chemscore.DEClash>
1.4864

> <Gold.Chemscore.DEInternal>
0.6493

> <Gold.Chemscore.Rot>
2.8442

> <Gold.Chemscore.Internal.Correction>
   9.000000E+99

> <Gold.Chemscore.Hbonds>
donor molecule, donor type, donor heavy atom, donor atom, acceptor molecule, acceptor atom, score
      L1  H     8    32       P1  7957  0.91
      L1  H    22    42       P1  7949  0.69
      P1  H  7989  7998       L1     8  0.01
      P1  H 10752 10764       L1    22  0.77

> <Gold.Chemscore.Hbond.Weighted>
-7.6259

> <Gold.Chemscore.Metal.Weighted>
-0.0000

> <Gold.Chemscore.Lipo.Weighted>
-14.4499

> <Gold.Chemscore.Internal_Hbond.Weighted>
0.0000

> <Gold.Chemscore.DEClash.Weighted>
1.4864

> <Gold.Chemscore.DEInternal.Weighted>
0.6493

> <Gold.Chemscore.Rot.Weighted>
7.2812

> <Gold.Chemscore.Internal.Correction.Weighted>
   9.000000E+99

> <Gold.Protein.RotatedTorsions>
[ 6907 6896 6895 6894 ] final  163.04 input  -60.11 | X-H torsion
[ 7974 7965 7964 7962 ] final  -18.33 input  175.53 | X-H torsion
[ 8008 7997 7996 7995 ] final  -40.09 input   59.86 | X-H torsion
[ 10167 10162 10161 10158 ] final -143.90 input  -65.29 | X-H torsion
[ 10718 10713 10712 10709 ] final  -72.73 input   66.30 | X-H torsion
[ 10763 10752 10751 10750 ] final  -81.93 input  -60.55 | X-H torsion
[ 11005 11000 10999 10996 ] final  118.19 input  -57.11 | X-H torsion

> <Gold.Protein.ActiveResidues>
 VAL166  LYS551  ARG553  GLY616  TRP617  ASP618  TYR619  PRO620  LYS621  CYS622 
 ASP623  PHE694  ASN695  SER759  ASP760  ASP761  ALA762  ILE779  LEU786  VAL792 
 PHE793  MET794  SER795  GLU796  ALA797  LYS798  CYS799  TRP800  GLU811  SER814 

> <Gold.Protein.RotatedAtoms>
  151.9313  133.3612  159.3931 H   0  0  0  0  0  0  0  0  0  0  0  0  # atno 6907 bound_to 6896
  150.7016  134.4534  159.5356 H   0  0  0  0  0  0  0  0  0  0  0  0  # atno 6908 bound_to 6896
  152.2175  134.8444  160.0541 H   0  0  0  0  0  0  0  0  0  0  0  0  # atno 6909 bound_to 6896
  146.1897  140.3906  142.8462 H   0  0  0  0  0  0  0  0  0  0  0  0  # atno 7974 bound_to 7965
  154.4015  140.1534  156.2970 H   0  0  0  0  0  0  0  0  0  0  0  0  # atno 8008 bound_to 7997
  155.8734  140.3447  155.5815 H   0  0  0  0  0  0  0  0  0  0  0  0  # atno 8009 bound_to 7997
  155.7748  140.0835  157.2080 H   0  0  0  0  0  0  0  0  0  0  0  0  # atno 8010 bound_to 7997
  139.7950  143.7913  152.2653 H   0  0  0  0  0  0  0  0  0  0  0  0  # atno 10167 bound_to 10162
  156.0308  130.4378  150.2637 H   0  0  0  0  0  0  0  0  0  0  0  0  # atno 10718 bound_to 10713
  154.5696  135.5609  153.7082 H   0  0  0  0  0  0  0  0  0  0  0  0  # atno 10763 bound_to 10752
  153.0044  135.6293  154.2133 H   0  0  0  0  0  0  0  0  0  0  0  0  # atno 10764 bound_to 10752
  154.2072  135.2875  155.2950 H   0  0  0  0  0  0  0  0  0  0  0  0  # atno 10765 bound_to 10752
  139.9100  134.9618  156.7465 H   0  0  0  0  0  0  0  0  0  0  0  0  # atno 11005 bound_to 11000
  144.8464  140.6935  143.6196 LP  0  0  0  0  0  0  0  0  0  0  0  0  # atno 17320 bound_to 7965
  145.3829  139.1633  143.4270 LP  0  0  0  0  0  0  0  0  0  0  0  0  # atno 17321 bound_to 7965
  139.8016  144.7372  150.9817 LP  0  0  0  0  0  0  0  0  0  0  0  0  # atno 17342 bound_to 10162
  140.7820  143.4339  151.0652 LP  0  0  0  0  0  0  0  0  0  0  0  0  # atno 17343 bound_to 10162
  157.0739  131.0124  151.3180 LP  0  0  0  0  0  0  0  0  0  0  0  0  # atno 17370 bound_to 10713
  157.4978  130.7861  149.7574 LP  0  0  0  0  0  0  0  0  0  0  0  0  # atno 17371 bound_to 10713
  140.6808  133.9476  155.7909 LP  0  0  0  0  0  0  0  0  0  0  0  0  # atno 17394 bound_to 11000
  141.0512  134.0483  157.3781 LP  0  0  0  0  0  0  0  0  0  0  0  0  # atno 17395 bound_to 11000

$$$$
