AV-unprocessed.smi:2601|AV-procd|sdf|10183|dock6
  -GOLD-   2272014193D 1   1.00000     0.00000
 Structure written by MMmdl.
 47 48  0  0  0  0  0  0  0  0  1 V2000
  152.1835  144.0379  159.7537 C   0  0  0  0  0  0  0  0  0  0  0  0
  152.5770  142.6448  159.8468 N   0  0  0  0  0  0  0  0  0  0  0  0
  153.6181  142.3089  160.6387 N   0  0  0  0  0  0  0  0  0  0  0  0
  153.7225  140.9976  160.5157 C   0  0  0  0  0  0  0  0  0  0  0  0
  152.7479  140.4531  159.6354 C   0  0  0  0  0  0  0  0  0  0  0  0
  152.0271  141.5387  159.2209 C   0  0  0  0  0  0  0  0  0  0  0  0
  150.8568  141.6179  158.2850 C   0  0  0  0  0  0  0  0  0  0  0  0
  151.0449  142.6027  157.1141 C   0  0  0  0  0  0  0  0  0  0  0  0
  150.0194  142.4649  156.0841 N   0  0  0  0  0  0  0  0  0  0  0  0
  149.9133  141.4430  155.2187 C   0  0  0  0  0  0  0  0  0  0  0  0
  150.7074  140.5017  155.2140 O   0  0  0  0  0  0  0  0  0  0  0  0
  148.8523  141.5230  154.3786 N   0  0  0  0  0  0  0  0  0  0  0  0
  147.7846  142.5289  154.3823 C   0  0  0  0  0  0  0  0  0  0  0  0
  146.4488  141.8596  154.7786 C   0  0  0  0  0  0  0  0  0  0  0  0
  146.3837  141.5302  156.2833 C   0  0  0  0  0  0  0  0  0  0  0  0
  145.2821  142.8016  154.4390 C   0  0  0  0  0  0  0  0  0  0  0  0
  146.2125  140.6883  153.9780 O   0  0  0  0  0  0  0  0  0  0  0  0
  147.2799  139.7676  153.6904 C   0  0  0  0  0  0  0  0  0  0  0  0
  147.4820  138.7678  154.8479 C   0  0  0  0  0  0  0  0  0  0  0  0
  146.7949  138.9870  152.4580 C   0  0  0  0  0  0  0  0  0  0  0  0
  148.5776  140.5317  153.3398 C   0  0  0  0  0  0  0  0  0  0  0  0
  151.1721  144.1585  160.1421 H   0  0  0  0  0  0  0  0  0  0  0  0
  152.2054  144.3592  158.7123 H   0  0  0  0  0  0  0  0  0  0  0  0
  152.8611  144.6700  160.3294 H   0  0  0  0  0  0  0  0  0  0  0  0
  154.4982  140.4826  161.0629 H   0  0  0  0  0  0  0  0  0  0  0  0
  152.6006  139.4220  159.3502 H   0  0  0  0  0  0  0  0  0  0  0  0
  150.6581  140.6244  157.8831 H   0  0  0  0  0  0  0  0  0  0  0  0
  149.9544  141.8914  158.8308 H   0  0  0  0  0  0  0  0  0  0  0  0
  150.9892  143.6249  157.4889 H   0  0  0  0  0  0  0  0  0  0  0  0
  152.0368  142.4886  156.6749 H   0  0  0  0  0  0  0  0  0  0  0  0
  149.3250  143.1962  156.0340 H   0  0  0  0  0  0  0  0  0  0  0  0
  147.9843  143.3826  155.0304 H   0  0  0  0  0  0  0  0  0  0  0  0
  147.7077  142.9518  153.3792 H   0  0  0  0  0  0  0  0  0  0  0  0
  146.3436  142.4427  156.8786 H   0  0  0  0  0  0  0  0  0  0  0  0
  147.2518  140.9812  156.6347 H   0  0  0  0  0  0  0  0  0  0  0  0
  145.4966  140.9431  156.5221 H   0  0  0  0  0  0  0  0  0  0  0  0
  145.3647  143.7474  154.9757 H   0  0  0  0  0  0  0  0  0  0  0  0
  144.3234  142.3534  154.7022 H   0  0  0  0  0  0  0  0  0  0  0  0
  145.2541  143.0284  153.3727 H   0  0  0  0  0  0  0  0  0  0  0  0
  148.1322  137.9478  154.5417 H   0  0  0  0  0  0  0  0  0  0  0  0
  146.5333  138.3338  155.1645 H   0  0  0  0  0  0  0  0  0  0  0  0
  147.9516  139.2139  155.7190 H   0  0  0  0  0  0  0  0  0  0  0  0
  147.5367  138.2573  152.1313 H   0  0  0  0  0  0  0  0  0  0  0  0
  146.5965  139.6549  151.6191 H   0  0  0  0  0  0  0  0  0  0  0  0
  145.8716  138.4472  152.6709 H   0  0  0  0  0  0  0  0  0  0  0  0
  148.4692  141.0464  152.3836 H   0  0  0  0  0  0  0  0  0  0  0  0
  149.4006  139.8296  153.1977 H   0  0  0  0  0  0  0  0  0  0  0  0
  1  2  1  0  0  0  0
  1 22  1  0  0  0  0
  1 23  1  0  0  0  0
  1 24  1  0  0  0  0
  2  6  1  0  0  0  0
  2  3  1  0  0  0  0
  3  4  2  0  0  0  0
  4  5  1  0  0  0  0
  4 25  1  0  0  0  0
  5  6  2  0  0  0  0
  5 26  1  0  0  0  0
  6  7  1  0  0  0  0
  7  8  1  0  0  0  0
  7 27  1  0  0  0  0
  7 28  1  0  0  0  0
  8  9  1  0  0  0  0
  8 29  1  0  0  0  0
  8 30  1  0  0  0  0
  9 10  1  0  0  0  0
  9 31  1  0  0  0  0
 10 11  2  0  0  0  0
 10 12  1  0  0  0  0
 12 21  1  0  0  0  0
 12 13  1  0  0  0  0
 13 14  1  0  0  0  0
 13 32  1  0  0  0  0
 13 33  1  0  0  0  0
 14 15  1  0  0  0  0
 14 16  1  0  0  0  0
 14 17  1  0  0  0  0
 15 34  1  0  0  0  0
 15 35  1  0  0  0  0
 15 36  1  0  0  0  0
 16 37  1  0  0  0  0
 16 38  1  0  0  0  0
 16 39  1  0  0  0  0
 17 18  1  0  0  0  0
 18 19  1  0  0  0  0
 18 20  1  0  0  0  0
 18 21  1  0  0  0  0
 19 40  1  0  0  0  0
 19 41  1  0  0  0  0
 19 42  1  0  0  0  0
 20 43  1  0  0  0  0
 20 44  1  0  0  0  0
 20 45  1  0  0  0  0
 21 46  1  0  0  0  0
 21 47  1  0  0  0  0
M  END
> <s_m_source_file>
AV-unprocessed.smi

> <i_m_source_file_index>
2601

> <i_lp_mmshare_version>
43012

> <i_f3d_flags>
0

> <s_epik_input>
W0NIM11uMW5bY0hdW2NIXWMxW0NIMl1bQ0gyXVtOSF1DKD1PKU4oW0NIMl1DMihbQ0gzXSlbQ0gzXSlbQ0gyXUMoTzIpKFtDSDNdKVtDSDNd

> <s_epik_cmdline>
J2VwaWtfcHl0aG9uJywgJy1waCcsICc3LjAnLCAnLXRuJywgJzgnLCAnLW1hJywgJzIwMCcsICctbWV0YWxfYmluZGluZycsICctaW1hZScsICc8aW5maWxlLm1hZT4nLCAnLW9tYWUnLCAnPG91dGZpbGUubWFlPic=

> <r_lp_tautomer_probability>
1

> <r_epik_Ionization_Penalty>
0.00250606

> <r_epik_Ionization_Penalty_Charging>
0

> <r_epik_Ionization_Penalty_Neutral>
0.00250606

> <r_epik_State_Penalty>
0.0017149

> <r_epik_Charging_Adjusted_Penalty>
0.0017149

> <i_epik_Tot_Q>
0

> <i_epik_Tot_abs_Q>
0

> <r_epik_Metal_State_Penalty>
-0

> <b_epik_Metal_Only>
0

> <s_lp_Force_Field>
OPLS_2005

> <r_lp_Energy>
30.5553

> <b_lp_Chiralities_Consistent>
1

> <s_lp_Variant>
AV-unprocessed.smi:2601-1

> <Gold.Version>
5.8.1

> <Gold.Id.Protein>
6NUR|6NUR_protein|mol2

> <Gold.PLP.Fitness>
44.6363

> <Gold.PLP.PLP>
-38.9486

> <Gold.PLP.part.hbond>
-2.0000

> <Gold.PLP.part.metal>
0.0000

> <Gold.PLP.part.buried>
2.4566

> <Gold.PLP.part.nonpolar>
-40.8857

> <Gold.PLP.part.repulsive>
1.4887

> <Gold.PLP.ligand.clash>
0.0000

> <Gold.PLP.ligand.torsion>
0.1346

> <Gold.PLP.Chemscore.Hbond>
1.9840

> <Gold.PLP.Chemscore.CHOScore>
0.0000

> <Gold.PLP.Chemscore.Metal>
0.0000

> <Gold.Chemscore.Hbonds>
donor molecule, donor type, donor heavy atom, donor atom, acceptor molecule, acceptor atom, score
      L1  H     9    31       P1  8028  1.00
      P1  H  7989  7998       L1    11  0.94

> <Gold.PLP.Chemscore.Internal.Correction>
0.0049

> <Gold.Rescore>
     Score         DG    S(hbond)    S(metal)    S(lipo)     H(rot)  DE(clash)    DE(int)     intcor
     14.53     -16.95       1.13        0.00      94.91       1.33       2.32       0.10       ----

> <Gold.Chemscore.Fitness>
14.5308

> <Gold.Chemscore.DG>
-16.9549

> <Gold.Chemscore.ZeroCoef>
-5.4800

> <Gold.Chemscore.Hbond>
1.1306

> <Gold.Chemscore.Metal>
0.0000

> <Gold.Chemscore.Lipo>
94.9069

> <Gold.Chemscore.Internal_Hbond>
0.0000

> <Gold.Chemscore.DEClash>
2.3199

> <Gold.Chemscore.DEInternal>
0.1042

> <Gold.Chemscore.Rot>
1.3303

> <Gold.Chemscore.Internal.Correction>
   9.000000E+99

> <Gold.Chemscore.Hbonds>
donor molecule, donor type, donor heavy atom, donor atom, acceptor molecule, acceptor atom, score
      L1  H     9    31       P1  8028  0.95
      P1  H  7989  7998       L1    11  0.20

> <Gold.Chemscore.Hbond.Weighted>
-3.7763

> <Gold.Chemscore.Metal.Weighted>
-0.0000

> <Gold.Chemscore.Lipo.Weighted>
-11.1041

> <Gold.Chemscore.Internal_Hbond.Weighted>
0.0000

> <Gold.Chemscore.DEClash.Weighted>
2.3199

> <Gold.Chemscore.DEInternal.Weighted>
0.1042

> <Gold.Chemscore.Rot.Weighted>
3.4055

> <Gold.Chemscore.Internal.Correction.Weighted>
   9.000000E+99

> <Gold.Protein.RotatedTorsions>
[ 6907 6896 6895 6894 ] final -122.22 input  -60.11 | X-H torsion
[ 7974 7965 7964 7962 ] final  -76.73 input  175.53 | X-H torsion
[ 8008 7997 7996 7995 ] final   65.97 input   59.86 | X-H torsion
[ 10167 10162 10161 10158 ] final    3.40 input  -65.29 | X-H torsion
[ 10718 10713 10712 10709 ] final  -59.17 input   66.30 | X-H torsion
[ 10763 10752 10751 10750 ] final   22.93 input  -60.55 | X-H torsion
[ 11005 11000 10999 10996 ] final   81.11 input  -57.11 | X-H torsion

> <Gold.Protein.ActiveResidues>
 VAL166  LYS551  ARG553  GLY616  TRP617  ASP618  TYR619  PRO620  LYS621  CYS622 
 ASP623  PHE694  ASN695  SER759  ASP760  ASP761  ALA762  ILE779  LEU786  VAL792 
 PHE793  MET794  SER795  GLU796  ALA797  LYS798  CYS799  TRP800  GLU811  SER814 

> <Gold.Protein.RotatedAtoms>
  150.8556  133.7721  159.3009 H   0  0  0  0  0  0  0  0  0  0  0  0  # atno 6907 bound_to 6896
  151.5379  135.1067  159.9928 H   0  0  0  0  0  0  0  0  0  0  0  0  # atno 6908 bound_to 6896
  152.4587  133.7733  159.6866 H   0  0  0  0  0  0  0  0  0  0  0  0  # atno 6909 bound_to 6896
  145.6091  140.9391  143.1199 H   0  0  0  0  0  0  0  0  0  0  0  0  # atno 7974 bound_to 7965
  155.6701  140.3497  155.4815 H   0  0  0  0  0  0  0  0  0  0  0  0  # atno 8008 bound_to 7997
  155.9696  140.1153  157.0847 H   0  0  0  0  0  0  0  0  0  0  0  0  # atno 8009 bound_to 7997
  154.4163  140.1159  156.5274 H   0  0  0  0  0  0  0  0  0  0  0  0  # atno 8010 bound_to 7997
  140.6587  143.7359  150.7700 H   0  0  0  0  0  0  0  0  0  0  0  0  # atno 10167 bound_to 10162
  156.1081  130.4178  150.0678 H   0  0  0  0  0  0  0  0  0  0  0  0  # atno 10718 bound_to 10713
  153.0877  135.6638  153.9916 H   0  0  0  0  0  0  0  0  0  0  0  0  # atno 10763 bound_to 10752
  153.9521  135.2983  155.3439 H   0  0  0  0  0  0  0  0  0  0  0  0  # atno 10764 bound_to 10752
  154.7288  135.5132  153.9002 H   0  0  0  0  0  0  0  0  0  0  0  0  # atno 10765 bound_to 10752
  139.9110  134.7971  156.1997 H   0  0  0  0  0  0  0  0  0  0  0  0  # atno 11005 bound_to 11000
  144.7277  139.7822  143.7358 LP  0  0  0  0  0  0  0  0  0  0  0  0  # atno 17320 bound_to 7965
  146.1518  139.4604  143.0044 LP  0  0  0  0  0  0  0  0  0  0  0  0  # atno 17321 bound_to 7965
  140.1024  143.4775  152.2417 LP  0  0  0  0  0  0  0  0  0  0  0  0  # atno 17342 bound_to 10162
  139.5816  144.7513  151.3626 LP  0  0  0  0  0  0  0  0  0  0  0  0  # atno 17343 bound_to 10162
  156.8649  130.9504  151.3614 LP  0  0  0  0  0  0  0  0  0  0  0  0  # atno 17370 bound_to 10713
  157.6260  130.8691  149.9190 LP  0  0  0  0  0  0  0  0  0  0  0  0  # atno 17371 bound_to 10713
  141.0532  133.6878  156.1811 LP  0  0  0  0  0  0  0  0  0  0  0  0  # atno 17394 bound_to 11000
  140.6777  134.4800  157.5588 LP  0  0  0  0  0  0  0  0  0  0  0  0  # atno 17395 bound_to 11000

$$$$
