AV-unprocessed.smi:2262|AV-procd|sdf|9139|dock8
  -GOLD-   2272012343D 1   1.00000     0.00000
 Structure written by MMmdl.
 43 44  0  0  0  0  0  0  0  0  2 V2000
  144.1297  145.2362  153.8892 C   0  0  0  0  0  0  0  0  0  0  0  0
  144.5448  143.8599  154.2362 N   0  3  2  0  0  0  0  0  0  0  0  0
  144.7141  143.6723  155.6985 C   0  0  0  0  0  0  0  0  0  0  0  0
  145.0129  142.2004  156.0381 C   0  0  0  0  0  0  0  0  0  0  0  0
  146.2304  141.6619  155.2653 C   0  0  2  0  0  0  0  0  0  0  0  0
  147.4701  142.2308  155.7947 N   0  0  0  0  0  0  0  0  0  0  0  0
  148.4370  141.5335  156.4102 C   0  0  0  0  0  0  0  0  0  0  0  0
  148.3948  140.3127  156.5655 O   0  0  0  0  0  0  0  0  0  0  0  0
  149.4349  142.3364  156.8209 N   0  0  0  0  0  0  0  0  0  0  0  0
  150.6118  141.9753  157.5304 C   0  0  0  0  0  0  0  0  0  0  0  0
  151.0453  142.9113  158.4952 C   0  0  0  0  0  0  0  0  0  0  0  0
  152.2027  142.6403  159.2497 C   0  0  0  0  0  0  0  0  0  0  0  0
  152.8971  141.4391  159.0211 C   0  0  0  0  0  0  0  0  0  0  0  0
  152.4029  140.5530  158.0453 C   0  0  0  0  0  0  0  0  0  0  0  0
  153.0778  139.3709  157.8206 O   0  0  0  0  0  0  0  0  0  0  0  0
  152.4306  138.3534  157.0609 C   0  0  0  0  0  0  0  0  0  0  0  0
  152.2228  138.8609  155.6306 C   0  0  0  0  0  0  0  0  0  0  0  0
  153.2392  138.4904  154.8523 F   0  0  0  0  0  0  0  0  0  0  0  0
  151.0889  138.3702  155.1314 F   0  0  0  0  0  0  0  0  0  0  0  0
  151.2889  140.8198  157.3203 N   0  0  0  0  0  0  0  0  0  0  0  0
  146.0633  141.9435  153.7580 C   0  0  0  0  0  0  0  0  0  0  0  0
  145.7422  143.4221  153.4774 C   0  0  0  0  0  0  0  0  0  0  0  0
  144.9001  145.9586  154.1617 H   0  0  0  0  0  0  0  0  0  0  0  0
  143.2096  145.5035  154.4097 H   0  0  0  0  0  0  0  0  0  0  0  0
  143.9418  145.3231  152.8184 H   0  0  0  0  0  0  0  0  0  0  0  0
  145.5175  144.3161  156.0596 H   0  0  0  0  0  0  0  0  0  0  0  0
  143.8046  143.9839  156.2134 H   0  0  0  0  0  0  0  0  0  0  0  0
  145.1635  142.0850  157.1123 H   0  0  0  0  0  0  0  0  0  0  0  0
  144.1395  141.5961  155.7899 H   0  0  0  0  0  0  0  0  0  0  0  0
  146.2695  140.5813  155.4163 H   0  0  0  0  0  0  0  0  0  0  0  0
  147.5868  143.2301  155.7120 H   0  0  0  0  0  0  0  0  0  0  0  0
  149.3380  143.3193  156.6144 H   0  0  0  0  0  0  0  0  0  0  0  0
  150.4997  143.8293  158.6599 H   0  0  0  0  0  0  0  0  0  0  0  0
  152.5511  143.3425  159.9926 H   0  0  0  0  0  0  0  0  0  0  0  0
  153.7877  141.2008  159.5837 H   0  0  0  0  0  0  0  0  0  0  0  0
  153.0228  137.4366  157.0498 H   0  0  0  0  0  0  0  0  0  0  0  0
  151.4615  138.1224  157.5067 H   0  0  0  0  0  0  0  0  0  0  0  0
  152.1497  139.9480  155.5952 H   0  0  0  0  0  0  0  0  0  0  0  0
  146.9556  141.6433  153.2075 H   0  0  0  0  0  0  0  0  0  0  0  0
  145.2518  141.3263  153.3700 H   0  0  0  0  0  0  0  0  0  0  0  0
  145.5666  143.5570  152.4094 H   0  0  0  0  0  0  0  0  0  0  0  0
  146.5942  144.0517  153.7393 H   0  0  0  0  0  0  0  0  0  0  0  0
  143.7879  143.2535  153.9535 H   0  0  0  0  0  0  0  0  0  0  0  0
  1  2  1  0  0  0  0
  1 23  1  0  0  0  0
  1 24  1  0  0  0  0
  1 25  1  0  0  0  0
  2 22  1  0  0  0  0
  2  3  1  0  0  0  0
  2 43  1  0  0  0  0
  3  4  1  0  0  0  0
  3 26  1  0  0  0  0
  3 27  1  0  0  0  0
  4  5  1  0  0  0  0
  4 28  1  0  0  0  0
  4 29  1  0  0  0  0
  5  6  1  0  0  0  0
  5 21  1  0  0  0  0
  5 30  1  0  0  0  0
  6  7  1  0  0  0  0
  6 31  1  0  0  0  0
  7  8  2  0  0  0  0
  7  9  1  0  0  0  0
  9 10  1  0  0  0  0
  9 32  1  0  0  0  0
 10 20  1  0  0  0  0
 10 11  2  0  0  0  0
 11 12  1  0  0  0  0
 11 33  1  0  0  0  0
 12 13  2  0  0  0  0
 12 34  1  0  0  0  0
 13 14  1  0  0  0  0
 13 35  1  0  0  0  0
 14 15  1  0  0  0  0
 14 20  2  0  0  0  0
 15 16  1  0  0  0  0
 16 17  1  0  0  0  0
 16 36  1  0  0  0  0
 16 37  1  0  0  0  0
 17 18  1  0  0  0  0
 17 19  1  0  0  0  0
 17 38  1  0  0  0  0
 21 22  1  0  0  0  0
 21 39  1  0  0  0  0
 21 40  1  0  0  0  0
 22 41  1  0  0  0  0
 22 42  1  0  0  0  0
M  CHG  1   2   1
M  END
> <s_m_source_file>
AV-unprocessed.smi

> <i_m_source_file_index>
2262

> <i_lp_mmshare_version>
43012

> <i_f3d_flags>
0

> <s_epik_input>
W0NIM11OMVtDSDJdW0NIMl1bQ0hdKFtDSDJdW0NIMl0xKVtOSF1DKD1PKVtOSF1jMltjSF1bY0hdW2NIXWMobjIpT1tDSDJdW0NIXShGKUY=

> <s_epik_cmdline>
J2VwaWtfcHl0aG9uJywgJy1waCcsICc3LjAnLCAnLXRuJywgJzgnLCAnLW1hJywgJzIwMCcsICctbWV0YWxfYmluZGluZycsICctaW1hZScsICc8aW5maWxlLm1hZT4nLCAnLW9tYWUnLCAnPG91dGZpbGUubWFlPic=

> <r_lp_tautomer_probability>
1

> <r_epik_Ionization_Penalty>
0.00369782

> <r_epik_Ionization_Penalty_Charging>
0.00366825

> <r_epik_Ionization_Penalty_Neutral>
2.95729e-05

> <r_epik_State_Penalty>
0.00261101

> <r_epik_Charging_Adjusted_Penalty>
0.00627926

> <i_epik_Tot_Q>
1

> <i_epik_Tot_abs_Q>
1

> <r_epik_Metal_State_Penalty>
-0

> <b_epik_Metal_Only>
0

> <s_lp_Force_Field>
OPLS_2005

> <r_lp_Energy>
16.3431

> <b_lp_Chiralities_Consistent>
1

> <s_lp_Variant>
AV-unprocessed.smi:2262-2

> <Gold.Version>
5.8.1

> <Gold.Id.Protein>
6NUR|6NUR_protein|mol2

> <Gold.PLP.Fitness>
48.8589

> <Gold.PLP.PLP>
-36.9305

> <Gold.PLP.part.hbond>
-3.9618

> <Gold.PLP.part.metal>
0.0000

> <Gold.PLP.part.buried>
-3.3653

> <Gold.PLP.part.nonpolar>
-29.8447

> <Gold.PLP.part.repulsive>
0.1970

> <Gold.PLP.ligand.clash>
0.0000

> <Gold.PLP.ligand.torsion>
0.8972

> <Gold.PLP.Chemscore.Hbond>
4.5690

> <Gold.PLP.Chemscore.CHOScore>
0.0000

> <Gold.PLP.Chemscore.Metal>
0.0000

> <Gold.Chemscore.Hbonds>
donor molecule, donor type, donor heavy atom, donor atom, acceptor molecule, acceptor atom, score
      L1  H     2    43       P1 10174  0.69
      L1  H     6    31       P1  8028  0.80
      L1  H     9    32       P1  8028  1.00
      P1  H  7997  8010       L1    15  1.00

> <Gold.PLP.Chemscore.Internal.Correction>
0.0158

> <Gold.Rescore>
     Score         DG    S(hbond)    S(metal)    S(lipo)     H(rot)  DE(clash)    DE(int)     intcor
     13.06     -16.46       1.91        0.00      75.29       1.64       0.18       3.22       ----

> <Gold.Chemscore.Fitness>
13.0570

> <Gold.Chemscore.DG>
-16.4592

> <Gold.Chemscore.ZeroCoef>
-5.4800

> <Gold.Chemscore.Hbond>
1.9094

> <Gold.Chemscore.Metal>
0.0000

> <Gold.Chemscore.Lipo>
75.2897

> <Gold.Chemscore.Internal_Hbond>
0.0000

> <Gold.Chemscore.DEClash>
0.1825

> <Gold.Chemscore.DEInternal>
3.2196

> <Gold.Chemscore.Rot>
1.6434

> <Gold.Chemscore.Internal.Correction>
   9.000000E+99

> <Gold.Chemscore.Hbonds>
donor molecule, donor type, donor heavy atom, donor atom, acceptor molecule, acceptor atom, score
      L1  H     2    43       P1 10174  0.14
      L1  H     6    31       P1  8028  0.13
      L1  H     9    32       P1  8028  0.98
      P1  H  7997  8010       L1    15  0.23

> <Gold.Chemscore.Hbond.Weighted>
-6.3773

> <Gold.Chemscore.Metal.Weighted>
-0.0000

> <Gold.Chemscore.Lipo.Weighted>
-8.8089

> <Gold.Chemscore.Internal_Hbond.Weighted>
0.0000

> <Gold.Chemscore.DEClash.Weighted>
0.1825

> <Gold.Chemscore.DEInternal.Weighted>
3.2196

> <Gold.Chemscore.Rot.Weighted>
4.2070

> <Gold.Chemscore.Internal.Correction.Weighted>
   9.000000E+99

> <Gold.Protein.RotatedTorsions>
[ 6907 6896 6895 6894 ] final -128.05 input  -60.11 | X-H torsion
[ 7974 7965 7964 7962 ] final  -36.00 input  175.53 | X-H torsion
[ 8008 7997 7996 7995 ] final   30.46 input   59.86 | X-H torsion
[ 10167 10162 10161 10158 ] final   69.09 input  -65.29 | X-H torsion
[ 10718 10713 10712 10709 ] final   59.04 input   66.30 | X-H torsion
[ 10763 10752 10751 10750 ] final  -56.24 input  -60.55 | X-H torsion
[ 11005 11000 10999 10996 ] final   73.53 input  -57.11 | X-H torsion

> <Gold.Protein.ActiveResidues>
 VAL166  LYS551  ARG553  GLY616  TRP617  ASP618  TYR619  PRO620  LYS621  CYS622 
 ASP623  PHE694  ASN695  SER759  ASP760  ASP761  ALA762  ILE779  LEU786  VAL792 
 PHE793  MET794  SER795  GLU796  ALA797  LYS798  CYS799  TRP800  GLU811  SER814 

> <Gold.Protein.RotatedAtoms>
  150.9138  133.6965  159.2848 H   0  0  0  0  0  0  0  0  0  0  0  0  # atno 6907 bound_to 6896
  151.4443  135.1022  159.9689 H   0  0  0  0  0  0  0  0  0  0  0  0  # atno 6908 bound_to 6896
  152.4944  133.8538  159.7270 H   0  0  0  0  0  0  0  0  0  0  0  0  # atno 6909 bound_to 6896
  146.0699  140.6226  142.8957 H   0  0  0  0  0  0  0  0  0  0  0  0  # atno 7974 bound_to 7965
  155.0908  140.3220  155.4574 H   0  0  0  0  0  0  0  0  0  0  0  0  # atno 8008 bound_to 7997
  156.2743  140.2078  156.5982 H   0  0  0  0  0  0  0  0  0  0  0  0  # atno 8009 bound_to 7997
  154.6904  140.0517  157.0345 H   0  0  0  0  0  0  0  0  0  0  0  0  # atno 8010 bound_to 7997
  140.0716  144.5148  150.7223 H   0  0  0  0  0  0  0  0  0  0  0  0  # atno 10167 bound_to 10162
  157.5644  130.8860  149.9163 H   0  0  0  0  0  0  0  0  0  0  0  0  # atno 10718 bound_to 10713
  154.2036  135.6407  153.5094 H   0  0  0  0  0  0  0  0  0  0  0  0  # atno 10763 bound_to 10752
  153.0006  135.5457  154.6290 H   0  0  0  0  0  0  0  0  0  0  0  0  # atno 10764 bound_to 10752
  154.5709  135.2917  155.0802 H   0  0  0  0  0  0  0  0  0  0  0  0  # atno 10765 bound_to 10752
  139.9435  134.7355  156.1038 H   0  0  0  0  0  0  0  0  0  0  0  0  # atno 11005 bound_to 11000
  144.7225  140.4419  143.6997 LP  0  0  0  0  0  0  0  0  0  0  0  0  # atno 17320 bound_to 7965
  145.6410  139.1550  143.2915 LP  0  0  0  0  0  0  0  0  0  0  0  0  # atno 17321 bound_to 7965
  140.7123  143.2515  151.4544 LP  0  0  0  0  0  0  0  0  0  0  0  0  # atno 17342 bound_to 10162
  139.5833  144.1662  152.1996 LP  0  0  0  0  0  0  0  0  0  0  0  0  # atno 17343 bound_to 10162
  156.0694  130.3687  150.0809 LP  0  0  0  0  0  0  0  0  0  0  0  0  # atno 17370 bound_to 10713
  156.8969  130.9607  151.3581 LP  0  0  0  0  0  0  0  0  0  0  0  0  # atno 17371 bound_to 10713
  141.1078  133.6654  156.2906 LP  0  0  0  0  0  0  0  0  0  0  0  0  # atno 17394 bound_to 11000
  140.5892  134.5668  157.5496 LP  0  0  0  0  0  0  0  0  0  0  0  0  # atno 17395 bound_to 11000

$$$$
