AV-unprocessed.smi:1978|AV-procd|sdf|8005|dock9
  -GOLD-   2272010193D 1   1.00000     0.00000
 Structure written by MMmdl.
 44 45  0  0  0  0  0  0  0  0  3 V2000
  146.0564  134.3985  162.7495 C   0  0  0  0  0  0  0  0  0  0  0  0
  146.9559  135.2214  161.8919 C   0  0  0  0  0  0  0  0  0  0  0  0
  147.8750  134.8986  160.9342 C   0  0  0  0  0  0  0  0  0  0  0  0
  148.3745  136.1648  160.5237 C   0  0  0  0  0  0  0  0  0  0  0  0
  149.3038  136.3786  159.5796 N   0  5  0  0  0  0  0  0  0  0  0  0
  149.0847  137.2863  158.6013 C   0  0  0  0  0  0  0  0  0  0  0  0
  148.2306  137.2193  157.7144 O   0  0  0  0  0  0  0  0  0  0  0  0
  149.9078  138.3407  158.6541 N   0  0  0  0  0  0  0  0  0  0  0  0
  149.8953  139.4628  157.7250 C   0  0  0  0  0  0  0  0  0  0  0  0
  151.3141  139.7642  157.1899 C   0  0  1  0  0  0  0  0  0  0  0  0
  151.2996  140.3195  155.7503 C   0  0  0  0  0  0  0  0  0  0  0  0
  152.1125  140.6385  158.1092 N   0  3  1  0  0  0  0  0  0  0  0  0
  151.5641  142.0189  158.2574 C   0  0  0  0  0  0  0  0  0  0  0  0
  152.5585  142.9432  158.9753 C   0  0  0  0  0  0  0  0  0  0  0  0
  152.9252  142.3772  160.3488 C   0  0  0  0  0  0  0  0  0  0  0  0
  153.4574  140.9492  160.1912 C   0  0  0  0  0  0  0  0  0  0  0  0
  152.4561  140.0416  159.4434 C   0  0  2  0  0  0  0  0  0  0  0  0
  153.0398  138.6168  159.3546 C   0  0  0  0  0  0  0  0  0  0  0  0
  147.7964  137.1680  161.1627 N   0  0  0  0  0  0  0  0  0  0  0  0
  146.8900  136.5712  162.0472 O   0  0  0  0  0  0  0  0  0  0  0  0
  145.2913  133.9098  162.1466 H   0  0  0  0  0  0  0  0  0  0  0  0
  145.5557  135.0127  163.4983 H   0  0  0  0  0  0  0  0  0  0  0  0
  146.6219  133.6260  163.2708 H   0  0  0  0  0  0  0  0  0  0  0  0
  148.1495  133.9146  160.5850 H   0  0  0  0  0  0  0  0  0  0  0  0
  150.5947  138.3586  159.3939 H   0  0  0  0  0  0  0  0  0  0  0  0
  149.2165  139.2245  156.9053 H   0  0  0  0  0  0  0  0  0  0  0  0
  149.4844  140.3301  158.2423 H   0  0  0  0  0  0  0  0  0  0  0  0
  151.8400  138.8162  157.0949 H   0  0  0  0  0  0  0  0  0  0  0  0
  150.9480  139.5677  155.0432 H   0  0  0  0  0  0  0  0  0  0  0  0
  152.2995  140.6144  155.4309 H   0  0  0  0  0  0  0  0  0  0  0  0
  150.6418  141.1819  155.6462 H   0  0  0  0  0  0  0  0  0  0  0  0
  151.3392  142.4584  157.2874 H   0  0  0  0  0  0  0  0  0  0  0  0
  150.6269  141.9897  158.8147 H   0  0  0  0  0  0  0  0  0  0  0  0
  153.4588  143.0586  158.3699 H   0  0  0  0  0  0  0  0  0  0  0  0
  152.1291  143.9394  159.0862 H   0  0  0  0  0  0  0  0  0  0  0  0
  153.6719  143.0086  160.8315 H   0  0  0  0  0  0  0  0  0  0  0  0
  152.0477  142.3769  160.9969 H   0  0  0  0  0  0  0  0  0  0  0  0
  154.4060  140.9729  159.6526 H   0  0  0  0  0  0  0  0  0  0  0  0
  153.6746  140.5370  161.1773 H   0  0  0  0  0  0  0  0  0  0  0  0
  151.5446  139.9911  160.0405 H   0  0  0  0  0  0  0  0  0  0  0  0
  153.3985  138.2823  160.3284 H   0  0  0  0  0  0  0  0  0  0  0  0
  153.8812  138.5722  158.6622 H   0  0  0  0  0  0  0  0  0  0  0  0
  152.2951  137.8860  159.0398 H   0  0  0  0  0  0  0  0  0  0  0  0
  152.9993  140.7518  157.6398 H   0  0  0  0  0  0  0  0  0  0  0  0
  1  2  1  0  0  0  0
  1 21  1  0  0  0  0
  1 22  1  0  0  0  0
  1 23  1  0  0  0  0
  2 20  1  0  0  0  0
  2  3  2  0  0  0  0
  3  4  1  0  0  0  0
  3 24  1  0  0  0  0
  4  5  1  0  0  0  0
  4 19  2  0  0  0  0
  5  6  1  0  0  0  0
  6  7  2  0  0  0  0
  6  8  1  0  0  0  0
  8  9  1  0  0  0  0
  8 25  1  0  0  0  0
  9 10  1  0  0  0  0
  9 26  1  0  0  0  0
  9 27  1  0  0  0  0
 10 11  1  0  0  0  0
 10 12  1  0  0  0  0
 10 28  1  0  0  0  0
 11 29  1  0  0  0  0
 11 30  1  0  0  0  0
 11 31  1  0  0  0  0
 12 17  1  0  0  0  0
 12 13  1  0  0  0  0
 12 44  1  0  0  0  0
 13 14  1  0  0  0  0
 13 32  1  0  0  0  0
 13 33  1  0  0  0  0
 14 15  1  0  0  0  0
 14 34  1  0  0  0  0
 14 35  1  0  0  0  0
 15 16  1  0  0  0  0
 15 36  1  0  0  0  0
 15 37  1  0  0  0  0
 16 17  1  0  0  0  0
 16 38  1  0  0  0  0
 16 39  1  0  0  0  0
 17 18  1  0  0  0  0
 17 40  1  0  0  0  0
 18 41  1  0  0  0  0
 18 42  1  0  0  0  0
 18 43  1  0  0  0  0
 19 20  1  0  0  0  0
M  CHG  1   5  -1
M  CHG  1  12   1
M  END
> <s_m_source_file>
AV-unprocessed.smi

> <i_m_source_file_index>
1978

> <i_lp_mmshare_version>
43012

> <i_f3d_flags>
0

> <s_epik_input>
W0NIM11jMVtjSF1jKG5vMSlbTkhdQyg9TylbTkhdW0NIMl1bQ0BIXShbQ0gzXSlOMltDSDJdW0NIMl1bQ0gyXVtDSDJdW0NASF0yW0NIM10=

> <s_epik_cmdline>
J2VwaWtfcHl0aG9uJywgJy1waCcsICc3LjAnLCAnLXRuJywgJzgnLCAnLW1hJywgJzIwMCcsICctbWV0YWxfYmluZGluZycsICctaW1hZScsICc8aW5maWxlLm1hZT4nLCAnLW9tYWUnLCAnPG91dGZpbGUubWFlPic=

> <r_epik_Ionization_Penalty>
6.22372

> <r_epik_Ionization_Penalty_Charging>
6.22362

> <r_epik_Ionization_Penalty_Neutral>
9.65074e-05

> <r_epik_State_Penalty>
6.22363

> <r_epik_Charging_Adjusted_Penalty>
12.4472

> <i_epik_Tot_Q>
0

> <i_epik_Tot_abs_Q>
2

> <r_epik_Metal_State_Penalty>
2.16675

> <b_epik_Metal_Only>
1

> <s_lp_Force_Field>
OPLS_2005

> <r_lp_Energy>
11.9993

> <b_lp_Chiralities_Consistent>
1

> <s_lp_Variant>
AV-unprocessed.smi:1978-14

> <Gold.Version>
5.8.1

> <Gold.Id.Protein>
6NUR|6NUR_protein|mol2

> <Gold.PLP.Fitness>
45.1811

> <Gold.PLP.PLP>
-36.6566

> <Gold.PLP.part.hbond>
-3.0000

> <Gold.PLP.part.metal>
0.0000

> <Gold.PLP.part.buried>
-4.7372

> <Gold.PLP.part.nonpolar>
-29.2004

> <Gold.PLP.part.repulsive>
0.2577

> <Gold.PLP.ligand.clash>
0.0000

> <Gold.PLP.ligand.torsion>
1.4932

> <Gold.PLP.Chemscore.Hbond>
3.7920

> <Gold.PLP.Chemscore.CHOScore>
0.0000

> <Gold.PLP.Chemscore.Metal>
0.0000

> <Gold.Chemscore.Hbonds>
donor molecule, donor type, donor heavy atom, donor atom, acceptor molecule, acceptor atom, score
      P1  H  6896  6908       L1     5  1.33
      P1  H  6931  6943       L1    19  0.98
      P1  H  6934  6947       L1    19  0.82

> <Gold.PLP.Chemscore.Internal.Correction>
0.1349

> <Gold.Rescore>
     Score         DG    S(hbond)    S(metal)    S(lipo)     H(rot)  DE(clash)    DE(int)     intcor
     17.02     -18.49       1.90        0.00      90.09       1.52       0.01       1.46       ----

> <Gold.Chemscore.Fitness>
17.0196

> <Gold.Chemscore.DG>
-18.4941

> <Gold.Chemscore.ZeroCoef>
-5.4800

> <Gold.Chemscore.Hbond>
1.9047

> <Gold.Chemscore.Metal>
0.0000

> <Gold.Chemscore.Lipo>
90.0932

> <Gold.Chemscore.Internal_Hbond>
0.0000

> <Gold.Chemscore.DEClash>
0.0126

> <Gold.Chemscore.DEInternal>
1.4619

> <Gold.Chemscore.Rot>
1.5190

> <Gold.Chemscore.Internal.Correction>
   9.000000E+99

> <Gold.Chemscore.Hbonds>
donor molecule, donor type, donor heavy atom, donor atom, acceptor molecule, acceptor atom, score
      P1  H  6896  6908       L1     5  0.47
      P1  H  6931  6943       L1    19  0.68
      P1  H  6934  6947       L1    19  0.44

> <Gold.Chemscore.Hbond.Weighted>
-6.3618

> <Gold.Chemscore.Metal.Weighted>
-0.0000

> <Gold.Chemscore.Lipo.Weighted>
-10.5409

> <Gold.Chemscore.Internal_Hbond.Weighted>
0.0000

> <Gold.Chemscore.DEClash.Weighted>
0.0126

> <Gold.Chemscore.DEInternal.Weighted>
1.4619

> <Gold.Chemscore.Rot.Weighted>
3.8886

> <Gold.Chemscore.Internal.Correction.Weighted>
   9.000000E+99

> <Gold.Protein.RotatedTorsions>
[ 6907 6896 6895 6894 ] final -175.93 input  -60.11 | X-H torsion
[ 7974 7965 7964 7962 ] final   74.62 input  175.53 | X-H torsion
[ 8008 7997 7996 7995 ] final  -94.97 input   59.86 | X-H torsion
[ 10167 10162 10161 10158 ] final  129.39 input  -65.29 | X-H torsion
[ 10718 10713 10712 10709 ] final  -63.94 input   66.30 | X-H torsion
[ 10763 10752 10751 10750 ] final  105.87 input  -60.55 | X-H torsion
[ 11005 11000 10999 10996 ] final    9.15 input  -57.11 | X-H torsion

> <Gold.Protein.ActiveResidues>
 VAL166  LYS551  ARG553  GLY616  TRP617  ASP618  TYR619  PRO620  LYS621  CYS622 
 ASP623  PHE694  ASN695  SER759  ASP760  ASP761  ALA762  ILE779  LEU786  VAL792 
 PHE793  MET794  SER795  GLU796  ALA797  LYS798  CYS799  TRP800  GLU811  SER814 

> <Gold.Protein.RotatedAtoms>
  151.5966  133.3361  159.3038 H   0  0  0  0  0  0  0  0  0  0  0  0  # atno 6907 bound_to 6896
  150.8231  134.7451  159.6800 H   0  0  0  0  0  0  0  0  0  0  0  0  # atno 6908 bound_to 6896
  152.4322  134.5761  159.9986 H   0  0  0  0  0  0  0  0  0  0  0  0  # atno 6909 bound_to 6896
  145.7259  139.2665  143.1569 H   0  0  0  0  0  0  0  0  0  0  0  0  # atno 7974 bound_to 7965
  154.7553  140.0484  157.0928 H   0  0  0  0  0  0  0  0  0  0  0  0  # atno 8008 bound_to 7997
  155.0006  140.3124  155.4849 H   0  0  0  0  0  0  0  0  0  0  0  0  # atno 8009 bound_to 7997
  156.2893  140.2202  156.5116 H   0  0  0  0  0  0  0  0  0  0  0  0  # atno 8010 bound_to 7997
  139.5480  144.6789  151.4413 H   0  0  0  0  0  0  0  0  0  0  0  0  # atno 10167 bound_to 10162
  156.0760  130.4227  150.1349 H   0  0  0  0  0  0  0  0  0  0  0  0  # atno 10718 bound_to 10713
  153.3852  135.3895  155.1885 H   0  0  0  0  0  0  0  0  0  0  0  0  # atno 10763 bound_to 10752
  154.8712  135.3735  154.4806 H   0  0  0  0  0  0  0  0  0  0  0  0  # atno 10764 bound_to 10752
  153.5287  135.7086  153.5755 H   0  0  0  0  0  0  0  0  0  0  0  0  # atno 10765 bound_to 10752
  140.5290  134.0485  155.7867 H   0  0  0  0  0  0  0  0  0  0  0  0  # atno 11005 bound_to 11000
  146.0582  140.7998  142.9748 LP  0  0  0  0  0  0  0  0  0  0  0  0  # atno 17320 bound_to 7965
  144.6905  140.3156  143.7241 LP  0  0  0  0  0  0  0  0  0  0  0  0  # atno 17321 bound_to 7965
  140.6734  143.8244  150.7027 LP  0  0  0  0  0  0  0  0  0  0  0  0  # atno 17342 bound_to 10162
  140.1675  143.4223  152.2024 LP  0  0  0  0  0  0  0  0  0  0  0  0  # atno 17343 bound_to 10162
  156.9390  130.9738  151.3519 LP  0  0  0  0  0  0  0  0  0  0  0  0  # atno 17370 bound_to 10713
  157.5855  130.8406  149.8583 LP  0  0  0  0  0  0  0  0  0  0  0  0  # atno 17371 bound_to 10713
  141.1292  133.9331  157.2571 LP  0  0  0  0  0  0  0  0  0  0  0  0  # atno 17394 bound_to 11000
  139.9565  135.0164  156.9141 LP  0  0  0  0  0  0  0  0  0  0  0  0  # atno 17395 bound_to 11000

$$$$
