AV-unprocessed.smi:499|AV-procd|sdf|2732|dock2
  -GOLD-   2262023183D 1   1.00000     0.00000
 Structure written by MMmdl.
 36 37  0  0  0  0  0  0  0  0  1 V2000
  146.7583  140.3763  157.1342 C   0  0  0  0  0  0  0  0  0  0  0  0
  146.9556  141.7433  156.4484 C   0  0  1  0  0  0  0  0  0  0  0  0
  146.3249  142.7938  157.2754 C   0  0  0  0  0  0  0  0  0  0  0  0
  145.8303  143.6164  157.9226 N   0  0  0  0  0  0  0  0  0  0  0  0
  148.3894  142.0005  156.2910 N   0  0  0  0  0  0  0  0  0  0  0  0
  149.3520  141.1088  156.0019 C   0  0  0  0  0  0  0  0  0  0  0  0
  149.1349  139.9092  155.8274 O   0  0  0  0  0  0  0  0  0  0  0  0
  150.7774  141.6731  155.9127 C   0  0  0  0  0  0  0  0  0  0  0  0
  151.4088  141.8827  157.2267 N   0  0  0  0  0  0  0  0  0  0  0  0
  151.0981  143.0786  157.9037 C   0  0  0  0  0  0  0  0  0  0  0  0
  151.5941  143.3834  159.1184 C   0  0  0  0  0  0  0  0  0  0  0  0
  151.2844  144.7052  159.8035 C   0  0  0  0  0  0  0  0  0  0  0  0
  151.7571  144.7191  161.0500 F   0  0  0  0  0  0  0  0  0  0  0  0
  151.8206  145.7311  159.1410 F   0  0  0  0  0  0  0  0  0  0  0  0
  149.9662  144.8893  159.8582 F   0  0  0  0  0  0  0  0  0  0  0  0
  152.5098  142.4225  159.7010 C   0  0  0  0  0  0  0  0  0  0  0  0
  152.8214  141.2763  159.0649 C   0  0  0  0  0  0  0  0  0  0  0  0
  152.2539  140.9474  157.7552 C   0  0  0  0  0  0  0  0  0  0  0  0
  152.5216  139.8982  157.1691 O   0  0  0  0  0  0  0  0  0  0  0  0
  146.2796  141.6981  155.0794 C   0  0  0  0  0  0  0  0  0  0  0  0
  147.0340  141.4077  153.8008 C   0  0  0  0  0  0  0  0  0  0  0  0
  146.4636  142.7873  154.0460 C   0  0  0  0  0  0  0  0  0  0  0  0
  145.6988  140.1342  157.2257 H   0  0  0  0  0  0  0  0  0  0  0  0
  147.1773  140.3603  158.1407 H   0  0  0  0  0  0  0  0  0  0  0  0
  147.2306  139.5737  156.5666 H   0  0  0  0  0  0  0  0  0  0  0  0
  148.6789  142.9591  156.4201 H   0  0  0  0  0  0  0  0  0  0  0  0
  151.3892  141.0048  155.3037 H   0  0  0  0  0  0  0  0  0  0  0  0
  150.7384  142.6095  155.3544 H   0  0  0  0  0  0  0  0  0  0  0  0
  150.4242  143.7338  157.3711 H   0  0  0  0  0  0  0  0  0  0  0  0
  152.9494  142.6228  160.6670 H   0  0  0  0  0  0  0  0  0  0  0  0
  153.5048  140.5816  159.5307 H   0  0  0  0  0  0  0  0  0  0  0  0
  145.2758  141.2785  155.1236 H   0  0  0  0  0  0  0  0  0  0  0  0
  148.1149  141.2943  153.8506 H   0  0  0  0  0  0  0  0  0  0  0  0
  146.5382  140.7844  153.0595 H   0  0  0  0  0  0  0  0  0  0  0  0
  145.5902  143.0797  153.4667 H   0  0  0  0  0  0  0  0  0  0  0  0
  147.1649  143.5906  154.2622 H   0  0  0  0  0  0  0  0  0  0  0  0
  1  2  1  0  0  0  0
  1 23  1  0  0  0  0
  1 24  1  0  0  0  0
  1 25  1  0  0  0  0
  2  3  1  0  0  0  0
  2  5  1  0  0  0  0
  2 20  1  0  0  0  0
  3  4  3  0  0  0  0
  5  6  1  0  0  0  0
  5 26  1  0  0  0  0
  6  7  2  0  0  0  0
  6  8  1  0  0  0  0
  8  9  1  0  0  0  0
  8 27  1  0  0  0  0
  8 28  1  0  0  0  0
  9 18  1  0  0  0  0
  9 10  1  0  0  0  0
 10 11  2  0  0  0  0
 10 29  1  0  0  0  0
 11 12  1  0  0  0  0
 11 16  1  0  0  0  0
 12 13  1  0  0  0  0
 12 14  1  0  0  0  0
 12 15  1  0  0  0  0
 16 17  2  0  0  0  0
 16 30  1  0  0  0  0
 17 18  1  0  0  0  0
 17 31  1  0  0  0  0
 18 19  2  0  0  0  0
 20 22  1  0  0  0  0
 20 21  1  0  0  0  0
 20 32  1  0  0  0  0
 21 22  1  0  0  0  0
 21 33  1  0  0  0  0
 21 34  1  0  0  0  0
 22 35  1  0  0  0  0
 22 36  1  0  0  0  0
M  END
> <s_m_source_file>
AV-unprocessed.smi

> <i_m_source_file_index>
499

> <i_lp_mmshare_version>
43012

> <i_f3d_flags>
0

> <s_epik_input>
W0NIMl0xW0NIMl1bQ0hdMVtDQF0oW0NIM10pKEMjTilbTkhdQyg9TylbQ0gyXW4yW2NIXWMoQyhGKShGKUYpW2NIXVtjSF1jMj1P

> <s_epik_cmdline>
J2VwaWtfcHl0aG9uJywgJy1waCcsICc3LjAnLCAnLXRuJywgJzgnLCAnLW1hJywgJzIwMCcsICctbWV0YWxfYmluZGluZycsICctaW1hZScsICc8aW5maWxlLm1hZT4nLCAnLW9tYWUnLCAnPG91dGZpbGUubWFlPic=

> <r_lp_tautomer_probability>
1

> <r_epik_Ionization_Penalty>
4.79953e-07

> <r_epik_Ionization_Penalty_Charging>
1.46911e-08

> <r_epik_Ionization_Penalty_Neutral>
4.65262e-07

> <r_epik_State_Penalty>
-0

> <r_epik_Charging_Adjusted_Penalty>
1.46911e-08

> <i_epik_Tot_Q>
0

> <i_epik_Tot_abs_Q>
0

> <r_epik_Metal_State_Penalty>
-0

> <b_epik_Metal_Only>
0

> <s_lp_Force_Field>
OPLS_2005

> <r_lp_Energy>
24.0499

> <b_lp_Chiralities_Consistent>
1

> <s_lp_Variant>
AV-unprocessed.smi:499-1

> <Gold.Version>
5.8.1

> <Gold.Id.Protein>
6NUR|6NUR_protein|mol2

> <Gold.PLP.Fitness>
50.6344

> <Gold.PLP.PLP>
-44.6306

> <Gold.PLP.part.hbond>
-2.0000

> <Gold.PLP.part.metal>
0.0000

> <Gold.PLP.part.buried>
-5.9488

> <Gold.PLP.part.nonpolar>
-35.9002

> <Gold.PLP.part.repulsive>
0.5592

> <Gold.PLP.ligand.clash>
0.0000

> <Gold.PLP.ligand.torsion>
2.1561

> <Gold.PLP.Chemscore.Hbond>
1.9193

> <Gold.PLP.Chemscore.CHOScore>
0.9752

> <Gold.PLP.Chemscore.Metal>
0.0000

> <Gold.Chemscore.Hbonds>
donor molecule, donor type, donor heavy atom, donor atom, acceptor molecule, acceptor atom, score
      L1  H     5    26       P1  8028  0.96
      P1  H  7997  8009       L1    19  1.00
      L1  C    10    29       P1  8028  1.00

> <Gold.PLP.Chemscore.Internal.Correction>
1.6328

> <Gold.Rescore>
     Score         DG    S(hbond)    S(metal)    S(lipo)     H(rot)  DE(clash)    DE(int)     intcor
     11.82     -15.08       1.67        0.00      75.92       1.90       0.22       3.05       ----

> <Gold.Chemscore.Fitness>
11.8198

> <Gold.Chemscore.DG>
-15.0835

> <Gold.Chemscore.ZeroCoef>
-5.4800

> <Gold.Chemscore.Hbond>
1.6746

> <Gold.Chemscore.Metal>
0.0000

> <Gold.Chemscore.Lipo>
75.9168

> <Gold.Chemscore.Internal_Hbond>
0.0000

> <Gold.Chemscore.DEClash>
0.2181

> <Gold.Chemscore.DEInternal>
3.0456

> <Gold.Chemscore.Rot>
1.9030

> <Gold.Chemscore.Internal.Correction>
   9.000000E+99

> <Gold.Chemscore.Hbonds>
donor molecule, donor type, donor heavy atom, donor atom, acceptor molecule, acceptor atom, score
      L1  H     5    26       P1  8028  0.87
      P1  H  7997  8009       L1    19  0.54

> <Gold.Chemscore.Hbond.Weighted>
-5.5930

> <Gold.Chemscore.Metal.Weighted>
-0.0000

> <Gold.Chemscore.Lipo.Weighted>
-8.8823

> <Gold.Chemscore.Internal_Hbond.Weighted>
0.0000

> <Gold.Chemscore.DEClash.Weighted>
0.2181

> <Gold.Chemscore.DEInternal.Weighted>
3.0456

> <Gold.Chemscore.Rot.Weighted>
4.8718

> <Gold.Chemscore.Internal.Correction.Weighted>
   9.000000E+99

> <Gold.Protein.RotatedTorsions>
[ 6907 6896 6895 6894 ] final  -71.64 input  -60.11 | X-H torsion
[ 7974 7965 7964 7962 ] final  -11.50 input  175.53 | X-H torsion
[ 8008 7997 7996 7995 ] final -169.54 input   59.86 | X-H torsion
[ 10167 10162 10161 10158 ] final -143.02 input  -65.29 | X-H torsion
[ 10718 10713 10712 10709 ] final  -26.12 input   66.30 | X-H torsion
[ 10763 10752 10751 10750 ] final  -76.16 input  -60.55 | X-H torsion
[ 11005 11000 10999 10996 ] final   67.86 input  -57.11 | X-H torsion

> <Gold.Protein.ActiveResidues>
 VAL166  LYS551  ARG553  GLY616  TRP617  ASP618  TYR619  PRO620  LYS621  CYS622 
 ASP623  PHE694  ASN695  SER759  ASP760  ASP761  ALA762  ILE779  LEU786  VAL792 
 PHE793  MET794  SER795  GLU796  ALA797  LYS798  CYS799  TRP800  GLU811  SER814 

> <Gold.Protein.RotatedAtoms>
  150.7204  134.5279  159.5685 H   0  0  0  0  0  0  0  0  0  0  0  0  # atno 6907 bound_to 6896
  152.2819  134.7816  160.0404 H   0  0  0  0  0  0  0  0  0  0  0  0  # atno 6908 bound_to 6896
  151.8460  133.3396  159.3695 H   0  0  0  0  0  0  0  0  0  0  0  0  # atno 6909 bound_to 6896
  146.2185  140.2920  142.8369 H   0  0  0  0  0  0  0  0  0  0  0  0  # atno 7974 bound_to 7965
  155.9064  140.1050  157.1312 H   0  0  0  0  0  0  0  0  0  0  0  0  # atno 8008 bound_to 7997
  154.4033  140.1283  156.4565 H   0  0  0  0  0  0  0  0  0  0  0  0  # atno 8009 bound_to 7997
  155.7363  140.3467  155.5085 H   0  0  0  0  0  0  0  0  0  0  0  0  # atno 8010 bound_to 7997
  139.8033  143.7803  152.2659 H   0  0  0  0  0  0  0  0  0  0  0  0  # atno 10167 bound_to 10162
  156.4554  130.4492  149.6963 H   0  0  0  0  0  0  0  0  0  0  0  0  # atno 10718 bound_to 10713
  154.4962  135.5807  153.6496 H   0  0  0  0  0  0  0  0  0  0  0  0  # atno 10763 bound_to 10752
  152.9870  135.6124  154.3061 H   0  0  0  0  0  0  0  0  0  0  0  0  # atno 10764 bound_to 10752
  154.2965  135.2847  155.2610 H   0  0  0  0  0  0  0  0  0  0  0  0  # atno 10765 bound_to 10752
  139.9746  134.6844  156.0380 H   0  0  0  0  0  0  0  0  0  0  0  0  # atno 11005 bound_to 11000
  144.9119  140.7768  143.5802 LP  0  0  0  0  0  0  0  0  0  0  0  0  # atno 17320 bound_to 7965
  145.2852  139.1904  143.4770 LP  0  0  0  0  0  0  0  0  0  0  0  0  # atno 17321 bound_to 7965
  139.7930  144.7403  150.9929 LP  0  0  0  0  0  0  0  0  0  0  0  0  # atno 17342 bound_to 10162
  140.7820  143.4423  151.0534 LP  0  0  0  0  0  0  0  0  0  0  0  0  # atno 17343 bound_to 10162
  156.3772  130.7561  151.2550 LP  0  0  0  0  0  0  0  0  0  0  0  0  # atno 17370 bound_to 10713
  157.7501  131.0306  150.4144 LP  0  0  0  0  0  0  0  0  0  0  0  0  # atno 17371 bound_to 10713
  141.1423  133.6562  156.3767 LP  0  0  0  0  0  0  0  0  0  0  0  0  # atno 17394 bound_to 11000
  140.5222  134.6293  157.5322 LP  0  0  0  0  0  0  0  0  0  0  0  0  # atno 17395 bound_to 11000

$$$$
