AV-unprocessed.smi:1304|AV-procd|sdf|5429|dock8
  -GOLD-   22720 4593D 1   1.00000     0.00000
 Structure written by MMmdl.
 47 48  0  0  0  0  0  0  0  0  1 V2000
  149.3993  133.0482  157.6281 C   0  0  0  0  0  0  0  0  0  0  0  0
  148.5903  133.0689  156.3185 C   0  0  0  0  0  0  0  0  0  0  0  0
  148.6977  134.3803  155.4761 C   0  0  1  0  0  0  0  0  0  0  0  0
  148.0704  135.5059  156.3425 C   0  0  0  0  0  0  0  0  0  0  0  0
  150.2086  134.7198  155.2581 C   0  0  0  0  0  0  0  0  0  0  0  0
  150.4357  136.0017  154.5913 N   0  0  0  0  0  0  0  0  0  0  0  0
  151.2473  136.9785  155.0242 C   0  0  0  0  0  0  0  0  0  0  0  0
  151.9407  136.8852  156.0376 O   0  0  0  0  0  0  0  0  0  0  0  0
  151.2809  138.2549  154.1737 C   0  0  0  0  0  0  0  0  0  0  0  0
  150.8947  139.4535  154.9361 N   0  0  0  0  0  0  0  0  0  0  0  0
  149.7340  140.1360  154.5204 C   0  0  0  0  0  0  0  0  0  0  0  0
  149.2973  141.2403  155.1465 C   0  0  0  0  0  0  0  0  0  0  0  0
  150.0514  141.7275  156.2771 C   0  0  0  0  0  0  0  0  0  0  0  0
  151.1646  141.0840  156.6813 C   0  0  0  0  0  0  0  0  0  0  0  0
  151.6473  139.8782  155.9983 C   0  0  0  0  0  0  0  0  0  0  0  0
  152.6653  139.2860  156.3587 O   0  0  0  0  0  0  0  0  0  0  0  0
  147.9652  134.2436  154.1848 N   0  0  0  0  0  0  0  0  0  0  0  0
  148.4234  133.1530  153.3156 C   0  0  0  0  0  0  0  0  0  0  0  0
  147.7177  133.1706  151.9486 C   0  0  0  0  0  0  0  0  0  0  0  0
  146.3087  133.1059  152.1342 O   0  0  0  0  0  0  0  0  0  0  0  0
  145.8152  134.1794  152.9265 C   0  0  0  0  0  0  0  0  0  0  0  0
  146.5037  134.1661  154.3017 C   0  0  0  0  0  0  0  0  0  0  0  0
  149.2569  132.1002  158.1472 H   0  0  0  0  0  0  0  0  0  0  0  0
  149.0910  133.8402  158.3101 H   0  0  0  0  0  0  0  0  0  0  0  0
  150.4678  133.1587  157.4457 H   0  0  0  0  0  0  0  0  0  0  0  0
  148.9232  132.2165  155.7259 H   0  0  0  0  0  0  0  0  0  0  0  0
  147.5468  132.8505  156.5455 H   0  0  0  0  0  0  0  0  0  0  0  0
  148.4242  135.4756  157.3736 H   0  0  0  0  0  0  0  0  0  0  0  0
  146.9833  135.4307  156.3751 H   0  0  0  0  0  0  0  0  0  0  0  0
  148.3160  136.4980  155.9635 H   0  0  0  0  0  0  0  0  0  0  0  0
  150.7551  134.6951  156.2010 H   0  0  0  0  0  0  0  0  0  0  0  0
  150.6797  133.9683  154.6258 H   0  0  0  0  0  0  0  0  0  0  0  0
  149.9089  136.1687  153.7461 H   0  0  0  0  0  0  0  0  0  0  0  0
  152.2862  138.3621  153.7644 H   0  0  0  0  0  0  0  0  0  0  0  0
  150.6284  138.1423  153.3053 H   0  0  0  0  0  0  0  0  0  0  0  0
  149.2313  139.7117  153.6635 H   0  0  0  0  0  0  0  0  0  0  0  0
  148.4077  141.7530  154.8110 H   0  0  0  0  0  0  0  0  0  0  0  0
  149.7222  142.6129  156.8005 H   0  0  0  0  0  0  0  0  0  0  0  0
  151.7164  141.4634  157.5288 H   0  0  0  0  0  0  0  0  0  0  0  0
  149.4949  133.2212  153.1359 H   0  0  0  0  0  0  0  0  0  0  0  0
  148.2411  132.1886  153.7889 H   0  0  0  0  0  0  0  0  0  0  0  0
  147.9781  134.0715  151.3909 H   0  0  0  0  0  0  0  0  0  0  0  0
  148.0362  132.3190  151.3472 H   0  0  0  0  0  0  0  0  0  0  0  0
  145.9885  135.1288  152.4172 H   0  0  0  0  0  0  0  0  0  0  0  0
  144.7370  134.0702  153.0423 H   0  0  0  0  0  0  0  0  0  0  0  0
  146.2130  133.2561  154.8262 H   0  0  0  0  0  0  0  0  0  0  0  0
  146.1117  135.0015  154.8785 H   0  0  0  0  0  0  0  0  0  0  0  0
  1  2  1  0  0  0  0
  1 23  1  0  0  0  0
  1 24  1  0  0  0  0
  1 25  1  0  0  0  0
  2  3  1  0  0  0  0
  2 26  1  0  0  0  0
  2 27  1  0  0  0  0
  3  4  1  0  0  0  0
  3  5  1  0  0  0  0
  3 17  1  0  0  0  0
  4 28  1  0  0  0  0
  4 29  1  0  0  0  0
  4 30  1  0  0  0  0
  5  6  1  0  0  0  0
  5 31  1  0  0  0  0
  5 32  1  0  0  0  0
  6  7  1  0  0  0  0
  6 33  1  0  0  0  0
  7  8  2  0  0  0  0
  7  9  1  0  0  0  0
  9 10  1  0  0  0  0
  9 34  1  0  0  0  0
  9 35  1  0  0  0  0
 10 15  1  0  0  0  0
 10 11  1  0  0  0  0
 11 12  2  0  0  0  0
 11 36  1  0  0  0  0
 12 13  1  0  0  0  0
 12 37  1  0  0  0  0
 13 14  2  0  0  0  0
 13 38  1  0  0  0  0
 14 15  1  0  0  0  0
 14 39  1  0  0  0  0
 15 16  2  0  0  0  0
 17 22  1  0  0  0  0
 17 18  1  0  0  0  0
 18 19  1  0  0  0  0
 18 40  1  0  0  0  0
 18 41  1  0  0  0  0
 19 20  1  0  0  0  0
 19 42  1  0  0  0  0
 19 43  1  0  0  0  0
 20 21  1  0  0  0  0
 21 22  1  0  0  0  0
 21 44  1  0  0  0  0
 21 45  1  0  0  0  0
 22 46  1  0  0  0  0
 22 47  1  0  0  0  0
M  END
> <s_m_source_file>
AV-unprocessed.smi

> <i_m_source_file_index>
1304

> <i_lp_mmshare_version>
43012

> <i_f3d_flags>
0

> <s_epik_input>
W0NIMl0xW0NIMl1PW0NIMl1bQ0gyXU4xW0NAQF0oW0NIM10pKFtDSDJdW0NIM10pW0NIMl1bTkhdQyg9TylbQ0gyXW4yW2NIXVtjSF1bY0hdW2NIXWMyPU8=

> <s_epik_cmdline>
J2VwaWtfcHl0aG9uJywgJy1waCcsICc3LjAnLCAnLXRuJywgJzgnLCAnLW1hJywgJzIwMCcsICctbWV0YWxfYmluZGluZycsICctaW1hZScsICc8aW5maWxlLm1hZT4nLCAnLW9tYWUnLCAnPG91dGZpbGUubWFlPic=

> <r_lp_tautomer_probability>
1

> <r_epik_Ionization_Penalty>
0.318667

> <r_epik_Ionization_Penalty_Charging>
3.55364e-07

> <r_epik_Ionization_Penalty_Neutral>
0.318667

> <r_epik_State_Penalty>
0.313095

> <r_epik_Charging_Adjusted_Penalty>
0.313095

> <i_epik_Tot_Q>
0

> <i_epik_Tot_abs_Q>
0

> <r_epik_Metal_State_Penalty>
0.313065

> <b_epik_Metal_Only>
0

> <s_lp_Force_Field>
OPLS_2005

> <r_lp_Energy>
51.6355

> <b_lp_Chiralities_Consistent>
1

> <s_lp_Variant>
AV-unprocessed.smi:1304-1

> <Gold.Version>
5.8.1

> <Gold.Id.Protein>
6NUR|6NUR_protein|mol2

> <Gold.PLP.Fitness>
45.3839

> <Gold.PLP.PLP>
-33.7250

> <Gold.PLP.part.hbond>
-4.0000

> <Gold.PLP.part.metal>
0.0000

> <Gold.PLP.part.buried>
-0.2563

> <Gold.PLP.part.nonpolar>
-28.7023

> <Gold.PLP.part.repulsive>
0.3604

> <Gold.PLP.ligand.clash>
0.0000

> <Gold.PLP.ligand.torsion>
0.1639

> <Gold.PLP.Chemscore.Hbond>
3.0000

> <Gold.PLP.Chemscore.CHOScore>
0.9476

> <Gold.PLP.Chemscore.Metal>
0.0000

> <Gold.Chemscore.Hbonds>
donor molecule, donor type, donor heavy atom, donor atom, acceptor molecule, acceptor atom, score
      L1  H     6    33       P1  7948  0.80
      P1  H  7997  8010       L1    16  1.00
      P1  H 10752 10764       L1     8  0.34
      L1  C    11    36       P1  7957  0.95

> <Gold.PLP.Chemscore.Internal.Correction>
0.1438

> <Gold.Rescore>
     Score         DG    S(hbond)    S(metal)    S(lipo)     H(rot)  DE(clash)    DE(int)     intcor
     14.21     -16.18       2.53        0.00      61.93       1.95       0.04       1.94       ----

> <Gold.Chemscore.Fitness>
14.2081

> <Gold.Chemscore.DG>
-16.1823

> <Gold.Chemscore.ZeroCoef>
-5.4800

> <Gold.Chemscore.Hbond>
2.5307

> <Gold.Chemscore.Metal>
0.0000

> <Gold.Chemscore.Lipo>
61.9273

> <Gold.Chemscore.Internal_Hbond>
0.0000

> <Gold.Chemscore.DEClash>
0.0351

> <Gold.Chemscore.DEInternal>
1.9391

> <Gold.Chemscore.Rot>
1.9515

> <Gold.Chemscore.Internal.Correction>
   9.000000E+99

> <Gold.Chemscore.Hbonds>
donor molecule, donor type, donor heavy atom, donor atom, acceptor molecule, acceptor atom, score
      L1  H     6    33       P1  7948  0.16
      P1  H  7997  8010       L1    16  0.96
      P1  H 10752 10764       L1     8  0.01

> <Gold.Chemscore.Hbond.Weighted>
-8.4526

> <Gold.Chemscore.Metal.Weighted>
-0.0000

> <Gold.Chemscore.Lipo.Weighted>
-7.2455

> <Gold.Chemscore.Internal_Hbond.Weighted>
0.0000

> <Gold.Chemscore.DEClash.Weighted>
0.0351

> <Gold.Chemscore.DEInternal.Weighted>
1.9391

> <Gold.Chemscore.Rot.Weighted>
4.9958

> <Gold.Chemscore.Internal.Correction.Weighted>
   9.000000E+99

> <Gold.Protein.RotatedTorsions>
[ 6907 6896 6895 6894 ] final  -97.20 input  -60.11 | X-H torsion
[ 7974 7965 7964 7962 ] final  -37.51 input  175.53 | X-H torsion
[ 8008 7997 7996 7995 ] final   87.36 input   59.86 | X-H torsion
[ 10167 10162 10161 10158 ] final   61.44 input  -65.29 | X-H torsion
[ 10718 10713 10712 10709 ] final  102.19 input   66.30 | X-H torsion
[ 10763 10752 10751 10750 ] final  -31.83 input  -60.55 | X-H torsion
[ 11005 11000 10999 10996 ] final -161.22 input  -57.11 | X-H torsion

> <Gold.Protein.ActiveResidues>
 VAL166  LYS551  ARG553  GLY616  TRP617  ASP618  TYR619  PRO620  LYS621  CYS622 
 ASP623  PHE694  ASN695  SER759  ASP760  ASP761  ALA762  ILE779  LEU786  VAL792 
 PHE793  MET794  SER795  GLU796  ALA797  LYS798  CYS799  TRP800  GLU811  SER814 

> <Gold.Protein.RotatedAtoms>
  150.7009  134.1385  159.4095 H   0  0  0  0  0  0  0  0  0  0  0  0  # atno 6907 bound_to 6896
  151.9370  135.0228  160.0542 H   0  0  0  0  0  0  0  0  0  0  0  0  # atno 6908 bound_to 6896
  152.2126  133.4888  159.5155 H   0  0  0  0  0  0  0  0  0  0  0  0  # atno 6909 bound_to 6896
  146.0569  140.6404  142.9015 H   0  0  0  0  0  0  0  0  0  0  0  0  # atno 7974 bound_to 7965
  155.9744  140.3383  155.6605 H   0  0  0  0  0  0  0  0  0  0  0  0  # atno 8008 bound_to 7997
  155.6632  140.0718  157.2565 H   0  0  0  0  0  0  0  0  0  0  0  0  # atno 8009 bound_to 7997
  154.4175  140.1705  156.1786 H   0  0  0  0  0  0  0  0  0  0  0  0  # atno 8010 bound_to 7997
  140.1547  144.4428  150.6740 H   0  0  0  0  0  0  0  0  0  0  0  0  # atno 10167 bound_to 10162
  157.6809  131.0746  150.5367 H   0  0  0  0  0  0  0  0  0  0  0  0  # atno 10718 bound_to 10713
  153.8037  135.6888  153.4851 H   0  0  0  0  0  0  0  0  0  0  0  0  # atno 10763 bound_to 10752
  153.1672  135.4557  154.9851 H   0  0  0  0  0  0  0  0  0  0  0  0  # atno 10764 bound_to 10752
  154.7996  135.3332  154.7524 H   0  0  0  0  0  0  0  0  0  0  0  0  # atno 10765 bound_to 10752
  140.6228  134.4732  157.5225 H   0  0  0  0  0  0  0  0  0  0  0  0  # atno 11005 bound_to 11000
  144.7153  140.4186  143.7049 LP  0  0  0  0  0  0  0  0  0  0  0  0  # atno 17320 bound_to 7965
  145.6628  139.1584  143.2798 LP  0  0  0  0  0  0  0  0  0  0  0  0  # atno 17321 bound_to 7965
  140.6680  143.2275  151.5694 LP  0  0  0  0  0  0  0  0  0  0  0  0  # atno 17342 bound_to 10162
  139.5409  144.2651  152.1348 LP  0  0  0  0  0  0  0  0  0  0  0  0  # atno 17343 bound_to 10162
  156.5675  130.4271  149.6034 LP  0  0  0  0  0  0  0  0  0  0  0  0  # atno 17370 bound_to 10713
  156.2768  130.7048  151.1861 LP  0  0  0  0  0  0  0  0  0  0  0  0  # atno 17371 bound_to 10713
  139.9146  134.8272  156.1409 LP  0  0  0  0  0  0  0  0  0  0  0  0  # atno 17394 bound_to 11000
  141.0730  133.6788  156.2179 LP  0  0  0  0  0  0  0  0  0  0  0  0  # atno 17395 bound_to 11000

$$$$
