AV-unprocessed.smi:1522|AV-procd|sdf|6136|dock5
  -GOLD-   22720 6283D 1   1.00000     0.00000
 Structure written by MMmdl.
 34 35  0  0  0  0  0  0  0  0  3 V2000
  147.4558  137.0588  154.7181 C   0  0  0  0  0  0  0  0  0  0  0  0
  147.6165  135.5255  154.8208 C   0  0  2  0  0  0  0  0  0  0  0  0
  149.0265  135.1699  155.3533 C   0  0  0  0  0  0  0  0  0  0  0  0
  148.9974  134.6996  156.7378 N   0  0  0  0  0  0  0  0  0  0  0  0
  148.9255  135.4572  157.8411 C   0  0  0  0  0  0  0  0  0  0  0  0
  148.9387  136.6860  157.7492 O   0  0  0  0  0  0  0  0  0  0  0  0
  148.8245  134.7422  158.9829 N   0  5  0  0  0  0  0  0  0  0  0  0
  148.3948  135.3359  160.1085 C   0  0  0  0  0  0  0  0  0  0  0  0
  148.3249  136.6711  160.2337 N   0  0  0  0  0  0  0  0  0  0  0  0
  147.8563  137.0787  161.4751 N   0  0  0  0  0  0  0  0  0  0  0  0
  147.5739  136.0350  162.2546 C   0  0  0  0  0  0  0  0  0  0  0  0
  147.8563  134.4597  161.5436 S   0  0  0  0  0  0  0  0  0  0  0  0
  147.3358  134.8366  153.5272 N   0  3  0  0  0  0  0  0  0  0  0  0
  147.5986  133.3825  153.5257 C   0  0  0  0  0  0  0  0  0  0  0  0
  146.9408  132.8695  152.2478 C   0  0  0  0  0  0  0  0  0  0  0  0
  145.7488  133.8041  152.0264 C   0  0  0  0  0  0  0  0  0  0  0  0
  145.9653  134.9812  152.9873 C   0  0  0  0  0  0  0  0  0  0  0  0
  147.7485  137.5432  155.6501 H   0  0  0  0  0  0  0  0  0  0  0  0
  146.4235  137.3506  154.5258 H   0  0  0  0  0  0  0  0  0  0  0  0
  148.0735  137.4768  153.9222 H   0  0  0  0  0  0  0  0  0  0  0  0
  146.8835  135.1758  155.5493 H   0  0  0  0  0  0  0  0  0  0  0  0
  149.4485  134.3672  154.7480 H   0  0  0  0  0  0  0  0  0  0  0  0
  149.7163  136.0072  155.2419 H   0  0  0  0  0  0  0  0  0  0  0  0
  148.9971  133.6988  156.8730 H   0  0  0  0  0  0  0  0  0  0  0  0
  147.1957  136.1933  163.2535 H   0  0  0  0  0  0  0  0  0  0  0  0
  148.6598  133.1406  153.5627 H   0  0  0  0  0  0  0  0  0  0  0  0
  147.1215  132.9239  154.3933 H   0  0  0  0  0  0  0  0  0  0  0  0
  147.6391  132.9632  151.4147 H   0  0  0  0  0  0  0  0  0  0  0  0
  146.6486  131.8216  152.3206 H   0  0  0  0  0  0  0  0  0  0  0  0
  145.7108  134.1392  150.9891 H   0  0  0  0  0  0  0  0  0  0  0  0
  144.8060  133.3010  152.2445 H   0  0  0  0  0  0  0  0  0  0  0  0
  145.2406  134.9153  153.8004 H   0  0  0  0  0  0  0  0  0  0  0  0
  145.8333  135.9435  152.4913 H   0  0  0  0  0  0  0  0  0  0  0  0
  147.9538  135.2413  152.8369 H   0  0  0  0  0  0  0  0  0  0  0  0
  1  2  1  0  0  0  0
  1 18  1  0  0  0  0
  1 19  1  0  0  0  0
  1 20  1  0  0  0  0
  2  3  1  0  0  0  0
  2 13  1  0  0  0  0
  2 21  1  0  0  0  0
  3  4  1  0  0  0  0
  3 22  1  0  0  0  0
  3 23  1  0  0  0  0
  4  5  1  0  0  0  0
  4 24  1  0  0  0  0
  5  6  2  0  0  0  0
  5  7  1  0  0  0  0
  7  8  1  0  0  0  0
  8 12  1  0  0  0  0
  8  9  2  0  0  0  0
  9 10  1  0  0  0  0
 10 11  2  0  0  0  0
 11 12  1  0  0  0  0
 11 25  1  0  0  0  0
 13 17  1  0  0  0  0
 13 14  1  0  0  0  0
 13 34  1  0  0  0  0
 14 15  1  0  0  0  0
 14 26  1  0  0  0  0
 14 27  1  0  0  0  0
 15 16  1  0  0  0  0
 15 28  1  0  0  0  0
 15 29  1  0  0  0  0
 16 17  1  0  0  0  0
 16 30  1  0  0  0  0
 16 31  1  0  0  0  0
 17 32  1  0  0  0  0
 17 33  1  0  0  0  0
M  CHG  1   7  -1
M  CHG  1  13   1
M  END
> <s_m_source_file>
AV-unprocessed.smi

> <i_m_source_file_index>
1522

> <i_lp_mmshare_version>
43012

> <i_f3d_flags>
0

> <s_epik_input>
W0NIMl0xW0NIMl1bQ0gyXVtDSDJdTjFbQ0BIXShbQ0gzXSlbQ0gyXVtOSF1DKD1PKVtOSF1jMm5uW2NIXXMy

> <s_epik_cmdline>
J2VwaWtfcHl0aG9uJywgJy1waCcsICc3LjAnLCAnLXRuJywgJzgnLCAnLW1hJywgJzIwMCcsICctbWV0YWxfYmluZGluZycsICctaW1hZScsICc8aW5maWxlLm1hZT4nLCAnLW9tYWUnLCAnPG91dGZpbGUubWFlPic=

> <r_lp_tautomer_probability>
1

> <r_epik_Ionization_Penalty>
3.04208

> <r_epik_Ionization_Penalty_Charging>
3.00964

> <r_epik_Ionization_Penalty_Neutral>
0.0324455

> <r_epik_State_Penalty>
3.0051

> <r_epik_Charging_Adjusted_Penalty>
6.01474

> <i_epik_Tot_Q>
0

> <i_epik_Tot_abs_Q>
2

> <r_epik_Metal_State_Penalty>
0.454155

> <b_epik_Metal_Only>
1

> <s_lp_Force_Field>
OPLS_2005

> <r_lp_Energy>
27.863

> <b_lp_Chiralities_Consistent>
1

> <s_lp_Variant>
AV-unprocessed.smi:1522-3

> <Gold.Version>
5.8.1

> <Gold.Id.Protein>
6NUR|6NUR_protein|mol2

> <Gold.PLP.Fitness>
38.2398

> <Gold.PLP.PLP>
-22.8007

> <Gold.PLP.part.hbond>
-4.2646

> <Gold.PLP.part.metal>
0.0000

> <Gold.PLP.part.buried>
-2.0356

> <Gold.PLP.part.nonpolar>
-15.7770

> <Gold.PLP.part.repulsive>
0.0501

> <Gold.PLP.ligand.clash>
0.0000

> <Gold.PLP.ligand.torsion>
0.9923

> <Gold.PLP.Chemscore.Hbond>
5.7840

> <Gold.PLP.Chemscore.CHOScore>
0.0000

> <Gold.PLP.Chemscore.Metal>
0.0000

> <Gold.Chemscore.Hbonds>
donor molecule, donor type, donor heavy atom, donor atom, acceptor molecule, acceptor atom, score
      L1  H    13    34       P1  7948  2.00
      P1  H  6896  6908       L1     7  1.70
      P1  H  6931  6943       L1    10  1.00
      P1  H  6934  6947       L1    10  0.55

> <Gold.PLP.Chemscore.Internal.Correction>
0.0717

> <Gold.Rescore>
     Score         DG    S(hbond)    S(metal)    S(lipo)     H(rot)  DE(clash)    DE(int)     intcor
      9.73     -12.49       1.86        0.00      43.51       1.68       0.07       2.70       ----

> <Gold.Chemscore.Fitness>
9.7298

> <Gold.Chemscore.DG>
-12.4914

> <Gold.Chemscore.ZeroCoef>
-5.4800

> <Gold.Chemscore.Hbond>
1.8597

> <Gold.Chemscore.Metal>
0.0000

> <Gold.Chemscore.Lipo>
43.5119

> <Gold.Chemscore.Internal_Hbond>
0.0000

> <Gold.Chemscore.DEClash>
0.0653

> <Gold.Chemscore.DEInternal>
2.6963

> <Gold.Chemscore.Rot>
1.6762

> <Gold.Chemscore.Internal.Correction>
   9.000000E+99

> <Gold.Chemscore.Hbonds>
donor molecule, donor type, donor heavy atom, donor atom, acceptor molecule, acceptor atom, score
      L1  H    13    34       P1  7948  0.99
      P1  H  6896  6908       L1     7  0.07
      P1  H  6931  6943       L1    10  0.29
      P1  H  6934  6947       L1    10  0.12

> <Gold.Chemscore.Hbond.Weighted>
-6.2115

> <Gold.Chemscore.Metal.Weighted>
-0.0000

> <Gold.Chemscore.Lipo.Weighted>
-5.0909

> <Gold.Chemscore.Internal_Hbond.Weighted>
0.0000

> <Gold.Chemscore.DEClash.Weighted>
0.0653

> <Gold.Chemscore.DEInternal.Weighted>
2.6963

> <Gold.Chemscore.Rot.Weighted>
4.2910

> <Gold.Chemscore.Internal.Correction.Weighted>
   9.000000E+99

> <Gold.Protein.RotatedTorsions>
[ 6907 6896 6895 6894 ] final  164.37 input  -60.11 | X-H torsion
[ 7974 7965 7964 7962 ] final   24.02 input  175.53 | X-H torsion
[ 8008 7997 7996 7995 ] final   95.26 input   59.86 | X-H torsion
[ 10167 10162 10161 10158 ] final   -4.95 input  -65.29 | X-H torsion
[ 10718 10713 10712 10709 ] final   -3.89 input   66.30 | X-H torsion
[ 10763 10752 10751 10750 ] final   56.93 input  -60.55 | X-H torsion
[ 11005 11000 10999 10996 ] final  129.44 input  -57.11 | X-H torsion

> <Gold.Protein.ActiveResidues>
 VAL166  LYS551  ARG553  GLY616  TRP617  ASP618  TYR619  PRO620  LYS621  CYS622 
 ASP623  PHE694  ASN695  SER759  ASP760  ASP761  ALA762  ILE779  LEU786  VAL792 
 PHE793  MET794  SER795  GLU796  ALA797  LYS798  CYS799  TRP800  GLU811  SER814 

> <Gold.Protein.RotatedAtoms>
  151.9108  133.3561  159.3862 H   0  0  0  0  0  0  0  0  0  0  0  0  # atno 6907 bound_to 6896
  150.7058  134.4733  159.5445 H   0  0  0  0  0  0  0  0  0  0  0  0  # atno 6908 bound_to 6896
  152.2339  134.8295  160.0520 H   0  0  0  0  0  0  0  0  0  0  0  0  # atno 6909 bound_to 6896
  146.1957  139.7663  142.8799 H   0  0  0  0  0  0  0  0  0  0  0  0  # atno 7974 bound_to 7965
  156.0669  140.3289  155.7529 H   0  0  0  0  0  0  0  0  0  0  0  0  # atno 8008 bound_to 7997
  155.5367  140.0598  157.2895 H   0  0  0  0  0  0  0  0  0  0  0  0  # atno 8009 bound_to 7997
  154.4510  140.1918  156.0538 H   0  0  0  0  0  0  0  0  0  0  0  0  # atno 8010 bound_to 7997
  140.6946  143.6364  150.8475 H   0  0  0  0  0  0  0  0  0  0  0  0  # atno 10167 bound_to 10162
  156.7693  130.5295  149.5770 H   0  0  0  0  0  0  0  0  0  0  0  0  # atno 10718 bound_to 10713
  152.9840  135.5659  154.5308 H   0  0  0  0  0  0  0  0  0  0  0  0  # atno 10763 bound_to 10752
  154.4780  135.2787  155.1594 H   0  0  0  0  0  0  0  0  0  0  0  0  # atno 10764 bound_to 10752
  154.3115  135.6287  153.5521 H   0  0  0  0  0  0  0  0  0  0  0  0  # atno 10765 bound_to 10752
  139.9615  134.9601  156.9148 H   0  0  0  0  0  0  0  0  0  0  0  0  # atno 11005 bound_to 11000
  145.3650  141.0333  143.3263 LP  0  0  0  0  0  0  0  0  0  0  0  0  # atno 17320 bound_to 7965
  144.8576  139.5226  143.6827 LP  0  0  0  0  0  0  0  0  0  0  0  0  # atno 17321 bound_to 7965
  140.0081  143.5672  152.2850 LP  0  0  0  0  0  0  0  0  0  0  0  0  # atno 17342 bound_to 10162
  139.6386  144.7652  151.2386 LP  0  0  0  0  0  0  0  0  0  0  0  0  # atno 17343 bound_to 10162
  156.1288  130.6163  151.0303 LP  0  0  0  0  0  0  0  0  0  0  0  0  # atno 17370 bound_to 10713
  157.6698  131.0864  150.7639 LP  0  0  0  0  0  0  0  0  0  0  0  0  # atno 17371 bound_to 10713
  140.5489  134.0647  155.7363 LP  0  0  0  0  0  0  0  0  0  0  0  0  # atno 17394 bound_to 11000
  141.1293  133.9330  157.2570 LP  0  0  0  0  0  0  0  0  0  0  0  0  # atno 17395 bound_to 11000

$$$$
