AV-unprocessed.smi:1610|AV-procd|sdf|6472|dock9
  -GOLD-   22720 7133D 1   1.00000     0.00000
 Structure written by MMmdl.
 43 44  0  0  0  0  0  0  0  0  2 V2000
  143.7790  146.7656  155.3481 C   0  0  0  0  0  0  0  0  0  0  0  0
  143.8778  145.1519  154.4770 S   0  0  0  0  0  0  0  0  0  0  0  0
  142.5465  144.5397  154.6155 O   0  0  0  0  0  0  0  0  0  0  0  0
  144.3383  145.4614  153.1140 O   0  0  0  0  0  0  0  0  0  0  0  0
  145.0068  144.4056  155.3692 N   0  5  0  0  0  0  0  0  0  0  0  0
  145.3749  143.0265  155.0813 C   0  0  0  0  0  0  0  0  0  0  0  0
  146.1192  142.4180  156.3018 C   0  0  0  0  0  0  0  0  0  0  0  0
  146.8021  141.0548  156.0008 C   0  0  0  0  0  0  0  0  0  0  0  0
  147.7344  141.1939  154.8629 N   0  0  0  0  0  0  0  0  0  0  0  0
  149.0810  141.3363  154.9316 C   0  0  0  0  0  0  0  0  0  0  0  0
  149.8230  141.1775  153.9611 O   0  0  0  0  0  0  0  0  0  0  0  0
  149.5410  141.7244  156.1342 N   0  0  0  0  0  0  0  0  0  0  0  0
  150.8886  142.2205  156.4071 C   0  0  0  0  0  0  0  0  0  0  0  0
  151.3030  141.9648  157.8713 C   0  0  0  0  0  0  0  0  0  0  0  0
  151.5200  143.2263  158.6967 C   0  0  0  0  0  0  0  0  0  0  0  0
  151.9888  143.1617  160.0264 C   0  0  0  0  0  0  0  0  0  0  0  0
  152.2150  144.3617  160.7274 C   0  0  0  0  0  0  0  0  0  0  0  0
  151.9479  145.5811  160.0745 C   0  0  0  0  0  0  0  0  0  0  0  0
  151.4752  145.6563  158.8122 N   0  0  0  0  0  0  0  0  0  0  0  0
  151.2721  144.5011  158.1434 C   0  0  0  0  0  0  0  0  0  0  0  0
  146.9721  141.5490  153.6533 C   0  0  0  0  0  0  0  0  0  0  0  0
  146.3033  142.9419  153.8354 C   0  0  0  0  0  0  0  0  0  0  0  0
  143.0345  147.3938  154.8604 H   0  0  0  0  0  0  0  0  0  0  0  0
  144.7506  147.2577  155.3114 H   0  0  0  0  0  0  0  0  0  0  0  0
  143.4926  146.6011  156.3864 H   0  0  0  0  0  0  0  0  0  0  0  0
  144.4979  142.4064  154.8922 H   0  0  0  0  0  0  0  0  0  0  0  0
  146.8877  143.1120  156.6408 H   0  0  0  0  0  0  0  0  0  0  0  0
  145.4260  142.3048  157.1360 H   0  0  0  0  0  0  0  0  0  0  0  0
  147.2856  140.6806  156.9030 H   0  0  0  0  0  0  0  0  0  0  0  0
  146.0542  140.2969  155.7579 H   0  0  0  0  0  0  0  0  0  0  0  0
  148.8675  141.8164  156.8807 H   0  0  0  0  0  0  0  0  0  0  0  0
  151.5920  141.7354  155.7302 H   0  0  0  0  0  0  0  0  0  0  0  0
  150.9595  143.2887  156.1978 H   0  0  0  0  0  0  0  0  0  0  0  0
  150.5316  141.3631  158.3536 H   0  0  0  0  0  0  0  0  0  0  0  0
  152.2137  141.3662  157.8985 H   0  0  0  0  0  0  0  0  0  0  0  0
  152.1933  142.2109  160.4956 H   0  0  0  0  0  0  0  0  0  0  0  0
  152.5920  144.3488  161.7390 H   0  0  0  0  0  0  0  0  0  0  0  0
  152.1154  146.5205  160.5804 H   0  0  0  0  0  0  0  0  0  0  0  0
  150.9105  144.6011  157.1308 H   0  0  0  0  0  0  0  0  0  0  0  0
  147.6011  141.5624  152.7622 H   0  0  0  0  0  0  0  0  0  0  0  0
  146.2220  140.7799  153.4569 H   0  0  0  0  0  0  0  0  0  0  0  0
  145.7399  143.1883  152.9354 H   0  0  0  0  0  0  0  0  0  0  0  0
  147.0902  143.6941  153.9152 H   0  0  0  0  0  0  0  0  0  0  0  0
  1  2  1  0  0  0  0
  1 23  1  0  0  0  0
  1 24  1  0  0  0  0
  1 25  1  0  0  0  0
  2  3  2  0  0  0  0
  2  4  2  0  0  0  0
  2  5  1  0  0  0  0
  5  6  1  0  0  0  0
  6 22  1  0  0  0  0
  6  7  1  0  0  0  0
  6 26  1  0  0  0  0
  7  8  1  0  0  0  0
  7 27  1  0  0  0  0
  7 28  1  0  0  0  0
  8  9  1  0  0  0  0
  8 29  1  0  0  0  0
  8 30  1  0  0  0  0
  9 10  1  0  0  0  0
  9 21  1  0  0  0  0
 10 11  2  0  0  0  0
 10 12  1  0  0  0  0
 12 13  1  0  0  0  0
 12 31  1  0  0  0  0
 13 14  1  0  0  0  0
 13 32  1  0  0  0  0
 13 33  1  0  0  0  0
 14 15  1  0  0  0  0
 14 34  1  0  0  0  0
 14 35  1  0  0  0  0
 15 20  1  0  0  0  0
 15 16  2  0  0  0  0
 16 17  1  0  0  0  0
 16 36  1  0  0  0  0
 17 18  2  0  0  0  0
 17 37  1  0  0  0  0
 18 19  1  0  0  0  0
 18 38  1  0  0  0  0
 19 20  2  0  0  0  0
 20 39  1  0  0  0  0
 21 22  1  0  0  0  0
 21 40  1  0  0  0  0
 21 41  1  0  0  0  0
 22 42  1  0  0  0  0
 22 43  1  0  0  0  0
M  CHG  1   5  -1
M  END
> <s_m_source_file>
AV-unprocessed.smi

> <i_m_source_file_index>
1610

> <i_lp_mmshare_version>
43012

> <i_f3d_flags>
0

> <s_epik_input>
W0NIM11TKD1PKSg9TylbTkhdW0NIXTFbQ0gyXVtDSDJdTihbQ0gyXVtDSDJdMSlDKD1PKVtOSF1bQ0gyXVtDSDJdYzJbY0hdW2NIXVtjSF1uW2NIXTI=

> <s_epik_cmdline>
J2VwaWtfcHl0aG9uJywgJy1waCcsICc3LjAnLCAnLXRuJywgJzgnLCAnLW1hJywgJzIwMCcsICctbWV0YWxfYmluZGluZycsICctaW1hZScsICc8aW5maWxlLm1hZT4nLCAnLW9tYWUnLCAnPG91dGZpbGUubWFlPic=

> <r_epik_Ionization_Penalty>
6.72257

> <r_epik_Ionization_Penalty_Charging>
6.70803

> <r_epik_Ionization_Penalty_Neutral>
0.0145361

> <r_epik_State_Penalty>
6.71933

> <r_epik_Charging_Adjusted_Penalty>
13.4274

> <i_epik_Tot_Q>
-1

> <i_epik_Tot_abs_Q>
1

> <r_epik_Metal_State_Penalty>
2.65475

> <b_epik_Metal_Only>
1

> <s_lp_Force_Field>
OPLS_2005

> <r_lp_Energy>
25.1746

> <b_lp_Chiralities_Consistent>
1

> <s_lp_Variant>
AV-unprocessed.smi:1610-3

> <Gold.Version>
5.8.1

> <Gold.Id.Protein>
6NUR|6NUR_protein|mol2

> <Gold.PLP.Fitness>
48.7921

> <Gold.PLP.PLP>
-44.8161

> <Gold.PLP.part.hbond>
-4.4884

> <Gold.PLP.part.metal>
0.0000

> <Gold.PLP.part.buried>
-4.5220

> <Gold.PLP.part.nonpolar>
-36.6970

> <Gold.PLP.part.repulsive>
1.4469

> <Gold.PLP.ligand.clash>
0.0000

> <Gold.PLP.ligand.torsion>
1.7468

> <Gold.PLP.Chemscore.Hbond>
1.1360

> <Gold.PLP.Chemscore.CHOScore>
1.0000

> <Gold.PLP.Chemscore.Metal>
0.0000

> <Gold.Chemscore.Hbonds>
donor molecule, donor type, donor heavy atom, donor atom, acceptor molecule, acceptor atom, score
      P1  H  7989  7998       L1    11  0.35
      P1  H  8011  8017       L1    11  0.76
      L1  C    20    39       P1  8028  1.00

> <Gold.PLP.Chemscore.Internal.Correction>
1.0616

> <Gold.Rescore>
     Score         DG    S(hbond)    S(metal)    S(lipo)     H(rot)  DE(clash)    DE(int)     intcor
     14.36     -16.63       1.11        0.00     100.27       1.68       0.48       1.79       ----

> <Gold.Chemscore.Fitness>
14.3570

> <Gold.Chemscore.DG>
-16.6302

> <Gold.Chemscore.ZeroCoef>
-5.4800

> <Gold.Chemscore.Hbond>
1.1145

> <Gold.Chemscore.Metal>
0.0000

> <Gold.Chemscore.Lipo>
100.2728

> <Gold.Chemscore.Internal_Hbond>
0.0000

> <Gold.Chemscore.DEClash>
0.4811

> <Gold.Chemscore.DEInternal>
1.7921

> <Gold.Chemscore.Rot>
1.6813

> <Gold.Chemscore.Internal.Correction>
   9.000000E+99

> <Gold.Chemscore.Hbonds>
donor molecule, donor type, donor heavy atom, donor atom, acceptor molecule, acceptor atom, score
      P1  H  7989  7998       L1    11  0.36
      P1  H  8011  8017       L1    11  0.70

> <Gold.Chemscore.Hbond.Weighted>
-3.7225

> <Gold.Chemscore.Metal.Weighted>
-0.0000

> <Gold.Chemscore.Lipo.Weighted>
-11.7319

> <Gold.Chemscore.Internal_Hbond.Weighted>
0.0000

> <Gold.Chemscore.DEClash.Weighted>
0.4811

> <Gold.Chemscore.DEInternal.Weighted>
1.7921

> <Gold.Chemscore.Rot.Weighted>
4.3042

> <Gold.Chemscore.Internal.Correction.Weighted>
   9.000000E+99

> <Gold.Protein.RotatedTorsions>
[ 6907 6896 6895 6894 ] final -110.10 input  -60.11 | X-H torsion
[ 7974 7965 7964 7962 ] final   82.80 input  175.53 | X-H torsion
[ 8008 7997 7996 7995 ] final   55.35 input   59.86 | X-H torsion
[ 10167 10162 10161 10158 ] final   18.10 input  -65.29 | X-H torsion
[ 10718 10713 10712 10709 ] final -100.72 input   66.30 | X-H torsion
[ 10763 10752 10751 10750 ] final  142.15 input  -60.55 | X-H torsion
[ 11005 11000 10999 10996 ] final   73.94 input  -57.11 | X-H torsion

> <Gold.Protein.ActiveResidues>
 VAL166  LYS551  ARG553  GLY616  TRP617  ASP618  TYR619  PRO620  LYS621  CYS622 
 ASP623  PHE694  ASN695  SER759  ASP760  ASP761  ALA762  ILE779  LEU786  VAL792 
 PHE793  MET794  SER795  GLU796  ALA797  LYS798  CYS799  TRP800  GLU811  SER814 

> <Gold.Protein.RotatedAtoms>
  150.7603  133.9432  159.3462 H   0  0  0  0  0  0  0  0  0  0  0  0  # atno 6907 bound_to 6896
  151.7342  135.0866  160.0314 H   0  0  0  0  0  0  0  0  0  0  0  0  # atno 6908 bound_to 6896
  152.3570  133.6212  159.6023 H   0  0  0  0  0  0  0  0  0  0  0  0  # atno 6909 bound_to 6896
  145.6202  139.2384  143.2142 H   0  0  0  0  0  0  0  0  0  0  0  0  # atno 7974 bound_to 7965
  155.4996  140.3474  155.4369 H   0  0  0  0  0  0  0  0  0  0  0  0  # atno 8008 bound_to 7997
  156.0922  140.1413  156.9604 H   0  0  0  0  0  0  0  0  0  0  0  0  # atno 8009 bound_to 7997
  154.4642  140.0923  156.6952 H   0  0  0  0  0  0  0  0  0  0  0  0  # atno 8010 bound_to 7997
  140.5678  143.9219  150.6689 H   0  0  0  0  0  0  0  0  0  0  0  0  # atno 10167 bound_to 10162
  156.0172  130.5341  150.6859 H   0  0  0  0  0  0  0  0  0  0  0  0  # atno 10718 bound_to 10713
  153.9511  135.2970  155.3438 H   0  0  0  0  0  0  0  0  0  0  0  0  # atno 10763 bound_to 10752
  154.7426  135.5018  153.9152 H   0  0  0  0  0  0  0  0  0  0  0  0  # atno 10764 bound_to 10752
  153.0994  135.6730  153.9810 H   0  0  0  0  0  0  0  0  0  0  0  0  # atno 10765 bound_to 10752
  139.9415  134.7390  156.1087 H   0  0  0  0  0  0  0  0  0  0  0  0  # atno 11005 bound_to 11000
  146.1437  140.7023  142.9355 LP  0  0  0  0  0  0  0  0  0  0  0  0  # atno 17320 bound_to 7965
  144.7234  140.4447  143.6991 LP  0  0  0  0  0  0  0  0  0  0  0  0  # atno 17321 bound_to 7965
  140.2686  143.3472  152.1258 LP  0  0  0  0  0  0  0  0  0  0  0  0  # atno 17342 bound_to 10162
  139.5101  144.6879  151.5838 LP  0  0  0  0  0  0  0  0  0  0  0  0  # atno 17343 bound_to 10162
  157.4551  131.0877  151.0805 LP  0  0  0  0  0  0  0  0  0  0  0  0  # atno 17370 bound_to 10713
  157.1309  130.6102  149.5529 LP  0  0  0  0  0  0  0  0  0  0  0  0  # atno 17371 bound_to 10713
  141.1051  133.6663  156.2846 LP  0  0  0  0  0  0  0  0  0  0  0  0  # atno 17394 bound_to 11000
  140.5939  134.5622  157.5505 LP  0  0  0  0  0  0  0  0  0  0  0  0  # atno 17395 bound_to 11000

$$$$
