AV-unprocessed.smi:1598|AV-procd|sdf|6422|dock7
  -GOLD-   22720 7 63D 1   1.00000     0.00000
 Structure written by MMmdl.
 39 39  0  0  0  0  0  0  0  0  1 V2000
  148.1289  136.0608  160.3444 C   0  0  0  0  0  0  0  0  0  0  0  0
  149.1453  136.0798  159.3576 O   0  0  0  0  0  0  0  0  0  0  0  0
  150.0238  137.1833  159.5036 C   0  0  0  0  0  0  0  0  0  0  0  0
  150.7657  137.4280  158.1803 C   0  0  1  0  0  0  0  0  0  0  0  0
  149.8875  138.1609  157.1522 C   0  0  0  0  0  0  0  0  0  0  0  0
  151.9720  138.2032  158.4496 N   0  0  0  0  0  0  0  0  0  0  0  0
  152.9570  137.8586  159.2970 C   0  0  0  0  0  0  0  0  0  0  0  0
  152.9432  136.8134  159.9459 O   0  0  0  0  0  0  0  0  0  0  0  0
  154.1528  138.8182  159.4510 C   0  0  0  0  0  0  0  0  0  0  0  0
  153.8163  140.1810  159.9418 N   0  0  0  0  0  0  0  0  0  0  0  0
  154.2311  140.5949  161.2468 C   0  0  0  0  0  0  0  0  0  0  0  0
  155.0762  139.6446  162.1077 C   0  0  0  0  0  0  0  0  0  0  0  0
  155.3802  140.2002  163.2815 F   0  0  0  0  0  0  0  0  0  0  0  0
  154.4060  138.5229  162.3728 F   0  0  0  0  0  0  0  0  0  0  0  0
  156.2341  139.3374  161.5238 F   0  0  0  0  0  0  0  0  0  0  0  0
  153.9096  141.8234  161.6926 C   0  0  0  0  0  0  0  0  0  0  0  0
  153.1449  142.7158  160.8660 C   0  0  0  0  0  0  0  0  0  0  0  0
  152.7495  142.3426  159.6280 C   0  0  0  0  0  0  0  0  0  0  0  0
  151.9638  143.2281  158.7380 C   0  0  0  0  0  0  0  0  0  0  0  0
  151.1860  142.5789  157.8623 N   0  0  0  0  0  0  0  0  0  0  0  0
  151.9597  144.4589  158.7331 O   0  0  0  0  0  0  0  0  0  0  0  0
  153.0930  140.9971  159.0998 C   0  0  0  0  0  0  0  0  0  0  0  0
  152.7751  140.5981  157.9754 O   0  0  0  0  0  0  0  0  0  0  0  0
  147.4854  135.1949  160.1900 H   0  0  0  0  0  0  0  0  0  0  0  0
  147.5080  136.9558  160.2879 H   0  0  0  0  0  0  0  0  0  0  0  0
  148.5530  135.9902  161.3468 H   0  0  0  0  0  0  0  0  0  0  0  0
  149.4671  138.0749  159.7977 H   0  0  0  0  0  0  0  0  0  0  0  0
  150.7412  136.9698  160.2982 H   0  0  0  0  0  0  0  0  0  0  0  0
  151.0537  136.4574  157.7722 H   0  0  0  0  0  0  0  0  0  0  0  0
  148.9851  137.5917  156.9288 H   0  0  0  0  0  0  0  0  0  0  0  0
  150.4198  138.3096  156.2123 H   0  0  0  0  0  0  0  0  0  0  0  0
  149.5803  139.1406  157.5195 H   0  0  0  0  0  0  0  0  0  0  0  0
  152.0626  139.0791  157.9561 H   0  0  0  0  0  0  0  0  0  0  0  0
  154.8726  138.3435  160.1206 H   0  0  0  0  0  0  0  0  0  0  0  0
  154.6913  138.8348  158.5083 H   0  0  0  0  0  0  0  0  0  0  0  0
  154.2213  142.1608  162.6700 H   0  0  0  0  0  0  0  0  0  0  0  0
  152.9066  143.6855  161.2773 H   0  0  0  0  0  0  0  0  0  0  0  0
  150.6124  143.0965  157.2130 H   0  0  0  0  0  0  0  0  0  0  0  0
  151.1775  141.5692  157.8562 H   0  0  0  0  0  0  0  0  0  0  0  0
  1  2  1  0  0  0  0
  1 24  1  0  0  0  0
  1 25  1  0  0  0  0
  1 26  1  0  0  0  0
  2  3  1  0  0  0  0
  3  4  1  0  0  0  0
  3 27  1  0  0  0  0
  3 28  1  0  0  0  0
  4  5  1  0  0  0  0
  4  6  1  0  0  0  0
  4 29  1  0  0  0  0
  5 30  1  0  0  0  0
  5 31  1  0  0  0  0
  5 32  1  0  0  0  0
  6  7  1  0  0  0  0
  6 33  1  0  0  0  0
  7  8  2  0  0  0  0
  7  9  1  0  0  0  0
  9 10  1  0  0  0  0
  9 34  1  0  0  0  0
  9 35  1  0  0  0  0
 10 22  1  0  0  0  0
 10 11  1  0  0  0  0
 11 12  1  0  0  0  0
 11 16  2  0  0  0  0
 12 13  1  0  0  0  0
 12 14  1  0  0  0  0
 12 15  1  0  0  0  0
 16 17  1  0  0  0  0
 16 36  1  0  0  0  0
 17 18  2  0  0  0  0
 17 37  1  0  0  0  0
 18 19  1  0  0  0  0
 18 22  1  0  0  0  0
 19 20  1  0  0  0  0
 19 21  2  0  0  0  0
 20 38  1  0  0  0  0
 20 39  1  0  0  0  0
 22 23  2  0  0  0  0
M  END
> <s_m_source_file>
AV-unprocessed.smi

> <i_m_source_file_index>
1598

> <i_lp_mmshare_version>
43012

> <i_f3d_flags>
0

> <s_epik_input>
W0NIM11PW0NIMl1bQ0BIXShbQ0gzXSlbTkhdQyg9TylbQ0gyXW4xYyhDKEYpKEYpRilbY0hdW2NIXWMoYzE9TylDKD1PKVtOSDJd

> <s_epik_cmdline>
J2VwaWtfcHl0aG9uJywgJy1waCcsICc3LjAnLCAnLXRuJywgJzgnLCAnLW1hJywgJzIwMCcsICctbWV0YWxfYmluZGluZycsICctaW1hZScsICc8aW5maWxlLm1hZT4nLCAnLW9tYWUnLCAnPG91dGZpbGUubWFlPic=

> <r_lp_tautomer_probability>
1

> <r_epik_Ionization_Penalty>
2.07884e-06

> <r_epik_Ionization_Penalty_Charging>
8.00383e-10

> <r_epik_Ionization_Penalty_Neutral>
2.07804e-06

> <r_epik_State_Penalty>
-0

> <r_epik_Charging_Adjusted_Penalty>
8.00383e-10

> <i_epik_Tot_Q>
0

> <i_epik_Tot_abs_Q>
0

> <r_epik_Metal_State_Penalty>
-0

> <b_epik_Metal_Only>
0

> <s_lp_Force_Field>
OPLS_2005

> <r_lp_Energy>
25.2492

> <b_lp_Chiralities_Consistent>
1

> <s_lp_Variant>
AV-unprocessed.smi:1598-2

> <Gold.Version>
5.8.1

> <Gold.Id.Protein>
6NUR|6NUR_protein|mol2

> <Gold.PLP.Fitness>
43.8159

> <Gold.PLP.PLP>
-37.1223

> <Gold.PLP.part.hbond>
-3.0000

> <Gold.PLP.part.metal>
0.0000

> <Gold.PLP.part.buried>
-2.4246

> <Gold.PLP.part.nonpolar>
-30.9144

> <Gold.PLP.part.repulsive>
0.1793

> <Gold.PLP.ligand.clash>
3.8905

> <Gold.PLP.ligand.torsion>
0.6643

> <Gold.PLP.Chemscore.Hbond>
2.6287

> <Gold.PLP.Chemscore.CHOScore>
0.0000

> <Gold.PLP.Chemscore.Metal>
0.0000

> <Gold.Chemscore.Hbonds>
donor molecule, donor type, donor heavy atom, donor atom, acceptor molecule, acceptor atom, score
      P1  H  6896  6908       L1     2  0.46
      P1  H  6896  6909       L1     8  1.00
      P1  H  7997  8010       L1    23  0.64

> <Gold.PLP.Chemscore.Internal.Correction>
4.0265

> <Gold.Rescore>
     Score         DG    S(hbond)    S(metal)    S(lipo)     H(rot)  DE(clash)    DE(int)     intcor
      5.97     -13.42       1.75        0.00      70.99       2.43       0.14       7.32       ----

> <Gold.Chemscore.Fitness>
5.9675

> <Gold.Chemscore.DG>
-13.4246

> <Gold.Chemscore.ZeroCoef>
-5.4800

> <Gold.Chemscore.Hbond>
1.7536

> <Gold.Chemscore.Metal>
0.0000

> <Gold.Chemscore.Lipo>
70.9892

> <Gold.Chemscore.Internal_Hbond>
0.0000

> <Gold.Chemscore.DEClash>
0.1355

> <Gold.Chemscore.DEInternal>
7.3216

> <Gold.Chemscore.Rot>
2.4289

> <Gold.Chemscore.Internal.Correction>
   9.000000E+99

> <Gold.Chemscore.Hbonds>
donor molecule, donor type, donor heavy atom, donor atom, acceptor molecule, acceptor atom, score
      P1  H  6896  6908       L1     2  0.08
      P1  H  6896  6909       L1     8  0.94
      P1  H  7997  8010       L1    23  0.41

> <Gold.Chemscore.Hbond.Weighted>
-5.8569

> <Gold.Chemscore.Metal.Weighted>
-0.0000

> <Gold.Chemscore.Lipo.Weighted>
-8.3057

> <Gold.Chemscore.Internal_Hbond.Weighted>
0.0000

> <Gold.Chemscore.DEClash.Weighted>
0.1355

> <Gold.Chemscore.DEInternal.Weighted>
7.3216

> <Gold.Chemscore.Rot.Weighted>
6.2180

> <Gold.Chemscore.Internal.Correction.Weighted>
   9.000000E+99

> <Gold.Protein.RotatedTorsions>
[ 6907 6896 6895 6894 ] final  160.55 input  -60.11 | X-H torsion
[ 7974 7965 7964 7962 ] final  131.72 input  175.53 | X-H torsion
[ 8008 7997 7996 7995 ] final   39.47 input   59.86 | X-H torsion
[ 10167 10162 10161 10158 ] final  105.57 input  -65.29 | X-H torsion
[ 10718 10713 10712 10709 ] final   47.75 input   66.30 | X-H torsion
[ 10763 10752 10751 10750 ] final   51.55 input  -60.55 | X-H torsion
[ 11005 11000 10999 10996 ] final   56.52 input  -57.11 | X-H torsion

> <Gold.Protein.ActiveResidues>
 VAL166  LYS551  ARG553  GLY616  TRP617  ASP618  TYR619  PRO620  LYS621  CYS622 
 ASP623  PHE694  ASN695  SER759  ASP760  ASP761  ALA762  ILE779  LEU786  VAL792 
 PHE793  MET794  SER795  GLU796  ALA797  LYS798  CYS799  TRP800  GLU811  SER814 

> <Gold.Protein.RotatedAtoms>
  151.9690  133.3719  159.4063 H   0  0  0  0  0  0  0  0  0  0  0  0  # atno 6907 bound_to 6896
  150.6952  134.4160  159.5193 H   0  0  0  0  0  0  0  0  0  0  0  0  # atno 6908 bound_to 6896
  152.1861  134.8712  160.0572 H   0  0  0  0  0  0  0  0  0  0  0  0  # atno 6909 bound_to 6896
  145.0043  139.4281  143.5276 H   0  0  0  0  0  0  0  0  0  0  0  0  # atno 7974 bound_to 7965
  155.2372  140.3342  155.4296 H   0  0  0  0  0  0  0  0  0  0  0  0  # atno 8008 bound_to 7997
  156.2271  140.1834  156.7382 H   0  0  0  0  0  0  0  0  0  0  0  0  # atno 8009 bound_to 7997
  154.5916  140.0637  156.9232 H   0  0  0  0  0  0  0  0  0  0  0  0  # atno 8010 bound_to 7997
  139.7081  144.7082  151.1072 H   0  0  0  0  0  0  0  0  0  0  0  0  # atno 10167 bound_to 10162
  157.4616  130.8200  149.7893 H   0  0  0  0  0  0  0  0  0  0  0  0  # atno 10718 bound_to 10713
  152.9785  135.5842  154.4433 H   0  0  0  0  0  0  0  0  0  0  0  0  # atno 10763 bound_to 10752
  154.4031  135.2769  155.2086 H   0  0  0  0  0  0  0  0  0  0  0  0  # atno 10764 bound_to 10752
  154.3908  135.6125  153.5896 H   0  0  0  0  0  0  0  0  0  0  0  0  # atno 10765 bound_to 10752
  140.0523  134.5720  155.9249 H   0  0  0  0  0  0  0  0  0  0  0  0  # atno 11005 bound_to 11000
  146.3458  139.9450  142.8736 LP  0  0  0  0  0  0  0  0  0  0  0  0  # atno 17320 bound_to 7965
  145.2110  140.9895  143.4100 LP  0  0  0  0  0  0  0  0  0  0  0  0  # atno 17321 bound_to 7965
  140.7727  143.5330  150.9401 LP  0  0  0  0  0  0  0  0  0  0  0  0  # atno 17342 bound_to 10162
  139.9014  143.6831  152.3130 LP  0  0  0  0  0  0  0  0  0  0  0  0  # atno 17343 bound_to 10162
  156.0031  130.3869  150.2530 LP  0  0  0  0  0  0  0  0  0  0  0  0  # atno 17370 bound_to 10713
  157.0707  131.0116  151.3191 LP  0  0  0  0  0  0  0  0  0  0  0  0  # atno 17371 bound_to 10713
  141.1936  133.6579  156.5555 LP  0  0  0  0  0  0  0  0  0  0  0  0  # atno 17394 bound_to 11000
  140.3899  134.7450  157.4714 LP  0  0  0  0  0  0  0  0  0  0  0  0  # atno 17395 bound_to 11000

$$$$
