#       Name:                AV-unprocessed.smi:1349
#       Creating user name   scv26
#       Creation time:       Fri Mar 27 05:10:37 2020


#       File generated by GOLD software.
#

@<TRIPOS>MOLECULE
AV-unprocessed.smi:1349
    47    49     1
SMALL
NO_CHARGES


@<TRIPOS>ATOM
      1 ****        -3.9074   2.6307  -0.1417 O.3            1 S1                 0.0000
      2 ****        -3.3808   2.9751  -1.4057 C.3            1 S1                 0.0000
      3 ****        -1.8665   2.7239  -1.4428 C.3            1 S1                 0.0000
      4 ****        -1.4982   1.2333  -1.3697 C.3            1 S1                 0.0000
      5 ****        -0.0181   1.0328  -1.4076 C.2            1 S1                 0.0000
      6 ****         0.7257   0.7921  -2.5240 N.pl3          1 S1                 1.0000
      7 ****         2.0716   0.6661  -2.1773 C.ar           1 S1                 0.0000
      8 ****         3.1951   0.4161  -2.9592 C.ar           1 S1                 0.0000
      9 ****         4.4322   0.3454  -2.2852 C.ar           1 S1                 0.0000
     10 ****         4.5184   0.5195  -0.8884 C.ar           1 S1                 0.0000
     11 ****         3.3722   0.7731  -0.1062 C.ar           1 S1                 0.0000
     12 ****         2.1538   0.8432  -0.7811 C.ar           1 S1                 0.0000
     13 ****         0.8431   1.0727  -0.3499 N.pl3          1 S1                 0.0000
     14 ****         0.5875   1.2937   1.0811 C.3            1 S1                 0.0000
     15 ****         0.4678  -0.0246   1.8586 C.3            1 S1                 0.0000
     16 ****        -0.5516  -0.8194   1.2669 O.3            1 S1                 0.0000
     17 ****        -0.7875  -2.0747   1.7829 C.ar           1 S1                 0.0000
     18 ****        -1.7750  -2.8521   1.1432 C.ar           1 S1                 0.0000
     19 ****        -2.0797  -4.1487   1.6003 C.ar           1 S1                 0.0000
     20 ****        -1.3965  -4.6820   2.7088 C.ar           1 S1                 0.0000
     21 ****        -0.4106  -3.9162   3.3584 C.ar           1 S1                 0.0000
     22 ****        -0.1058  -2.6191   2.9007 C.ar           1 S1                 0.0000
     23 ****        -4.8344   2.8153  -0.1405 H              1 S1                 0.0000
     24 ****        -3.8901   2.4038  -2.1825 H              1 S1                 0.0000
     25 ****        -3.5897   4.0292  -1.5903 H              1 S1                 0.0000
     26 ****        -1.4649   3.1423  -2.3664 H              1 S1                 0.0000
     27 ****        -1.3869   3.2692  -0.6287 H              1 S1                 0.0000
     28 ****        -1.8942   0.7851  -0.4582 H              1 S1                 0.0000
     29 ****        -1.9504   0.6929  -2.2020 H              1 S1                 0.0000
     30 ****         3.1307   0.2808  -4.0289 H              1 S1                 0.0000
     31 ****         5.3323   0.1529  -2.8507 H              1 S1                 0.0000
     32 ****         5.4833   0.4571  -0.4062 H              1 S1                 0.0000
     33 ****         3.4481   0.9031   0.9632 H              1 S1                 0.0000
     34 ****         1.3790   1.9220   1.4905 H              1 S1                 0.0000
     35 ****        -0.3369   1.8645   1.1713 H              1 S1                 0.0000
     36 ****         1.4216  -0.5539   1.8327 H              1 S1                 0.0000
     37 ****         0.2270   0.1864   2.9015 H              1 S1                 0.0000
     38 ****        -2.3045  -2.4498   0.2918 H              1 S1                 0.0000
     39 ****        -2.8380  -4.7333   1.1004 H              1 S1                 0.0000
     40 ****        -1.6286  -5.6765   3.0605 H              1 S1                 0.0000
     41 ****         0.1137  -4.3240   4.2100 H              1 S1                 0.0000
     42 ****         0.6550  -2.0616   3.4255 H              1 S1                 0.0000
     43 ****         0.3367   0.7155  -3.4549 H              1 S1                 0.0000
     44 ****        -3.4557   3.1694   0.5695 LP             1 S1                 0.0000
     45 ****        -3.7575   1.6573   0.0318 LP             1 S1                 0.0000
     46 ****        -0.3128  -0.9364   0.3029 LP             1 S1                 0.0000
     47 ****        -1.4062  -0.3052   1.3386 LP             1 S1                 0.0000
@<TRIPOS>BOND
    1    1    2 1     
    2    1   23 1     
    3    2    3 1     
    4    2   24 1     
    5    2   25 1     
    6    3    4 1     
    7    3   26 1     
    8    3   27 1     
    9    4    5 1     
   10    4   28 1     
   11    4   29 1     
   12    5   13 1     
   13    5    6 2     
   14    6    7 1     
   15    6   43 1     
   16    7   12 ar    
   17    7    8 ar    
   18    8    9 ar    
   19    8   30 1     
   20    9   10 ar    
   21    9   31 1     
   22   10   11 ar    
   23   10   32 1     
   24   11   12 ar    
   25   11   33 1     
   26   12   13 1     
   27   13   14 1     
   28   14   15 1     
   29   14   34 1     
   30   14   35 1     
   31   15   16 1     
   32   15   36 1     
   33   15   37 1     
   34   16   17 1     
   35   17   22 ar    
   36   17   18 ar    
   37   18   19 ar    
   38   18   38 1     
   39   19   20 ar    
   40   19   39 1     
   41   20   21 ar    
   42   20   40 1     
   43   21   22 ar    
   44   21   41 1     
   45   22   42 1     
   46    1   44 1     
   47    1   45 1     
   48   16   46 1     
   49   16   47 1     
@<TRIPOS>SUBSTRUCTURE
      1 S1             1
@<TRIPOS>SET
LONE_PAIRS      STATIC     ATOMS    <user>   **** ""
4 44 45 46 47
DONOR_HYDROGENS      STATIC     ATOMS    <user>   **** ""
2 23 43
ATOM$BLUE        STATIC     ATOMS    COLORGROUP SYSTEM
4 44 45 46 47
ATOM$RED        STATIC     ATOMS    COLORGROUP SYSTEM
2 23 43
