AV-unprocessed.smi:3222|AV-procd|sdf|12303|dock6
  -GOLD-   2272018143D 1   1.00000     0.00000
 Structure written by MMmdl.
 41 42  0  0  0  0  0  0  0  0  2 V2000
  147.3447  141.5985  155.8153 C   0  0  0  0  0  0  0  0  0  0  0  0
  148.7465  140.9628  155.7372 C   0  0  2  0  0  0  0  0  0  0  0  0
  149.7799  141.9805  156.0445 N   0  3  0  0  0  0  0  0  0  0  0  0
  150.1592  142.0924  157.4677 C   0  0  0  0  0  0  0  0  0  0  0  0
  151.5227  142.7854  157.6139 C   0  0  0  0  0  0  0  0  0  0  0  0
  152.2660  142.2765  158.7633 N   0  0  0  0  0  0  0  0  0  0  0  0
  152.4295  143.0842  159.9602 C   0  0  0  0  0  0  0  0  0  0  0  0
  153.3942  142.2879  160.8510 C   0  0  0  0  0  0  0  0  0  0  0  0
  153.4746  140.8868  160.2346 C   0  0  0  0  0  0  0  0  0  0  0  0
  152.8082  141.0586  158.8804 C   0  0  0  0  0  0  0  0  0  0  0  0
  152.7876  140.1725  158.0275 O   0  0  0  0  0  0  0  0  0  0  0  0
  149.0338  140.3258  154.3518 C   0  0  2  0  0  0  0  0  0  0  0  0
  147.8406  139.5419  153.7730 C   0  0  0  0  0  0  0  0  0  0  0  0
  150.2086  139.4621  154.4125 N   0  0  0  0  0  0  0  0  0  0  0  0
  150.2942  138.0978  154.2137 C   0  0  0  0  0  0  0  0  0  0  0  0
  151.5956  137.7362  154.4134 C   0  0  0  0  0  0  0  0  0  0  0  0
  152.2396  138.9605  154.7444 C   0  0  0  0  0  0  0  0  0  0  0  0
  151.4059  139.9879  154.7537 N   0  0  0  0  0  0  0  0  0  0  0  0
  146.5584  140.8556  155.6843 H   0  0  0  0  0  0  0  0  0  0  0  0
  147.2129  142.3627  155.0486 H   0  0  0  0  0  0  0  0  0  0  0  0
  147.1657  142.0673  156.7824 H   0  0  0  0  0  0  0  0  0  0  0  0
  148.8117  140.1740  156.4886 H   0  0  0  0  0  0  0  0  0  0  0  0
  150.6134  141.7236  155.5341 H   0  0  0  0  0  0  0  0  0  0  0  0
  149.3944  142.6505  158.0073 H   0  0  0  0  0  0  0  0  0  0  0  0
  150.2038  141.0956  157.9087 H   0  0  0  0  0  0  0  0  0  0  0  0
  152.1135  142.6389  156.7085 H   0  0  0  0  0  0  0  0  0  0  0  0
  151.3887  143.8630  157.7234 H   0  0  0  0  0  0  0  0  0  0  0  0
  152.8239  144.0727  159.7212 H   0  0  0  0  0  0  0  0  0  0  0  0
  151.4613  143.2100  160.4465 H   0  0  0  0  0  0  0  0  0  0  0  0
  154.3808  142.7530  160.8448 H   0  0  0  0  0  0  0  0  0  0  0  0
  153.0535  142.2579  161.8867 H   0  0  0  0  0  0  0  0  0  0  0  0
  154.5036  140.5409  160.1316 H   0  0  0  0  0  0  0  0  0  0  0  0
  152.9172  140.1587  160.8250 H   0  0  0  0  0  0  0  0  0  0  0  0
  149.2560  141.1308  153.6483 H   0  0  0  0  0  0  0  0  0  0  0  0
  147.0028  140.1981  153.5386 H   0  0  0  0  0  0  0  0  0  0  0  0
  147.4840  138.7807  154.4675 H   0  0  0  0  0  0  0  0  0  0  0  0
  148.1173  139.0409  152.8444 H   0  0  0  0  0  0  0  0  0  0  0  0
  149.4327  137.5025  153.9489 H   0  0  0  0  0  0  0  0  0  0  0  0
  152.0227  136.7474  154.3360 H   0  0  0  0  0  0  0  0  0  0  0  0
  153.2794  139.1313  154.9816 H   0  0  0  0  0  0  0  0  0  0  0  0
  149.4672  142.8796  155.7068 H   0  0  0  0  0  0  0  0  0  0  0  0
  1  2  1  0  0  0  0
  1 19  1  0  0  0  0
  1 20  1  0  0  0  0
  1 21  1  0  0  0  0
  2  3  1  0  0  0  0
  2 12  1  0  0  0  0
  2 22  1  0  0  0  0
  3  4  1  0  0  0  0
  3 23  1  0  0  0  0
  3 41  1  0  0  0  0
  4  5  1  0  0  0  0
  4 24  1  0  0  0  0
  4 25  1  0  0  0  0
  5  6  1  0  0  0  0
  5 26  1  0  0  0  0
  5 27  1  0  0  0  0
  6 10  1  0  0  0  0
  6  7  1  0  0  0  0
  7  8  1  0  0  0  0
  7 28  1  0  0  0  0
  7 29  1  0  0  0  0
  8  9  1  0  0  0  0
  8 30  1  0  0  0  0
  8 31  1  0  0  0  0
  9 10  1  0  0  0  0
  9 32  1  0  0  0  0
  9 33  1  0  0  0  0
 10 11  2  0  0  0  0
 12 13  1  0  0  0  0
 12 14  1  0  0  0  0
 12 34  1  0  0  0  0
 13 35  1  0  0  0  0
 13 36  1  0  0  0  0
 13 37  1  0  0  0  0
 14 18  1  0  0  0  0
 14 15  1  0  0  0  0
 15 16  2  0  0  0  0
 15 38  1  0  0  0  0
 16 17  1  0  0  0  0
 16 39  1  0  0  0  0
 17 18  2  0  0  0  0
 17 40  1  0  0  0  0
M  CHG  1   3   1
M  END
> <s_m_source_file>
AV-unprocessed.smi

> <i_m_source_file_index>
3222

> <i_lp_mmshare_version>
43012

> <i_f3d_flags>
0

> <s_epik_input>
bjFbY0hdW2NIXVtjSF1uMVtDQEBIXShbQ0gzXSlbQ0BIXShbQ0gzXSlbTkhdW0NIMl1bQ0gyXU4yW0NIMl1bQ0gyXVtDSDJdQzI9Tw==

> <s_epik_cmdline>
J2VwaWtfcHl0aG9uJywgJy1waCcsICc3LjAnLCAnLXRuJywgJzgnLCAnLW1hJywgJzIwMCcsICctbWV0YWxfYmluZGluZycsICctaW1hZScsICc8aW5maWxlLm1hZT4nLCAnLW9tYWUnLCAnPG91dGZpbGUubWFlPic=

> <r_lp_tautomer_probability>
1

> <r_epik_Ionization_Penalty>
0.0064019

> <r_epik_Ionization_Penalty_Charging>
0.00639164

> <r_epik_Ionization_Penalty_Neutral>
1.02567e-05

> <r_epik_State_Penalty>
0.00472531

> <r_epik_Charging_Adjusted_Penalty>
0.011117

> <i_epik_Tot_Q>
1

> <i_epik_Tot_abs_Q>
1

> <r_epik_Metal_State_Penalty>
-0

> <b_epik_Metal_Only>
0

> <s_lp_Force_Field>
OPLS_2005

> <r_lp_Energy>
24.5342

> <b_lp_Chiralities_Consistent>
1

> <s_lp_Variant>
AV-unprocessed.smi:3222-1

> <Gold.Version>
5.8.1

> <Gold.Id.Protein>
6NUR|6NUR_protein|mol2

> <Gold.PLP.Fitness>
53.7464

> <Gold.PLP.PLP>
-40.9405

> <Gold.PLP.part.hbond>
-2.9425

> <Gold.PLP.part.metal>
0.0000

> <Gold.PLP.part.buried>
-2.8357

> <Gold.PLP.part.nonpolar>
-34.4725

> <Gold.PLP.part.repulsive>
0.1693

> <Gold.PLP.ligand.clash>
0.0000

> <Gold.PLP.ligand.torsion>
1.1318

> <Gold.PLP.Chemscore.Hbond>
3.9920

> <Gold.PLP.Chemscore.CHOScore>
0.9675

> <Gold.PLP.Chemscore.Metal>
0.0000

> <Gold.Chemscore.Hbonds>
donor molecule, donor type, donor heavy atom, donor atom, acceptor molecule, acceptor atom, score
      L1  H     3    41       P1  8028  2.00
      P1  H  7989  7998       L1    18  0.95
      P1  H  7997  8009       L1    11  0.98
      L1  C    15    38       P1  7948  0.97

> <Gold.PLP.Chemscore.Internal.Correction>
0.1912

> <Gold.Rescore>
     Score         DG    S(hbond)    S(metal)    S(lipo)     H(rot)  DE(clash)    DE(int)     intcor
     17.22     -19.83       2.55        0.00      93.44       1.99       0.10       2.51       ----

> <Gold.Chemscore.Fitness>
17.2211

> <Gold.Chemscore.DG>
-19.8285

> <Gold.Chemscore.ZeroCoef>
-5.4800

> <Gold.Chemscore.Hbond>
2.5497

> <Gold.Chemscore.Metal>
0.0000

> <Gold.Chemscore.Lipo>
93.4425

> <Gold.Chemscore.Internal_Hbond>
0.0000

> <Gold.Chemscore.DEClash>
0.0953

> <Gold.Chemscore.DEInternal>
2.5121

> <Gold.Chemscore.Rot>
1.9922

> <Gold.Chemscore.Internal.Correction>
   9.000000E+99

> <Gold.Chemscore.Hbonds>
donor molecule, donor type, donor heavy atom, donor atom, acceptor molecule, acceptor atom, score
      L1  H     3    41       P1  8028  0.99
      P1  H  7989  7998       L1    18  0.14
      P1  H  7997  8009       L1    11  0.76

> <Gold.Chemscore.Hbond.Weighted>
-8.5158

> <Gold.Chemscore.Metal.Weighted>
-0.0000

> <Gold.Chemscore.Lipo.Weighted>
-10.9328

> <Gold.Chemscore.Internal_Hbond.Weighted>
0.0000

> <Gold.Chemscore.DEClash.Weighted>
0.0953

> <Gold.Chemscore.DEInternal.Weighted>
2.5121

> <Gold.Chemscore.Rot.Weighted>
5.1002

> <Gold.Chemscore.Internal.Correction.Weighted>
   9.000000E+99

> <Gold.Protein.RotatedTorsions>
[ 6907 6896 6895 6894 ] final  159.41 input  -60.11 | X-H torsion
[ 7974 7965 7964 7962 ] final  150.69 input  175.53 | X-H torsion
[ 8008 7997 7996 7995 ] final  164.72 input   59.86 | X-H torsion
[ 10167 10162 10161 10158 ] final   25.88 input  -65.29 | X-H torsion
[ 10718 10713 10712 10709 ] final   48.21 input   66.30 | X-H torsion
[ 10763 10752 10751 10750 ] final   72.81 input  -60.55 | X-H torsion
[ 11005 11000 10999 10996 ] final  -86.17 input  -57.11 | X-H torsion

> <Gold.Protein.ActiveResidues>
 VAL166  LYS551  ARG553  GLY616  TRP617  ASP618  TYR619  PRO620  LYS621  CYS622 
 ASP623  PHE694  ASN695  SER759  ASP760  ASP761  ALA762  ILE779  LEU786  VAL792 
 PHE793  MET794  SER795  GLU796  ALA797  LYS798  CYS799  TRP800  GLU811  SER814 

> <Gold.Protein.RotatedAtoms>
  151.9860  133.3774  159.4125 H   0  0  0  0  0  0  0  0  0  0  0  0  # atno 6907 bound_to 6896
  150.6928  134.3988  159.5119 H   0  0  0  0  0  0  0  0  0  0  0  0  # atno 6908 bound_to 6896
  152.1714  134.8831  160.0585 H   0  0  0  0  0  0  0  0  0  0  0  0  # atno 6909 bound_to 6896
  144.8346  139.6441  143.6044 H   0  0  0  0  0  0  0  0  0  0  0  0  # atno 7974 bound_to 7965
  156.1858  140.1689  156.8188 H   0  0  0  0  0  0  0  0  0  0  0  0  # atno 8008 bound_to 7997
  154.5412  140.0736  156.8546 H   0  0  0  0  0  0  0  0  0  0  0  0  # atno 8009 bound_to 7997
  155.3211  140.3373  155.4243 H   0  0  0  0  0  0  0  0  0  0  0  0  # atno 8010 bound_to 7997
  140.5069  144.0224  150.6356 H   0  0  0  0  0  0  0  0  0  0  0  0  # atno 10167 bound_to 10162
  157.4663  130.8228  149.7940 H   0  0  0  0  0  0  0  0  0  0  0  0  # atno 10718 bound_to 10713
  153.0482  135.5086  154.7799 H   0  0  0  0  0  0  0  0  0  0  0  0  # atno 10763 bound_to 10752
  154.6683  135.2949  154.9778 H   0  0  0  0  0  0  0  0  0  0  0  0  # atno 10764 bound_to 10752
  154.0606  135.6691  153.4864 H   0  0  0  0  0  0  0  0  0  0  0  0  # atno 10765 bound_to 10752
  141.1633  133.7439  156.9121 H   0  0  0  0  0  0  0  0  0  0  0  0  # atno 11005 bound_to 11000
  146.2646  139.6489  142.9338 LP  0  0  0  0  0  0  0  0  0  0  0  0  # atno 17320 bound_to 7965
  145.4823  141.0438  143.2639 LP  0  0  0  0  0  0  0  0  0  0  0  0  # atno 17321 bound_to 7965
  140.3535  143.2949  152.0461 LP  0  0  0  0  0  0  0  0  0  0  0  0  # atno 17342 bound_to 10162
  139.4886  144.6356  151.6982 LP  0  0  0  0  0  0  0  0  0  0  0  0  # atno 17343 bound_to 10162
  156.0052  130.3859  150.2457 LP  0  0  0  0  0  0  0  0  0  0  0  0  # atno 17370 bound_to 10713
  157.0637  131.0097  151.3214 LP  0  0  0  0  0  0  0  0  0  0  0  0  # atno 17371 bound_to 10713
  140.1509  134.9230  157.2591 LP  0  0  0  0  0  0  0  0  0  0  0  0  # atno 17394 bound_to 11000
  140.2724  134.3445  155.7369 LP  0  0  0  0  0  0  0  0  0  0  0  0  # atno 17395 bound_to 11000

$$$$
