AV-unprocessed.smi:1049|AV-procd|sdf|4609|dock2
  -GOLD-   22720 3103D 1   1.00000     0.00000
 Structure written by MMmdl.
 40 41  0  0  0  0  0  0  0  0  1 V2000
  146.2718  142.0464  153.6299 C   0  0  0  0  0  0  0  0  0  0  0  0
  147.3097  141.1152  154.2713 C   0  0  1  0  0  0  0  0  0  0  0  0
  147.4192  139.7769  153.5082 C   0  0  0  0  0  0  0  0  0  0  0  0
  148.5429  138.8840  154.0674 C   0  0  0  0  0  0  0  0  0  0  0  0
  149.8629  139.6677  154.1778 C   0  0  0  0  0  0  0  0  0  0  0  0
  149.6351  140.8603  155.0123 N   0  0  0  0  0  0  0  0  0  0  0  0
  150.0310  141.0244  156.3002 C   0  0  0  0  0  0  0  0  0  0  0  0
  150.4041  140.0946  157.0174 O   0  0  0  0  0  0  0  0  0  0  0  0
  149.9729  142.2895  156.7482 N   0  0  0  0  0  0  0  0  0  0  0  0
  150.4129  142.7407  158.0644 C   0  0  0  0  0  0  0  0  0  0  0  0
  151.9165  142.4966  158.3059 C   0  0  0  0  0  0  0  0  0  0  0  0
  152.3483  142.7057  159.7270 C   0  0  0  0  0  0  0  0  0  0  0  0
  153.1452  141.8710  160.3884 N   0  0  0  0  0  0  0  0  0  0  0  0
  153.2978  142.4455  161.6448 C   0  0  0  0  0  0  0  0  0  0  0  0
  152.5828  143.6173  161.6988 C   0  0  0  0  0  0  0  0  0  0  0  0
  151.9912  143.7832  160.4519 N   0  0  0  0  0  0  0  0  0  0  0  0
  151.1259  144.8780  160.0478 C   0  0  0  0  0  0  0  0  0  0  0  0
  150.0163  144.8721  160.7857 F   0  0  0  0  0  0  0  0  0  0  0  0
  151.7544  146.0455  160.1885 F   0  0  0  0  0  0  0  0  0  0  0  0
  148.6962  141.7874  154.3671 C   0  0  0  0  0  0  0  0  0  0  0  0
  146.5492  142.3061  152.6077 H   0  0  0  0  0  0  0  0  0  0  0  0
  146.1757  142.9740  154.1949 H   0  0  0  0  0  0  0  0  0  0  0  0
  145.2888  141.5755  153.5995 H   0  0  0  0  0  0  0  0  0  0  0  0
  146.9726  140.8969  155.2860 H   0  0  0  0  0  0  0  0  0  0  0  0
  146.4691  139.2427  153.5419 H   0  0  0  0  0  0  0  0  0  0  0  0
  147.6213  139.9785  152.4553 H   0  0  0  0  0  0  0  0  0  0  0  0
  148.2574  138.5099  155.0512 H   0  0  0  0  0  0  0  0  0  0  0  0
  148.6757  138.0092  153.4307 H   0  0  0  0  0  0  0  0  0  0  0  0
  150.6519  139.0115  154.5451 H   0  0  0  0  0  0  0  0  0  0  0  0
  150.1909  139.9834  153.1863 H   0  0  0  0  0  0  0  0  0  0  0  0
  149.6467  142.9991  156.1084 H   0  0  0  0  0  0  0  0  0  0  0  0
  150.2023  143.8082  158.1255 H   0  0  0  0  0  0  0  0  0  0  0  0
  149.8192  142.2656  158.8465 H   0  0  0  0  0  0  0  0  0  0  0  0
  152.1858  141.4885  157.9898 H   0  0  0  0  0  0  0  0  0  0  0  0
  152.4989  143.1682  157.6737 H   0  0  0  0  0  0  0  0  0  0  0  0
  153.8999  141.9728  162.4067 H   0  0  0  0  0  0  0  0  0  0  0  0
  152.4538  144.3302  162.4999 H   0  0  0  0  0  0  0  0  0  0  0  0
  150.8451  144.7796  158.9994 H   0  0  0  0  0  0  0  0  0  0  0  0
  149.0640  142.0394  153.3712 H   0  0  0  0  0  0  0  0  0  0  0  0
  148.6193  142.7372  154.8987 H   0  0  0  0  0  0  0  0  0  0  0  0
  1  2  1  0  0  0  0
  1 21  1  0  0  0  0
  1 22  1  0  0  0  0
  1 23  1  0  0  0  0
  2 20  1  0  0  0  0
  2  3  1  0  0  0  0
  2 24  1  0  0  0  0
  3  4  1  0  0  0  0
  3 25  1  0  0  0  0
  3 26  1  0  0  0  0
  4  5  1  0  0  0  0
  4 27  1  0  0  0  0
  4 28  1  0  0  0  0
  5  6  1  0  0  0  0
  5 29  1  0  0  0  0
  5 30  1  0  0  0  0
  6  7  1  0  0  0  0
  6 20  1  0  0  0  0
  7  8  2  0  0  0  0
  7  9  1  0  0  0  0
  9 10  1  0  0  0  0
  9 31  1  0  0  0  0
 10 11  1  0  0  0  0
 10 32  1  0  0  0  0
 10 33  1  0  0  0  0
 11 12  1  0  0  0  0
 11 34  1  0  0  0  0
 11 35  1  0  0  0  0
 12 16  1  0  0  0  0
 12 13  2  0  0  0  0
 13 14  1  0  0  0  0
 14 15  2  0  0  0  0
 14 36  1  0  0  0  0
 15 16  1  0  0  0  0
 15 37  1  0  0  0  0
 16 17  1  0  0  0  0
 17 18  1  0  0  0  0
 17 19  1  0  0  0  0
 17 38  1  0  0  0  0
 20 39  1  0  0  0  0
 20 40  1  0  0  0  0
M  END
> <s_m_source_file>
AV-unprocessed.smi

> <i_m_source_file_index>
1049

> <i_lp_mmshare_version>
43012

> <i_f3d_flags>
0

> <s_epik_input>
W0NIM11bQ0BASF0xW0NIMl1bQ0gyXVtDSDJdTihbQ0gyXTEpQyg9TylbTkhdW0NIMl1bQ0gyXWMybltjSF1bY0hdbjJbQ0hdKEYpRg==

> <s_epik_cmdline>
J2VwaWtfcHl0aG9uJywgJy1waCcsICc3LjAnLCAnLXRuJywgJzgnLCAnLW1hJywgJzIwMCcsICctbWV0YWxfYmluZGluZycsICctaW1hZScsICc8aW5maWxlLm1hZT4nLCAnLW9tYWUnLCAnPG91dGZpbGUubWFlPic=

> <r_lp_tautomer_probability>
1

> <r_epik_Ionization_Penalty>
0.101141

> <r_epik_Ionization_Penalty_Charging>
0.101077

> <r_epik_Ionization_Penalty_Neutral>
6.38597e-05

> <r_epik_State_Penalty>
0.091079

> <r_epik_Charging_Adjusted_Penalty>
0.192156

> <i_epik_Tot_Q>
0

> <i_epik_Tot_abs_Q>
0

> <r_epik_Metal_State_Penalty>
0.0777008

> <b_epik_Metal_Only>
0

> <s_lp_Force_Field>
OPLS_2005

> <r_lp_Energy>
32.9855

> <b_lp_Chiralities_Consistent>
1

> <s_lp_Variant>
AV-unprocessed.smi:1049-2

> <Gold.Version>
5.8.1

> <Gold.Id.Protein>
6NUR|6NUR_protein|mol2

> <Gold.PLP.Fitness>
48.3359

> <Gold.PLP.PLP>
-46.2500

> <Gold.PLP.part.hbond>
-1.0000

> <Gold.PLP.part.metal>
0.0000

> <Gold.PLP.part.buried>
-2.4903

> <Gold.PLP.part.nonpolar>
-42.6074

> <Gold.PLP.part.repulsive>
0.0357

> <Gold.PLP.ligand.clash>
0.0717

> <Gold.PLP.ligand.torsion>
0.4194

> <Gold.PLP.Chemscore.Hbond>
0.9833

> <Gold.PLP.Chemscore.CHOScore>
0.0000

> <Gold.PLP.Chemscore.Metal>
0.0000

> <Gold.Chemscore.Hbonds>
donor molecule, donor type, donor heavy atom, donor atom, acceptor molecule, acceptor atom, score
      L1  H     9    31       P1  8028  1.00

> <Gold.PLP.Chemscore.Internal.Correction>
0.0465

> <Gold.Rescore>
     Score         DG    S(hbond)    S(metal)    S(lipo)     H(rot)  DE(clash)    DE(int)     intcor
     13.91     -15.67       0.95        0.00      94.26       1.56       0.52       1.25       ----

> <Gold.Chemscore.Fitness>
13.9060

> <Gold.Chemscore.DG>
-15.6734

> <Gold.Chemscore.ZeroCoef>
-5.4800

> <Gold.Chemscore.Hbond>
0.9478

> <Gold.Chemscore.Metal>
0.0000

> <Gold.Chemscore.Lipo>
94.2586

> <Gold.Chemscore.Internal_Hbond>
0.0000

> <Gold.Chemscore.DEClash>
0.5186

> <Gold.Chemscore.DEInternal>
1.2487

> <Gold.Chemscore.Rot>
1.5626

> <Gold.Chemscore.Internal.Correction>
   9.000000E+99

> <Gold.Chemscore.Hbonds>
donor molecule, donor type, donor heavy atom, donor atom, acceptor molecule, acceptor atom, score
      L1  H     9    31       P1  8028  0.97

> <Gold.Chemscore.Hbond.Weighted>
-3.1655

> <Gold.Chemscore.Metal.Weighted>
-0.0000

> <Gold.Chemscore.Lipo.Weighted>
-11.0283

> <Gold.Chemscore.Internal_Hbond.Weighted>
0.0000

> <Gold.Chemscore.DEClash.Weighted>
0.5186

> <Gold.Chemscore.DEInternal.Weighted>
1.2487

> <Gold.Chemscore.Rot.Weighted>
4.0004

> <Gold.Chemscore.Internal.Correction.Weighted>
   9.000000E+99

> <Gold.Protein.RotatedTorsions>
[ 6907 6896 6895 6894 ] final -135.24 input  -60.11 | X-H torsion
[ 7974 7965 7964 7962 ] final -148.76 input  175.53 | X-H torsion
[ 8008 7997 7996 7995 ] final  134.29 input   59.86 | X-H torsion
[ 10167 10162 10161 10158 ] final    5.34 input  -65.29 | X-H torsion
[ 10718 10713 10712 10709 ] final  -93.43 input   66.30 | X-H torsion
[ 10763 10752 10751 10750 ] final   47.27 input  -60.55 | X-H torsion
[ 11005 11000 10999 10996 ] final   66.14 input  -57.11 | X-H torsion

> <Gold.Protein.ActiveResidues>
 VAL166  LYS551  ARG553  GLY616  TRP617  ASP618  TYR619  PRO620  LYS621  CYS622 
 ASP623  PHE694  ASN695  SER759  ASP760  ASP761  ALA762  ILE779  LEU786  VAL792 
 PHE793  MET794  SER795  GLU796  ALA797  LYS798  CYS799  TRP800  GLU811  SER814 

> <Gold.Protein.RotatedAtoms>
  150.9955  133.6107  159.2702 H   0  0  0  0  0  0  0  0  0  0  0  0  # atno 6907 bound_to 6896
  151.3312  135.0841  159.9349 H   0  0  0  0  0  0  0  0  0  0  0  0  # atno 6908 bound_to 6896
  152.5258  133.9584  159.7760 H   0  0  0  0  0  0  0  0  0  0  0  0  # atno 6909 bound_to 6896
  144.8009  140.5154  143.5708 H   0  0  0  0  0  0  0  0  0  0  0  0  # atno 7974 bound_to 7965
  156.2998  140.2500  156.3392 H   0  0  0  0  0  0  0  0  0  0  0  0  # atno 8008 bound_to 7997
  154.9071  140.0404  157.1945 H   0  0  0  0  0  0  0  0  0  0  0  0  # atno 8009 bound_to 7997
  154.8442  140.2896  155.5643 H   0  0  0  0  0  0  0  0  0  0  0  0  # atno 8010 bound_to 7997
  140.6487  143.7598  150.7540 H   0  0  0  0  0  0  0  0  0  0  0  0  # atno 10167 bound_to 10162
  156.0013  130.5027  150.5776 H   0  0  0  0  0  0  0  0  0  0  0  0  # atno 10718 bound_to 10713
  152.9801  135.5982  154.3735 H   0  0  0  0  0  0  0  0  0  0  0  0  # atno 10763 bound_to 10752
  154.3406  135.2768  155.2426 H   0  0  0  0  0  0  0  0  0  0  0  0  # atno 10764 bound_to 10752
  154.4509  135.5990  153.6246 H   0  0  0  0  0  0  0  0  0  0  0  0  # atno 10765 bound_to 10752
  139.9850  134.6682  156.0192 H   0  0  0  0  0  0  0  0  0  0  0  0  # atno 11005 bound_to 11000
  145.5555  139.1478  143.3370 LP  0  0  0  0  0  0  0  0  0  0  0  0  # atno 17320 bound_to 7965
  146.2290  140.5692  142.8983 LP  0  0  0  0  0  0  0  0  0  0  0  0  # atno 17321 bound_to 7965
  140.1245  143.4582  152.2293 LP  0  0  0  0  0  0  0  0  0  0  0  0  # atno 17342 bound_to 10162
  139.5700  144.7457  151.3917 LP  0  0  0  0  0  0  0  0  0  0  0  0  # atno 17343 bound_to 10162
  157.3661  131.0758  151.1597 LP  0  0  0  0  0  0  0  0  0  0  0  0  # atno 17370 bound_to 10713
  157.2365  130.6549  149.5872 LP  0  0  0  0  0  0  0  0  0  0  0  0  # atno 17371 bound_to 10713
  141.1517  133.6548  156.4033 LP  0  0  0  0  0  0  0  0  0  0  0  0  # atno 17394 bound_to 11000
  140.5020  134.6477  157.5252 LP  0  0  0  0  0  0  0  0  0  0  0  0  # atno 17395 bound_to 11000

$$$$
