AV-unprocessed.smi:54|AV-procd|sdf|552|dock8
  -GOLD-   2262016453D 1   1.00000     0.00000
 Structure written by MMmdl.
 43 45  0  0  0  0  0  0  0  0  2 V2000
  145.5061  135.6445  160.3003 C   0  0  0  0  0  0  0  0  0  0  0  0
  146.9500  135.1165  160.3235 C   0  0  0  0  0  0  0  0  0  0  0  0
  147.2928  134.4841  161.6829 C   0  0  0  0  0  0  0  0  0  0  0  0
  147.9434  136.2351  159.9791 C   0  0  0  0  0  0  0  0  0  0  0  0
  148.0428  137.2041  160.7357 O   0  0  0  0  0  0  0  0  0  0  0  0
  148.6443  136.0549  158.8373 N   0  0  0  0  0  0  0  0  0  0  0  0
  149.6162  136.8794  158.2592 C   0  0  0  0  0  0  0  0  0  0  0  0
  149.3578  137.5330  157.1483 N   0  0  0  0  0  0  0  0  0  0  0  0
  150.4261  138.3013  156.7304 C   0  0  0  0  0  0  0  0  0  0  0  0
  151.6490  138.4354  157.3276 C   0  0  0  0  0  0  0  0  0  0  0  0
  152.4729  139.2952  156.6103 N   0  0  0  0  0  0  0  0  0  0  0  0
  151.6887  139.6466  155.5916 C   0  0  0  0  0  0  0  0  0  0  0  0
  150.4563  139.0983  155.5945 N   0  0  0  0  0  0  0  0  0  0  0  0
  149.3565  139.2920  154.6019 C   0  0  1  0  0  0  0  0  0  0  0  0
  148.1915  138.7092  155.0860 O   0  0  0  0  0  0  0  0  0  0  0  0
  147.0628  139.3445  154.4905 C   0  0  1  0  0  0  0  0  0  0  0  0
  146.0000  139.5339  155.5836 C   0  0  0  0  0  0  0  0  0  0  0  0
  144.7703  139.9271  155.0118 O   0  0  0  0  0  0  0  0  0  0  0  0
  147.5801  140.6690  153.8876 C   0  0  2  0  0  0  0  0  0  0  0  0
  147.5440  140.5852  152.4757 O   0  0  0  0  0  0  0  0  0  0  0  0
  149.0235  140.7656  154.3633 C   0  0  1  0  0  0  0  0  0  0  0  0
  149.1159  141.5519  155.5378 O   0  0  0  0  0  0  0  0  0  0  0  0
  151.8677  137.6717  158.5792 C   0  0  0  0  0  0  0  0  0  0  0  0
  152.9513  137.7602  159.1534 O   0  0  0  0  0  0  0  0  0  0  0  0
  150.8096  136.9131  158.9978 N   0  5  0  0  0  0  0  0  0  0  0  0
  149.6845  138.7753  153.6984 H   0  0  0  0  0  0  0  0  0  0  0  0
  146.6766  138.6813  153.7141 H   0  0  0  0  0  0  0  0  0  0  0  0
  146.9879  141.5342  154.1894 H   0  0  0  0  0  0  0  0  0  0  0  0
  149.6972  141.1838  153.6136 H   0  0  0  0  0  0  0  0  0  0  0  0
  145.2648  136.0964  159.3372 H   0  0  0  0  0  0  0  0  0  0  0  0
  145.3402  136.3967  161.0726 H   0  0  0  0  0  0  0  0  0  0  0  0
  144.7939  134.8364  160.4686 H   0  0  0  0  0  0  0  0  0  0  0  0
  147.0328  134.3372  159.5640 H   0  0  0  0  0  0  0  0  0  0  0  0
  148.3238  134.1286  161.7057 H   0  0  0  0  0  0  0  0  0  0  0  0
  146.6479  133.6292  161.8879 H   0  0  0  0  0  0  0  0  0  0  0  0
  147.1675  135.1953  162.5004 H   0  0  0  0  0  0  0  0  0  0  0  0
  148.4150  135.2172  158.3232 H   0  0  0  0  0  0  0  0  0  0  0  0
  152.0231  140.3229  154.8188 H   0  0  0  0  0  0  0  0  0  0  0  0
  145.8422  138.5972  156.1187 H   0  0  0  0  0  0  0  0  0  0  0  0
  146.3206  140.2747  156.3169 H   0  0  0  0  0  0  0  0  0  0  0  0
  144.8815  139.9929  154.0755 H   0  0  0  0  0  0  0  0  0  0  0  0
  148.3377  140.1657  152.1808 H   0  0  0  0  0  0  0  0  0  0  0  0
  148.9918  142.4581  155.3013 H   0  0  0  0  0  0  0  0  0  0  0  0
  1  2  1  0  0  0  0
  1 30  1  0  0  0  0
  1 31  1  0  0  0  0
  1 32  1  0  0  0  0
  2  3  1  0  0  0  0
  2  4  1  0  0  0  0
  2 33  1  0  0  0  0
  3 34  1  0  0  0  0
  3 35  1  0  0  0  0
  3 36  1  0  0  0  0
  4  5  2  0  0  0  0
  4  6  1  0  0  0  0
  6 37  1  0  0  0  0
  6  7  1  0  0  0  0
  7 25  1  0  0  0  0
  7  8  2  0  0  0  0
  8  9  1  0  0  0  0
  9 13  1  0  0  0  0
  9 10  2  0  0  0  0
 10 11  1  0  0  0  0
 10 23  1  0  0  0  0
 11 12  2  0  0  0  0
 12 13  1  0  0  0  0
 12 38  1  0  0  0  0
 13 14  1  0  0  0  0
 14 26  1  0  0  0  0
 14 21  1  0  0  0  0
 14 15  1  0  0  0  0
 15 16  1  0  0  0  0
 16 27  1  0  0  0  0
 16 17  1  0  0  0  0
 16 19  1  0  0  0  0
 17 18  1  0  0  0  0
 17 39  1  0  0  0  0
 17 40  1  0  0  0  0
 18 41  1  0  0  0  0
 19 28  1  0  0  0  0
 19 20  1  0  0  0  0
 19 21  1  0  0  0  0
 20 42  1  0  0  0  0
 21 29  1  0  0  0  0
 21 22  1  0  0  0  0
 22 43  1  0  0  0  0
 23 24  2  0  0  0  0
 23 25  1  0  0  0  0
M  CHG  1  25  -1
M  END
> <s_m_source_file>
AV-unprocessed.smi

> <i_m_source_file_index>
54

> <i_lp_mmshare_version>
43012

> <i_f3d_flags>
0

> <s_epik_input>
W0NIM11bQ0hdKFtDSDNdKUMoPU8pW05IXWMobjEpW25IXWMoPU8pYyhjMTIpbltjSF1uMltDQEBIXTNPW0NASF0oW0NIMl1bT0hdKVtDQEBIXShbT0hdKVtDQEhdM1tPSF0=

> <s_epik_cmdline>
J2VwaWtfcHl0aG9uJywgJy1waCcsICc3LjAnLCAnLXRuJywgJzgnLCAnLW1hJywgJzIwMCcsICctbWV0YWxfYmluZGluZycsICctaW1hZScsICc8aW5maWxlLm1hZT4nLCAnLW9tYWUnLCAnPG91dGZpbGUubWFlPic=

> <r_lp_tautomer_probability>
0.85571

> <r_epik_Ionization_Penalty>
1.75936

> <r_epik_Ionization_Penalty_Charging>
4.55893e-11

> <r_epik_Ionization_Penalty_Neutral>
1.75936

> <r_epik_State_Penalty>
1.72072

> <r_epik_Charging_Adjusted_Penalty>
1.72072

> <i_epik_Tot_Q>
-1

> <i_epik_Tot_abs_Q>
1

> <r_epik_Metal_State_Penalty>
0.400338

> <b_epik_Metal_Only>
1

> <s_epik_Chemistry_Notes>
This compound contains an acetal/aminal-like group ( X-CH(R)-Y where X, Y are N, S, or O) that may be acid/base labile, releasing an aldehyde.

> <s_lp_Force_Field>
OPLS_2005

> <r_lp_Energy>
59.2625

> <b_lp_Chiralities_Consistent>
1

> <s_lp_Variant>
AV-unprocessed.smi:54-24

> <Gold.Version>
5.8.1

> <Gold.Id.Protein>
6NUR|6NUR_protein|mol2

> <Gold.PLP.Fitness>
46.8052

> <Gold.PLP.PLP>
-28.3770

> <Gold.PLP.part.hbond>
-6.5369

> <Gold.PLP.part.metal>
0.0000

> <Gold.PLP.part.buried>
-3.9449

> <Gold.PLP.part.nonpolar>
-18.7263

> <Gold.PLP.part.repulsive>
0.1876

> <Gold.PLP.ligand.clash>
0.0000

> <Gold.PLP.ligand.torsion>
0.8749

> <Gold.PLP.Chemscore.Hbond>
6.7103

> <Gold.PLP.Chemscore.CHOScore>
0.0000

> <Gold.PLP.Chemscore.Metal>
0.0000

> <Gold.Chemscore.Hbonds>
donor molecule, donor type, donor heavy atom, donor atom, acceptor molecule, acceptor atom, score
      L1  H    18    41       P1 10175  0.66
      L1  H    20    42       P1  7957  1.00
      L1  H    22    43       P1  8028  0.36
      P1  H  6896  6907       L1    25  1.95
      P1  H  6931  6943       L1     5  0.83
      P1  H  6934  6947       L1     5  0.74
      P1  H  7997  8010       L1    11  0.94

> <Gold.PLP.Chemscore.Internal.Correction>
0.0470

> <Gold.Rescore>
     Score         DG    S(hbond)    S(metal)    S(lipo)     H(rot)  DE(clash)    DE(int)     intcor
     13.81     -16.73       5.16        0.00      36.92       4.02       0.42       2.50       ----

> <Gold.Chemscore.Fitness>
13.8073

> <Gold.Chemscore.DG>
-16.7329

> <Gold.Chemscore.ZeroCoef>
-5.4800

> <Gold.Chemscore.Hbond>
5.1564

> <Gold.Chemscore.Metal>
0.0000

> <Gold.Chemscore.Lipo>
36.9214

> <Gold.Chemscore.Internal_Hbond>
0.0000

> <Gold.Chemscore.DEClash>
0.4212

> <Gold.Chemscore.DEInternal>
2.5044

> <Gold.Chemscore.Rot>
4.0192

> <Gold.Chemscore.Internal.Correction>
   9.000000E+99

> <Gold.Chemscore.Hbonds>
donor molecule, donor type, donor heavy atom, donor atom, acceptor molecule, acceptor atom, score
      L1  H    18    41       P1 10175  0.63
      L1  H    20    42       P1  7957  0.95
      L1  H    22    43       P1  8028  0.37
      P1  H  6896  6907       L1    25  0.67
      P1  H  6931  6943       L1     5  0.83
      P1  H  6934  6947       L1     5  0.70
      P1  H  7997  8010       L1    11  0.67

> <Gold.Chemscore.Hbond.Weighted>
-17.2224

> <Gold.Chemscore.Metal.Weighted>
-0.0000

> <Gold.Chemscore.Lipo.Weighted>
-4.3198

> <Gold.Chemscore.Internal_Hbond.Weighted>
0.0000

> <Gold.Chemscore.DEClash.Weighted>
0.4212

> <Gold.Chemscore.DEInternal.Weighted>
2.5044

> <Gold.Chemscore.Rot.Weighted>
10.2893

> <Gold.Chemscore.Internal.Correction.Weighted>
   9.000000E+99

> <Gold.Protein.RotatedTorsions>
[ 6907 6896 6895 6894 ] final  -27.03 input  -60.11 | X-H torsion
[ 7974 7965 7964 7962 ] final -136.91 input  175.53 | X-H torsion
[ 8008 7997 7996 7995 ] final   76.46 input   59.86 | X-H torsion
[ 10167 10162 10161 10158 ] final -146.88 input  -65.29 | X-H torsion
[ 10718 10713 10712 10709 ] final   15.61 input   66.30 | X-H torsion
[ 10763 10752 10751 10750 ] final   30.81 input  -60.55 | X-H torsion
[ 11005 11000 10999 10996 ] final   43.61 input  -57.11 | X-H torsion

> <Gold.Protein.ActiveResidues>
 VAL166  LYS551  ARG553  GLY616  TRP617  ASP618  TYR619  PRO620  LYS621  CYS622 
 ASP623  PHE694  ASN695  SER759  ASP760  ASP761  ALA762  ILE779  LEU786  VAL792 
 PHE793  MET794  SER795  GLU796  ALA797  LYS798  CYS799  TRP800  GLU811  SER814 

> <Gold.Protein.RotatedAtoms>
  151.1527  135.0235  159.8675 H   0  0  0  0  0  0  0  0  0  0  0  0  # atno 6907 bound_to 6896
  152.5452  134.1370  159.8473 H   0  0  0  0  0  0  0  0  0  0  0  0  # atno 6908 bound_to 6896
  151.1457  133.4895  159.2628 H   0  0  0  0  0  0  0  0  0  0  0  0  # atno 6909 bound_to 6896
  144.8887  140.6611  143.5159 H   0  0  0  0  0  0  0  0  0  0  0  0  # atno 7974 bound_to 7965
  155.8277  140.3467  155.5553 H   0  0  0  0  0  0  0  0  0  0  0  0  # atno 8008 bound_to 7997
  155.8275  140.0922  157.1832 H   0  0  0  0  0  0  0  0  0  0  0  0  # atno 8009 bound_to 7997
  154.4004  140.1418  156.3561 H   0  0  0  0  0  0  0  0  0  0  0  0  # atno 8010 bound_to 7997
  139.7673  143.8289  152.2618 H   0  0  0  0  0  0  0  0  0  0  0  0  # atno 10167 bound_to 10162
  157.0559  130.6289  149.5776 H   0  0  0  0  0  0  0  0  0  0  0  0  # atno 10718 bound_to 10713
  153.0350  135.6455  154.1102 H   0  0  0  0  0  0  0  0  0  0  0  0  # atno 10763 bound_to 10752
  154.0818  135.2873  155.3290 H   0  0  0  0  0  0  0  0  0  0  0  0  # atno 10764 bound_to 10752
  154.6525  135.5421  153.7982 H   0  0  0  0  0  0  0  0  0  0  0  0  # atno 10765 bound_to 10752
  140.1629  134.4319  155.8306 H   0  0  0  0  0  0  0  0  0  0  0  0  # atno 11005 bound_to 11000
  145.3822  139.1634  143.4274 LP  0  0  0  0  0  0  0  0  0  0  0  0  # atno 17320 bound_to 7965
  146.3040  140.3904  142.8694 LP  0  0  0  0  0  0  0  0  0  0  0  0  # atno 17321 bound_to 7965
  139.8313  144.7252  150.9447 LP  0  0  0  0  0  0  0  0  0  0  0  0  # atno 17342 bound_to 10162
  140.7811  143.4067  151.1059 LP  0  0  0  0  0  0  0  0  0  0  0  0  # atno 17343 bound_to 10162
  155.9993  130.5069  150.7602 LP  0  0  0  0  0  0  0  0  0  0  0  0  # atno 17370 bound_to 10713
  157.4993  131.0917  151.0333 LP  0  0  0  0  0  0  0  0  0  0  0  0  # atno 17371 bound_to 10713
  141.2211  133.6921  156.7626 LP  0  0  0  0  0  0  0  0  0  0  0  0  # atno 17394 bound_to 11000
  140.2469  134.8571  157.3628 LP  0  0  0  0  0  0  0  0  0  0  0  0  # atno 17395 bound_to 11000

$$$$
