AV-unprocessed.smi:293|AV-procd|sdf|2251|dock4
  -GOLD-   2262022133D 1   1.00000     0.00000
 Structure written by MMmdl.
 32 33  0  0  0  0  0  0  0  0  1 V2000
  146.6300  143.1917  154.3220 N   0  0  0  0  0  0  0  0  0  0  0  0
  147.1538  142.1595  154.3230 C   0  0  0  0  0  0  0  0  0  0  0  0
  147.8111  140.8637  154.3243 C   0  0  0  0  0  0  0  0  0  0  0  0
  147.2540  139.7807  153.7084 N   0  0  0  0  0  0  0  0  0  0  0  0
  148.1962  138.8845  153.9752 C   0  0  0  0  0  0  0  0  0  0  0  0
  149.2230  139.3697  154.6815 N   0  0  0  0  0  0  0  0  0  0  0  0
  150.4346  138.7216  155.1501 C   0  0  0  0  0  0  0  0  0  0  0  0
  151.4135  139.7415  155.7334 C   0  0  0  0  0  0  0  0  0  0  0  0
  152.4905  139.9495  155.1754 O   0  0  0  0  0  0  0  0  0  0  0  0
  151.0234  140.3716  156.8527 N   0  0  0  0  0  0  0  0  0  0  0  0
  151.7841  141.3993  157.5557 C   0  0  0  0  0  0  0  0  0  0  0  0
  152.0196  140.9565  159.0125 C   0  0  0  0  0  0  0  0  0  0  0  0
  152.7603  142.0357  159.8186 C   0  0  0  0  0  0  0  0  0  0  0  0
  152.0148  143.3784  159.7681 C   0  0  0  0  0  0  0  0  0  0  0  0
  151.7838  143.8290  158.3172 C   0  0  0  0  0  0  0  0  0  0  0  0
  151.0423  142.7521  157.5088 C   0  0  0  0  0  0  0  0  0  0  0  0
  148.9858  140.6823  154.9240 N   0  0  0  0  0  0  0  0  0  0  0  0
  148.1408  137.8570  153.6458 H   0  0  0  0  0  0  0  0  0  0  0  0
  150.1824  137.9731  155.9028 H   0  0  0  0  0  0  0  0  0  0  0  0
  150.8955  138.1954  154.3130 H   0  0  0  0  0  0  0  0  0  0  0  0
  150.1207  140.1323  157.2376 H   0  0  0  0  0  0  0  0  0  0  0  0
  152.7571  141.5120  157.0732 H   0  0  0  0  0  0  0  0  0  0  0  0
  151.0634  140.7427  159.4926 H   0  0  0  0  0  0  0  0  0  0  0  0
  152.5903  140.0273  159.0337 H   0  0  0  0  0  0  0  0  0  0  0  0
  152.8745  141.7131  160.8538 H   0  0  0  0  0  0  0  0  0  0  0  0
  153.7680  142.1615  159.4207 H   0  0  0  0  0  0  0  0  0  0  0  0
  151.0556  143.2837  160.2787 H   0  0  0  0  0  0  0  0  0  0  0  0
  152.5795  144.1386  160.3086 H   0  0  0  0  0  0  0  0  0  0  0  0
  151.2170  144.7603  158.3030 H   0  0  0  0  0  0  0  0  0  0  0  0
  152.7430  144.0439  157.8443 H   0  0  0  0  0  0  0  0  0  0  0  0
  150.9300  143.0866  156.4769 H   0  0  0  0  0  0  0  0  0  0  0  0
  150.0328  142.6335  157.9053 H   0  0  0  0  0  0  0  0  0  0  0  0
  1  2  3  0  0  0  0
  2  3  1  0  0  0  0
  3 17  2  0  0  0  0
  3  4  1  0  0  0  0
  4  5  2  0  0  0  0
  5  6  1  0  0  0  0
  5 18  1  0  0  0  0
  6  7  1  0  0  0  0
  6 17  1  0  0  0  0
  7  8  1  0  0  0  0
  7 19  1  0  0  0  0
  7 20  1  0  0  0  0
  8  9  2  0  0  0  0
  8 10  1  0  0  0  0
 10 11  1  0  0  0  0
 10 21  1  0  0  0  0
 11 16  1  0  0  0  0
 11 12  1  0  0  0  0
 11 22  1  0  0  0  0
 12 13  1  0  0  0  0
 12 23  1  0  0  0  0
 12 24  1  0  0  0  0
 13 14  1  0  0  0  0
 13 25  1  0  0  0  0
 13 26  1  0  0  0  0
 14 15  1  0  0  0  0
 14 27  1  0  0  0  0
 14 28  1  0  0  0  0
 15 16  1  0  0  0  0
 15 29  1  0  0  0  0
 15 30  1  0  0  0  0
 16 31  1  0  0  0  0
 16 32  1  0  0  0  0
M  END
> <s_m_source_file>
AV-unprocessed.smi

> <i_m_source_file_index>
293

> <i_lp_mmshare_version>
43012

> <i_f3d_flags>
0

> <s_epik_input>
TiNDYzFuW2NIXW4objEpW0NIMl1DKD1PKVtOSF1bQ0hdMltDSDJdW0NIMl1bQ0gyXVtDSDJdW0NIMl0y

> <s_epik_cmdline>
J2VwaWtfcHl0aG9uJywgJy1waCcsICc3LjAnLCAnLXRuJywgJzgnLCAnLW1hJywgJzIwMCcsICctbWV0YWxfYmluZGluZycsICctaW1hZScsICc8aW5maWxlLm1hZT4nLCAnLW9tYWUnLCAnPG91dGZpbGUubWFlPic=

> <r_lp_tautomer_probability>
1

> <r_epik_Ionization_Penalty>
5.31112e-08

> <r_epik_Ionization_Penalty_Charging>
0

> <r_epik_Ionization_Penalty_Neutral>
5.31112e-08

> <r_epik_State_Penalty>
-0

> <r_epik_Charging_Adjusted_Penalty>
0

> <i_epik_Tot_Q>
0

> <i_epik_Tot_abs_Q>
0

> <r_epik_Metal_State_Penalty>
-0

> <b_epik_Metal_Only>
0

> <s_lp_Force_Field>
OPLS_2005

> <r_lp_Energy>
12.166

> <b_lp_Chiralities_Consistent>
1

> <s_lp_Variant>
AV-unprocessed.smi:293-1

> <Gold.Version>
5.8.1

> <Gold.Id.Protein>
6NUR|6NUR_protein|mol2

> <Gold.PLP.Fitness>
40.5349

> <Gold.PLP.PLP>
-33.8439

> <Gold.PLP.part.hbond>
-2.7789

> <Gold.PLP.part.metal>
0.0000

> <Gold.PLP.part.buried>
-4.5704

> <Gold.PLP.part.nonpolar>
-28.9314

> <Gold.PLP.part.repulsive>
1.2076

> <Gold.PLP.ligand.clash>
0.0000

> <Gold.PLP.ligand.torsion>
0.1183

> <Gold.PLP.Chemscore.Hbond>
1.3075

> <Gold.PLP.Chemscore.CHOScore>
1.0000

> <Gold.PLP.Chemscore.Metal>
0.0000

> <Gold.Chemscore.Hbonds>
donor molecule, donor type, donor heavy atom, donor atom, acceptor molecule, acceptor atom, score
      P1  H  7989  7998       L1     9  0.43
      P1  H  7997  8008       L1     9  0.84
      L1  C     5    18       P1  7948  0.98

> <Gold.PLP.Chemscore.Internal.Correction>
0.0051

> <Gold.Rescore>
     Score         DG    S(hbond)    S(metal)    S(lipo)     H(rot)  DE(clash)    DE(int)     intcor
      9.78     -11.81       1.02        0.00      68.07       1.96       0.58       1.46       ----

> <Gold.Chemscore.Fitness>
9.7771

> <Gold.Chemscore.DG>
-11.8142

> <Gold.Chemscore.ZeroCoef>
-5.4800

> <Gold.Chemscore.Hbond>
1.0153

> <Gold.Chemscore.Metal>
0.0000

> <Gold.Chemscore.Lipo>
68.0735

> <Gold.Chemscore.Internal_Hbond>
0.0000

> <Gold.Chemscore.DEClash>
0.5753

> <Gold.Chemscore.DEInternal>
1.4618

> <Gold.Chemscore.Rot>
1.9615

> <Gold.Chemscore.Internal.Correction>
   9.000000E+99

> <Gold.Chemscore.Hbonds>
donor molecule, donor type, donor heavy atom, donor atom, acceptor molecule, acceptor atom, score
      P1  H  7989  7998       L1     9  0.06
      P1  H  7997  8008       L1     9  0.82

> <Gold.Chemscore.Hbond.Weighted>
-3.3910

> <Gold.Chemscore.Metal.Weighted>
-0.0000

> <Gold.Chemscore.Lipo.Weighted>
-7.9646

> <Gold.Chemscore.Internal_Hbond.Weighted>
0.0000

> <Gold.Chemscore.DEClash.Weighted>
0.5753

> <Gold.Chemscore.DEInternal.Weighted>
1.4618

> <Gold.Chemscore.Rot.Weighted>
5.0214

> <Gold.Chemscore.Internal.Correction.Weighted>
   9.000000E+99

> <Gold.Protein.RotatedTorsions>
[ 6907 6896 6895 6894 ] final   23.55 input  -60.11 | X-H torsion
[ 7974 7965 7964 7962 ] final   97.59 input  175.53 | X-H torsion
[ 8008 7997 7996 7995 ] final  -19.13 input   59.86 | X-H torsion
[ 10167 10162 10161 10158 ] final   90.72 input  -65.29 | X-H torsion
[ 10718 10713 10712 10709 ] final   81.38 input   66.30 | X-H torsion
[ 10763 10752 10751 10750 ] final  -76.58 input  -60.55 | X-H torsion
[ 11005 11000 10999 10996 ] final   33.55 input  -57.11 | X-H torsion

> <Gold.Protein.ActiveResidues>
 VAL166  LYS551  ARG553  GLY616  TRP617  ASP618  TYR619  PRO620  LYS621  CYS622 
 ASP623  PHE694  ASN695  SER759  ASP760  ASP761  ALA762  ILE779  LEU786  VAL792 
 PHE793  MET794  SER795  GLU796  ALA797  LYS798  CYS799  TRP800  GLU811  SER814 

> <Gold.Protein.RotatedAtoms>
  151.9440  135.0200  160.0537 H   0  0  0  0  0  0  0  0  0  0  0  0  # atno 6907 bound_to 6896
  152.2011  133.4837  159.5067 H   0  0  0  0  0  0  0  0  0  0  0  0  # atno 6908 bound_to 6896
  150.6955  134.1506  159.4181 H   0  0  0  0  0  0  0  0  0  0  0  0  # atno 6909 bound_to 6896
  145.4234  139.2319  143.3183 H   0  0  0  0  0  0  0  0  0  0  0  0  # atno 7974 bound_to 7965
  154.4858  140.2097  155.9659 H   0  0  0  0  0  0  0  0  0  0  0  0  # atno 8008 bound_to 7997
  156.1233  140.3209  155.8210 H   0  0  0  0  0  0  0  0  0  0  0  0  # atno 8009 bound_to 7997
  155.4428  140.0511  157.2999 H   0  0  0  0  0  0  0  0  0  0  0  0  # atno 8010 bound_to 7997
  139.8445  144.6624  150.9243 H   0  0  0  0  0  0  0  0  0  0  0  0  # atno 10167 bound_to 10162
  157.6831  131.0001  150.2219 H   0  0  0  0  0  0  0  0  0  0  0  0  # atno 10718 bound_to 10713
  154.5018  135.5793  153.6537 H   0  0  0  0  0  0  0  0  0  0  0  0  # atno 10763 bound_to 10752
  152.9880  135.6137  154.2993 H   0  0  0  0  0  0  0  0  0  0  0  0  # atno 10764 bound_to 10752
  154.2901  135.2849  155.2638 H   0  0  0  0  0  0  0  0  0  0  0  0  # atno 10765 bound_to 10752
  140.2619  134.3182  155.7855 H   0  0  0  0  0  0  0  0  0  0  0  0  # atno 11005 bound_to 11000
  146.2644  140.4962  142.8840 LP  0  0  0  0  0  0  0  0  0  0  0  0  # atno 17320 bound_to 7965
  144.8230  140.6581  143.6340 LP  0  0  0  0  0  0  0  0  0  0  0  0  # atno 17321 bound_to 7965
  140.7794  143.3883  151.1355 LP  0  0  0  0  0  0  0  0  0  0  0  0  # atno 17342 bound_to 10162
  139.7526  143.8756  152.3080 LP  0  0  0  0  0  0  0  0  0  0  0  0  # atno 17343 bound_to 10162
  156.2868  130.3740  149.7880 LP  0  0  0  0  0  0  0  0  0  0  0  0  # atno 17370 bound_to 10713
  156.5552  130.8359  151.3312 LP  0  0  0  0  0  0  0  0  0  0  0  0  # atno 17371 bound_to 10713
  141.2189  133.7415  156.9200 LP  0  0  0  0  0  0  0  0  0  0  0  0  # atno 17394 bound_to 11000
  140.1456  134.9264  157.2525 LP  0  0  0  0  0  0  0  0  0  0  0  0  # atno 17395 bound_to 11000

$$$$
