AV-unprocessed.smi:2881|AV-procd|sdf|11065|dock1
  -GOLD-   2272015533D 1   1.00000     0.00000
 Structure written by MMmdl.
 40 42  0  0  0  0  0  0  0  0  1 V2000
  146.3704  133.5151  150.7803 C   0  0  0  0  0  0  0  0  0  0  0  0
  145.6215  134.7568  151.1651 C   0  0  0  0  0  0  0  0  0  0  0  0
  145.4431  135.3087  152.4674 C   0  0  0  0  0  0  0  0  0  0  0  0
  144.6944  136.4334  152.2593 C   0  0  0  0  0  0  0  0  0  0  0  0
  144.1702  137.4614  153.2107 C   0  0  0  0  0  0  0  0  0  0  0  0
  145.2417  137.8662  154.2231 C   0  0  0  0  0  0  0  0  0  0  0  0
  145.7502  137.0180  154.9557 O   0  0  0  0  0  0  0  0  0  0  0  0
  145.5742  139.1656  154.2542 N   0  0  0  0  0  0  0  0  0  0  0  0
  146.5984  139.7482  155.1173 C   0  0  2  0  0  0  0  0  0  0  0  0
  146.1431  141.0379  155.8461 C   0  0  2  0  0  0  0  0  0  0  0  0
  145.5464  142.0651  154.8600 C   0  0  0  0  0  0  0  0  0  0  0  0
  146.7824  142.5243  154.0644 C   0  0  0  0  0  0  0  0  0  0  0  0
  147.9256  141.7208  154.7152 C   0  0  1  0  0  0  0  0  0  0  0  0
  147.4808  141.6893  156.1730 C   0  0  0  0  0  0  0  0  0  0  0  0
  147.8174  140.2375  154.2914 C   0  0  1  0  0  0  0  0  0  0  0  0
  149.1046  139.4374  154.5681 C   0  0  0  0  0  0  0  0  0  0  0  0
  150.1505  139.9015  153.7404 O   0  0  0  0  0  0  0  0  0  0  0  0
  144.4655  136.4946  150.9031 N   0  0  0  0  0  0  0  0  0  0  0  0
  145.0265  135.4762  150.2252 N   0  0  0  0  0  0  0  0  0  0  0  0
  143.9356  137.2144  150.4326 H   0  0  0  0  0  0  0  0  0  0  0  0
  146.9272  133.1130  151.6270 H   0  0  0  0  0  0  0  0  0  0  0  0
  147.0843  133.7169  149.9813 H   0  0  0  0  0  0  0  0  0  0  0  0
  145.6890  132.7387  150.4321 H   0  0  0  0  0  0  0  0  0  0  0  0
  145.8132  134.9374  153.4117 H   0  0  0  0  0  0  0  0  0  0  0  0
  143.3014  137.0672  153.7391 H   0  0  0  0  0  0  0  0  0  0  0  0
  143.8305  138.3461  152.6705 H   0  0  0  0  0  0  0  0  0  0  0  0
  145.1086  139.7921  153.6139 H   0  0  0  0  0  0  0  0  0  0  0  0
  146.9137  139.0065  155.8543 H   0  0  0  0  0  0  0  0  0  0  0  0
  145.5074  140.8475  156.7115 H   0  0  0  0  0  0  0  0  0  0  0  0
  144.7644  141.6536  154.2222 H   0  0  0  0  0  0  0  0  0  0  0  0
  145.1125  142.9061  155.4025 H   0  0  0  0  0  0  0  0  0  0  0  0
  146.6883  142.3261  152.9960 H   0  0  0  0  0  0  0  0  0  0  0  0
  146.9400  143.5961  154.1908 H   0  0  0  0  0  0  0  0  0  0  0  0
  148.9094  142.1586  154.5434 H   0  0  0  0  0  0  0  0  0  0  0  0
  147.3832  142.6816  156.6175 H   0  0  0  0  0  0  0  0  0  0  0  0
  148.1164  141.0759  156.8132 H   0  0  0  0  0  0  0  0  0  0  0  0
  147.6163  140.1896  153.2193 H   0  0  0  0  0  0  0  0  0  0  0  0
  149.4108  139.5600  155.6072 H   0  0  0  0  0  0  0  0  0  0  0  0
  148.9575  138.3706  154.3991 H   0  0  0  0  0  0  0  0  0  0  0  0
  149.9152  139.7414  152.8391 H   0  0  0  0  0  0  0  0  0  0  0  0
  1 21  1  0  0  0  0
  1 22  1  0  0  0  0
  1 23  1  0  0  0  0
  1  2  1  0  0  0  0
  2 19  2  0  0  0  0
  2  3  1  0  0  0  0
  3  4  2  0  0  0  0
  3 24  1  0  0  0  0
  4 18  1  0  0  0  0
  4  5  1  0  0  0  0
  5  6  1  0  0  0  0
  5 25  1  0  0  0  0
  5 26  1  0  0  0  0
  6  7  2  0  0  0  0
  6  8  1  0  0  0  0
  8  9  1  0  0  0  0
  8 27  1  0  0  0  0
  9 15  1  0  0  0  0
  9 10  1  0  0  0  0
  9 28  1  0  0  0  0
 10 14  1  0  0  0  0
 10 11  1  0  0  0  0
 10 29  1  0  0  0  0
 11 12  1  0  0  0  0
 11 30  1  0  0  0  0
 11 31  1  0  0  0  0
 12 13  1  0  0  0  0
 12 32  1  0  0  0  0
 12 33  1  0  0  0  0
 13 14  1  0  0  0  0
 13 15  1  0  0  0  0
 13 34  1  0  0  0  0
 14 35  1  0  0  0  0
 14 36  1  0  0  0  0
 15 16  1  0  0  0  0
 15 37  1  0  0  0  0
 16 17  1  0  0  0  0
 16 38  1  0  0  0  0
 16 39  1  0  0  0  0
 17 40  1  0  0  0  0
 18 19  1  0  0  0  0
 18 20  1  0  0  0  0
M  END
> <s_m_source_file>
AV-unprocessed.smi

> <i_m_source_file_index>
2881

> <i_lp_mmshare_version>
43012

> <i_f3d_flags>
0

> <s_epik_input>
W0NIM11jMVtjSF1jKG5bbkhdMSlbQ0gyXUMoPU8pW05IXVtDQEhdKFtDQEBIXTIzKVtDQEhdKFtDSDJdW09IXSlbQ0BASF0oW0NIMl0zKVtDSDJdW0NIMl0y

> <s_epik_cmdline>
J2VwaWtfcHl0aG9uJywgJy1waCcsICc3LjAnLCAnLXRuJywgJzgnLCAnLW1hJywgJzIwMCcsICctbWV0YWxfYmluZGluZycsICctaW1hZScsICc8aW5maWxlLm1hZT4nLCAnLW9tYWUnLCAnPG91dGZpbGUubWFlPic=

> <r_lp_tautomer_probability>
0.5

> <r_epik_Ionization_Penalty>
0.00013396

> <r_epik_Ionization_Penalty_Charging>
0

> <r_epik_Ionization_Penalty_Neutral>
0.00013396

> <r_epik_State_Penalty>
0.41068

> <r_epik_Charging_Adjusted_Penalty>
0.41068

> <i_epik_Tot_Q>
0

> <i_epik_Tot_abs_Q>
0

> <r_epik_Metal_State_Penalty>
0.41066

> <b_epik_Metal_Only>
0

> <s_lp_Force_Field>
OPLS_2005

> <r_lp_Energy>
46.7591

> <b_lp_Chiralities_Consistent>
1

> <s_lp_Variant>
AV-unprocessed.smi:2881-11

> <Gold.Version>
5.8.1

> <Gold.Id.Protein>
6NUR|6NUR_protein|mol2

> <Gold.PLP.Fitness>
37.2976

> <Gold.PLP.PLP>
-26.3792

> <Gold.PLP.part.hbond>
-3.7775

> <Gold.PLP.part.metal>
0.0000

> <Gold.PLP.part.buried>
-4.7431

> <Gold.PLP.part.nonpolar>
-19.7785

> <Gold.PLP.part.repulsive>
1.6974

> <Gold.PLP.ligand.clash>
0.0000

> <Gold.PLP.ligand.torsion>
0.3283

> <Gold.PLP.Chemscore.Hbond>
3.8480

> <Gold.PLP.Chemscore.CHOScore>
0.0000

> <Gold.PLP.Chemscore.Metal>
0.0000

> <Gold.Chemscore.Hbonds>
donor molecule, donor type, donor heavy atom, donor atom, acceptor molecule, acceptor atom, score
      L1  H     8    27       P1 10175  1.00
      L1  H    17    40       P1  7957  1.00
      L1  H    18    20       P1 10171  0.91
      P1  H  7989  7998       L1    17  0.76

> <Gold.PLP.Chemscore.Internal.Correction>
0.0311

> <Gold.Rescore>
     Score         DG    S(hbond)    S(metal)    S(lipo)     H(rot)  DE(clash)    DE(int)     intcor
     17.79     -17.99       3.45        0.00      58.25       2.28       0.05       0.15       ----

> <Gold.Chemscore.Fitness>
17.7910

> <Gold.Chemscore.DG>
-17.9873

> <Gold.Chemscore.ZeroCoef>
-5.4800

> <Gold.Chemscore.Hbond>
3.4483

> <Gold.Chemscore.Metal>
0.0000

> <Gold.Chemscore.Lipo>
58.2490

> <Gold.Chemscore.Internal_Hbond>
0.0000

> <Gold.Chemscore.DEClash>
0.0460

> <Gold.Chemscore.DEInternal>
0.1502

> <Gold.Chemscore.Rot>
2.2755

> <Gold.Chemscore.Internal.Correction>
   9.000000E+99

> <Gold.Chemscore.Hbonds>
donor molecule, donor type, donor heavy atom, donor atom, acceptor molecule, acceptor atom, score
      L1  H     8    27       P1 10175  0.98
      L1  H    17    40       P1  7957  0.99
      L1  H    18    20       P1 10171  0.83
      P1  H  7989  7998       L1    17  0.15

> <Gold.Chemscore.Hbond.Weighted>
-11.5174

> <Gold.Chemscore.Metal.Weighted>
-0.0000

> <Gold.Chemscore.Lipo.Weighted>
-6.8151

> <Gold.Chemscore.Internal_Hbond.Weighted>
0.0000

> <Gold.Chemscore.DEClash.Weighted>
0.0460

> <Gold.Chemscore.DEInternal.Weighted>
0.1502

> <Gold.Chemscore.Rot.Weighted>
5.8252

> <Gold.Chemscore.Internal.Correction.Weighted>
   9.000000E+99

> <Gold.Protein.RotatedTorsions>
[ 6907 6896 6895 6894 ] final  -55.55 input  -60.11 | X-H torsion
[ 7974 7965 7964 7962 ] final  138.72 input  175.53 | X-H torsion
[ 8008 7997 7996 7995 ] final  -14.11 input   59.86 | X-H torsion
[ 10167 10162 10161 10158 ] final -142.63 input  -65.29 | X-H torsion
[ 10718 10713 10712 10709 ] final   34.77 input   66.30 | X-H torsion
[ 10763 10752 10751 10750 ] final  137.74 input  -60.55 | X-H torsion
[ 11005 11000 10999 10996 ] final -167.77 input  -57.11 | X-H torsion

> <Gold.Protein.ActiveResidues>
 VAL166  LYS551  ARG553  GLY616  TRP617  ASP618  TYR619  PRO620  LYS621  CYS622 
 ASP623  PHE694  ASN695  SER759  ASP760  ASP761  ALA762  ILE779  LEU786  VAL792 
 PHE793  MET794  SER795  GLU796  ALA797  LYS798  CYS799  TRP800  GLU811  SER814 

> <Gold.Protein.RotatedAtoms>
  150.8242  134.7464  159.6797 H   0  0  0  0  0  0  0  0  0  0  0  0  # atno 6907 bound_to 6896
  152.4354  134.5693  159.9926 H   0  0  0  0  0  0  0  0  0  0  0  0  # atno 6908 bound_to 6896
  151.5869  133.3333  159.3055 H   0  0  0  0  0  0  0  0  0  0  0  0  # atno 6909 bound_to 6896
  144.9346  139.5005  143.5601 H   0  0  0  0  0  0  0  0  0  0  0  0  # atno 7974 bound_to 7965
  154.5237  140.2232  155.8929 H   0  0  0  0  0  0  0  0  0  0  0  0  # atno 8008 bound_to 7997
  156.1690  140.3126  155.8904 H   0  0  0  0  0  0  0  0  0  0  0  0  # atno 8009 bound_to 7997
  155.3597  140.0460  157.3037 H   0  0  0  0  0  0  0  0  0  0  0  0  # atno 8010 bound_to 7997
  139.8070  143.7755  152.2661 H   0  0  0  0  0  0  0  0  0  0  0  0  # atno 10167 bound_to 10162
  157.3144  130.7416  149.6745 H   0  0  0  0  0  0  0  0  0  0  0  0  # atno 10718 bound_to 10713
  153.8780  135.3048  155.3444 H   0  0  0  0  0  0  0  0  0  0  0  0  # atno 10763 bound_to 10752
  154.7775  135.4853  153.9777 H   0  0  0  0  0  0  0  0  0  0  0  0  # atno 10764 bound_to 10752
  153.1368  135.6815  153.9187 H   0  0  0  0  0  0  0  0  0  0  0  0  # atno 10765 bound_to 10752
  140.5495  134.5443  157.5119 H   0  0  0  0  0  0  0  0  0  0  0  0  # atno 11005 bound_to 11000
  146.3261  139.8321  142.8906 LP  0  0  0  0  0  0  0  0  0  0  0  0  # atno 17320 bound_to 7965
  145.3087  141.0214  143.3567 LP  0  0  0  0  0  0  0  0  0  0  0  0  # atno 17321 bound_to 7965
  139.7892  144.7416  150.9979 LP  0  0  0  0  0  0  0  0  0  0  0  0  # atno 17342 bound_to 10162
  140.7819  143.4460  151.0482 LP  0  0  0  0  0  0  0  0  0  0  0  0  # atno 17343 bound_to 10162
  155.9680  130.4242  150.4596 LP  0  0  0  0  0  0  0  0  0  0  0  0  # atno 17370 bound_to 10713
  157.2600  131.0565  151.2326 LP  0  0  0  0  0  0  0  0  0  0  0  0  # atno 17371 bound_to 10713
  139.9463  134.7697  156.0555 LP  0  0  0  0  0  0  0  0  0  0  0  0  # atno 17394 bound_to 11000
  141.1180  133.6621  156.3143 LP  0  0  0  0  0  0  0  0  0  0  0  0  # atno 17395 bound_to 11000

$$$$
