AV-unprocessed.smi:155|AV-procd|sdf|1270|dock4
  -GOLD-   2262018523D 1   1.00000     0.00000
 Structure written by MMmdl.
 63 66  0  0  0  0  0  0  0  0  2 V2000
  145.7896  131.8941  150.9311 C   0  0  0  0  0  0  0  0  0  0  0  0
  145.4254  133.1018  150.2022 N   0  0  0  0  0  0  0  0  0  0  0  0
  144.0262  132.9864  149.8045 C   0  0  0  0  0  0  0  0  0  0  0  0
  145.6487  134.2656  151.0606 C   0  0  0  0  0  0  0  0  0  0  0  0
  145.0334  135.5519  150.4711 C   0  0  0  0  0  0  0  0  0  0  0  0
  145.1254  136.6912  151.4215 N   0  3  1  0  0  0  0  0  0  0  0  0
  144.6686  136.3184  152.7837 C   0  0  0  0  0  0  0  0  0  0  0  0
  144.4894  137.5261  153.7191 C   0  0  0  0  0  0  0  0  0  0  0  0
  145.8177  138.1106  154.2235 C   0  0  0  0  0  0  0  0  0  0  0  0
  146.4567  139.0249  153.2747 N   0  0  0  0  0  0  0  0  0  0  0  0
  147.3609  139.9211  153.7530 C   0  0  0  0  0  0  0  0  0  0  0  0
  147.0928  141.2490  153.6342 N   0  0  0  0  0  0  0  0  0  0  0  0
  147.9554  142.1595  154.0938 C   0  0  0  0  0  0  0  0  0  0  0  0
  149.1283  141.9658  154.6977 N   0  0  0  0  0  0  0  0  0  0  0  0
  149.4092  140.6371  154.8190 C   0  0  0  0  0  0  0  0  0  0  0  0
  148.5939  139.5581  154.3714 C   0  0  0  0  0  0  0  0  0  0  0  0
  149.2284  138.3495  154.6387 N   0  0  0  0  0  0  0  0  0  0  0  0
  150.3443  138.6944  155.2201 C   0  0  0  0  0  0  0  0  0  0  0  0
  150.5259  140.0484  155.3865 N   0  0  0  0  0  0  0  0  0  0  0  0
  151.6722  140.7019  155.9982 C   0  0  0  0  0  0  0  0  0  0  0  0
  151.9607  140.2836  157.4623 C   0  0  1  0  0  0  0  0  0  0  0  0
  152.7715  139.1275  157.5161 O   0  0  0  0  0  0  0  0  0  0  0  0
  152.5645  141.3499  158.4064 C   0  0  2  0  0  0  0  0  0  0  0  0
  152.8036  140.8664  159.8359 C   0  0  0  0  0  0  0  0  0  0  0  0
  152.9537  142.1771  160.5753 C   0  0  0  0  0  0  0  0  0  0  0  0
  151.9492  143.0770  159.8568 C   0  0  0  0  0  0  0  0  0  0  0  0
  151.7373  142.4969  158.5712 O   0  0  0  0  0  0  0  0  0  0  0  0
  146.3783  138.8192  151.8276 C   0  0  0  0  0  0  0  0  0  0  0  0
  146.4609  137.3429  151.4096 C   0  0  0  0  0  0  0  0  0  0  0  0
  146.8407  131.9212  151.2208 H   0  0  0  0  0  0  0  0  0  0  0  0
  145.6442  131.0103  150.3086 H   0  0  0  0  0  0  0  0  0  0  0  0
  145.1892  131.7780  151.8350 H   0  0  0  0  0  0  0  0  0  0  0  0
  143.7084  133.8335  149.1982 H   0  0  0  0  0  0  0  0  0  0  0  0
  143.3693  132.9213  150.6731 H   0  0  0  0  0  0  0  0  0  0  0  0
  143.8760  132.0903  149.2011 H   0  0  0  0  0  0  0  0  0  0  0  0
  145.2352  134.0723  152.0518 H   0  0  0  0  0  0  0  0  0  0  0  0
  146.7196  134.4112  151.2038 H   0  0  0  0  0  0  0  0  0  0  0  0
  145.5145  135.7922  149.5236 H   0  0  0  0  0  0  0  0  0  0  0  0
  143.9852  135.3815  150.2208 H   0  0  0  0  0  0  0  0  0  0  0  0
  143.6989  135.8259  152.6991 H   0  0  0  0  0  0  0  0  0  0  0  0
  145.3495  135.5867  153.2215 H   0  0  0  0  0  0  0  0  0  0  0  0
  143.8680  138.2957  153.2591 H   0  0  0  0  0  0  0  0  0  0  0  0
  143.9333  137.1810  154.5914 H   0  0  0  0  0  0  0  0  0  0  0  0
  145.6100  138.6641  155.1406 H   0  0  0  0  0  0  0  0  0  0  0  0
  146.5106  137.3126  154.4936 H   0  0  0  0  0  0  0  0  0  0  0  0
  147.6631  143.1906  153.9599 H   0  0  0  0  0  0  0  0  0  0  0  0
  151.0669  137.9651  155.5566 H   0  0  0  0  0  0  0  0  0  0  0  0
  152.5460  140.5130  155.3746 H   0  0  0  0  0  0  0  0  0  0  0  0
  151.5054  141.7787  155.9522 H   0  0  0  0  0  0  0  0  0  0  0  0
  151.0081  139.9780  157.8965 H   0  0  0  0  0  0  0  0  0  0  0  0
  152.2930  138.4059  157.1374 H   0  0  0  0  0  0  0  0  0  0  0  0
  153.5217  141.6896  158.0055 H   0  0  0  0  0  0  0  0  0  0  0  0
  151.9392  140.3240  160.2192 H   0  0  0  0  0  0  0  0  0  0  0  0
  153.6797  140.2235  159.9266 H   0  0  0  0  0  0  0  0  0  0  0  0
  152.7607  142.0905  161.6450 H   0  0  0  0  0  0  0  0  0  0  0  0
  153.9648  142.5644  160.4417 H   0  0  0  0  0  0  0  0  0  0  0  0
  150.9974  143.0985  160.3883 H   0  0  0  0  0  0  0  0  0  0  0  0
  152.3112  144.1018  159.7703 H   0  0  0  0  0  0  0  0  0  0  0  0
  145.4754  139.2881  151.4348 H   0  0  0  0  0  0  0  0  0  0  0  0
  147.2166  139.3251  151.3479 H   0  0  0  0  0  0  0  0  0  0  0  0
  147.1825  136.7866  152.0102 H   0  0  0  0  0  0  0  0  0  0  0  0
  146.8494  137.3250  150.3916 H   0  0  0  0  0  0  0  0  0  0  0  0
  144.4630  137.3736  151.0808 H   0  0  0  0  0  0  0  0  0  0  0  0
  1  2  1  0  0  0  0
  1 30  1  0  0  0  0
  1 31  1  0  0  0  0
  1 32  1  0  0  0  0
  2  3  1  0  0  0  0
  2  4  1  0  0  0  0
  3 33  1  0  0  0  0
  3 34  1  0  0  0  0
  3 35  1  0  0  0  0
  4  5  1  0  0  0  0
  4 36  1  0  0  0  0
  4 37  1  0  0  0  0
  5  6  1  0  0  0  0
  5 38  1  0  0  0  0
  5 39  1  0  0  0  0
  6 29  1  0  0  0  0
  6  7  1  0  0  0  0
  6 63  1  0  0  0  0
  7  8  1  0  0  0  0
  7 40  1  0  0  0  0
  7 41  1  0  0  0  0
  8  9  1  0  0  0  0
  8 42  1  0  0  0  0
  8 43  1  0  0  0  0
  9 10  1  0  0  0  0
  9 44  1  0  0  0  0
  9 45  1  0  0  0  0
 10 11  1  0  0  0  0
 10 28  1  0  0  0  0
 11 16  1  0  0  0  0
 11 12  2  0  0  0  0
 12 13  1  0  0  0  0
 13 14  2  0  0  0  0
 13 46  1  0  0  0  0
 14 15  1  0  0  0  0
 15 19  1  0  0  0  0
 15 16  2  0  0  0  0
 16 17  1  0  0  0  0
 17 18  2  0  0  0  0
 18 19  1  0  0  0  0
 18 47  1  0  0  0  0
 19 20  1  0  0  0  0
 20 21  1  0  0  0  0
 20 48  1  0  0  0  0
 20 49  1  0  0  0  0
 21 22  1  0  0  0  0
 21 23  1  0  0  0  0
 21 50  1  0  0  0  0
 22 51  1  0  0  0  0
 23 27  1  0  0  0  0
 23 24  1  0  0  0  0
 23 52  1  0  0  0  0
 24 25  1  0  0  0  0
 24 53  1  0  0  0  0
 24 54  1  0  0  0  0
 25 26  1  0  0  0  0
 25 55  1  0  0  0  0
 25 56  1  0  0  0  0
 26 27  1  0  0  0  0
 26 57  1  0  0  0  0
 26 58  1  0  0  0  0
 28 29  1  0  0  0  0
 28 59  1  0  0  0  0
 28 60  1  0  0  0  0
 29 61  1  0  0  0  0
 29 62  1  0  0  0  0
M  CHG  1   6   1
M  END
> <s_m_source_file>
AV-unprocessed.smi

> <i_m_source_file_index>
155

> <i_lp_mmshare_version>
43012

> <i_f3d_flags>
0

> <s_epik_input>
W0NIM11OKFtDSDNdKVtDSDJdW0NIMl1OMVtDSDJdW0NIMl1bQ0gyXU4oW0NIMl1bQ0gyXTEpYyhuW2NIXW4yKWMoYzIzKW5bY0hdbjNbQ0gyXVtDQEhdKFtPSF0pW0NAQEhdNFtDSDJdW0NIMl1bQ0gyXU80

> <s_epik_cmdline>
J2VwaWtfcHl0aG9uJywgJy1waCcsICc3LjAnLCAnLXRuJywgJzgnLCAnLW1hJywgJzIwMCcsICctbWV0YWxfYmluZGluZycsICctaW1hZScsICc8aW5maWxlLm1hZT4nLCAnLW9tYWUnLCAnPG91dGZpbGUubWFlPic=

> <r_epik_Ionization_Penalty>
0.0619615

> <r_epik_Ionization_Penalty_Charging>
0.0161638

> <r_epik_Ionization_Penalty_Neutral>
0.0457976

> <r_epik_State_Penalty>
0.403408

> <r_epik_Charging_Adjusted_Penalty>
0.419572

> <i_epik_Tot_Q>
1

> <i_epik_Tot_abs_Q>
1

> <r_epik_Metal_State_Penalty>
0.404222

> <b_epik_Metal_Only>
0

> <s_lp_Force_Field>
OPLS_2005

> <r_lp_Energy>
53.2961

> <b_lp_Chiralities_Consistent>
1

> <s_lp_Variant>
AV-unprocessed.smi:155-4

> <Gold.Version>
5.8.1

> <Gold.Id.Protein>
6NUR|6NUR_protein|mol2

> <Gold.PLP.Fitness>
51.1998

> <Gold.PLP.PLP>
-47.1508

> <Gold.PLP.part.hbond>
-2.9987

> <Gold.PLP.part.metal>
0.0000

> <Gold.PLP.part.buried>
0.0509

> <Gold.PLP.part.nonpolar>
-45.4769

> <Gold.PLP.part.repulsive>
2.1859

> <Gold.PLP.ligand.clash>
0.0000

> <Gold.PLP.ligand.torsion>
1.9096

> <Gold.PLP.Chemscore.Hbond>
2.0000

> <Gold.PLP.Chemscore.CHOScore>
0.5535

> <Gold.PLP.Chemscore.Metal>
0.0000

> <Gold.Chemscore.Hbonds>
donor molecule, donor type, donor heavy atom, donor atom, acceptor molecule, acceptor atom, score
      L1  H     6    63       P1 10171  1.00
      P1  H  7997  8009       L1    22  0.76
      L1  C    13    46       P1  8028  0.63

> <Gold.PLP.Chemscore.Internal.Correction>
0.2078

> <Gold.Rescore>
     Score         DG    S(hbond)    S(metal)    S(lipo)     H(rot)  DE(clash)    DE(int)     intcor
     13.19     -18.06       1.84        0.00     112.45       2.63       2.75       2.12       ----

> <Gold.Chemscore.Fitness>
13.1886

> <Gold.Chemscore.DG>
-18.0572

> <Gold.Chemscore.ZeroCoef>
-5.4800

> <Gold.Chemscore.Hbond>
1.8440

> <Gold.Chemscore.Metal>
0.0000

> <Gold.Chemscore.Lipo>
112.4539

> <Gold.Chemscore.Internal_Hbond>
0.0000

> <Gold.Chemscore.DEClash>
2.7493

> <Gold.Chemscore.DEInternal>
2.1193

> <Gold.Chemscore.Rot>
2.6324

> <Gold.Chemscore.Internal.Correction>
   9.000000E+99

> <Gold.Chemscore.Hbonds>
donor molecule, donor type, donor heavy atom, donor atom, acceptor molecule, acceptor atom, score
      L1  H     6    63       P1 10171  0.96
      P1  H  7997  8009       L1    22  0.12

> <Gold.Chemscore.Hbond.Weighted>
-6.1590

> <Gold.Chemscore.Metal.Weighted>
-0.0000

> <Gold.Chemscore.Lipo.Weighted>
-13.1571

> <Gold.Chemscore.Internal_Hbond.Weighted>
0.0000

> <Gold.Chemscore.DEClash.Weighted>
2.7493

> <Gold.Chemscore.DEInternal.Weighted>
2.1193

> <Gold.Chemscore.Rot.Weighted>
6.7389

> <Gold.Chemscore.Internal.Correction.Weighted>
   9.000000E+99

> <Gold.Protein.RotatedTorsions>
[ 6907 6896 6895 6894 ] final  111.82 input  -60.11 | X-H torsion
[ 7974 7965 7964 7962 ] final   93.68 input  175.53 | X-H torsion
[ 8008 7997 7996 7995 ] final  156.34 input   59.86 | X-H torsion
[ 10167 10162 10161 10158 ] final  124.61 input  -65.29 | X-H torsion
[ 10718 10713 10712 10709 ] final   18.49 input   66.30 | X-H torsion
[ 10763 10752 10751 10750 ] final   67.44 input  -60.55 | X-H torsion
[ 11005 11000 10999 10996 ] final  -76.57 input  -57.11 | X-H torsion

> <Gold.Protein.ActiveResidues>
 VAL166  LYS551  ARG553  GLY616  TRP617  ASP618  TYR619  PRO620  LYS621  CYS622 
 ASP623  PHE694  ASN695  SER759  ASP760  ASP761  ALA762  ILE779  LEU786  VAL792 
 PHE793  MET794  SER795  GLU796  ALA797  LYS798  CYS799  TRP800  GLU811  SER814 

> <Gold.Protein.RotatedAtoms>
  152.4949  133.8604  159.7246 H   0  0  0  0  0  0  0  0  0  0  0  0  # atno 6907 bound_to 6896
  150.9117  133.6980  159.2860 H   0  0  0  0  0  0  0  0  0  0  0  0  # atno 6908 bound_to 6896
  151.4387  135.1022  159.9716 H   0  0  0  0  0  0  0  0  0  0  0  0  # atno 6909 bound_to 6896
  145.4757  139.2280  143.2910 H   0  0  0  0  0  0  0  0  0  0  0  0  # atno 7974 bound_to 7965
  156.2428  140.1915  156.6940 H   0  0  0  0  0  0  0  0  0  0  0  0  # atno 8008 bound_to 7997
  154.6231  140.0606  156.9666 H   0  0  0  0  0  0  0  0  0  0  0  0  # atno 8009 bound_to 7997
  155.1830  140.3278  155.4374 H   0  0  0  0  0  0  0  0  0  0  0  0  # atno 8010 bound_to 7997
  139.5732  144.6950  151.3723 H   0  0  0  0  0  0  0  0  0  0  0  0  # atno 10167 bound_to 10162
  157.0971  130.6452  149.5863 H   0  0  0  0  0  0  0  0  0  0  0  0  # atno 10718 bound_to 10713
  153.0186  135.5284  154.6980 H   0  0  0  0  0  0  0  0  0  0  0  0  # atno 10763 bound_to 10752
  154.6096  135.2877  155.0449 H   0  0  0  0  0  0  0  0  0  0  0  0  # atno 10764 bound_to 10752
  154.1475  135.6568  153.5008 H   0  0  0  0  0  0  0  0  0  0  0  0  # atno 10765 bound_to 10752
  141.1655  133.6989  156.7689 H   0  0  0  0  0  0  0  0  0  0  0  0  # atno 11005 bound_to 11000
  146.2370  140.5539  142.8950 LP  0  0  0  0  0  0  0  0  0  0  0  0  # atno 17320 bound_to 7965
  144.7918  140.6047  143.6536 LP  0  0  0  0  0  0  0  0  0  0  0  0  # atno 17321 bound_to 7965
  140.7016  143.7618  150.7412 LP  0  0  0  0  0  0  0  0  0  0  0  0  # atno 17342 bound_to 10162
  140.1130  143.4681  152.2359 LP  0  0  0  0  0  0  0  0  0  0  0  0  # atno 17343 bound_to 10162
  155.9883  130.4926  150.7164 LP  0  0  0  0  0  0  0  0  0  0  0  0  # atno 17370 bound_to 10713
  157.4672  131.0889  151.0681 LP  0  0  0  0  0  0  0  0  0  0  0  0  # atno 17371 bound_to 10713
  140.2478  134.8563  157.3638 LP  0  0  0  0  0  0  0  0  0  0  0  0  # atno 17394 bound_to 11000
  140.1732  134.4583  155.7818 LP  0  0  0  0  0  0  0  0  0  0  0  0  # atno 17395 bound_to 11000

$$$$
