AV-unprocessed.smi:2629|AV-procd|sdf|10245|dock5
  -GOLD-   2272014253D 1   1.00000     0.00000
 Structure written by MMmdl.
 23 24  0  0  0  0  0  0  0  0  2 V2000
  151.8642  138.6721  153.8141 O   0  0  0  0  0  0  0  0  0  0  0  0
  151.8259  139.3827  154.8160 C   0  0  0  0  0  0  0  0  0  0  0  0
  150.9658  140.6278  154.8250 N   0  0  0  0  0  0  0  0  0  0  0  0
  150.9270  141.3558  155.8510 N   0  0  0  0  0  0  0  0  0  0  0  0
  151.6531  141.0766  157.0296 C   0  0  0  0  0  0  0  0  0  0  0  0
  151.4818  142.0082  158.0551 N   0  0  0  0  0  0  0  0  0  0  0  0
  150.7945  143.2865  157.9071 C   0  0  0  0  0  0  0  0  0  0  0  0
  151.8023  144.4421  158.0232 C   0  0  0  0  0  0  0  0  0  0  0  0
  152.4607  144.3641  159.2846 O   0  0  0  0  0  0  0  0  0  0  0  0
  153.1607  143.1337  159.4501 C   0  0  0  0  0  0  0  0  0  0  0  0
  152.1773  141.9542  159.3388 C   0  0  0  0  0  0  0  0  0  0  0  0
  152.4567  139.9420  157.0576 C   0  0  0  0  0  0  0  0  0  0  0  0
  153.2046  139.3903  157.8953 O   0  5  0  0  0  0  0  0  0  0  0  0
  152.5156  139.1231  155.9374 N   0  0  0  0  0  0  0  0  0  0  0  0
  150.0443  143.3720  158.6941 H   0  0  0  0  0  0  0  0  0  0  0  0
  150.2479  143.3429  156.9673 H   0  0  0  0  0  0  0  0  0  0  0  0
  152.5321  144.4060  157.2127 H   0  0  0  0  0  0  0  0  0  0  0  0
  151.2881  145.4002  157.9502 H   0  0  0  0  0  0  0  0  0  0  0  0
  153.9500  143.0500  158.7013 H   0  0  0  0  0  0  0  0  0  0  0  0
  153.6451  143.1300  160.4266 H   0  0  0  0  0  0  0  0  0  0  0  0
  152.7207  141.0187  159.4671 H   0  0  0  0  0  0  0  0  0  0  0  0
  151.4422  141.9996  160.1431 H   0  0  0  0  0  0  0  0  0  0  0  0
  153.1056  138.3059  155.9883 H   0  0  0  0  0  0  0  0  0  0  0  0
  1  2  2  0  0  0  0
  2 14  1  0  0  0  0
  2  3  1  0  0  0  0
  3  4  2  0  0  0  0
  4  5  1  0  0  0  0
  5 12  2  0  0  0  0
  5  6  1  0  0  0  0
  6 11  1  0  0  0  0
  6  7  1  0  0  0  0
  7  8  1  0  0  0  0
  7 15  1  0  0  0  0
  7 16  1  0  0  0  0
  8  9  1  0  0  0  0
  8 17  1  0  0  0  0
  8 18  1  0  0  0  0
  9 10  1  0  0  0  0
 10 11  1  0  0  0  0
 10 19  1  0  0  0  0
 10 20  1  0  0  0  0
 11 21  1  0  0  0  0
 11 22  1  0  0  0  0
 12 13  1  0  0  0  0
 12 14  1  0  0  0  0
 14 23  1  0  0  0  0
M  CHG  1  13  -1
M  END
> <s_m_source_file>
AV-unprocessed.smi

> <i_m_source_file_index>
2629

> <i_lp_mmshare_version>
43012

> <i_f3d_flags>
0

> <s_epik_input>
Tz1jMVtuSF1uYyhjKD1PKVtuSF0xKU4yW0NIMl1bQ0gyXU9bQ0gyXVtDSDJdMg==

> <s_epik_cmdline>
J2VwaWtfcHl0aG9uJywgJy1waCcsICc3LjAnLCAnLXRuJywgJzgnLCAnLW1hJywgJzIwMCcsICctbWV0YWxfYmluZGluZycsICctaW1hZScsICc8aW5maWxlLm1hZT4nLCAnLW9tYWUnLCAnPG91dGZpbGUubWFlPic=

> <r_lp_tautomer_probability>
1

> <r_epik_Ionization_Penalty>
0.519034

> <r_epik_Ionization_Penalty_Charging>
1.15035e-06

> <r_epik_Ionization_Penalty_Neutral>
0.519033

> <r_epik_State_Penalty>
0

> <r_epik_Charging_Adjusted_Penalty>
1.15035e-06

> <i_epik_Tot_Q>
-1

> <i_epik_Tot_abs_Q>
1

> <r_epik_Metal_State_Penalty>
8.21436e-06

> <b_epik_Metal_Only>
1

> <s_epik_pKa_notes>
Reset negative state penalty to 0 from Metal Processing

> <s_lp_Force_Field>
OPLS_2005

> <r_lp_Energy>
19.1466

> <b_lp_Chiralities_Consistent>
1

> <s_lp_Variant>
AV-unprocessed.smi:2629-2

> <Gold.Version>
5.8.1

> <Gold.Id.Protein>
6NUR|6NUR_protein|mol2

> <Gold.PLP.Fitness>
31.3041

> <Gold.PLP.PLP>
-25.3157

> <Gold.PLP.part.hbond>
-2.0000

> <Gold.PLP.part.metal>
0.0000

> <Gold.PLP.part.buried>
-3.5823

> <Gold.PLP.part.nonpolar>
-20.0323

> <Gold.PLP.part.repulsive>
0.4903

> <Gold.PLP.ligand.clash>
0.0000

> <Gold.PLP.ligand.torsion>
0.0227

> <Gold.PLP.Chemscore.Hbond>
2.0000

> <Gold.PLP.Chemscore.CHOScore>
0.0000

> <Gold.PLP.Chemscore.Metal>
0.0000

> <Gold.Chemscore.Hbonds>
donor molecule, donor type, donor heavy atom, donor atom, acceptor molecule, acceptor atom, score
      P1  H  7989  7998       L1     3  0.14
      P1  H  7997  8008       L1    13  1.10

> <Gold.PLP.Chemscore.Internal.Correction>
0.0338

> <Gold.Rescore>
     Score         DG    S(hbond)    S(metal)    S(lipo)     H(rot)  DE(clash)    DE(int)     intcor
     13.97     -14.01       0.96        0.00      45.42       0.00       0.00       0.04       ----

> <Gold.Chemscore.Fitness>
13.9687

> <Gold.Chemscore.DG>
-14.0135

> <Gold.Chemscore.ZeroCoef>
-5.4800

> <Gold.Chemscore.Hbond>
0.9638

> <Gold.Chemscore.Metal>
0.0000

> <Gold.Chemscore.Lipo>
45.4232

> <Gold.Chemscore.Internal_Hbond>
0.0000

> <Gold.Chemscore.DEClash>
0.0021

> <Gold.Chemscore.DEInternal>
0.0427

> <Gold.Chemscore.Rot>
0.0000

> <Gold.Chemscore.Internal.Correction>
   9.000000E+99

> <Gold.Chemscore.Hbonds>
donor molecule, donor type, donor heavy atom, donor atom, acceptor molecule, acceptor atom, score
      P1  H  7997  8008       L1    13  0.03

> <Gold.Chemscore.Hbond.Weighted>
-3.2189

> <Gold.Chemscore.Metal.Weighted>
-0.0000

> <Gold.Chemscore.Lipo.Weighted>
-5.3145

> <Gold.Chemscore.Internal_Hbond.Weighted>
0.0000

> <Gold.Chemscore.DEClash.Weighted>
0.0021

> <Gold.Chemscore.DEInternal.Weighted>
0.0427

> <Gold.Chemscore.Rot.Weighted>
0.0000

> <Gold.Chemscore.Internal.Correction.Weighted>
   9.000000E+99

> <Gold.Protein.RotatedTorsions>
[ 6907 6896 6895 6894 ] final -169.76 input  -60.11 | X-H torsion
[ 7974 7965 7964 7962 ] final   87.09 input  175.53 | X-H torsion
[ 8008 7997 7996 7995 ] final  -90.96 input   59.86 | X-H torsion
[ 10167 10162 10161 10158 ] final  -25.19 input  -65.29 | X-H torsion
[ 10718 10713 10712 10709 ] final  113.14 input   66.30 | X-H torsion
[ 10763 10752 10751 10750 ] final   71.28 input  -60.55 | X-H torsion
[ 11005 11000 10999 10996 ] final -171.28 input  -57.11 | X-H torsion

> <Gold.Protein.ActiveResidues>
 VAL166  LYS551  ARG553  GLY616  TRP617  ASP618  TYR619  PRO620  LYS621  CYS622 
 ASP623  PHE694  ASN695  SER759  ASP760  ASP761  ALA762  ILE779  LEU786  VAL792 
 PHE793  MET794  SER795  GLU796  ALA797  LYS798  CYS799  TRP800  GLU811  SER814 

> <Gold.Protein.RotatedAtoms>
  151.4967  133.3513  159.2862 H   0  0  0  0  0  0  0  0  0  0  0  0  # atno 6907 bound_to 6896
  150.8799  134.8190  159.7228 H   0  0  0  0  0  0  0  0  0  0  0  0  # atno 6908 bound_to 6896
  152.4756  134.4864  159.9733 H   0  0  0  0  0  0  0  0  0  0  0  0  # atno 6909 bound_to 6896
  145.5636  139.2306  143.2446 H   0  0  0  0  0  0  0  0  0  0  0  0  # atno 7974 bound_to 7965
  154.7049  140.0524  157.0494 H   0  0  0  0  0  0  0  0  0  0  0  0  # atno 8008 bound_to 7997
  155.0633  140.3192  155.4634 H   0  0  0  0  0  0  0  0  0  0  0  0  # atno 8009 bound_to 7997
  156.2772  140.2095  156.5760 H   0  0  0  0  0  0  0  0  0  0  0  0  # atno 8010 bound_to 7997
  140.7287  143.4287  151.0836 H   0  0  0  0  0  0  0  0  0  0  0  0  # atno 10167 bound_to 10162
  157.6354  131.0979  150.6998 H   0  0  0  0  0  0  0  0  0  0  0  0  # atno 10718 bound_to 10713
  153.0390  135.5143  154.7569 H   0  0  0  0  0  0  0  0  0  0  0  0  # atno 10763 bound_to 10752
  154.6522  135.2926  154.9975 H   0  0  0  0  0  0  0  0  0  0  0  0  # atno 10764 bound_to 10752
  154.0855  135.6658  153.4897 H   0  0  0  0  0  0  0  0  0  0  0  0  # atno 10765 bound_to 10752
  140.5101  134.5810  157.5016 H   0  0  0  0  0  0  0  0  0  0  0  0  # atno 11005 bound_to 11000
  146.1834  140.6461  142.9179 LP  0  0  0  0  0  0  0  0  0  0  0  0  # atno 17320 bound_to 7965
  144.7471  140.5096  143.6828 LP  0  0  0  0  0  0  0  0  0  0  0  0  # atno 17321 bound_to 7965
  139.7941  143.8177  152.3155 LP  0  0  0  0  0  0  0  0  0  0  0  0  # atno 17342 bound_to 10162
  139.8171  144.7312  150.9621 LP  0  0  0  0  0  0  0  0  0  0  0  0  # atno 17343 bound_to 10162
  156.7330  130.4715  149.5495 LP  0  0  0  0  0  0  0  0  0  0  0  0  # atno 17370 bound_to 10713
  156.1589  130.6361  151.0694 LP  0  0  0  0  0  0  0  0  0  0  0  0  # atno 17371 bound_to 10713
  139.9664  134.7366  156.0130 LP  0  0  0  0  0  0  0  0  0  0  0  0  # atno 17394 bound_to 11000
  141.1390  133.6568  156.3676 LP  0  0  0  0  0  0  0  0  0  0  0  0  # atno 17395 bound_to 11000

$$$$
