AV-unprocessed.smi:1047|AV-procd|sdf|4578|dock7
  -GOLD-   22720 3 43D 1   1.00000     0.00000
 Structure written by MMmdl.
 56 58  0  0  0  0  0  0  0  0  2 V2000
  145.2790  144.2018  157.9181 C   0  0  0  0  0  0  0  0  0  0  0  0
  144.4986  145.0625  156.9151 C   0  0  0  0  0  0  0  0  0  0  0  0
  143.8589  144.2483  155.8479 N   0  3  1  0  0  0  0  0  0  0  0  0
  143.1046  145.0315  154.8364 C   0  0  0  0  0  0  0  0  0  0  0  0
  144.0494  145.6879  153.8117 C   0  0  0  0  0  0  0  0  0  0  0  0
  144.8791  144.6955  153.2205 O   0  0  0  0  0  0  0  0  0  0  0  0
  145.7055  144.0349  154.1744 C   0  0  2  0  0  0  0  0  0  0  0  0
  146.6126  143.0526  153.4193 C   0  0  0  0  0  0  0  0  0  0  0  0
  147.5407  142.3890  154.3288 N   0  0  0  0  0  0  0  0  0  0  0  0
  148.2540  141.2743  153.7123 C   0  0  0  0  0  0  0  0  0  0  0  0
  149.3010  140.6810  154.6750 C   0  0  1  0  0  0  0  0  0  0  0  0
  150.2498  139.9649  153.9118 O   0  0  0  0  0  0  0  0  0  0  0  0
  150.0712  141.7450  155.4813 C   0  0  0  0  0  0  0  0  0  0  0  0
  150.6447  141.2130  156.7044 N   0  0  0  0  0  0  0  0  0  0  0  0
  150.8709  139.9171  156.9934 C   0  0  0  0  0  0  0  0  0  0  0  0
  151.4027  139.6414  158.1805 N   0  0  0  0  0  0  0  0  0  0  0  0
  151.5443  140.9070  158.7233 C   0  0  0  0  0  0  0  0  0  0  0  0
  152.0525  141.3150  159.9760 C   0  0  0  0  0  0  0  0  0  0  0  0
  152.1023  142.6829  160.3274 C   0  0  0  0  0  0  0  0  0  0  0  0
  152.6557  143.0773  161.6855 C   0  0  0  0  0  0  0  0  0  0  0  0
  151.6384  143.6671  159.4179 C   0  0  0  0  0  0  0  0  0  0  0  0
  151.6817  145.1428  159.7736 C   0  0  0  0  0  0  0  0  0  0  0  0
  151.1267  143.2767  158.1627 C   0  0  0  0  0  0  0  0  0  0  0  0
  151.0823  141.9126  157.8244 C   0  0  0  0  0  0  0  0  0  0  0  0
  144.7913  143.3058  155.1818 C   0  0  0  0  0  0  0  0  0  0  0  0
  145.8199  144.8330  158.6235 H   0  0  0  0  0  0  0  0  0  0  0  0
  146.0111  143.5719  157.4119 H   0  0  0  0  0  0  0  0  0  0  0  0
  144.6234  143.5556  158.5013 H   0  0  0  0  0  0  0  0  0  0  0  0
  143.7617  145.6759  157.4331 H   0  0  0  0  0  0  0  0  0  0  0  0
  145.2049  145.7560  156.4570 H   0  0  0  0  0  0  0  0  0  0  0  0
  142.4332  144.3490  154.3137 H   0  0  0  0  0  0  0  0  0  0  0  0
  142.4678  145.7792  155.3075 H   0  0  0  0  0  0  0  0  0  0  0  0
  143.4682  146.1705  153.0259 H   0  0  0  0  0  0  0  0  0  0  0  0
  144.6607  146.4656  154.2710 H   0  0  0  0  0  0  0  0  0  0  0  0
  146.3259  144.7634  154.6999 H   0  0  0  0  0  0  0  0  0  0  0  0
  145.9973  142.2998  152.9249 H   0  0  0  0  0  0  0  0  0  0  0  0
  147.1551  143.5778  152.6319 H   0  0  0  0  0  0  0  0  0  0  0  0
  148.2095  143.0644  154.6862 H   0  0  0  0  0  0  0  0  0  0  0  0
  147.5586  140.5017  153.3813 H   0  0  0  0  0  0  0  0  0  0  0  0
  148.7509  141.6416  152.8145 H   0  0  0  0  0  0  0  0  0  0  0  0
  148.8221  139.9903  155.3708 H   0  0  0  0  0  0  0  0  0  0  0  0
  149.9200  139.8799  153.0301 H   0  0  0  0  0  0  0  0  0  0  0  0
  150.8828  142.1590  154.8810 H   0  0  0  0  0  0  0  0  0  0  0  0
  149.4163  142.5797  155.7349 H   0  0  0  0  0  0  0  0  0  0  0  0
  150.6269  139.1314  156.2930 H   0  0  0  0  0  0  0  0  0  0  0  0
  152.4047  140.5646  160.6684 H   0  0  0  0  0  0  0  0  0  0  0  0
  153.5217  143.7293  161.5710 H   0  0  0  0  0  0  0  0  0  0  0  0
  152.9689  142.2034  162.2575 H   0  0  0  0  0  0  0  0  0  0  0  0
  151.8991  143.6039  162.2677 H   0  0  0  0  0  0  0  0  0  0  0  0
  151.2910  145.7589  158.9632 H   0  0  0  0  0  0  0  0  0  0  0  0
  152.7064  145.4589  159.9699 H   0  0  0  0  0  0  0  0  0  0  0  0
  151.0816  145.3394  160.6623 H   0  0  0  0  0  0  0  0  0  0  0  0
  150.7683  144.0166  157.4625 H   0  0  0  0  0  0  0  0  0  0  0  0
  145.3810  142.7664  155.9240 H   0  0  0  0  0  0  0  0  0  0  0  0
  144.2000  142.5532  154.6581 H   0  0  0  0  0  0  0  0  0  0  0  0
  143.1831  143.6716  156.3288 H   0  0  0  0  0  0  0  0  0  0  0  0
  1  2  1  0  0  0  0
  1 26  1  0  0  0  0
  1 27  1  0  0  0  0
  1 28  1  0  0  0  0
  2  3  1  0  0  0  0
  2 29  1  0  0  0  0
  2 30  1  0  0  0  0
  3 25  1  0  0  0  0
  3  4  1  0  0  0  0
  3 56  1  0  0  0  0
  4  5  1  0  0  0  0
  4 31  1  0  0  0  0
  4 32  1  0  0  0  0
  5  6  1  0  0  0  0
  5 33  1  0  0  0  0
  5 34  1  0  0  0  0
  6  7  1  0  0  0  0
  7  8  1  0  0  0  0
  7 25  1  0  0  0  0
  7 35  1  0  0  0  0
  8  9  1  0  0  0  0
  8 36  1  0  0  0  0
  8 37  1  0  0  0  0
  9 10  1  0  0  0  0
  9 38  1  0  0  0  0
 10 11  1  0  0  0  0
 10 39  1  0  0  0  0
 10 40  1  0  0  0  0
 11 12  1  0  0  0  0
 11 13  1  0  0  0  0
 11 41  1  0  0  0  0
 12 42  1  0  0  0  0
 13 14  1  0  0  0  0
 13 43  1  0  0  0  0
 13 44  1  0  0  0  0
 14 24  1  0  0  0  0
 14 15  1  0  0  0  0
 15 16  2  0  0  0  0
 15 45  1  0  0  0  0
 16 17  1  0  0  0  0
 17 24  2  0  0  0  0
 17 18  1  0  0  0  0
 18 19  2  0  0  0  0
 18 46  1  0  0  0  0
 19 20  1  0  0  0  0
 19 21  1  0  0  0  0
 20 47  1  0  0  0  0
 20 48  1  0  0  0  0
 20 49  1  0  0  0  0
 21 22  1  0  0  0  0
 21 23  2  0  0  0  0
 22 50  1  0  0  0  0
 22 51  1  0  0  0  0
 22 52  1  0  0  0  0
 23 24  1  0  0  0  0
 23 53  1  0  0  0  0
 25 54  1  0  0  0  0
 25 55  1  0  0  0  0
M  CHG  1   3   1
M  END
> <s_m_source_file>
AV-unprocessed.smi

> <i_m_source_file_index>
1047

> <i_lp_mmshare_version>
43012

> <i_f3d_flags>
0

> <s_epik_input>
W0NIM11bQ0gyXU4xW0NIMl1bQ0gyXU9bQ0BIXShbQ0gyXTEpW0NIMl1bTkhdW0NIMl1bQ0BIXShbT0hdKVtDSDJdbihbY0hdbjIpYyhjMjMpW2NIXWMoW0NIM10pYyhbY0hdMylbQ0gzXQ==

> <s_epik_cmdline>
J2VwaWtfcHl0aG9uJywgJy1waCcsICc3LjAnLCAnLXRuJywgJzgnLCAnLW1hJywgJzIwMCcsICctbWV0YWxfYmluZGluZycsICctaW1hZScsICc8aW5maWxlLm1hZT4nLCAnLW9tYWUnLCAnPG91dGZpbGUubWFlPic=

> <r_epik_Ionization_Penalty>
1.19246

> <r_epik_Ionization_Penalty_Charging>
0.210041

> <r_epik_Ionization_Penalty_Neutral>
0.982415

> <r_epik_State_Penalty>
1.57595

> <r_epik_Charging_Adjusted_Penalty>
1.78599

> <i_epik_Tot_Q>
1

> <i_epik_Tot_abs_Q>
1

> <r_epik_Metal_State_Penalty>
1.46172

> <b_epik_Metal_Only>
0

> <s_lp_Force_Field>
OPLS_2005

> <r_lp_Energy>
33.2573

> <b_lp_Chiralities_Consistent>
1

> <s_lp_Variant>
AV-unprocessed.smi:1047-19

> <Gold.Version>
5.8.1

> <Gold.Id.Protein>
6NUR|6NUR_protein|mol2

> <Gold.PLP.Fitness>
59.5382

> <Gold.PLP.PLP>
-52.0634

> <Gold.PLP.part.hbond>
-3.0000

> <Gold.PLP.part.metal>
0.0000

> <Gold.PLP.part.buried>
-8.2100

> <Gold.PLP.part.nonpolar>
-40.1769

> <Gold.PLP.part.repulsive>
0.1543

> <Gold.PLP.ligand.clash>
0.0000

> <Gold.PLP.ligand.torsion>
0.7388

> <Gold.PLP.Chemscore.Hbond>
2.9120

> <Gold.PLP.Chemscore.CHOScore>
0.0000

> <Gold.PLP.Chemscore.Metal>
0.0000

> <Gold.Chemscore.Hbonds>
donor molecule, donor type, donor heavy atom, donor atom, acceptor molecule, acceptor atom, score
      L1  H     9    38       P1  8028  1.00
      L1  H    12    42       P1  7957  1.00
      P1  H  7989  7998       L1    12  0.72

> <Gold.PLP.Chemscore.Internal.Correction>
0.2164

> <Gold.Rescore>
     Score         DG    S(hbond)    S(metal)    S(lipo)     H(rot)  DE(clash)    DE(int)     intcor
     21.12     -22.13       2.49        0.00     128.49       2.62       0.20       0.82       ----

> <Gold.Chemscore.Fitness>
21.1170

> <Gold.Chemscore.DG>
-22.1343

> <Gold.Chemscore.ZeroCoef>
-5.4800

> <Gold.Chemscore.Hbond>
2.4942

> <Gold.Chemscore.Metal>
0.0000

> <Gold.Chemscore.Lipo>
128.4899

> <Gold.Chemscore.Internal_Hbond>
0.0000

> <Gold.Chemscore.DEClash>
0.1976

> <Gold.Chemscore.DEInternal>
0.8197

> <Gold.Chemscore.Rot>
2.6209

> <Gold.Chemscore.Internal.Correction>
   9.000000E+99

> <Gold.Chemscore.Hbonds>
donor molecule, donor type, donor heavy atom, donor atom, acceptor molecule, acceptor atom, score
      L1  H     9    38       P1  8028  0.93
      L1  H    12    42       P1  7957  1.00
      P1  H  7989  7998       L1    12  0.08

> <Gold.Chemscore.Hbond.Weighted>
-8.3306

> <Gold.Chemscore.Metal.Weighted>
-0.0000

> <Gold.Chemscore.Lipo.Weighted>
-15.0333

> <Gold.Chemscore.Internal_Hbond.Weighted>
0.0000

> <Gold.Chemscore.DEClash.Weighted>
0.1976

> <Gold.Chemscore.DEInternal.Weighted>
0.8197

> <Gold.Chemscore.Rot.Weighted>
6.7096

> <Gold.Chemscore.Internal.Correction.Weighted>
   9.000000E+99

> <Gold.Protein.RotatedTorsions>
[ 6907 6896 6895 6894 ] final  -31.40 input  -60.11 | X-H torsion
[ 7974 7965 7964 7962 ] final  131.05 input  175.53 | X-H torsion
[ 8008 7997 7996 7995 ] final  -15.84 input   59.86 | X-H torsion
[ 10167 10162 10161 10158 ] final  -55.62 input  -65.29 | X-H torsion
[ 10718 10713 10712 10709 ] final   47.41 input   66.30 | X-H torsion
[ 10763 10752 10751 10750 ] final   17.34 input  -60.55 | X-H torsion
[ 11005 11000 10999 10996 ] final  130.98 input  -57.11 | X-H torsion

> <Gold.Protein.ActiveResidues>
 VAL166  LYS551  ARG553  GLY616  TRP617  ASP618  TYR619  PRO620  LYS621  CYS622 
 ASP623  PHE694  ASN695  SER759  ASP760  ASP761  ALA762  ILE779  LEU786  VAL792 
 PHE793  MET794  SER795  GLU796  ALA797  LYS798  CYS799  TRP800  GLU811  SER814 

> <Gold.Protein.RotatedAtoms>
  151.0925  134.9925  159.8409 H   0  0  0  0  0  0  0  0  0  0  0  0  # atno 6907 bound_to 6896
  152.5430  134.2047  159.8736 H   0  0  0  0  0  0  0  0  0  0  0  0  # atno 6908 bound_to 6896
  151.2085  133.4526  159.2631 H   0  0  0  0  0  0  0  0  0  0  0  0  # atno 6909 bound_to 6896
  145.0114  139.4217  143.5243 H   0  0  0  0  0  0  0  0  0  0  0  0  # atno 7974 bound_to 7965
  154.5099  140.2185  155.9177 H   0  0  0  0  0  0  0  0  0  0  0  0  # atno 8008 bound_to 7997
  156.1539  140.3156  155.8660 H   0  0  0  0  0  0  0  0  0  0  0  0  # atno 8009 bound_to 7997
  155.3884  140.0477  157.3032 H   0  0  0  0  0  0  0  0  0  0  0  0  # atno 8010 bound_to 7997
  140.6364  143.2484  151.5106 H   0  0  0  0  0  0  0  0  0  0  0  0  # atno 10167 bound_to 10162
  157.4582  130.8180  149.7858 H   0  0  0  0  0  0  0  0  0  0  0  0  # atno 10718 bound_to 10713
  153.1348  135.6748  153.9121 H   0  0  0  0  0  0  0  0  0  0  0  0  # atno 10763 bound_to 10752
  153.8596  135.3083  155.3438 H   0  0  0  0  0  0  0  0  0  0  0  0  # atno 10764 bound_to 10752
  154.7738  135.4925  153.9785 H   0  0  0  0  0  0  0  0  0  0  0  0  # atno 10765 bound_to 10752
  139.9703  134.9579  156.9371 H   0  0  0  0  0  0  0  0  0  0  0  0  # atno 11005 bound_to 11000
  146.3470  139.9559  142.8723 LP  0  0  0  0  0  0  0  0  0  0  0  0  # atno 17320 bound_to 7965
  145.2019  140.9858  143.4151 LP  0  0  0  0  0  0  0  0  0  0  0  0  # atno 17321 bound_to 7965
  139.5574  144.2240  152.1636 LP  0  0  0  0  0  0  0  0  0  0  0  0  # atno 17342 bound_to 10162
  140.1498  144.5125  150.6694 LP  0  0  0  0  0  0  0  0  0  0  0  0  # atno 17343 bound_to 10162
  156.0016  130.3877  150.2583 LP  0  0  0  0  0  0  0  0  0  0  0  0  # atno 17370 bound_to 10713
  157.0759  131.0130  151.3174 LP  0  0  0  0  0  0  0  0  0  0  0  0  # atno 17371 bound_to 10713
  140.5307  134.0816  155.7315 LP  0  0  0  0  0  0  0  0  0  0  0  0  # atno 17394 bound_to 11000
  141.1383  133.9183  157.2385 LP  0  0  0  0  0  0  0  0  0  0  0  0  # atno 17395 bound_to 11000

$$$$
