#       Name:                AV-unprocessed.smi:15
#       Creating user name   scv26
#       Creation time:       Thu Mar 26 15:21:16 2020


#       File generated by GOLD software.
#

@<TRIPOS>MOLECULE
AV-unprocessed.smi:15
    62    65     1
SMALL
NO_CHARGES


@<TRIPOS>ATOM
      1 ****        -4.6975  -2.0546  -0.8563 C.3            1 S1                 0.0000
      2 ****        -3.2885  -1.8130  -1.4147 C.3            1 S1                 0.0000
      3 ****        -2.5808  -0.7192  -0.7426 N.pl3          1 S1                 0.0000
      4 ****        -3.1694   0.6230  -0.7406 C.3            1 S1                 0.0000
      5 ****        -3.1420   1.3023  -2.1221 C.3            1 S1                 0.0000
      6 ****        -3.5073   2.7834  -2.0756 C.3            1 S1                 0.0000
      7 ****        -3.9878   3.0707  -3.4888 C.3            1 S1                 0.0000
      8 ****        -4.3028   1.6853  -4.0611 C.3            1 S1                 0.0000
      9 ****        -4.1563   0.7872  -2.9698 O.3            1 S1                 0.0000
     10 ****        -1.2236  -0.7351  -0.8141 C.ar           1 S1                 0.0000
     11 ****        -0.6131  -1.2943  -1.8936 N.ar           1 S1                 0.0000
     12 ****         0.7189  -1.2894  -1.9954 C.ar           1 S1                 0.0000
     13 ****         1.6181  -0.7899  -1.1463 N.ar           1 S1                 0.0000
     14 ****         1.0149  -0.2380  -0.0550 C.ar           1 S1                 0.0000
     15 ****        -0.3865  -0.1650   0.1871 C.ar           1 S1                 0.0000
     16 ****        -0.6222   0.4691   1.4016 N.2            1 S1                 0.0000
     17 ****         0.5691   0.7645   1.8445 C.2            1 S1                 0.0000
     18 ****         1.6113   0.3643   1.0392 N.pl3          1 S1                 0.0000
     19 ****         3.0309   0.5616   1.2901 C.3            1 S1                 0.0000
     20 ****         3.7278  -0.6283   2.0044 C.3            1 S1                 0.0000
     21 ****         3.6342  -1.7702   1.1710 O.3            1 S1                 0.0000
     22 ****         3.1360  -0.9664   3.3684 C.3            1 S1                 0.0000
     23 ****         3.8658   0.0043   4.2829 C.3            1 S1                 0.0000
     24 ****         5.1913   0.0123   3.7743 O.3            1 S1                 0.0000
     25 ****         5.1911  -0.2734   2.3745 C.3            1 S1                 0.0000
     26 ****         6.2264  -1.3898   2.1531 C.3            1 S1                 0.0000
     27 ****        -5.1481  -2.9298  -1.3246 H              1 S1                 0.0000
     28 ****        -5.3592  -1.2101  -1.0475 H              1 S1                 0.0000
     29 ****        -4.6707  -2.2304   0.2194 H              1 S1                 0.0000
     30 ****        -2.7180  -2.7353  -1.2949 H              1 S1                 0.0000
     31 ****        -3.3399  -1.6165  -2.4858 H              1 S1                 0.0000
     32 ****        -4.1910   0.5811  -0.3645 H              1 S1                 0.0000
     33 ****        -2.6352   1.2537  -0.0315 H              1 S1                 0.0000
     34 ****        -2.1687   1.1842  -2.6024 H              1 S1                 0.0000
     35 ****        -4.3247   2.9466  -1.3715 H              1 S1                 0.0000
     36 ****        -2.6712   3.4149  -1.7736 H              1 S1                 0.0000
     37 ****        -4.8629   3.7210  -3.4838 H              1 S1                 0.0000
     38 ****        -3.2100   3.5567  -4.0789 H              1 S1                 0.0000
     39 ****        -5.3063   1.6240  -4.4826 H              1 S1                 0.0000
     40 ****        -3.5885   1.4216  -4.8423 H              1 S1                 0.0000
     41 ****         1.1215  -1.7496  -2.8855 H              1 S1                 0.0000
     42 ****         0.7223   1.2782   2.7826 H              1 S1                 0.0000
     43 ****         3.5189   0.7593   0.3346 H              1 S1                 0.0000
     44 ****         3.1428   1.4753   1.8750 H              1 S1                 0.0000
     45 ****         4.0899  -2.4846   1.5889 H              1 S1                 0.0000
     46 ****         2.0522  -0.8834   3.4302 H              1 S1                 0.0000
     47 ****         3.4001  -1.9856   3.6558 H              1 S1                 0.0000
     48 ****         3.4407   1.0059   4.2091 H              1 S1                 0.0000
     49 ****         3.8411  -0.3014   5.3288 H              1 S1                 0.0000
     50 ****         5.5183   0.6166   1.8350 H              1 S1                 0.0000
     51 ****         6.3217  -1.6407   1.0962 H              1 S1                 0.0000
     52 ****         5.9552  -2.2966   2.6945 H              1 S1                 0.0000
     53 ****         7.2107  -1.0787   2.5036 H              1 S1                 0.0000
     54 ****        -5.0180   0.7183  -2.4671 LP             1 S1                 0.0000
     55 ****        -3.8930  -0.1171  -3.3057 LP             1 S1                 0.0000
     56 ****        -1.1650  -1.7117  -2.6155 LP             1 S1                 0.0000
     57 ****         2.6072  -0.8167  -1.2913 LP             1 S1                 0.0000
     58 ****        -1.5031   0.6561   1.8363 LP             1 S1                 0.0000
     59 ****         4.0532  -1.5757   0.2841 LP             1 S1                 0.0000
     60 ****         2.6733  -2.0139   1.0395 LP             1 S1                 0.0000
     61 ****         5.7313  -0.6808   4.2517 LP             1 S1                 0.0000
     62 ****         5.5968   0.9137   3.9263 LP             1 S1                 0.0000
@<TRIPOS>BOND
    1    1    2 1     
    2    1   27 1     
    3    1   28 1     
    4    1   29 1     
    5    2    3 1     
    6    2   30 1     
    7    2   31 1     
    8    3    4 1     
    9    3   10 1     
   10    4    5 1     
   11    4   32 1     
   12    4   33 1     
   13    5    9 1     
   14    5    6 1     
   15    5   34 1     
   16    6    7 1     
   17    6   35 1     
   18    6   36 1     
   19    7    8 1     
   20    7   37 1     
   21    7   38 1     
   22    8    9 1     
   23    8   39 1     
   24    8   40 1     
   25   10   15 ar    
   26   10   11 ar    
   27   11   12 ar    
   28   12   13 ar    
   29   12   41 1     
   30   13   14 ar    
   31   14   18 1     
   32   14   15 ar    
   33   15   16 1     
   34   16   17 2     
   35   17   18 1     
   36   17   42 1     
   37   18   19 1     
   38   19   20 1     
   39   19   43 1     
   40   19   44 1     
   41   20   25 1     
   42   20   21 1     
   43   20   22 1     
   44   21   45 1     
   45   22   23 1     
   46   22   46 1     
   47   22   47 1     
   48   23   24 1     
   49   23   48 1     
   50   23   49 1     
   51   24   25 1     
   52   25   26 1     
   53   25   50 1     
   54   26   51 1     
   55   26   52 1     
   56   26   53 1     
   57    9   54 1     
   58    9   55 1     
   59   11   56 1     
   60   13   57 1     
   61   16   58 1     
   62   21   59 1     
   63   21   60 1     
   64   24   61 1     
   65   24   62 1     
@<TRIPOS>SUBSTRUCTURE
      1 S1             1
@<TRIPOS>SET
LONE_PAIRS      STATIC     ATOMS    <user>   **** ""
9 54 55 56 57 58 59 60 61 62
DONOR_HYDROGENS      STATIC     ATOMS    <user>   **** ""
1 45
ATOM$BLUE        STATIC     ATOMS    COLORGROUP SYSTEM
9 54 55 56 57 58 59 60 61 62
ATOM$RED        STATIC     ATOMS    COLORGROUP SYSTEM
1 45
