AV-unprocessed.smi:765|AV-procd|sdf|3648|dock8
  -GOLD-   22720 1 53D 1   1.00000     0.00000
 Structure written by MMmdl.
 39 40  0  0  0  0  0  0  0  0  1 V2000
  152.1361  144.2521  158.0284 C   0  0  0  0  0  0  0  0  0  0  0  0
  151.9081  142.7429  157.8616 C   0  0  1  0  0  0  0  0  0  0  0  0
  151.7277  142.0496  159.2238 C   0  0  0  0  0  0  0  0  0  0  0  0
  151.4798  140.5434  159.0627 C   0  0  0  0  0  0  0  0  0  0  0  0
  150.2773  140.2752  158.1434 C   0  0  0  0  0  0  0  0  0  0  0  0
  150.4422  140.9405  156.7547 C   0  0  1  0  0  0  0  0  0  0  0  0
  151.5789  140.3452  156.0233 C   0  0  0  0  0  0  0  0  0  0  0  0
  152.4685  139.8777  155.4496 N   0  0  0  0  0  0  0  0  0  0  0  0
  149.1985  140.8082  155.9932 N   0  0  0  0  0  0  0  0  0  0  0  0
  149.0480  140.9209  154.6624 C   0  0  0  0  0  0  0  0  0  0  0  0
  149.9767  141.1830  153.8979 O   0  0  0  0  0  0  0  0  0  0  0  0
  147.6266  140.6940  154.1230 C   0  0  1  0  0  0  0  0  0  0  0  0
  147.0048  139.3688  154.6091 C   0  0  0  0  0  0  0  0  0  0  0  0
  146.7822  141.8434  154.4282 N   0  0  0  0  0  0  0  0  0  0  0  0
  146.3022  142.7988  153.5553 C   0  0  0  0  0  0  0  0  0  0  0  0
  145.5925  143.7064  154.2881 C   0  0  0  0  0  0  0  0  0  0  0  0
  145.7034  143.2240  155.6217 C   0  0  0  0  0  0  0  0  0  0  0  0
  146.4211  142.1161  155.7039 N   0  0  0  0  0  0  0  0  0  0  0  0
  150.6963  142.4528  156.9522 C   0  0  0  0  0  0  0  0  0  0  0  0
  151.2802  144.7331  158.5033 H   0  0  0  0  0  0  0  0  0  0  0  0
  152.2959  144.7346  157.0638 H   0  0  0  0  0  0  0  0  0  0  0  0
  153.0133  144.4506  158.6449 H   0  0  0  0  0  0  0  0  0  0  0  0
  152.8002  142.3309  157.3878 H   0  0  0  0  0  0  0  0  0  0  0  0
  152.6095  142.2102  159.8451 H   0  0  0  0  0  0  0  0  0  0  0  0
  150.8890  142.4988  159.7575 H   0  0  0  0  0  0  0  0  0  0  0  0
  152.3715  140.0645  158.6565 H   0  0  0  0  0  0  0  0  0  0  0  0
  151.3062  140.0909  160.0395 H   0  0  0  0  0  0  0  0  0  0  0  0
  150.1437  139.1980  158.0385 H   0  0  0  0  0  0  0  0  0  0  0  0
  149.3718  140.6479  158.6250 H   0  0  0  0  0  0  0  0  0  0  0  0
  148.3724  140.5919  156.5316 H   0  0  0  0  0  0  0  0  0  0  0  0
  147.7020  140.6314  153.0361 H   0  0  0  0  0  0  0  0  0  0  0  0
  147.6235  138.5172  154.3247 H   0  0  0  0  0  0  0  0  0  0  0  0
  146.0197  139.2177  154.1669 H   0  0  0  0  0  0  0  0  0  0  0  0
  146.8867  139.3431  155.6932 H   0  0  0  0  0  0  0  0  0  0  0  0
  146.5041  142.7544  152.4952 H   0  0  0  0  0  0  0  0  0  0  0  0
  145.0763  144.5835  153.9273 H   0  0  0  0  0  0  0  0  0  0  0  0
  145.2907  143.6449  156.5267 H   0  0  0  0  0  0  0  0  0  0  0  0
  149.8090  142.9204  157.3830 H   0  0  0  0  0  0  0  0  0  0  0  0
  150.8472  142.9281  155.9816 H   0  0  0  0  0  0  0  0  0  0  0  0
  1  2  1  0  0  0  0
  1 20  1  0  0  0  0
  1 21  1  0  0  0  0
  1 22  1  0  0  0  0
  2 19  1  0  0  0  0
  2  3  1  0  0  0  0
  2 23  1  0  0  0  0
  3  4  1  0  0  0  0
  3 24  1  0  0  0  0
  3 25  1  0  0  0  0
  4  5  1  0  0  0  0
  4 26  1  0  0  0  0
  4 27  1  0  0  0  0
  5  6  1  0  0  0  0
  5 28  1  0  0  0  0
  5 29  1  0  0  0  0
  6  7  1  0  0  0  0
  6  9  1  0  0  0  0
  6 19  1  0  0  0  0
  7  8  3  0  0  0  0
  9 10  1  0  0  0  0
  9 30  1  0  0  0  0
 10 11  2  0  0  0  0
 10 12  1  0  0  0  0
 12 13  1  0  0  0  0
 12 14  1  0  0  0  0
 12 31  1  0  0  0  0
 13 32  1  0  0  0  0
 13 33  1  0  0  0  0
 13 34  1  0  0  0  0
 14 18  1  0  0  0  0
 14 15  1  0  0  0  0
 15 16  2  0  0  0  0
 15 35  1  0  0  0  0
 16 17  1  0  0  0  0
 16 36  1  0  0  0  0
 17 18  2  0  0  0  0
 17 37  1  0  0  0  0
 19 38  1  0  0  0  0
 19 39  1  0  0  0  0
M  END
> <s_m_source_file>
AV-unprocessed.smi

> <i_m_source_file_index>
765

> <i_lp_mmshare_version>
43012

> <i_f3d_flags>
0

> <s_epik_input>
W0NIM11bQ0BASF0oW0NIMl0xKVtDSDJdW0NIMl1bQ0gyXVtDQEBdMShDI04pW05IXUMoPU8pW0NASF0oW0NIM10pbjJbY0hdW2NIXVtjSF1uMg==

> <s_epik_cmdline>
J2VwaWtfcHl0aG9uJywgJy1waCcsICc3LjAnLCAnLXRuJywgJzgnLCAnLW1hJywgJzIwMCcsICctbWV0YWxfYmluZGluZycsICctaW1hZScsICc8aW5maWxlLm1hZT4nLCAnLW9tYWUnLCAnPG91dGZpbGUubWFlPic=

> <r_lp_tautomer_probability>
1

> <r_epik_Ionization_Penalty>
2.71142e-05

> <r_epik_Ionization_Penalty_Charging>
0

> <r_epik_Ionization_Penalty_Neutral>
2.71142e-05

> <r_epik_State_Penalty>
-0

> <r_epik_Charging_Adjusted_Penalty>
0

> <i_epik_Tot_Q>
0

> <i_epik_Tot_abs_Q>
0

> <r_epik_Metal_State_Penalty>
-0

> <b_epik_Metal_Only>
0

> <s_lp_Force_Field>
OPLS_2005

> <r_lp_Energy>
11.5189

> <b_lp_Chiralities_Consistent>
1

> <s_lp_Variant>
AV-unprocessed.smi:765-6

> <Gold.Version>
5.8.1

> <Gold.Id.Protein>
6NUR|6NUR_protein|mol2

> <Gold.PLP.Fitness>
39.3281

> <Gold.PLP.PLP>
-34.2798

> <Gold.PLP.part.hbond>
-3.4400

> <Gold.PLP.part.metal>
0.0000

> <Gold.PLP.part.buried>
-3.3977

> <Gold.PLP.part.nonpolar>
-28.5744

> <Gold.PLP.part.repulsive>
1.4624

> <Gold.PLP.ligand.clash>
0.0000

> <Gold.PLP.ligand.torsion>
0.7915

> <Gold.PLP.Chemscore.Hbond>
2.1769

> <Gold.PLP.Chemscore.CHOScore>
0.0000

> <Gold.PLP.Chemscore.Metal>
0.0000

> <Gold.Chemscore.Hbonds>
donor molecule, donor type, donor heavy atom, donor atom, acceptor molecule, acceptor atom, score
      P1  H  7989  7998       L1    11  0.34
      P1  H  7997  8008       L1     8  0.98
      P1  H  8011  8017       L1    11  0.77

> <Gold.PLP.Chemscore.Internal.Correction>
0.1008

> <Gold.Rescore>
     Score         DG    S(hbond)    S(metal)    S(lipo)     H(rot)  DE(clash)    DE(int)     intcor
     14.30     -17.05       1.86        0.00      76.87       1.42       0.97       1.78       ----

> <Gold.Chemscore.Fitness>
14.2961

> <Gold.Chemscore.DG>
-17.0464

> <Gold.Chemscore.ZeroCoef>
-5.4800

> <Gold.Chemscore.Hbond>
1.8575

> <Gold.Chemscore.Metal>
0.0000

> <Gold.Chemscore.Lipo>
76.8670

> <Gold.Chemscore.Internal_Hbond>
0.0000

> <Gold.Chemscore.DEClash>
0.9695

> <Gold.Chemscore.DEInternal>
1.7809

> <Gold.Chemscore.Rot>
1.4183

> <Gold.Chemscore.Internal.Correction>
   9.000000E+99

> <Gold.Chemscore.Hbonds>
donor molecule, donor type, donor heavy atom, donor atom, acceptor molecule, acceptor atom, score
      P1  H  7989  7998       L1    11  0.34
      P1  H  7997  8008       L1     8  0.91
      P1  H  8011  8017       L1    11  0.75

> <Gold.Chemscore.Hbond.Weighted>
-6.2039

> <Gold.Chemscore.Metal.Weighted>
-0.0000

> <Gold.Chemscore.Lipo.Weighted>
-8.9934

> <Gold.Chemscore.Internal_Hbond.Weighted>
0.0000

> <Gold.Chemscore.DEClash.Weighted>
0.9695

> <Gold.Chemscore.DEInternal.Weighted>
1.7809

> <Gold.Chemscore.Rot.Weighted>
3.6309

> <Gold.Chemscore.Internal.Correction.Weighted>
   9.000000E+99

> <Gold.Protein.RotatedTorsions>
[ 6907 6896 6895 6894 ] final  -50.71 input  -60.11 | X-H torsion
[ 7974 7965 7964 7962 ] final  -64.92 input  175.53 | X-H torsion
[ 8008 7997 7996 7995 ] final  -18.59 input   59.86 | X-H torsion
[ 10167 10162 10161 10158 ] final -117.99 input  -65.29 | X-H torsion
[ 10718 10713 10712 10709 ] final -121.70 input   66.30 | X-H torsion
[ 10763 10752 10751 10750 ] final   15.51 input  -60.55 | X-H torsion
[ 11005 11000 10999 10996 ] final  125.22 input  -57.11 | X-H torsion

> <Gold.Protein.ActiveResidues>
 VAL166  LYS551  ARG553  GLY616  TRP617  ASP618  TYR619  PRO620  LYS621  CYS622 
 ASP623  PHE694  ASN695  SER759  ASP760  ASP761  ALA762  ILE779  LEU786  VAL792 
 PHE793  MET794  SER795  GLU796  ALA797  LYS798  CYS799  TRP800  GLU811  SER814 

> <Gold.Protein.RotatedAtoms>
  150.8681  134.8049  159.7133 H   0  0  0  0  0  0  0  0  0  0  0  0  # atno 6907 bound_to 6896
  152.4695  134.4991  159.9729 H   0  0  0  0  0  0  0  0  0  0  0  0  # atno 6908 bound_to 6896
  151.5084  133.3451  159.2916 H   0  0  0  0  0  0  0  0  0  0  0  0  # atno 6909 bound_to 6896
  145.7607  140.8863  143.0431 H   0  0  0  0  0  0  0  0  0  0  0  0  # atno 7974 bound_to 7965
  154.4896  140.2112  155.9579 H   0  0  0  0  0  0  0  0  0  0  0  0  # atno 8008 bound_to 7997
  156.1286  140.3201  155.8283 H   0  0  0  0  0  0  0  0  0  0  0  0  # atno 8009 bound_to 7997
  155.4338  140.0505  157.3007 H   0  0  0  0  0  0  0  0  0  0  0  0  # atno 8010 bound_to 7997
  140.0623  143.4956  152.2025 H   0  0  0  0  0  0  0  0  0  0  0  0  # atno 10167 bound_to 10162
  156.1358  130.6429  150.9694 H   0  0  0  0  0  0  0  0  0  0  0  0  # atno 10718 bound_to 10713
  153.1519  135.6780  153.8870 H   0  0  0  0  0  0  0  0  0  0  0  0  # atno 10763 bound_to 10752
  153.8294  135.3119  155.3418 H   0  0  0  0  0  0  0  0  0  0  0  0  # atno 10764 bound_to 10752
  154.7868  135.4857  154.0051 H   0  0  0  0  0  0  0  0  0  0  0  0  # atno 10765 bound_to 10752
  139.9396  134.9637  156.8526 H   0  0  0  0  0  0  0  0  0  0  0  0  # atno 11005 bound_to 11000
  144.6831  139.9719  143.7482 LP  0  0  0  0  0  0  0  0  0  0  0  0  # atno 17320 bound_to 7965
  146.0266  139.3298  143.0780 LP  0  0  0  0  0  0  0  0  0  0  0  0  # atno 17321 bound_to 7965
  139.5886  144.7541  151.3457 LP  0  0  0  0  0  0  0  0  0  0  0  0  # atno 17342 bound_to 10162
  140.7166  143.7250  150.7667 LP  0  0  0  0  0  0  0  0  0  0  0  0  # atno 17343 bound_to 10162
  157.6531  131.0894  150.8008 LP  0  0  0  0  0  0  0  0  0  0  0  0  # atno 17370 bound_to 10713
  156.8088  130.4945  149.5359 LP  0  0  0  0  0  0  0  0  0  0  0  0  # atno 17371 bound_to 10713
  140.5986  134.0193  155.7528 LP  0  0  0  0  0  0  0  0  0  0  0  0  # atno 17394 bound_to 11000
  141.1025  133.9746  157.3054 LP  0  0  0  0  0  0  0  0  0  0  0  0  # atno 17395 bound_to 11000

$$$$
