AV-unprocessed.smi:102|AV-procd|sdf|974|dock2
  -GOLD-   2262017533D 1   1.00000     0.00000
 Structure written by MMmdl.
 43 44  0  0  0  0  0  0  0  0  2 V2000
  146.0616  134.8167  152.1937 C   0  0  0  0  0  0  0  0  0  0  0  0
  145.6326  135.4029  153.5333 C   0  0  0  0  0  0  0  0  0  0  0  0
  144.6339  136.1162  153.6305 O   0  0  0  0  0  0  0  0  0  0  0  0
  146.4530  135.0540  154.5345 O   0  0  0  0  0  0  0  0  0  0  0  0
  146.1330  135.4170  155.8687 C   0  0  0  0  0  0  0  0  0  0  0  0
  147.0424  134.6824  156.8659 C   0  0  1  0  0  0  0  0  0  0  0  0
  148.4018  135.0317  156.6093 O   0  0  0  0  0  0  0  0  0  0  0  0
  148.9807  135.5434  157.7678 C   0  0  1  0  0  0  0  0  0  0  0  0
  149.9541  136.6337  157.3704 N   0  0  0  0  0  0  0  0  0  0  0  0
  150.1921  136.8988  156.0315 C   0  0  0  0  0  0  0  0  0  0  0  0
  151.1096  137.8074  155.6440 C   0  0  0  0  0  0  0  0  0  0  0  0
  151.3133  138.0367  154.3351 F   0  0  0  0  0  0  0  0  0  0  0  0
  151.8900  138.5194  156.6523 C   0  0  0  0  0  0  0  0  0  0  0  0
  152.7042  139.3700  156.2966 O   0  0  0  0  0  0  0  0  0  0  0  0
  151.6812  138.1971  157.9611 N   0  5  0  0  0  0  0  0  0  0  0  0
  150.7649  137.2648  158.3567 C   0  0  0  0  0  0  0  0  0  0  0  0
  150.6070  136.9511  159.5363 O   0  0  0  0  0  0  0  0  0  0  0  0
  147.8496  136.0258  158.6781 C   0  0  2  0  0  0  0  0  0  0  0  0
  148.2488  136.0138  160.0431 O   0  0  0  0  0  0  0  0  0  0  0  0
  147.4510  136.5504  160.9808 C   0  0  0  0  0  0  0  0  0  0  0  0
  147.8536  136.1382  162.3901 C   0  0  0  0  0  0  0  0  0  0  0  0
  146.4873  137.2891  160.7768 O   0  0  0  0  0  0  0  0  0  0  0  0
  146.7583  135.0173  158.3423 C   0  0  2  0  0  0  0  0  0  0  0  0
  146.8988  133.8431  159.1382 O   0  0  0  0  0  0  0  0  0  0  0  0
  146.3958  133.8015  160.3840 C   0  0  0  0  0  0  0  0  0  0  0  0
  147.1906  132.8798  161.2989 C   0  0  0  0  0  0  0  0  0  0  0  0
  145.4065  134.4129  160.7880 O   0  0  0  0  0  0  0  0  0  0  0  0
  146.8086  134.0342  152.3296 H   0  0  0  0  0  0  0  0  0  0  0  0
  146.4892  135.5956  151.5626 H   0  0  0  0  0  0  0  0  0  0  0  0
  145.2036  134.3855  151.6779 H   0  0  0  0  0  0  0  0  0  0  0  0
  146.2563  136.4948  155.9828 H   0  0  0  0  0  0  0  0  0  0  0  0
  145.0881  135.1854  156.0803 H   0  0  0  0  0  0  0  0  0  0  0  0
  146.9334  133.6118  156.6894 H   0  0  0  0  0  0  0  0  0  0  0  0
  149.5401  134.7443  158.2542 H   0  0  0  0  0  0  0  0  0  0  0  0
  149.6543  136.3631  155.2667 H   0  0  0  0  0  0  0  0  0  0  0  0
  147.5239  137.0182  158.3734 H   0  0  0  0  0  0  0  0  0  0  0  0
  148.9317  136.2344  162.5215 H   0  0  0  0  0  0  0  0  0  0  0  0
  147.5728  135.1011  162.5733 H   0  0  0  0  0  0  0  0  0  0  0  0
  147.3582  136.7673  163.1299 H   0  0  0  0  0  0  0  0  0  0  0  0
  145.7712  135.4591  158.4880 H   0  0  0  0  0  0  0  0  0  0  0  0
  148.2533  133.1181  161.2470 H   0  0  0  0  0  0  0  0  0  0  0  0
  147.0528  131.8407  160.9993 H   0  0  0  0  0  0  0  0  0  0  0  0
  146.8624  132.9886  162.3327 H   0  0  0  0  0  0  0  0  0  0  0  0
  1  2  1  0  0  0  0
  1 28  1  0  0  0  0
  1 29  1  0  0  0  0
  1 30  1  0  0  0  0
  2  3  2  0  0  0  0
  2  4  1  0  0  0  0
  4  5  1  0  0  0  0
  5  6  1  0  0  0  0
  5 31  1  0  0  0  0
  5 32  1  0  0  0  0
  6 23  1  0  0  0  0
  6  7  1  0  0  0  0
  6 33  1  0  0  0  0
  7  8  1  0  0  0  0
  8  9  1  0  0  0  0
  8 18  1  0  0  0  0
  8 34  1  0  0  0  0
  9 16  1  0  0  0  0
  9 10  1  0  0  0  0
 10 11  2  0  0  0  0
 10 35  1  0  0  0  0
 11 12  1  0  0  0  0
 11 13  1  0  0  0  0
 13 14  2  0  0  0  0
 13 15  1  0  0  0  0
 15 16  1  0  0  0  0
 16 17  2  0  0  0  0
 18 19  1  0  0  0  0
 18 23  1  0  0  0  0
 18 36  1  0  0  0  0
 19 20  1  0  0  0  0
 20 21  1  0  0  0  0
 20 22  2  0  0  0  0
 21 37  1  0  0  0  0
 21 38  1  0  0  0  0
 21 39  1  0  0  0  0
 23 24  1  0  0  0  0
 23 40  1  0  0  0  0
 24 25  1  0  0  0  0
 25 26  1  0  0  0  0
 25 27  2  0  0  0  0
 26 41  1  0  0  0  0
 26 42  1  0  0  0  0
 26 43  1  0  0  0  0
M  CHG  1  15  -1
M  END
> <s_m_source_file>
AV-unprocessed.smi

> <i_m_source_file_index>
102

> <i_lp_mmshare_version>
43012

> <i_f3d_flags>
0

> <s_epik_input>
W0NIM11DKD1PKU9bQ0gyXVtDQEBIXTFPW0NASF0oW0NAQEhdKE9DKD1PKVtDSDNdKVtDQEhdMU9DKD1PKVtDSDNdKW4yW2NIXWMoRiljKD1PKVtuSF1jMj1P

> <s_epik_cmdline>
J2VwaWtfcHl0aG9uJywgJy1waCcsICc3LjAnLCAnLXRuJywgJzgnLCAnLW1hJywgJzIwMCcsICctbWV0YWxfYmluZGluZycsICctaW1hZScsICc8aW5maWxlLm1hZT4nLCAnLW9tYWUnLCAnPG91dGZpbGUubWFlPic=

> <r_epik_Ionization_Penalty>
1.40304

> <r_epik_Ionization_Penalty_Charging>
1.43915e-08

> <r_epik_Ionization_Penalty_Neutral>
1.40304

> <r_epik_State_Penalty>
1.48536

> <r_epik_Charging_Adjusted_Penalty>
1.48536

> <i_epik_Tot_Q>
-1

> <i_epik_Tot_abs_Q>
1

> <r_epik_Metal_State_Penalty>
0.00663881

> <b_epik_Metal_Only>
0

> <s_epik_Chemistry_Notes>
This compound has an ester and may undergo hydrolysis at high or low pH. This compound contains an acetal/aminal-like group ( X-CH(R)-Y where X, Y are N, S, or O) that may be acid/base labile, releasing an aldehyde.

> <s_lp_Force_Field>
OPLS_2005

> <r_lp_Energy>
27.5776

> <b_lp_Chiralities_Consistent>
1

> <s_lp_Variant>
AV-unprocessed.smi:102-30

> <Gold.Version>
5.8.1

> <Gold.Id.Protein>
6NUR|6NUR_protein|mol2

> <Gold.PLP.Fitness>
33.8996

> <Gold.PLP.PLP>
-26.4879

> <Gold.PLP.part.hbond>
-3.0000

> <Gold.PLP.part.metal>
0.0000

> <Gold.PLP.part.buried>
-4.3581

> <Gold.PLP.part.nonpolar>
-19.0328

> <Gold.PLP.part.repulsive>
0.1051

> <Gold.PLP.ligand.clash>
0.0000

> <Gold.PLP.ligand.torsion>
0.9116

> <Gold.PLP.Chemscore.Hbond>
3.0000

> <Gold.PLP.Chemscore.CHOScore>
0.0000

> <Gold.PLP.Chemscore.Metal>
0.0000

> <Gold.Chemscore.Hbonds>
donor molecule, donor type, donor heavy atom, donor atom, acceptor molecule, acceptor atom, score
      P1  H  6896  6907       L1    17  1.00
      P1  H  6934  6947       L1    22  1.00
      P1  H  7997  8008       L1    14  1.00

> <Gold.PLP.Chemscore.Internal.Correction>
0.2350

> <Gold.Rescore>
     Score         DG    S(hbond)    S(metal)    S(lipo)     H(rot)  DE(clash)    DE(int)     intcor
      6.40      -9.26       2.98        0.00      34.63       4.00       0.06       2.79       ----

> <Gold.Chemscore.Fitness>
6.4014

> <Gold.Chemscore.DG>
-9.2552

> <Gold.Chemscore.ZeroCoef>
-5.4800

> <Gold.Chemscore.Hbond>
2.9794

> <Gold.Chemscore.Metal>
0.0000

> <Gold.Chemscore.Lipo>
34.6267

> <Gold.Chemscore.Internal_Hbond>
0.0000

> <Gold.Chemscore.DEClash>
0.0628

> <Gold.Chemscore.DEInternal>
2.7910

> <Gold.Chemscore.Rot>
3.9951

> <Gold.Chemscore.Internal.Correction>
   9.000000E+99

> <Gold.Chemscore.Hbonds>
donor molecule, donor type, donor heavy atom, donor atom, acceptor molecule, acceptor atom, score
      P1  H  6896  6907       L1    17  0.77
      P1  H  6934  6947       L1    22  0.50
      P1  H  7997  8008       L1    14  1.00

> <Gold.Chemscore.Hbond.Weighted>
-9.9513

> <Gold.Chemscore.Metal.Weighted>
-0.0000

> <Gold.Chemscore.Lipo.Weighted>
-4.0513

> <Gold.Chemscore.Internal_Hbond.Weighted>
0.0000

> <Gold.Chemscore.DEClash.Weighted>
0.0628

> <Gold.Chemscore.DEInternal.Weighted>
2.7910

> <Gold.Chemscore.Rot.Weighted>
10.2274

> <Gold.Chemscore.Internal.Correction.Weighted>
   9.000000E+99

> <Gold.Protein.RotatedTorsions>
[ 6907 6896 6895 6894 ] final  -25.74 input  -60.11 | X-H torsion
[ 7974 7965 7964 7962 ] final   89.27 input  175.53 | X-H torsion
[ 8008 7997 7996 7995 ] final  -42.15 input   59.86 | X-H torsion
[ 10167 10162 10161 10158 ] final  -90.54 input  -65.29 | X-H torsion
[ 10718 10713 10712 10709 ] final  171.71 input   66.30 | X-H torsion
[ 10763 10752 10751 10750 ] final -179.08 input  -60.55 | X-H torsion
[ 11005 11000 10999 10996 ] final -155.18 input  -57.11 | X-H torsion

> <Gold.Protein.ActiveResidues>
 VAL166  LYS551  ARG553  GLY616  TRP617  ASP618  TYR619  PRO620  LYS621  CYS622 
 ASP623  PHE694  ASN695  SER759  ASP760  ASP761  ALA762  ILE779  LEU786  VAL792 
 PHE793  MET794  SER795  GLU796  ALA797  LYS798  CYS799  TRP800  GLU811  SER814 

> <Gold.Protein.RotatedAtoms>
  151.1709  135.0317  159.8750 H   0  0  0  0  0  0  0  0  0  0  0  0  # atno 6907 bound_to 6896
  152.5449  134.1172  159.8393 H   0  0  0  0  0  0  0  0  0  0  0  0  # atno 6908 bound_to 6896
  151.1278  133.5012  159.2632 H   0  0  0  0  0  0  0  0  0  0  0  0  # atno 6909 bound_to 6896
  145.5346  139.2285  143.2599 H   0  0  0  0  0  0  0  0  0  0  0  0  # atno 7974 bound_to 7965
  154.4000  140.1481  156.3308 H   0  0  0  0  0  0  0  0  0  0  0  0  # atno 8008 bound_to 7997
  155.8445  140.3460  155.5632 H   0  0  0  0  0  0  0  0  0  0  0  0  # atno 8009 bound_to 7997
  155.8051  140.0876  157.1926 H   0  0  0  0  0  0  0  0  0  0  0  0  # atno 8010 bound_to 7997
  140.3538  143.2877  151.9694 H   0  0  0  0  0  0  0  0  0  0  0  0  # atno 10167 bound_to 10162
  156.9896  131.0144  151.2860 H   0  0  0  0  0  0  0  0  0  0  0  0  # atno 10718 bound_to 10713
  154.5396  135.2805  155.1108 H   0  0  0  0  0  0  0  0  0  0  0  0  # atno 10763 bound_to 10752
  154.2596  135.6324  153.5273 H   0  0  0  0  0  0  0  0  0  0  0  0  # atno 10764 bound_to 10752
  152.9975  135.5602  154.5931 H   0  0  0  0  0  0  0  0  0  0  0  0  # atno 10765 bound_to 10752
  140.6893  134.4059  157.5220 H   0  0  0  0  0  0  0  0  0  0  0  0  # atno 11005 bound_to 11000
  146.2021  140.6164  142.9097 LP  0  0  0  0  0  0  0  0  0  0  0  0  # atno 17320 bound_to 7965
  144.7608  140.5417  143.6737 LP  0  0  0  0  0  0  0  0  0  0  0  0  # atno 17321 bound_to 7965
  139.4823  144.6052  151.7533 LP  0  0  0  0  0  0  0  0  0  0  0  0  # atno 17342 bound_to 10162
  140.5193  144.0904  150.6018 LP  0  0  0  0  0  0  0  0  0  0  0  0  # atno 17343 bound_to 10162
  157.5468  130.8156  149.8096 LP  0  0  0  0  0  0  0  0  0  0  0  0  # atno 17370 bound_to 10713
  156.0212  130.3795  150.1956 LP  0  0  0  0  0  0  0  0  0  0  0  0  # atno 17371 bound_to 10713
  139.8928  134.8745  156.2253 LP  0  0  0  0  0  0  0  0  0  0  0  0  # atno 17394 bound_to 11000
  141.0254  133.7018  156.1339 LP  0  0  0  0  0  0  0  0  0  0  0  0  # atno 17395 bound_to 11000

$$$$
