AV-unprocessed.smi:3222|AV-procd|sdf|12304|dock5
  -GOLD-   2272018143D 1   1.00000     0.00000
 Structure written by MMmdl.
 41 42  0  0  0  0  0  0  0  0  2 V2000
  155.1471  143.8133  165.6504 C   0  0  0  0  0  0  0  0  0  0  0  0
  155.2271  142.4388  164.9517 C   0  0  1  0  0  0  0  0  0  0  0  0
  154.9043  142.5716  163.5117 N   0  3  0  0  0  0  0  0  0  0  0  0
  153.5802  143.1518  163.2062 C   0  0  0  0  0  0  0  0  0  0  0  0
  152.8873  142.3687  162.0802 C   0  0  0  0  0  0  0  0  0  0  0  0
  152.2895  143.2638  161.0933 N   0  0  0  0  0  0  0  0  0  0  0  0
  151.3324  144.2815  161.4936 C   0  0  0  0  0  0  0  0  0  0  0  0
  151.0732  145.1086  160.2255 C   0  0  0  0  0  0  0  0  0  0  0  0
  151.6797  144.3063  159.0687 C   0  0  0  0  0  0  0  0  0  0  0  0
  152.4948  143.2341  159.7713 C   0  0  0  0  0  0  0  0  0  0  0  0
  153.2359  142.4567  159.1718 O   0  0  0  0  0  0  0  0  0  0  0  0
  156.6147  141.7605  165.1153 C   0  0  2  0  0  0  0  0  0  0  0  0
  157.7778  142.6869  164.7097 C   0  0  0  0  0  0  0  0  0  0  0  0
  156.7067  140.5012  164.3863 N   0  0  0  0  0  0  0  0  0  0  0  0
  156.8803  139.2301  164.8947 C   0  0  0  0  0  0  0  0  0  0  0  0
  156.9130  138.3676  163.8367 C   0  0  0  0  0  0  0  0  0  0  0  0
  156.7542  139.2144  162.7048 C   0  0  0  0  0  0  0  0  0  0  0  0
  156.6341  140.4898  163.0356 N   0  0  0  0  0  0  0  0  0  0  0  0
  155.3219  143.7332  166.7233 H   0  0  0  0  0  0  0  0  0  0  0  0
  154.1656  144.2718  165.5350 H   0  0  0  0  0  0  0  0  0  0  0  0
  155.8867  144.5052  165.2464 H   0  0  0  0  0  0  0  0  0  0  0  0
  154.4808  141.7840  165.4046 H   0  0  0  0  0  0  0  0  0  0  0  0
  155.6224  143.1211  163.0620 H   0  0  0  0  0  0  0  0  0  0  0  0
  152.9596  143.1310  164.1030 H   0  0  0  0  0  0  0  0  0  0  0  0
  153.6960  144.1962  162.9177 H   0  0  0  0  0  0  0  0  0  0  0  0
  153.6020  141.7119  161.5814 H   0  0  0  0  0  0  0  0  0  0  0  0
  152.1136  141.7218  162.4964 H   0  0  0  0  0  0  0  0  0  0  0  0
  150.4168  143.8015  161.8417 H   0  0  0  0  0  0  0  0  0  0  0  0
  151.7259  144.8974  162.3034 H   0  0  0  0  0  0  0  0  0  0  0  0
  150.0087  145.2928  160.0768 H   0  0  0  0  0  0  0  0  0  0  0  0
  151.5649  146.0793  160.3028 H   0  0  0  0  0  0  0  0  0  0  0  0
  150.9064  143.8365  158.4601 H   0  0  0  0  0  0  0  0  0  0  0  0
  152.3069  144.9236  158.4244 H   0  0  0  0  0  0  0  0  0  0  0  0
  156.7437  141.5162  166.1711 H   0  0  0  0  0  0  0  0  0  0  0  0
  157.8108  143.5854  165.3256 H   0  0  0  0  0  0  0  0  0  0  0  0
  157.6946  143.0020  163.6690 H   0  0  0  0  0  0  0  0  0  0  0  0
  158.7372  142.1816  164.8260 H   0  0  0  0  0  0  0  0  0  0  0  0
  156.9643  139.0453  165.9555 H   0  0  0  0  0  0  0  0  0  0  0  0
  157.0339  137.2949  163.8665 H   0  0  0  0  0  0  0  0  0  0  0  0
  156.7239  138.9420  161.6600 H   0  0  0  0  0  0  0  0  0  0  0  0
  154.9182  141.6427  163.1151 H   0  0  0  0  0  0  0  0  0  0  0  0
  1  2  1  0  0  0  0
  1 19  1  0  0  0  0
  1 20  1  0  0  0  0
  1 21  1  0  0  0  0
  2  3  1  0  0  0  0
  2 12  1  0  0  0  0
  2 22  1  0  0  0  0
  3  4  1  0  0  0  0
  3 23  1  0  0  0  0
  3 41  1  0  0  0  0
  4  5  1  0  0  0  0
  4 24  1  0  0  0  0
  4 25  1  0  0  0  0
  5  6  1  0  0  0  0
  5 26  1  0  0  0  0
  5 27  1  0  0  0  0
  6 10  1  0  0  0  0
  6  7  1  0  0  0  0
  7  8  1  0  0  0  0
  7 28  1  0  0  0  0
  7 29  1  0  0  0  0
  8  9  1  0  0  0  0
  8 30  1  0  0  0  0
  8 31  1  0  0  0  0
  9 10  1  0  0  0  0
  9 32  1  0  0  0  0
  9 33  1  0  0  0  0
 10 11  2  0  0  0  0
 12 13  1  0  0  0  0
 12 14  1  0  0  0  0
 12 34  1  0  0  0  0
 13 35  1  0  0  0  0
 13 36  1  0  0  0  0
 13 37  1  0  0  0  0
 14 18  1  0  0  0  0
 14 15  1  0  0  0  0
 15 16  2  0  0  0  0
 15 38  1  0  0  0  0
 16 17  1  0  0  0  0
 16 39  1  0  0  0  0
 17 18  2  0  0  0  0
 17 40  1  0  0  0  0
M  CHG  1   3   1
M  END
> <s_m_source_file>
AV-unprocessed.smi

> <i_m_source_file_index>
3222

> <i_lp_mmshare_version>
43012

> <i_f3d_flags>
0

> <s_epik_input>
bjFbY0hdW2NIXVtjSF1uMVtDQEBIXShbQ0gzXSlbQ0BIXShbQ0gzXSlbTkhdW0NIMl1bQ0gyXU4yW0NIMl1bQ0gyXVtDSDJdQzI9Tw==

> <s_epik_cmdline>
J2VwaWtfcHl0aG9uJywgJy1waCcsICc3LjAnLCAnLXRuJywgJzgnLCAnLW1hJywgJzIwMCcsICctbWV0YWxfYmluZGluZycsICctaW1hZScsICc8aW5maWxlLm1hZT4nLCAnLW9tYWUnLCAnPG91dGZpbGUubWFlPic=

> <r_lp_tautomer_probability>
1

> <r_epik_Ionization_Penalty>
0.0064019

> <r_epik_Ionization_Penalty_Charging>
0.00639164

> <r_epik_Ionization_Penalty_Neutral>
1.02567e-05

> <r_epik_State_Penalty>
0.00472531

> <r_epik_Charging_Adjusted_Penalty>
0.011117

> <i_epik_Tot_Q>
1

> <i_epik_Tot_abs_Q>
1

> <r_epik_Metal_State_Penalty>
-0

> <b_epik_Metal_Only>
0

> <s_lp_Force_Field>
OPLS_2005

> <r_lp_Energy>
24.0012

> <b_lp_Chiralities_Consistent>
1

> <s_lp_Variant>
AV-unprocessed.smi:3222-2

> <Gold.Version>
5.8.1

> <Gold.Id.Protein>
6NUR|6NUR_protein|mol2

> <Gold.PLP.Fitness>
46.9387

> <Gold.PLP.PLP>
-48.3022

> <Gold.PLP.part.hbond>
-1.0000

> <Gold.PLP.part.metal>
0.0000

> <Gold.PLP.part.buried>
-6.3045

> <Gold.PLP.part.nonpolar>
-40.1241

> <Gold.PLP.part.repulsive>
0.0479

> <Gold.PLP.ligand.clash>
0.0000

> <Gold.PLP.ligand.torsion>
0.7487

> <Gold.PLP.Chemscore.Hbond>
0.0000

> <Gold.PLP.Chemscore.CHOScore>
0.0000

> <Gold.PLP.Chemscore.Metal>
0.0000

> <Gold.PLP.Chemscore.Internal.Correction>
0.1339

> <Gold.Rescore>
     Score         DG    S(hbond)    S(metal)    S(lipo)     H(rot)  DE(clash)    DE(int)     intcor
      8.47     -12.98       0.00        0.00     107.68       1.99       2.56       1.95       ----

> <Gold.Chemscore.Fitness>
8.4658

> <Gold.Chemscore.DG>
-12.9781

> <Gold.Chemscore.ZeroCoef>
-5.4800

> <Gold.Chemscore.Hbond>
0.0000

> <Gold.Chemscore.Metal>
0.0000

> <Gold.Chemscore.Lipo>
107.6770

> <Gold.Chemscore.Internal_Hbond>
0.0000

> <Gold.Chemscore.DEClash>
2.5579

> <Gold.Chemscore.DEInternal>
1.9544

> <Gold.Chemscore.Rot>
1.9922

> <Gold.Chemscore.Internal.Correction>
   9.000000E+99

> <Gold.Chemscore.Hbond.Weighted>
-0.0000

> <Gold.Chemscore.Metal.Weighted>
-0.0000

> <Gold.Chemscore.Lipo.Weighted>
-12.5982

> <Gold.Chemscore.Internal_Hbond.Weighted>
0.0000

> <Gold.Chemscore.DEClash.Weighted>
2.5579

> <Gold.Chemscore.DEInternal.Weighted>
1.9544

> <Gold.Chemscore.Rot.Weighted>
5.1002

> <Gold.Chemscore.Internal.Correction.Weighted>
   9.000000E+99

> <Gold.Protein.RotatedTorsions>
[ 6907 6896 6895 6894 ] final  -47.17 input  -60.11 | X-H torsion
[ 7974 7965 7964 7962 ] final -156.37 input  175.53 | X-H torsion
[ 8008 7997 7996 7995 ] final   14.42 input   59.86 | X-H torsion
[ 10167 10162 10161 10158 ] final -147.29 input  -65.29 | X-H torsion
[ 10718 10713 10712 10709 ] final  137.44 input   66.30 | X-H torsion
[ 10763 10752 10751 10750 ] final -116.30 input  -60.55 | X-H torsion
[ 11005 11000 10999 10996 ] final    0.30 input  -57.11 | X-H torsion

> <Gold.Protein.ActiveResidues>
 VAL166  LYS551  ARG553  GLY616  TRP617  ASP618  TYR619  PRO620  LYS621  CYS622 
 ASP623  PHE694  ASN695  SER759  ASP760  ASP761  ALA762  ILE779  LEU786  VAL792 
 PHE793  MET794  SER795  GLU796  ALA797  LYS798  CYS799  TRP800  GLU811  SER814 

> <Gold.Protein.RotatedAtoms>
  150.9036  134.8449  159.7376 H   0  0  0  0  0  0  0  0  0  0  0  0  # atno 6907 bound_to 6896
  152.4906  134.4466  159.9570 H   0  0  0  0  0  0  0  0  0  0  0  0  # atno 6908 bound_to 6896
  151.4515  133.3577  159.2831 H   0  0  0  0  0  0  0  0  0  0  0  0  # atno 6909 bound_to 6896
  144.7596  140.4120  143.5986 H   0  0  0  0  0  0  0  0  0  0  0  0  # atno 7974 bound_to 7965
  154.8483  140.2925  155.5615 H   0  0  0  0  0  0  0  0  0  0  0  0  # atno 8008 bound_to 7997
  156.3015  140.2501  156.3369 H   0  0  0  0  0  0  0  0  0  0  0  0  # atno 8009 bound_to 7997
  154.9049  140.0390  157.1903 H   0  0  0  0  0  0  0  0  0  0  0  0  # atno 8010 bound_to 7997
  139.7635  143.8342  152.2611 H   0  0  0  0  0  0  0  0  0  0  0  0  # atno 10167 bound_to 10162
  157.4360  131.1053  151.0197 H   0  0  0  0  0  0  0  0  0  0  0  0  # atno 10718 bound_to 10713
  154.8514  135.4350  154.1799 H   0  0  0  0  0  0  0  0  0  0  0  0  # atno 10763 bound_to 10752
  153.2892  135.6960  153.7316 H   0  0  0  0  0  0  0  0  0  0  0  0  # atno 10764 bound_to 10752
  153.6490  135.3455  155.3069 H   0  0  0  0  0  0  0  0  0  0  0  0  # atno 10765 bound_to 10752
  140.6281  133.9600  155.8260 H   0  0  0  0  0  0  0  0  0  0  0  0  # atno 11005 bound_to 11000
  145.6662  139.1590  143.2780 LP  0  0  0  0  0  0  0  0  0  0  0  0  # atno 17320 bound_to 7965
  146.1645  140.6738  142.9262 LP  0  0  0  0  0  0  0  0  0  0  0  0  # atno 17321 bound_to 7965
  139.8355  144.7234  150.9396 LP  0  0  0  0  0  0  0  0  0  0  0  0  # atno 17342 bound_to 10162
  140.7809  143.4031  151.1116 LP  0  0  0  0  0  0  0  0  0  0  0  0  # atno 17343 bound_to 10162
  157.1077  130.6008  149.5474 LP  0  0  0  0  0  0  0  0  0  0  0  0  # atno 17370 bound_to 10713
  155.9931  130.4990  150.7365 LP  0  0  0  0  0  0  0  0  0  0  0  0  # atno 17371 bound_to 10713
  141.0695  134.0227  157.3547 LP  0  0  0  0  0  0  0  0  0  0  0  0  # atno 17394 bound_to 11000
  139.9127  135.0192  156.7756 LP  0  0  0  0  0  0  0  0  0  0  0  0  # atno 17395 bound_to 11000

$$$$
