#       Name:                AV-unprocessed.smi:240
#       Creating user name   scv26
#       Creation time:       Thu Mar 26 20:44:23 2020


#       File generated by GOLD software.
#

@<TRIPOS>MOLECULE
AV-unprocessed.smi:240
    67    71     1
SMALL
NO_CHARGES


@<TRIPOS>ATOM
      1 ****        -1.1904  -1.5067  -0.3701 O.3            1 S1                 0.0000
      2 ****        -2.2785  -1.5617   0.5307 C.3            1 S1                 0.0000
      3 ****        -2.5468  -3.0189   0.9493 C.3            1 S1                 0.0000
      4 ****        -2.2297  -3.0984   2.4441 C.3            1 S1                 0.0000
      5 ****        -2.4882  -1.6854   2.9590 C.3            1 S1                 0.0000
      6 ****        -1.9611  -0.7859   1.8323 C.3            1 S1                 0.0000
      7 ****        -2.4316   0.7020   1.8973 C.3            1 S1                 0.0000
      8 ****        -3.9728   0.8635   1.8076 C.3            1 S1                 0.0000
      9 ****        -4.3380   2.2372   1.8510 O.3            1 S1                 0.0000
     10 ****        -3.7997   2.9585   0.7527 C.3            1 S1                 0.0000
     11 ****        -2.2703   2.9223   0.8474 C.3            1 S1                 0.0000
     12 ****        -1.7890   1.5450   0.8761 N.3            1 S1                 0.0000
     13 ****        -0.4358   1.5372   0.8238 C.ar           1 S1                 0.0000
     14 ****         0.2984   1.6141   1.9655 N.ar           1 S1                 0.0000
     15 ****         1.6332   1.6125   1.9014 C.ar           1 S1                 0.0000
     16 ****         2.4172   1.5443   0.8228 N.ar           1 S1                 0.0000
     17 ****         1.6816   1.4708  -0.3242 C.ar           1 S1                 0.0000
     18 ****         0.2618   1.4780  -0.4107 C.ar           1 S1                 0.0000
     19 ****        -0.1381   1.4161  -1.7382 N.2            1 S1                 0.0000
     20 ****         0.9846   1.3722  -2.4017 C.2            1 S1                 0.0000
     21 ****         2.1277   1.3716  -1.6321 N.pl3          1 S1                 0.0000
     22 ****         3.5021   1.3250  -2.1126 C.3            1 S1                 0.0000
     23 ****         4.0744  -0.1000  -2.3366 C.3            1 S1                 0.0000
     24 ****         5.4168   0.0633  -2.7563 O.3            1 S1                 0.0000
     25 ****         3.3503  -0.9351  -3.3963 C.3            1 S1                 0.0000
     26 ****         3.4760  -2.3575  -2.8676 C.3            1 S1                 0.0000
     27 ****         3.3177  -2.1747  -1.4726 O.3            1 S1                 0.0000
     28 ****         4.0666  -1.0254  -1.0991 C.3            1 S1                 0.0000
     29 ****        -1.0639  -0.6080  -0.6341 H              1 S1                 0.0000
     30 ****        -3.1558  -1.1686   0.0203 H              1 S1                 0.0000
     31 ****        -3.6021  -3.2470   0.7935 H              1 S1                 0.0000
     32 ****        -1.9738  -3.7472   0.3735 H              1 S1                 0.0000
     33 ****        -2.8268  -3.8513   2.9595 H              1 S1                 0.0000
     34 ****        -1.1782  -3.3529   2.5841 H              1 S1                 0.0000
     35 ****        -3.5595  -1.5604   3.1090 H              1 S1                 0.0000
     36 ****        -1.9940  -1.4934   3.9118 H              1 S1                 0.0000
     37 ****        -0.8785  -0.8093   1.9652 H              1 S1                 0.0000
     38 ****        -2.1328   1.0966   2.8698 H              1 S1                 0.0000
     39 ****        -4.3806   0.4185   0.9005 H              1 S1                 0.0000
     40 ****        -4.4660   0.3759   2.6468 H              1 S1                 0.0000
     41 ****        -4.1467   2.5346  -0.1914 H              1 S1                 0.0000
     42 ****        -4.1558   3.9879   0.7928 H              1 S1                 0.0000
     43 ****        -1.8395   3.4535  -0.0028 H              1 S1                 0.0000
     44 ****        -1.9439   3.4416   1.7500 H              1 S1                 0.0000
     45 ****         2.1465   1.6719   2.8500 H              1 S1                 0.0000
     46 ****         1.0082   1.3315  -3.4810 H              1 S1                 0.0000
     47 ****         3.5506   1.8933  -3.0425 H              1 S1                 0.0000
     48 ****         4.1248   1.8647  -1.3978 H              1 S1                 0.0000
     49 ****         5.7978  -0.7923  -2.8822 H              1 S1                 0.0000
     50 ****         2.2917  -0.6900  -3.4428 H              1 S1                 0.0000
     51 ****         3.7543  -0.8176  -4.4029 H              1 S1                 0.0000
     52 ****         2.7204  -3.0292  -3.2755 H              1 S1                 0.0000
     53 ****         4.4625  -2.7732  -3.0786 H              1 S1                 0.0000
     54 ****         5.0745  -1.3409  -0.8237 H              1 S1                 0.0000
     55 ****         3.6266  -0.5712  -0.2150 H              1 S1                 0.0000
     56 ****        -1.3884  -2.0692  -1.1728 LP             1 S1                 0.0000
     57 ****        -0.3636  -1.8458   0.0788 LP             1 S1                 0.0000
     58 ****        -3.9948   2.6371   2.7009 LP             1 S1                 0.0000
     59 ****        -5.3352   2.3083   1.8280 LP             1 S1                 0.0000
     60 ****        -2.0917   1.0700   0.0498 LP             1 S1                 0.0000
     61 ****        -0.1600   1.6718   2.8524 LP             1 S1                 0.0000
     62 ****         3.4168   1.5467   0.8518 LP             1 S1                 0.0000
     63 ****        -1.0697   1.4072  -2.1016 LP             1 S1                 0.0000
     64 ****         5.9304   0.5618  -2.0579 LP             1 S1                 0.0000
     65 ****         5.4418   0.5735  -3.6160 LP             1 S1                 0.0000
     66 ****         3.6588  -2.9773  -0.9831 LP             1 S1                 0.0000
     67 ****         2.3515  -2.0372  -1.2547 LP             1 S1                 0.0000
@<TRIPOS>BOND
    1    1    2 1     
    2    1   29 1     
    3    2    6 1     
    4    2    3 1     
    5    2   30 1     
    6    3    4 1     
    7    3   31 1     
    8    3   32 1     
    9    4    5 1     
   10    4   33 1     
   11    4   34 1     
   12    5    6 1     
   13    5   35 1     
   14    5   36 1     
   15    6    7 1     
   16    6   37 1     
   17    7   12 1     
   18    7    8 1     
   19    7   38 1     
   20    8    9 1     
   21    8   39 1     
   22    8   40 1     
   23    9   10 1     
   24   10   11 1     
   25   10   41 1     
   26   10   42 1     
   27   11   12 1     
   28   11   43 1     
   29   11   44 1     
   30   12   13 1     
   31   13   18 ar    
   32   13   14 ar    
   33   14   15 ar    
   34   15   16 ar    
   35   15   45 1     
   36   16   17 ar    
   37   17   21 1     
   38   17   18 ar    
   39   18   19 1     
   40   19   20 2     
   41   20   21 1     
   42   20   46 1     
   43   21   22 1     
   44   22   23 1     
   45   22   47 1     
   46   22   48 1     
   47   23   28 1     
   48   23   24 1     
   49   23   25 1     
   50   24   49 1     
   51   25   26 1     
   52   25   50 1     
   53   25   51 1     
   54   26   27 1     
   55   26   52 1     
   56   26   53 1     
   57   27   28 1     
   58   28   54 1     
   59   28   55 1     
   60    1   56 1     
   61    1   57 1     
   62    9   58 1     
   63    9   59 1     
   64   12   60 1     
   65   14   61 1     
   66   16   62 1     
   67   19   63 1     
   68   24   64 1     
   69   24   65 1     
   70   27   66 1     
   71   27   67 1     
@<TRIPOS>SUBSTRUCTURE
      1 S1             1
@<TRIPOS>SET
LONE_PAIRS      STATIC     ATOMS    <user>   **** ""
12 56 57 58 59 60 61 62 63 64 65 66 67
DONOR_HYDROGENS      STATIC     ATOMS    <user>   **** ""
2 29 49
ATOM$BLUE        STATIC     ATOMS    COLORGROUP SYSTEM
12 56 57 58 59 60 61 62 63 64 65 66 67
ATOM$RED        STATIC     ATOMS    COLORGROUP SYSTEM
2 29 49
