AV-unprocessed.smi:3090|AV-procd|sdf|11774|dock10
  -GOLD-   2272017153D 1   1.00000     0.00000
 Structure written by MMmdl.
 22 22  0  0  0  0  0  0  0  0  2 V2000
  150.7957  141.9919  156.1905 C   0  0  0  0  0  0  0  0  0  0  0  0
  149.9344  141.2366  155.3062 N   0  0  0  0  0  0  0  0  0  0  0  0
  148.6358  141.5060  154.9327 C   0  0  0  0  0  0  0  0  0  0  0  0
  148.2366  140.5116  154.0823 C   0  0  0  0  0  0  0  0  0  0  0  0
  146.9120  140.3196  153.3921 C   0  0  2  0  0  0  0  0  0  0  0  0
  145.8472  140.2773  154.3217 O   0  0  0  0  0  0  0  0  0  0  0  0
  146.9059  139.0098  152.5846 C   0  0  0  0  0  0  0  0  0  0  0  0
  145.5681  138.7024  152.0491 N   0  3  0  0  0  0  0  0  0  0  0  0
  149.3836  139.6705  154.0025 C   0  0  0  0  0  0  0  0  0  0  0  0
  150.3956  140.1059  154.7345 N   0  0  0  0  0  0  0  0  0  0  0  0
  150.2694  142.8701  156.5659 H   0  0  0  0  0  0  0  0  0  0  0  0
  151.6857  142.3167  155.6507 H   0  0  0  0  0  0  0  0  0  0  0  0
  151.0947  141.3705  157.0351 H   0  0  0  0  0  0  0  0  0  0  0  0
  148.1069  142.3738  155.2993 H   0  0  0  0  0  0  0  0  0  0  0  0
  146.7197  141.1549  152.7174 H   0  0  0  0  0  0  0  0  0  0  0  0
  145.0336  140.2137  153.8440 H   0  0  0  0  0  0  0  0  0  0  0  0
  147.5934  139.0874  151.7415 H   0  0  0  0  0  0  0  0  0  0  0  0
  147.2468  138.1742  153.1976 H   0  0  0  0  0  0  0  0  0  0  0  0
  144.8858  139.3178  152.4682 H   0  0  0  0  0  0  0  0  0  0  0  0
  145.3330  137.7429  152.2587 H   0  0  0  0  0  0  0  0  0  0  0  0
  149.5085  138.7587  153.4367 H   0  0  0  0  0  0  0  0  0  0  0  0
  145.5737  138.8359  151.0477 H   0  0  0  0  0  0  0  0  0  0  0  0
  1  2  1  0  0  0  0
  1 11  1  0  0  0  0
  1 12  1  0  0  0  0
  1 13  1  0  0  0  0
  2 10  1  0  0  0  0
  2  3  1  0  0  0  0
  3  4  2  0  0  0  0
  3 14  1  0  0  0  0
  4  5  1  0  0  0  0
  4  9  1  0  0  0  0
  5  6  1  0  0  0  0
  5  7  1  0  0  0  0
  5 15  1  0  0  0  0
  6 16  1  0  0  0  0
  7  8  1  0  0  0  0
  7 17  1  0  0  0  0
  7 18  1  0  0  0  0
  8 19  1  0  0  0  0
  8 20  1  0  0  0  0
  8 22  1  0  0  0  0
  9 10  2  0  0  0  0
  9 21  1  0  0  0  0
M  CHG  1   8   1
M  END
> <s_m_source_file>
AV-unprocessed.smi

> <i_m_source_file_index>
3090

> <i_lp_mmshare_version>
43012

> <i_f3d_flags>
0

> <s_epik_input>
W0NIM11uMVtjSF1jKFtjSF1uMSlbQ0BIXShbT0hdKVtDSDJdW05IMl0=

> <s_epik_cmdline>
J2VwaWtfcHl0aG9uJywgJy1waCcsICc3LjAnLCAnLXRuJywgJzgnLCAnLW1hJywgJzIwMCcsICctbWV0YWxfYmluZGluZycsICctaW1hZScsICc8aW5maWxlLm1hZT4nLCAnLW9tYWUnLCAnPG91dGZpbGUubWFlPic=

> <r_lp_tautomer_probability>
1

> <r_epik_Ionization_Penalty>
0.014056

> <r_epik_Ionization_Penalty_Charging>
0.0140431

> <r_epik_Ionization_Penalty_Neutral>
1.29738e-05

> <r_epik_State_Penalty>
0.0109628

> <r_epik_Charging_Adjusted_Penalty>
0.0250059

> <i_epik_Tot_Q>
1

> <i_epik_Tot_abs_Q>
1

> <r_epik_Metal_State_Penalty>
0.0109636

> <b_epik_Metal_Only>
0

> <s_lp_Force_Field>
OPLS_2005

> <r_lp_Energy>
1.35566

> <b_lp_Chiralities_Consistent>
1

> <s_lp_Variant>
AV-unprocessed.smi:3090-1

> <Gold.Version>
5.8.1

> <Gold.Id.Protein>
6NUR|6NUR_protein|mol2

> <Gold.PLP.Fitness>
38.3388

> <Gold.PLP.PLP>
-21.2962

> <Gold.PLP.part.hbond>
-4.0000

> <Gold.PLP.part.metal>
0.0000

> <Gold.PLP.part.buried>
0.2366

> <Gold.PLP.part.nonpolar>
-17.7676

> <Gold.PLP.part.repulsive>
0.1017

> <Gold.PLP.ligand.clash>
0.0000

> <Gold.PLP.ligand.torsion>
0.0606

> <Gold.PLP.Chemscore.Hbond>
4.4326

> <Gold.PLP.Chemscore.CHOScore>
1.2878

> <Gold.PLP.Chemscore.Metal>
0.0000

> <Gold.Chemscore.Hbonds>
donor molecule, donor type, donor heavy atom, donor atom, acceptor molecule, acceptor atom, score
      L1  H     6    16       P1 10175  1.00
      L1  H     8    19       P1 10175  2.00
      L1  H     8    22       P1 10171  0.41
      P1  H  7989  7998       L1    10  0.95
      L1  C     3    14       P1  8028  1.00
      L1  C     9    21       P1  7957  0.22

> <Gold.PLP.Chemscore.Internal.Correction>
0.0024

> <Gold.Rescore>
     Score         DG    S(hbond)    S(metal)    S(lipo)     H(rot)  DE(clash)    DE(int)     intcor
     13.55     -14.70       2.73        0.00      43.59       1.96       1.04       0.10       ----

> <Gold.Chemscore.Fitness>
13.5535

> <Gold.Chemscore.DG>
-14.7010

> <Gold.Chemscore.ZeroCoef>
-5.4800

> <Gold.Chemscore.Hbond>
2.7324

> <Gold.Chemscore.Metal>
0.0000

> <Gold.Chemscore.Lipo>
43.5888

> <Gold.Chemscore.Internal_Hbond>
0.0000

> <Gold.Chemscore.DEClash>
1.0448

> <Gold.Chemscore.DEInternal>
0.1028

> <Gold.Chemscore.Rot>
1.9551

> <Gold.Chemscore.Internal.Correction>
   9.000000E+99

> <Gold.Chemscore.Hbonds>
donor molecule, donor type, donor heavy atom, donor atom, acceptor molecule, acceptor atom, score
      L1  H     6    16       P1 10175  0.99
      L1  H     8    19       P1 10175  0.98
      L1  H     8    22       P1 10171  0.40
      P1  H  7989  7998       L1    10  0.11

> <Gold.Chemscore.Hbond.Weighted>
-9.1263

> <Gold.Chemscore.Metal.Weighted>
-0.0000

> <Gold.Chemscore.Lipo.Weighted>
-5.0999

> <Gold.Chemscore.Internal_Hbond.Weighted>
0.0000

> <Gold.Chemscore.DEClash.Weighted>
1.0448

> <Gold.Chemscore.DEInternal.Weighted>
0.1028

> <Gold.Chemscore.Rot.Weighted>
5.0051

> <Gold.Chemscore.Internal.Correction.Weighted>
   9.000000E+99

> <Gold.Protein.RotatedTorsions>
[ 6907 6896 6895 6894 ] final  -10.28 input  -60.11 | X-H torsion
[ 7974 7965 7964 7962 ] final  164.39 input  175.53 | X-H torsion
[ 8008 7997 7996 7995 ] final  -75.88 input   59.86 | X-H torsion
[ 10167 10162 10161 10158 ] final  160.83 input  -65.29 | X-H torsion
[ 10718 10713 10712 10709 ] final   20.96 input   66.30 | X-H torsion
[ 10763 10752 10751 10750 ] final   87.35 input  -60.55 | X-H torsion
[ 11005 11000 10999 10996 ] final  -95.75 input  -57.11 | X-H torsion

> <Gold.Protein.ActiveResidues>
 VAL166  LYS551  ARG553  GLY616  TRP617  ASP618  TYR619  PRO620  LYS621  CYS622 
 ASP623  PHE694  ASN695  SER759  ASP760  ASP761  ALA762  ILE779  LEU786  VAL792 
 PHE793  MET794  SER795  GLU796  ALA797  LYS798  CYS799  TRP800  GLU811  SER814 

> <Gold.Protein.RotatedAtoms>
  151.4044  135.0976  159.9565 H   0  0  0  0  0  0  0  0  0  0  0  0  # atno 6907 bound_to 6896
  152.5040  133.8858  159.7379 H   0  0  0  0  0  0  0  0  0  0  0  0  # atno 6908 bound_to 6896
  150.9338  133.6678  159.2833 H   0  0  0  0  0  0  0  0  0  0  0  0  # atno 6909 bound_to 6896
  144.7547  139.8319  143.6354 H   0  0  0  0  0  0  0  0  0  0  0  0  # atno 7974 bound_to 7965
  154.5456  140.0736  156.8582 H   0  0  0  0  0  0  0  0  0  0  0  0  # atno 8008 bound_to 7997
  155.3095  140.3389  155.4226 H   0  0  0  0  0  0  0  0  0  0  0  0  # atno 8009 bound_to 7997
  156.1914  140.1688  156.8070 H   0  0  0  0  0  0  0  0  0  0  0  0  # atno 8010 bound_to 7997
  139.4843  144.4596  151.8722 H   0  0  0  0  0  0  0  0  0  0  0  0  # atno 10167 bound_to 10162
  157.1318  130.6594  149.5954 H   0  0  0  0  0  0  0  0  0  0  0  0  # atno 10718 bound_to 10713
  153.1660  135.4547  154.9837 H   0  0  0  0  0  0  0  0  0  0  0  0  # atno 10763 bound_to 10752
  154.7932  135.3228  154.7731 H   0  0  0  0  0  0  0  0  0  0  0  0  # atno 10764 bound_to 10752
  153.8214  135.6946  153.4881 H   0  0  0  0  0  0  0  0  0  0  0  0  # atno 10765 bound_to 10752
  141.1432  133.8048  157.0477 H   0  0  0  0  0  0  0  0  0  0  0  0  # atno 11005 bound_to 11000
  146.1543  139.4636  143.0029 LP  0  0  0  0  0  0  0  0  0  0  0  0  # atno 17320 bound_to 7965
  145.6820  141.0188  143.1601 LP  0  0  0  0  0  0  0  0  0  0  0  0  # atno 17321 bound_to 7965
  140.4058  144.2434  150.5891 LP  0  0  0  0  0  0  0  0  0  0  0  0  # atno 17342 bound_to 10162
  140.5014  143.2317  151.8673 LP  0  0  0  0  0  0  0  0  0  0  0  0  # atno 17343 bound_to 10162
  155.9806  130.4808  150.6783 LP  0  0  0  0  0  0  0  0  0  0  0  0  # atno 17370 bound_to 10713
  157.4385  131.0858  151.0967 LP  0  0  0  0  0  0  0  0  0  0  0  0  # atno 17371 bound_to 10713
  140.0652  134.9733  157.1373 LP  0  0  0  0  0  0  0  0  0  0  0  0  # atno 17394 bound_to 11000
  140.3791  134.2307  155.7172 LP  0  0  0  0  0  0  0  0  0  0  0  0  # atno 17395 bound_to 11000

$$$$
