AV-unprocessed.smi:1545|AV-procd|sdf|6217|dock5
  -GOLD-   22720 6393D 1   1.00000     0.00000
 Structure written by MMmdl.
 41 43  0  0  0  0  0  0  0  0  1 V2000
  152.4062  136.5651  156.4121 O   0  0  0  0  0  0  0  0  0  0  0  0
  153.2747  137.6328  156.7238 C   0  0  0  0  0  0  0  0  0  0  0  0
  153.0673  138.7944  155.7409 C   0  0  0  0  0  0  0  0  0  0  0  0
  152.0563  139.7273  156.2039 N   0  0  0  0  0  0  0  0  0  0  0  0
  150.8542  140.1518  155.6491 C   0  0  0  0  0  0  0  0  0  0  0  0
  150.3833  139.7306  154.4770 N   0  0  0  0  0  0  0  0  0  0  0  0
  149.1969  140.4315  154.3686 C   0  0  0  0  0  0  0  0  0  0  0  0
  148.2225  140.4327  153.3448 C   0  0  0  0  0  0  0  0  0  0  0  0
  147.0758  141.2467  153.4511 C   0  0  0  0  0  0  0  0  0  0  0  0
  146.8865  142.0699  154.5802 C   0  0  0  0  0  0  0  0  0  0  0  0
  147.8435  142.0831  155.6131 C   0  0  0  0  0  0  0  0  0  0  0  0
  148.9863  141.2681  155.5033 C   0  0  0  0  0  0  0  0  0  0  0  0
  150.0944  141.0512  156.3173 N   0  0  0  0  0  0  0  0  0  0  0  0
  150.3651  141.6764  157.6053 C   0  0  0  0  0  0  0  0  0  0  0  0
  151.4568  142.7614  157.5167 C   0  0  1  0  0  0  0  0  0  0  0  0
  151.0740  143.7527  156.5829 O   0  0  0  0  0  0  0  0  0  0  0  0
  151.7631  143.3523  158.8837 C   0  0  0  0  0  0  0  0  0  0  0  0
  151.5605  144.7278  159.1332 C   0  0  0  0  0  0  0  0  0  0  0  0
  151.8408  145.2675  160.4036 C   0  0  0  0  0  0  0  0  0  0  0  0
  152.3243  144.4353  161.4315 C   0  0  0  0  0  0  0  0  0  0  0  0
  152.5244  143.0627  161.1895 C   0  0  0  0  0  0  0  0  0  0  0  0
  152.9858  142.2611  162.1786 F   0  0  0  0  0  0  0  0  0  0  0  0
  152.2433  142.5223  159.9195 C   0  0  0  0  0  0  0  0  0  0  0  0
  151.5174  136.8430  156.5721 H   0  0  0  0  0  0  0  0  0  0  0  0
  153.0318  137.9633  157.7338 H   0  0  0  0  0  0  0  0  0  0  0  0
  154.3111  137.2935  156.7385 H   0  0  0  0  0  0  0  0  0  0  0  0
  154.0038  139.3155  155.5386 H   0  0  0  0  0  0  0  0  0  0  0  0
  152.7186  138.3977  154.7873 H   0  0  0  0  0  0  0  0  0  0  0  0
  152.2964  140.1802  157.0734 H   0  0  0  0  0  0  0  0  0  0  0  0
  148.3588  139.8074  152.4750 H   0  0  0  0  0  0  0  0  0  0  0  0
  146.3385  141.2407  152.6617 H   0  0  0  0  0  0  0  0  0  0  0  0
  146.0065  142.6921  154.6522 H   0  0  0  0  0  0  0  0  0  0  0  0
  147.7029  142.7154  156.4772 H   0  0  0  0  0  0  0  0  0  0  0  0
  149.4365  142.0995  157.9901 H   0  0  0  0  0  0  0  0  0  0  0  0
  150.6589  140.9002  158.3131 H   0  0  0  0  0  0  0  0  0  0  0  0
  152.3704  142.3086  157.1293 H   0  0  0  0  0  0  0  0  0  0  0  0
  150.1315  143.7522  156.5147 H   0  0  0  0  0  0  0  0  0  0  0  0
  151.1871  145.3726  158.3510 H   0  0  0  0  0  0  0  0  0  0  0  0
  151.6843  146.3200  160.5897 H   0  0  0  0  0  0  0  0  0  0  0  0
  152.5399  144.8491  162.4057 H   0  0  0  0  0  0  0  0  0  0  0  0
  152.3975  141.4676  159.7448 H   0  0  0  0  0  0  0  0  0  0  0  0
  1  2  1  0  0  0  0
  1 24  1  0  0  0  0
  2  3  1  0  0  0  0
  2 25  1  0  0  0  0
  2 26  1  0  0  0  0
  3  4  1  0  0  0  0
  3 27  1  0  0  0  0
  3 28  1  0  0  0  0
  4  5  1  0  0  0  0
  4 29  1  0  0  0  0
  5 13  1  0  0  0  0
  5  6  2  0  0  0  0
  6  7  1  0  0  0  0
  7 12  2  0  0  0  0
  7  8  1  0  0  0  0
  8  9  2  0  0  0  0
  8 30  1  0  0  0  0
  9 10  1  0  0  0  0
  9 31  1  0  0  0  0
 10 11  2  0  0  0  0
 10 32  1  0  0  0  0
 11 12  1  0  0  0  0
 11 33  1  0  0  0  0
 12 13  1  0  0  0  0
 13 14  1  0  0  0  0
 14 15  1  0  0  0  0
 14 34  1  0  0  0  0
 14 35  1  0  0  0  0
 15 16  1  0  0  0  0
 15 17  1  0  0  0  0
 15 36  1  0  0  0  0
 16 37  1  0  0  0  0
 17 23  1  0  0  0  0
 17 18  2  0  0  0  0
 18 19  1  0  0  0  0
 18 38  1  0  0  0  0
 19 20  2  0  0  0  0
 19 39  1  0  0  0  0
 20 21  1  0  0  0  0
 20 40  1  0  0  0  0
 21 22  1  0  0  0  0
 21 23  2  0  0  0  0
 23 41  1  0  0  0  0
M  END
> <s_m_source_file>
AV-unprocessed.smi

> <i_m_source_file_index>
1545

> <i_lp_mmshare_version>
43012

> <i_f3d_flags>
0

> <s_epik_input>
W09IXVtDSDJdW0NIMl1bTkhdYyhuMSluKGMoYzEyKVtjSF1bY0hdW2NIXVtjSF0yKVtDSDJdW0NASF0oW09IXSljM1tjSF1bY0hdW2NIXWMoRilbY0hdMw==

> <s_epik_cmdline>
J2VwaWtfcHl0aG9uJywgJy1waCcsICc3LjAnLCAnLXRuJywgJzgnLCAnLW1hJywgJzIwMCcsICctbWV0YWxfYmluZGluZycsICctaW1hZScsICc8aW5maWxlLm1hZT4nLCAnLW9tYWUnLCAnPG91dGZpbGUubWFlPic=

> <r_epik_Ionization_Penalty>
1.30972

> <r_epik_Ionization_Penalty_Charging>
0

> <r_epik_Ionization_Penalty_Neutral>
1.30972

> <r_epik_State_Penalty>
1.38438

> <r_epik_Charging_Adjusted_Penalty>
1.38438

> <i_epik_Tot_Q>
0

> <i_epik_Tot_abs_Q>
0

> <r_epik_Metal_State_Penalty>
0.00551145

> <b_epik_Metal_Only>
0

> <s_lp_Force_Field>
OPLS_2005

> <r_lp_Energy>
10.2352

> <b_lp_Chiralities_Consistent>
1

> <s_lp_Variant>
AV-unprocessed.smi:1545-4

> <Gold.Version>
5.8.1

> <Gold.Id.Protein>
6NUR|6NUR_protein|mol2

> <Gold.PLP.Fitness>
55.9617

> <Gold.PLP.PLP>
-49.6315

> <Gold.PLP.part.hbond>
-2.9462

> <Gold.PLP.part.metal>
0.0000

> <Gold.PLP.part.buried>
0.7912

> <Gold.PLP.part.nonpolar>
-48.9800

> <Gold.PLP.part.repulsive>
0.2630

> <Gold.PLP.ligand.clash>
0.0000

> <Gold.PLP.ligand.torsion>
0.3899

> <Gold.PLP.Chemscore.Hbond>
2.3540

> <Gold.PLP.Chemscore.CHOScore>
0.0000

> <Gold.PLP.Chemscore.Metal>
0.0000

> <Gold.Chemscore.Hbonds>
donor molecule, donor type, donor heavy atom, donor atom, acceptor molecule, acceptor atom, score
      L1  H    16    37       P1  8028  0.72
      P1  H  7989  7998       L1     6  0.60
      P1  H 10752 10764       L1     1  1.00

> <Gold.PLP.Chemscore.Internal.Correction>
0.0480

> <Gold.Rescore>
     Score         DG    S(hbond)    S(metal)    S(lipo)     H(rot)  DE(clash)    DE(int)     intcor
     16.27     -19.60       1.82        0.00     136.06       3.08       3.08       0.25       ----

> <Gold.Chemscore.Fitness>
16.2698

> <Gold.Chemscore.DG>
-19.5995

> <Gold.Chemscore.ZeroCoef>
-5.4800

> <Gold.Chemscore.Hbond>
1.8227

> <Gold.Chemscore.Metal>
0.0000

> <Gold.Chemscore.Lipo>
136.0642

> <Gold.Chemscore.Internal_Hbond>
0.0000

> <Gold.Chemscore.DEClash>
3.0783

> <Gold.Chemscore.DEInternal>
0.2515

> <Gold.Chemscore.Rot>
3.0812

> <Gold.Chemscore.Internal.Correction>
   9.000000E+99

> <Gold.Chemscore.Hbonds>
donor molecule, donor type, donor heavy atom, donor atom, acceptor molecule, acceptor atom, score
      L1  H    16    37       P1  8028  0.72
      P1  H  7989  7998       L1     6  0.01
      P1  H 10752 10764       L1     1  0.75

> <Gold.Chemscore.Hbond.Weighted>
-6.0878

> <Gold.Chemscore.Metal.Weighted>
-0.0000

> <Gold.Chemscore.Lipo.Weighted>
-15.9195

> <Gold.Chemscore.Internal_Hbond.Weighted>
0.0000

> <Gold.Chemscore.DEClash.Weighted>
3.0783

> <Gold.Chemscore.DEInternal.Weighted>
0.2515

> <Gold.Chemscore.Rot.Weighted>
7.8878

> <Gold.Chemscore.Internal.Correction.Weighted>
   9.000000E+99

> <Gold.Protein.RotatedTorsions>
[ 6907 6896 6895 6894 ] final  121.32 input  -60.11 | X-H torsion
[ 7974 7965 7964 7962 ] final   13.92 input  175.53 | X-H torsion
[ 8008 7997 7996 7995 ] final  -80.75 input   59.86 | X-H torsion
[ 10167 10162 10161 10158 ] final  167.53 input  -65.29 | X-H torsion
[ 10718 10713 10712 10709 ] final  131.44 input   66.30 | X-H torsion
[ 10763 10752 10751 10750 ] final  -34.96 input  -60.55 | X-H torsion
[ 11005 11000 10999 10996 ] final  120.76 input  -57.11 | X-H torsion

> <Gold.Protein.ActiveResidues>
 VAL166  LYS551  ARG553  GLY616  TRP617  ASP618  TYR619  PRO620  LYS621  CYS622 
 ASP623  PHE694  ASN695  SER759  ASP760  ASP761  ALA762  ILE779  LEU786  VAL792 
 PHE793  MET794  SER795  GLU796  ALA797  LYS798  CYS799  TRP800  GLU811  SER814 

> <Gold.Protein.RotatedAtoms>
  152.4331  133.7312  159.6588 H   0  0  0  0  0  0  0  0  0  0  0  0  # atno 6907 bound_to 6896
  150.8211  133.8240  159.3144 H   0  0  0  0  0  0  0  0  0  0  0  0  # atno 6908 bound_to 6896
  151.5922  135.1055  160.0093 H   0  0  0  0  0  0  0  0  0  0  0  0  # atno 6909 bound_to 6896
  146.2318  139.9117  142.8523 H   0  0  0  0  0  0  0  0  0  0  0  0  # atno 7974 bound_to 7965
  154.5914  140.0658  156.9243 H   0  0  0  0  0  0  0  0  0  0  0  0  # atno 8008 bound_to 7997
  155.2289  140.3336  155.4287 H   0  0  0  0  0  0  0  0  0  0  0  0  # atno 8009 bound_to 7997
  156.2258  140.1818  156.7351 H   0  0  0  0  0  0  0  0  0  0  0  0  # atno 8010 bound_to 7997
  139.4947  144.3912  151.9515 H   0  0  0  0  0  0  0  0  0  0  0  0  # atno 10167 bound_to 10162
  157.4968  131.1093  150.9482 H   0  0  0  0  0  0  0  0  0  0  0  0  # atno 10718 bound_to 10713
  153.8554  135.6845  153.4788 H   0  0  0  0  0  0  0  0  0  0  0  0  # atno 10763 bound_to 10752
  153.1373  135.4672  154.9439 H   0  0  0  0  0  0  0  0  0  0  0  0  # atno 10764 bound_to 10752
  154.7783  135.3260  154.7993 H   0  0  0  0  0  0  0  0  0  0  0  0  # atno 10765 bound_to 10752
  139.9198  134.9636  156.7855 H   0  0  0  0  0  0  0  0  0  0  0  0  # atno 11005 bound_to 11000
  145.2223  140.9940  143.4038 LP  0  0  0  0  0  0  0  0  0  0  0  0  # atno 17320 bound_to 7965
  144.9600  139.3990  143.6360 LP  0  0  0  0  0  0  0  0  0  0  0  0  # atno 17321 bound_to 7965
  140.3349  144.3272  150.5979 LP  0  0  0  0  0  0  0  0  0  0  0  0  # atno 17342 bound_to 10162
  140.5614  143.2191  151.7759 LP  0  0  0  0  0  0  0  0  0  0  0  0  # atno 17343 bound_to 10162
  157.0166  130.5657  149.5326 LP  0  0  0  0  0  0  0  0  0  0  0  0  # atno 17370 bound_to 10713
  156.0205  130.5300  150.8261 LP  0  0  0  0  0  0  0  0  0  0  0  0  # atno 17371 bound_to 10713
  140.6509  133.9732  155.7755 LP  0  0  0  0  0  0  0  0  0  0  0  0  # atno 17394 bound_to 11000
  141.0708  134.0208  157.3528 LP  0  0  0  0  0  0  0  0  0  0  0  0  # atno 17395 bound_to 11000

$$$$
