#       Name:                AV-unprocessed.smi:2705
#       Creating user name   scv26
#       Creation time:       Fri Mar 27 14:48:39 2020


#       File generated by GOLD software.
#

@<TRIPOS>MOLECULE
AV-unprocessed.smi:2705
    41    42     1
SMALL
NO_CHARGES


@<TRIPOS>ATOM
      1 ****        -1.0919   2.4770   0.3351 C.3            1 S1                 0.0000
      2 ****        -0.6049   1.0105   0.2768 C.3            1 S1                 0.0000
      3 ****         0.8643   0.9825   0.2982 N.am           1 S1                 0.0000
      4 ****         1.7294   1.4692  -0.6103 C.2            1 S1                 0.0000
      5 ****         1.3959   2.0773  -1.6264 O.2            1 S1                 0.0000
      6 ****         3.2093   1.2101  -0.3323 C.3            1 S1                 0.0000
      7 ****         3.5963  -0.1073  -0.8021 N.pl3          1 S1                 0.0000
      8 ****         3.4044  -1.3191  -0.2756 C.2            1 S1                 0.0000
      9 ****         3.9152  -2.2716  -1.0404 N.2            1 S1                 0.0000
     10 ****         4.4533  -1.5659  -2.1036 N.2            1 S1                 0.0000
     11 ****         4.2669  -0.2815  -1.9679 N.2            1 S1                 0.0000
     12 ****        -1.0801   0.3003   1.5703 C.3            1 S1                 0.0000
     13 ****        -1.0230  -1.2382   1.5537 C.3            1 S1                 0.0000
     14 ****        -2.3302  -1.8701   1.0444 C.3            1 S1                 0.0000
     15 ****        -2.5818  -1.7063  -0.4622 C.3            1 S1                 0.0000
     16 ****        -2.5454  -0.2538  -0.9708 C.3            1 S1                 0.0000
     17 ****        -1.1179   0.3209  -1.0207 C.3            1 S1                 0.0000
     18 ****        -2.1799   2.5308   0.3801 H              1 S1                 0.0000
     19 ****        -0.7839   3.0519  -0.5382 H              1 S1                 0.0000
     20 ****        -0.7040   2.9889   1.2167 H              1 S1                 0.0000
     21 ****         1.2702   0.5088   1.0921 H              1 S1                 0.0000
     22 ****         3.8210   1.9671  -0.8258 H              1 S1                 0.0000
     23 ****         3.4123   1.2772   0.7374 H              1 S1                 0.0000
     24 ****         2.8893  -1.5015   0.6562 H              1 S1                 0.0000
     25 ****        -0.4785   0.6607   2.4065 H              1 S1                 0.0000
     26 ****        -2.0966   0.6099   1.8170 H              1 S1                 0.0000
     27 ****        -0.1629  -1.5997   0.9889 H              1 S1                 0.0000
     28 ****        -0.8702  -1.5803   2.5779 H              1 S1                 0.0000
     29 ****        -2.3166  -2.9359   1.2742 H              1 S1                 0.0000
     30 ****        -3.1747  -1.4623   1.6013 H              1 S1                 0.0000
     31 ****        -1.8638  -2.3086  -1.0199 H              1 S1                 0.0000
     32 ****        -3.5595  -2.1317  -0.6911 H              1 S1                 0.0000
     33 ****        -2.9409  -0.2542  -1.9870 H              1 S1                 0.0000
     34 ****        -3.2148   0.3855  -0.3946 H              1 S1                 0.0000
     35 ****        -1.0713   1.0384  -1.8411 H              1 S1                 0.0000
     36 ****        -0.4361  -0.4781  -1.3168 H              1 S1                 0.0000
     37 ****         0.4276   2.2366  -1.8186 LP             1 S1                 0.0000
     38 ****         2.0932   2.4122  -2.2602 LP             1 S1                 0.0000
     39 ****         3.9130  -3.2599  -0.8875 LP             1 S1                 0.0000
     40 ****         4.9253  -1.9876  -2.8778 LP             1 S1                 0.0000
     41 ****         4.5613   0.4349  -2.6005 LP             1 S1                 0.0000
@<TRIPOS>BOND
    1    1    2 1     
    2    1   18 1     
    3    1   19 1     
    4    1   20 1     
    5    2   17 1     
    6    2    3 1     
    7    2   12 1     
    8    3    4 am    
    9    3   21 1     
   10    4    5 2     
   11    4    6 1     
   12    6    7 1     
   13    6   22 1     
   14    6   23 1     
   15    7   11 1     
   16    7    8 1     
   17    8    9 2     
   18    8   24 1     
   19    9   10 1     
   20   10   11 2     
   21   12   13 1     
   22   12   25 1     
   23   12   26 1     
   24   13   14 1     
   25   13   27 1     
   26   13   28 1     
   27   14   15 1     
   28   14   29 1     
   29   14   30 1     
   30   15   16 1     
   31   15   31 1     
   32   15   32 1     
   33   16   17 1     
   34   16   33 1     
   35   16   34 1     
   36   17   35 1     
   37   17   36 1     
   38    5   37 1     
   39    5   38 1     
   40    9   39 1     
   41   10   40 1     
   42   11   41 1     
@<TRIPOS>SUBSTRUCTURE
      1 S1             1
@<TRIPOS>SET
LONE_PAIRS      STATIC     ATOMS    <user>   **** ""
5 37 38 39 40 41
DONOR_HYDROGENS      STATIC     ATOMS    <user>   **** ""
1 21
ATOM$BLUE        STATIC     ATOMS    COLORGROUP SYSTEM
5 37 38 39 40 41
ATOM$RED        STATIC     ATOMS    COLORGROUP SYSTEM
1 21
