AV-unprocessed.smi:357|AV-procd|sdf|2416|dock1
  -GOLD-   2262022353D 1   1.00000     0.00000
 Structure written by MMmdl.
 37 38  0  0  0  0  0  0  0  0  1 V2000
  151.4102  140.1130  156.7450 O   0  0  0  0  0  0  0  0  0  0  0  0
  150.3764  140.4118  156.1457 C   0  0  0  0  0  0  0  0  0  0  0  0
  149.9241  139.7340  154.9221 C   0  0  0  0  0  0  0  0  0  0  0  0
  150.9082  138.4427  154.3174 Cl  0  0  0  0  0  0  0  0  0  0  0  0
  148.7847  140.0919  154.2709 C   0  0  0  0  0  0  0  0  0  0  0  0
  148.3924  139.4336  153.1113 N   0  0  0  0  0  0  0  0  0  0  0  0
  147.2200  139.6676  152.2806 C   0  0  0  0  0  0  0  0  0  0  0  0
  146.4489  138.3713  151.9925 C   0  0  0  0  0  0  0  0  0  0  0  0
  146.8881  137.7998  150.7789 O   0  0  0  0  0  0  0  0  0  0  0  0
  148.0272  141.1913  154.8503 C   0  0  0  0  0  0  0  0  0  0  0  0
  148.3932  141.8026  155.9234 N   0  0  0  0  0  0  0  0  0  0  0  0
  149.5519  141.4164  156.5655 N   0  0  0  0  0  0  0  0  0  0  0  0
  149.8671  142.2090  157.7586 C   0  0  0  0  0  0  0  0  0  0  0  0
  151.1655  143.0080  157.5712 C   0  0  0  0  0  0  0  0  0  0  0  0
  152.2275  142.3090  158.2057 O   0  0  0  0  0  0  0  0  0  0  0  0
  152.4895  142.5869  159.5301 C   0  0  0  0  0  0  0  0  0  0  0  0
  153.2661  141.6473  160.2394 C   0  0  0  0  0  0  0  0  0  0  0  0
  153.5810  141.8497  161.5969 C   0  0  0  0  0  0  0  0  0  0  0  0
  153.1192  143.0003  162.2623 C   0  0  0  0  0  0  0  0  0  0  0  0
  153.5031  143.2511  163.9254 Cl  0  0  0  0  0  0  0  0  0  0  0  0
  152.3427  143.9461  161.5672 C   0  0  0  0  0  0  0  0  0  0  0  0
  152.0286  143.7437  160.2093 C   0  0  0  0  0  0  0  0  0  0  0  0
  148.9831  138.6745  152.8022 H   0  0  0  0  0  0  0  0  0  0  0  0
  146.5732  140.3332  152.8526 H   0  0  0  0  0  0  0  0  0  0  0  0
  147.4659  140.2065  151.3655 H   0  0  0  0  0  0  0  0  0  0  0  0
  146.5410  137.6548  152.8098 H   0  0  0  0  0  0  0  0  0  0  0  0
  145.3876  138.5943  151.8808 H   0  0  0  0  0  0  0  0  0  0  0  0
  146.5251  136.9302  150.7073 H   0  0  0  0  0  0  0  0  0  0  0  0
  147.1194  141.4815  154.3232 H   0  0  0  0  0  0  0  0  0  0  0  0
  149.0473  142.8961  157.9761 H   0  0  0  0  0  0  0  0  0  0  0  0
  149.9459  141.5659  158.6369 H   0  0  0  0  0  0  0  0  0  0  0  0
  151.3814  143.1289  156.5083 H   0  0  0  0  0  0  0  0  0  0  0  0
  151.0506  143.9999  158.0114 H   0  0  0  0  0  0  0  0  0  0  0  0
  153.6252  140.7611  159.7367 H   0  0  0  0  0  0  0  0  0  0  0  0
  154.1773  141.1205  162.1256 H   0  0  0  0  0  0  0  0  0  0  0  0
  151.9858  144.8300  162.0751 H   0  0  0  0  0  0  0  0  0  0  0  0
  151.4307  144.4917  159.7115 H   0  0  0  0  0  0  0  0  0  0  0  0
  1  2  2  0  0  0  0
  2 12  1  0  0  0  0
  2  3  1  0  0  0  0
  3  4  1  0  0  0  0
  3  5  2  0  0  0  0
  5  6  1  0  0  0  0
  5 10  1  0  0  0  0
  6  7  1  0  0  0  0
  6 23  1  0  0  0  0
  7  8  1  0  0  0  0
  7 24  1  0  0  0  0
  7 25  1  0  0  0  0
  8  9  1  0  0  0  0
  8 26  1  0  0  0  0
  8 27  1  0  0  0  0
  9 28  1  0  0  0  0
 10 11  2  0  0  0  0
 10 29  1  0  0  0  0
 11 12  1  0  0  0  0
 12 13  1  0  0  0  0
 13 14  1  0  0  0  0
 13 30  1  0  0  0  0
 13 31  1  0  0  0  0
 14 15  1  0  0  0  0
 14 32  1  0  0  0  0
 14 33  1  0  0  0  0
 15 16  1  0  0  0  0
 16 22  1  0  0  0  0
 16 17  2  0  0  0  0
 17 18  1  0  0  0  0
 17 34  1  0  0  0  0
 18 19  2  0  0  0  0
 18 35  1  0  0  0  0
 19 20  1  0  0  0  0
 19 21  1  0  0  0  0
 21 22  2  0  0  0  0
 21 36  1  0  0  0  0
 22 37  1  0  0  0  0
M  END
> <s_m_source_file>
AV-unprocessed.smi

> <i_m_source_file_index>
357

> <i_lp_mmshare_version>
43012

> <i_f3d_flags>
0

> <s_epik_input>
W09IXVtDSDJdW0NIMl1bTkhdYyhjKENsKWMxPU8pW2NIXW5uMVtDSDJdW0NIMl1PYzJbY0hdW2NIXWMoQ2wpW2NIXVtjSF0y

> <s_epik_cmdline>
J2VwaWtfcHl0aG9uJywgJy1waCcsICc3LjAnLCAnLXRuJywgJzgnLCAnLW1hJywgJzIwMCcsICctbWV0YWxfYmluZGluZycsICctaW1hZScsICc8aW5maWxlLm1hZT4nLCAnLW9tYWUnLCAnPG91dGZpbGUubWFlPic=

> <r_lp_tautomer_probability>
1

> <r_epik_Ionization_Penalty>
2.22594e-05

> <r_epik_Ionization_Penalty_Charging>
1.05597e-09

> <r_epik_Ionization_Penalty_Neutral>
2.22583e-05

> <r_epik_State_Penalty>
-0

> <r_epik_Charging_Adjusted_Penalty>
1.05597e-09

> <i_epik_Tot_Q>
0

> <i_epik_Tot_abs_Q>
0

> <r_epik_Metal_State_Penalty>
-0

> <b_epik_Metal_Only>
0

> <s_lp_Force_Field>
OPLS_2005

> <r_lp_Energy>
32.065

> <b_lp_Chiralities_Consistent>
1

> <s_lp_Variant>
AV-unprocessed.smi:357-1

> <Gold.Version>
5.8.1

> <Gold.Id.Protein>
6NUR|6NUR_protein|mol2

> <Gold.PLP.Fitness>
53.4949

> <Gold.PLP.PLP>
-52.3068

> <Gold.PLP.part.hbond>
-3.2100

> <Gold.PLP.part.metal>
0.0000

> <Gold.PLP.part.buried>
-3.5745

> <Gold.PLP.part.nonpolar>
-46.2088

> <Gold.PLP.part.repulsive>
0.5387

> <Gold.PLP.ligand.clash>
0.0000

> <Gold.PLP.ligand.torsion>
0.9760

> <Gold.PLP.Chemscore.Hbond>
1.0000

> <Gold.PLP.Chemscore.CHOScore>
0.0000

> <Gold.PLP.Chemscore.Metal>
0.0000

> <Gold.Chemscore.Hbonds>
donor molecule, donor type, donor heavy atom, donor atom, acceptor molecule, acceptor atom, score
      P1  H  7954  7966       L1     9  1.00

> <Gold.PLP.Chemscore.Internal.Correction>
0.1402

> <Gold.Rescore>
     Score         DG    S(hbond)    S(metal)    S(lipo)     H(rot)  DE(clash)    DE(int)     intcor
     14.95     -18.00       0.98        0.00     138.14       2.70       0.18       2.87       ----

> <Gold.Chemscore.Fitness>
14.9550

> <Gold.Chemscore.DG>
-18.0018

> <Gold.Chemscore.ZeroCoef>
-5.4800

> <Gold.Chemscore.Hbond>
0.9795

> <Gold.Chemscore.Metal>
0.0000

> <Gold.Chemscore.Lipo>
138.1392

> <Gold.Chemscore.Internal_Hbond>
0.0000

> <Gold.Chemscore.DEClash>
0.1763

> <Gold.Chemscore.DEInternal>
2.8706

> <Gold.Chemscore.Rot>
2.6999

> <Gold.Chemscore.Internal.Correction>
   9.000000E+99

> <Gold.Chemscore.Hbonds>
donor molecule, donor type, donor heavy atom, donor atom, acceptor molecule, acceptor atom, score
      P1  H  7954  7966       L1     9  0.62

> <Gold.Chemscore.Hbond.Weighted>
-3.2714

> <Gold.Chemscore.Metal.Weighted>
-0.0000

> <Gold.Chemscore.Lipo.Weighted>
-16.1623

> <Gold.Chemscore.Internal_Hbond.Weighted>
0.0000

> <Gold.Chemscore.DEClash.Weighted>
0.1763

> <Gold.Chemscore.DEInternal.Weighted>
2.8706

> <Gold.Chemscore.Rot.Weighted>
6.9118

> <Gold.Chemscore.Internal.Correction.Weighted>
   9.000000E+99

> <Gold.Protein.RotatedTorsions>
[ 6907 6896 6895 6894 ] final -131.22 input  -60.11 | X-H torsion
[ 7974 7965 7964 7962 ] final  -23.03 input  175.53 | X-H torsion
[ 8008 7997 7996 7995 ] final   88.72 input   59.86 | X-H torsion
[ 10167 10162 10161 10158 ] final  173.32 input  -65.29 | X-H torsion
[ 10718 10713 10712 10709 ] final -138.40 input   66.30 | X-H torsion
[ 10763 10752 10751 10750 ] final    4.37 input  -60.55 | X-H torsion
[ 11005 11000 10999 10996 ] final  151.57 input  -57.11 | X-H torsion

> <Gold.Protein.ActiveResidues>
 VAL166  LYS551  ARG553  GLY616  TRP617  ASP618  TYR619  PRO620  LYS621  CYS622 
 ASP623  PHE694  ASN695  SER759  ASP760  ASP761  ALA762  ILE779  LEU786  VAL792 
 PHE793  MET794  SER795  GLU796  ALA797  LYS798  CYS799  TRP800  GLU811  SER814 

> <Gold.Protein.RotatedAtoms>
  150.9485  133.6575  159.2776 H   0  0  0  0  0  0  0  0  0  0  0  0  # atno 6907 bound_to 6896
  151.3939  135.0959  159.9544 H   0  0  0  0  0  0  0  0  0  0  0  0  # atno 6908 bound_to 6896
  152.5100  133.8994  159.7488 H   0  0  0  0  0  0  0  0  0  0  0  0  # atno 6909 bound_to 6896
  146.1641  140.4560  142.8559 H   0  0  0  0  0  0  0  0  0  0  0  0  # atno 7974 bound_to 7965
  155.9912  140.3368  155.6755 H   0  0  0  0  0  0  0  0  0  0  0  0  # atno 8008 bound_to 7997
  155.6418  140.0696  157.2634 H   0  0  0  0  0  0  0  0  0  0  0  0  # atno 8009 bound_to 7997
  154.4220  140.1741  156.1568 H   0  0  0  0  0  0  0  0  0  0  0  0  # atno 8010 bound_to 7997
  139.5104  144.3274  152.0144 H   0  0  0  0  0  0  0  0  0  0  0  0  # atno 10167 bound_to 10162
  156.2989  130.7417  151.1464 H   0  0  0  0  0  0  0  0  0  0  0  0  # atno 10718 bound_to 10713
  153.2721  135.6933  153.7470 H   0  0  0  0  0  0  0  0  0  0  0  0  # atno 10763 bound_to 10752
  153.6489  135.3380  155.3095 H   0  0  0  0  0  0  0  0  0  0  0  0  # atno 10764 bound_to 10752
  154.8467  135.4449  154.1747 H   0  0  0  0  0  0  0  0  0  0  0  0  # atno 10765 bound_to 10752
  140.1230  134.8851  157.2099 H   0  0  0  0  0  0  0  0  0  0  0  0  # atno 11005 bound_to 11000
  144.8067  140.6312  143.6442 LP  0  0  0  0  0  0  0  0  0  0  0  0  # atno 17320 bound_to 7965
  145.4514  139.1523  143.3916 LP  0  0  0  0  0  0  0  0  0  0  0  0  # atno 17321 bound_to 7965
  140.2715  144.3959  150.6150 LP  0  0  0  0  0  0  0  0  0  0  0  0  # atno 17342 bound_to 10162
  140.6085  143.2168  151.6933 LP  0  0  0  0  0  0  0  0  0  0  0  0  # atno 17343 bound_to 10162
  157.7363  131.0564  150.5423 LP  0  0  0  0  0  0  0  0  0  0  0  0  # atno 17370 bound_to 10713
  156.5548  130.4241  149.6090 LP  0  0  0  0  0  0  0  0  0  0  0  0  # atno 17371 bound_to 10713
  140.2940  134.3208  155.7307 LP  0  0  0  0  0  0  0  0  0  0  0  0  # atno 17394 bound_to 11000
  141.2155  133.7551  156.9544 LP  0  0  0  0  0  0  0  0  0  0  0  0  # atno 17395 bound_to 11000

$$$$
