AV-unprocessed.smi:2431|AV-procd|sdf|9586|dock10
  -GOLD-   2272013223D 1   1.00000     0.00000
 Structure written by MMmdl.
 36 37  0  0  0  0  0  0  0  0  3 V2000
  148.4038  142.4593  157.4458 O   0  0  0  0  0  0  0  0  0  0  0  0
  149.5178  142.3582  156.9311 C   0  0  0  0  0  0  0  0  0  0  0  0
  150.6243  142.9113  157.4483 N   0  0  0  0  0  0  0  0  0  0  0  0
  150.6699  143.6947  158.6774 C   0  0  0  0  0  0  0  0  0  0  0  0
  152.1080  144.1200  159.0182 C   0  0  0  0  0  0  0  0  0  0  0  0
  152.7034  143.3080  160.1515 C   0  0  0  0  0  0  0  0  0  0  0  0
  153.5437  142.2804  160.0363 C   0  0  0  0  0  0  0  0  0  0  0  0
  153.9225  141.6893  161.3663 C   0  0  0  0  0  0  0  0  0  0  0  0
  153.1177  142.5222  162.3889 C   0  0  0  0  0  0  0  0  0  0  0  0
  152.3516  143.5990  161.5878 C   0  0  0  0  0  0  0  0  0  0  0  0
  149.7955  141.6739  155.8082 N   0  0  0  0  0  0  0  0  0  0  0  0
  148.9063  140.9306  154.9801 C   0  0  0  0  0  0  0  0  0  0  0  0
  147.5991  141.3894  154.6844 C   0  0  0  0  0  0  0  0  0  0  0  0
  146.7687  140.6044  153.8629 C   0  0  0  0  0  0  0  0  0  0  0  0
  147.1545  139.4291  153.3288 N   0  0  0  0  0  0  0  0  0  0  0  0
  148.4055  138.9996  153.5937 C   0  0  0  0  0  0  0  0  0  0  0  0
  149.3316  139.7052  154.3961 C   0  0  0  0  0  0  0  0  0  0  0  0
  150.6791  139.1414  154.6049 N   0  3  0  0  0  0  0  0  0  0  0  0
  150.8166  137.9319  154.4560 O   0  0  0  0  0  0  0  0  0  0  0  0
  151.5992  139.9016  154.8888 O   0  5  0  0  0  0  0  0  0  0  0  0
  151.4990  142.7754  156.9625 H   0  0  0  0  0  0  0  0  0  0  0  0
  150.0446  144.5772  158.5392 H   0  0  0  0  0  0  0  0  0  0  0  0
  150.2274  143.1256  159.4966 H   0  0  0  0  0  0  0  0  0  0  0  0
  152.7543  144.0145  158.1463 H   0  0  0  0  0  0  0  0  0  0  0  0
  152.1234  145.1754  159.2938 H   0  0  0  0  0  0  0  0  0  0  0  0
  153.9275  141.8901  159.1051 H   0  0  0  0  0  0  0  0  0  0  0  0
  153.6542  140.6330  161.4032 H   0  0  0  0  0  0  0  0  0  0  0  0
  154.9972  141.7829  161.5257 H   0  0  0  0  0  0  0  0  0  0  0  0
  152.4198  141.8853  162.9340 H   0  0  0  0  0  0  0  0  0  0  0  0
  153.7790  142.9810  163.1249 H   0  0  0  0  0  0  0  0  0  0  0  0
  152.6723  144.6037  161.8638 H   0  0  0  0  0  0  0  0  0  0  0  0
  151.2743  143.5235  161.7394 H   0  0  0  0  0  0  0  0  0  0  0  0
  150.7731  141.6020  155.5646 H   0  0  0  0  0  0  0  0  0  0  0  0
  147.2229  142.3273  155.0640 H   0  0  0  0  0  0  0  0  0  0  0  0
  145.7675  140.9328  153.6263 H   0  0  0  0  0  0  0  0  0  0  0  0
  148.6794  138.0605  153.1353 H   0  0  0  0  0  0  0  0  0  0  0  0
  1  2  2  0  0  0  0
  2  3  1  0  0  0  0
  2 11  1  0  0  0  0
  3  4  1  0  0  0  0
  3 21  1  0  0  0  0
  4  5  1  0  0  0  0
  4 22  1  0  0  0  0
  4 23  1  0  0  0  0
  5  6  1  0  0  0  0
  5 24  1  0  0  0  0
  5 25  1  0  0  0  0
  6 10  1  0  0  0  0
  6  7  2  0  0  0  0
  7  8  1  0  0  0  0
  7 26  1  0  0  0  0
  8  9  1  0  0  0  0
  8 27  1  0  0  0  0
  8 28  1  0  0  0  0
  9 10  1  0  0  0  0
  9 29  1  0  0  0  0
  9 30  1  0  0  0  0
 10 31  1  0  0  0  0
 10 32  1  0  0  0  0
 11 12  1  0  0  0  0
 11 33  1  0  0  0  0
 12 17  1  0  0  0  0
 12 13  2  0  0  0  0
 13 14  1  0  0  0  0
 13 34  1  0  0  0  0
 14 15  2  0  0  0  0
 14 35  1  0  0  0  0
 15 16  1  0  0  0  0
 16 17  2  0  0  0  0
 16 36  1  0  0  0  0
 17 18  1  0  0  0  0
 18 19  2  0  0  0  0
 18 20  1  0  0  0  0
M  CHG  1  18   1
M  CHG  1  20  -1
M  END
> <s_m_source_file>
AV-unprocessed.smi

> <i_m_source_file_index>
2431

> <i_lp_mmshare_version>
43012

> <i_f3d_flags>
0

> <s_epik_input>
W0NIMl0xW0NIMl1bQ0gyXVtDSF09QzFbQ0gyXVtDSDJdW05IXUMoPU8pW05IXWMyW2NIXVtjSF1uW2NIXWMyW04rXSg9TylbTy1d

> <s_epik_cmdline>
J2VwaWtfcHl0aG9uJywgJy1waCcsICc3LjAnLCAnLXRuJywgJzgnLCAnLW1hJywgJzIwMCcsICctbWV0YWxfYmluZGluZycsICctaW1hZScsICc8aW5maWxlLm1hZT4nLCAnLW9tYWUnLCAnPG91dGZpbGUubWFlPic=

> <r_lp_tautomer_probability>
1

> <r_epik_Ionization_Penalty>
0.000148912

> <r_epik_Ionization_Penalty_Charging>
0

> <r_epik_Ionization_Penalty_Neutral>
0.000148912

> <r_epik_State_Penalty>
-0

> <r_epik_Charging_Adjusted_Penalty>
0

> <i_epik_Tot_Q>
0

> <i_epik_Tot_abs_Q>
2

> <r_epik_Metal_State_Penalty>
-0

> <b_epik_Metal_Only>
0

> <s_lp_Force_Field>
OPLS_2005

> <r_lp_Energy>
28.1068

> <b_lp_Chiralities_Consistent>
1

> <s_lp_Variant>
AV-unprocessed.smi:2431-1

> <Gold.Version>
5.8.1

> <Gold.Id.Protein>
6NUR|6NUR_protein|mol2

> <Gold.PLP.Fitness>
47.9927

> <Gold.PLP.PLP>
-41.2572

> <Gold.PLP.part.hbond>
-2.5102

> <Gold.PLP.part.metal>
0.0000

> <Gold.PLP.part.buried>
-1.7386

> <Gold.PLP.part.nonpolar>
-39.6867

> <Gold.PLP.part.repulsive>
2.4412

> <Gold.PLP.ligand.clash>
0.0000

> <Gold.PLP.ligand.torsion>
1.1403

> <Gold.PLP.Chemscore.Hbond>
1.0000

> <Gold.PLP.Chemscore.CHOScore>
2.0000

> <Gold.PLP.Chemscore.Metal>
0.0000

> <Gold.Chemscore.Hbonds>
donor molecule, donor type, donor heavy atom, donor atom, acceptor molecule, acceptor atom, score
      P1  H  7989  7998       L1    20  1.00
      L1  C    14    35       P1 10175  1.00
      L1  C    16    36       P1  7948  1.00

> <Gold.PLP.Chemscore.Internal.Correction>
0.0161

> <Gold.Rescore>
     Score         DG    S(hbond)    S(metal)    S(lipo)     H(rot)  DE(clash)    DE(int)     intcor
     12.20     -17.50       0.98        0.00     107.09       1.48       2.05       3.24       ----

> <Gold.Chemscore.Fitness>
12.2049

> <Gold.Chemscore.DG>
-17.5004

> <Gold.Chemscore.ZeroCoef>
-5.4800

> <Gold.Chemscore.Hbond>
0.9841

> <Gold.Chemscore.Metal>
0.0000

> <Gold.Chemscore.Lipo>
107.0893

> <Gold.Chemscore.Internal_Hbond>
0.0000

> <Gold.Chemscore.DEClash>
2.0537

> <Gold.Chemscore.DEInternal>
3.2417

> <Gold.Chemscore.Rot>
1.4828

> <Gold.Chemscore.Internal.Correction>
   9.000000E+99

> <Gold.Chemscore.Hbonds>
donor molecule, donor type, donor heavy atom, donor atom, acceptor molecule, acceptor atom, score
      P1  H  7989  7998       L1    20  0.29

> <Gold.Chemscore.Hbond.Weighted>
-3.2869

> <Gold.Chemscore.Metal.Weighted>
-0.0000

> <Gold.Chemscore.Lipo.Weighted>
-12.5294

> <Gold.Chemscore.Internal_Hbond.Weighted>
0.0000

> <Gold.Chemscore.DEClash.Weighted>
2.0537

> <Gold.Chemscore.DEInternal.Weighted>
3.2417

> <Gold.Chemscore.Rot.Weighted>
3.7960

> <Gold.Chemscore.Internal.Correction.Weighted>
   9.000000E+99

> <Gold.Protein.RotatedTorsions>
[ 6907 6896 6895 6894 ] final  126.94 input  -60.11 | X-H torsion
[ 7974 7965 7964 7962 ] final -102.89 input  175.53 | X-H torsion
[ 8008 7997 7996 7995 ] final  -77.15 input   59.86 | X-H torsion
[ 10167 10162 10161 10158 ] final -104.40 input  -65.29 | X-H torsion
[ 10718 10713 10712 10709 ] final -105.32 input   66.30 | X-H torsion
[ 10763 10752 10751 10750 ] final   81.23 input  -60.55 | X-H torsion
[ 11005 11000 10999 10996 ] final  104.04 input  -57.11 | X-H torsion

> <Gold.Protein.ActiveResidues>
 VAL166  LYS551  ARG553  GLY616  TRP617  ASP618  TYR619  PRO620  LYS621  CYS622 
 ASP623  PHE694  ASN695  SER759  ASP760  ASP761  ALA762  ILE779  LEU786  VAL792 
 PHE793  MET794  SER795  GLU796  ALA797  LYS798  CYS799  TRP800  GLU811  SER814 

> <Gold.Protein.RotatedAtoms>
  152.3858  133.6609  159.6197 H   0  0  0  0  0  0  0  0  0  0  0  0  # atno 6907 bound_to 6896
  150.7778  133.9037  159.3358 H   0  0  0  0  0  0  0  0  0  0  0  0  # atno 6908 bound_to 6896
  151.6834  135.0959  160.0271 H   0  0  0  0  0  0  0  0  0  0  0  0  # atno 6909 bound_to 6896
  145.2630  140.9275  143.3030 H   0  0  0  0  0  0  0  0  0  0  0  0  # atno 7974 bound_to 7965
  154.5569  140.0715  156.8758 H   0  0  0  0  0  0  0  0  0  0  0  0  # atno 8008 bound_to 7997
  155.2884  140.3376  155.4236 H   0  0  0  0  0  0  0  0  0  0  0  0  # atno 8009 bound_to 7997
  156.2010  140.1722  156.7885 H   0  0  0  0  0  0  0  0  0  0  0  0  # atno 8010 bound_to 7997
  140.2097  143.3756  152.1061 H   0  0  0  0  0  0  0  0  0  0  0  0  # atno 10167 bound_to 10162
  156.0341  130.5558  150.7522 H   0  0  0  0  0  0  0  0  0  0  0  0  # atno 10718 bound_to 10713
  153.1099  135.4773  154.9017 H   0  0  0  0  0  0  0  0  0  0  0  0  # atno 10763 bound_to 10752
  154.7470  135.3096  154.8629 H   0  0  0  0  0  0  0  0  0  0  0  0  # atno 10764 bound_to 10752
  153.9221  135.6854  153.4801 H   0  0  0  0  0  0  0  0  0  0  0  0  # atno 10765 bound_to 10752
  139.8788  134.9286  156.5301 H   0  0  0  0  0  0  0  0  0  0  0  0  # atno 11005 bound_to 11000
  144.9402  139.4198  143.6452 LP  0  0  0  0  0  0  0  0  0  0  0  0  # atno 17320 bound_to 7965
  146.3269  139.8358  142.8900 LP  0  0  0  0  0  0  0  0  0  0  0  0  # atno 17321 bound_to 7965
  139.5185  144.7006  151.5504 LP  0  0  0  0  0  0  0  0  0  0  0  0  # atno 17342 bound_to 10162
  140.6332  143.9035  150.6624 LP  0  0  0  0  0  0  0  0  0  0  0  0  # atno 17343 bound_to 10162
  157.5063  131.0922  151.0253 LP  0  0  0  0  0  0  0  0  0  0  0  0  # atno 17370 bound_to 10713
  157.0620  130.5829  149.5387 LP  0  0  0  0  0  0  0  0  0  0  0  0  # atno 17371 bound_to 10713
  140.8387  133.8222  155.9054 LP  0  0  0  0  0  0  0  0  0  0  0  0  # atno 17394 bound_to 11000
  140.9258  134.2084  157.4896 LP  0  0  0  0  0  0  0  0  0  0  0  0  # atno 17395 bound_to 11000

$$$$
