#       Name:                AV-unprocessed.smi:1410
#       Creating user name   scv26
#       Creation time:       Fri Mar 27 05:36:28 2020


#       File generated by GOLD software.
#

@<TRIPOS>MOLECULE
AV-unprocessed.smi:1410
    45    46     1
SMALL
NO_CHARGES


@<TRIPOS>ATOM
      1 ****        -6.1495   2.7646   0.7908 N.am           1 S1                 0.0000
      2 ****        -4.8971   2.4269   1.1055 C.2            1 S1                 0.0000
      3 ****        -4.1436   3.1910   1.7062 O.2            1 S1                 0.0000
      4 ****        -4.4356   1.0229   0.7005 C.3            1 S1                 0.0000
      5 ****        -2.9571   0.8986   0.6265 N.4            1 S1                 1.0000
      6 ****        -2.3804   1.5108  -0.6005 C.3            1 S1                 0.0000
      7 ****        -0.8438   1.4890  -0.5594 C.3            1 S1                 0.0000
      8 ****        -0.3144   0.0579  -0.3742 C.3            1 S1                 0.0000
      9 ****         1.1405   0.0798  -0.2534 N.am           1 S1                 0.0000
     10 ****         1.9528  -0.9515  -0.5273 C.2            1 S1                 0.0000
     11 ****         1.5460  -2.0511  -0.9021 O.2            1 S1                 0.0000
     12 ****         3.2400  -0.6250  -0.3174 N.am           1 S1                 0.0000
     13 ****         4.4018  -1.4193  -0.5168 C.ar           1 S1                 0.0000
     14 ****         5.5820  -1.0364   0.1535 C.ar           1 S1                 0.0000
     15 ****         6.7518  -1.7972  -0.0428 C.ar           1 S1                 0.0000
     16 ****         6.8080  -2.8758  -0.8517 N.ar           1 S1                 0.0000
     17 ****         5.6812  -3.2324  -1.5038 C.ar           1 S1                 0.0000
     18 ****         4.4592  -2.5419  -1.3775 C.ar           1 S1                 0.0000
     19 ****        -0.9599  -0.5736   0.8733 C.3            1 S1                 0.0000
     20 ****        -2.4945  -0.5010   0.8051 C.3            1 S1                 0.0000
     21 ****        -6.4983   3.6796   1.0396 H              1 S1                 0.0000
     22 ****        -6.7477   2.1094   0.3081 H              1 S1                 0.0000
     23 ****        -4.8239   0.3385   1.4560 H              1 S1                 0.0000
     24 ****        -4.8847   0.7285  -0.2497 H              1 S1                 0.0000
     25 ****        -2.7394   0.9734  -1.4797 H              1 S1                 0.0000
     26 ****        -2.7191   2.5421  -0.7029 H              1 S1                 0.0000
     27 ****        -0.4454   1.9195  -1.4792 H              1 S1                 0.0000
     28 ****        -0.4954   2.1247   0.2562 H              1 S1                 0.0000
     29 ****        -0.5919  -0.5257  -1.2543 H              1 S1                 0.0000
     30 ****         1.5600   0.9448   0.0553 H              1 S1                 0.0000
     31 ****         3.4074   0.2901   0.0745 H              1 S1                 0.0000
     32 ****         5.5958  -0.1796   0.8113 H              1 S1                 0.0000
     33 ****         7.6680  -1.5300   0.4626 H              1 S1                 0.0000
     34 ****         5.7567  -4.0921  -2.1528 H              1 S1                 0.0000
     35 ****         3.6066  -2.8771  -1.9474 H              1 S1                 0.0000
     36 ****        -0.6485  -1.6140   0.9749 H              1 S1                 0.0000
     37 ****        -0.6137  -0.0587   1.7707 H              1 S1                 0.0000
     38 ****        -2.9112  -0.9127   1.7251 H              1 S1                 0.0000
     39 ****        -2.8661  -1.1164  -0.0158 H              1 S1                 0.0000
     40 ****        -2.5955   1.4194   1.4133 H              1 S1                 0.0000
     41 ****        -4.4634   4.0994   1.9755 LP             1 S1                 0.0000
     42 ****        -3.2111   2.9039   1.9253 LP             1 S1                 0.0000
     43 ****         0.5651  -2.2091  -1.0159 LP             1 S1                 0.0000
     44 ****         2.1963  -2.7864  -1.0928 LP             1 S1                 0.0000
     45 ****         7.6560  -3.3936  -0.9643 LP             1 S1                 0.0000
@<TRIPOS>BOND
    1    1    2 am    
    2    1   21 1     
    3    1   22 1     
    4    2    3 2     
    5    2    4 1     
    6    4    5 1     
    7    4   23 1     
    8    4   24 1     
    9    5   20 1     
   10    5    6 1     
   11    5   40 1     
   12    6    7 1     
   13    6   25 1     
   14    6   26 1     
   15    7    8 1     
   16    7   27 1     
   17    7   28 1     
   18    8    9 1     
   19    8   19 1     
   20    8   29 1     
   21    9   10 am    
   22    9   30 1     
   23   10   11 2     
   24   10   12 am    
   25   12   13 1     
   26   12   31 1     
   27   13   18 ar    
   28   13   14 ar    
   29   14   15 ar    
   30   14   32 1     
   31   15   16 ar    
   32   15   33 1     
   33   16   17 ar    
   34   17   18 ar    
   35   17   34 1     
   36   18   35 1     
   37   19   20 1     
   38   19   36 1     
   39   19   37 1     
   40   20   38 1     
   41   20   39 1     
   42    3   41 1     
   43    3   42 1     
   44   11   43 1     
   45   11   44 1     
   46   16   45 1     
@<TRIPOS>SUBSTRUCTURE
      1 S1             1
@<TRIPOS>SET
LONE_PAIRS      STATIC     ATOMS    <user>   **** ""
5 41 42 43 44 45
DONOR_HYDROGENS      STATIC     ATOMS    <user>   **** ""
5 21 22 40 30 31
ATOM$BLUE        STATIC     ATOMS    COLORGROUP SYSTEM
5 41 42 43 44 45
ATOM$RED        STATIC     ATOMS    COLORGROUP SYSTEM
5 21 22 40 30 31
