AV-unprocessed.smi:320|AV-procd|sdf|2333|dock3
  -GOLD-   2262022233D 1   1.00000     0.00000
 Structure written by MMmdl.
 49 52  0  0  0  0  0  0  0  0  1 V2000
  151.2702  137.9326  158.6740 C   0  0  0  0  0  0  0  0  0  0  0  0
  150.2481  137.9263  157.5208 C   0  0  1  0  0  0  0  0  0  0  0  0
  149.0974  137.1255  157.9435 N   0  0  0  0  0  0  0  0  0  0  0  0
  149.1151  135.8274  158.2842 C   0  0  0  0  0  0  0  0  0  0  0  0
  150.1392  135.1439  158.3086 O   0  0  0  0  0  0  0  0  0  0  0  0
  147.7607  135.2161  158.6676 C   0  0  0  0  0  0  0  0  0  0  0  0
  147.6875  134.8326  160.0870 N   0  0  0  0  0  0  0  0  0  0  0  0
  147.5811  133.4577  160.3782 C   0  0  0  0  0  0  0  0  0  0  0  0
  147.5022  133.0030  161.6389 C   0  0  0  0  0  0  0  0  0  0  0  0
  147.5296  133.9654  162.7147 C   0  0  0  0  0  0  0  0  0  0  0  0
  147.6290  135.2828  162.4473 C   0  0  0  0  0  0  0  0  0  0  0  0
  147.7144  135.7847  161.0707 C   0  0  0  0  0  0  0  0  0  0  0  0
  147.8043  136.9867  160.8174 O   0  0  0  0  0  0  0  0  0  0  0  0
  149.8016  139.3356  157.0121 C   0  0  0  0  0  0  0  0  0  0  0  0
  148.6539  139.2490  155.9644 C   0  0  0  0  0  0  0  0  0  0  0  0
  148.2538  140.6591  155.4778 C   0  0  2  0  0  0  0  0  0  0  0  0
  149.4674  141.3450  154.8177 C   0  0  0  0  0  0  0  0  0  0  0  0
  150.6032  141.4698  155.8536 C   0  0  1  0  0  0  0  0  0  0  0  0
  150.1283  142.3170  157.0502 C   0  0  0  0  0  0  0  0  0  0  0  0
  148.9138  141.6280  157.7028 C   0  0  1  0  0  0  0  0  0  0  0  0
  147.7705  141.5044  156.6745 C   0  0  0  0  0  0  0  0  0  0  0  0
  149.3166  140.2218  158.1955 C   0  0  0  0  0  0  0  0  0  0  0  0
  151.0066  140.0641  156.3439 C   0  0  0  0  0  0  0  0  0  0  0  0
  152.2030  138.4196  158.3937 H   0  0  0  0  0  0  0  0  0  0  0  0
  151.5281  136.9127  158.9616 H   0  0  0  0  0  0  0  0  0  0  0  0
  150.8819  138.4289  159.5633 H   0  0  0  0  0  0  0  0  0  0  0  0
  150.7423  137.4290  156.6844 H   0  0  0  0  0  0  0  0  0  0  0  0
  148.2055  137.5985  157.9576 H   0  0  0  0  0  0  0  0  0  0  0  0
  146.9822  135.9393  158.4211 H   0  0  0  0  0  0  0  0  0  0  0  0
  147.5547  134.3480  158.0381 H   0  0  0  0  0  0  0  0  0  0  0  0
  147.5597  132.8043  159.5179 H   0  0  0  0  0  0  0  0  0  0  0  0
  147.4158  131.9460  161.8431 H   0  0  0  0  0  0  0  0  0  0  0  0
  147.4678  133.6277  163.7389 H   0  0  0  0  0  0  0  0  0  0  0  0
  147.6462  135.9879  163.2651 H   0  0  0  0  0  0  0  0  0  0  0  0
  148.9565  138.6435  155.1094 H   0  0  0  0  0  0  0  0  0  0  0  0
  147.7793  138.7583  156.3913 H   0  0  0  0  0  0  0  0  0  0  0  0
  147.4476  140.5731  154.7486 H   0  0  0  0  0  0  0  0  0  0  0  0
  149.8038  140.7694  153.9544 H   0  0  0  0  0  0  0  0  0  0  0  0
  149.1878  142.3302  154.4424 H   0  0  0  0  0  0  0  0  0  0  0  0
  151.4642  141.9514  155.3892 H   0  0  0  0  0  0  0  0  0  0  0  0
  150.9340  142.4321  157.7764 H   0  0  0  0  0  0  0  0  0  0  0  0
  149.8626  143.3224  156.7209 H   0  0  0  0  0  0  0  0  0  0  0  0
  148.5739  142.2239  158.5504 H   0  0  0  0  0  0  0  0  0  0  0  0
  147.4572  142.4931  156.3372 H   0  0  0  0  0  0  0  0  0  0  0  0
  146.8952  141.0439  157.1347 H   0  0  0  0  0  0  0  0  0  0  0  0
  148.4564  139.7728  158.6911 H   0  0  0  0  0  0  0  0  0  0  0  0
  150.0982  140.3033  158.9522 H   0  0  0  0  0  0  0  0  0  0  0  0
  151.8369  140.1423  157.0473 H   0  0  0  0  0  0  0  0  0  0  0  0
  151.3849  139.4953  155.4940 H   0  0  0  0  0  0  0  0  0  0  0  0
  1  2  1  0  0  0  0
  1 24  1  0  0  0  0
  1 25  1  0  0  0  0
  1 26  1  0  0  0  0
  2  3  1  0  0  0  0
  2 14  1  0  0  0  0
  2 27  1  0  0  0  0
  3  4  1  0  0  0  0
  3 28  1  0  0  0  0
  4  5  2  0  0  0  0
  4  6  1  0  0  0  0
  6  7  1  0  0  0  0
  6 29  1  0  0  0  0
  6 30  1  0  0  0  0
  7 12  1  0  0  0  0
  7  8  1  0  0  0  0
  8  9  2  0  0  0  0
  8 31  1  0  0  0  0
  9 10  1  0  0  0  0
  9 32  1  0  0  0  0
 10 11  2  0  0  0  0
 10 33  1  0  0  0  0
 11 12  1  0  0  0  0
 11 34  1  0  0  0  0
 12 13  2  0  0  0  0
 14 22  1  0  0  0  0
 14 23  1  0  0  0  0
 14 15  1  0  0  0  0
 15 16  1  0  0  0  0
 15 35  1  0  0  0  0
 15 36  1  0  0  0  0
 16 21  1  0  0  0  0
 16 17  1  0  0  0  0
 16 37  1  0  0  0  0
 17 18  1  0  0  0  0
 17 38  1  0  0  0  0
 17 39  1  0  0  0  0
 18 19  1  0  0  0  0
 18 23  1  0  0  0  0
 18 40  1  0  0  0  0
 19 20  1  0  0  0  0
 19 41  1  0  0  0  0
 19 42  1  0  0  0  0
 20 21  1  0  0  0  0
 20 22  1  0  0  0  0
 20 43  1  0  0  0  0
 21 44  1  0  0  0  0
 21 45  1  0  0  0  0
 22 46  1  0  0  0  0
 22 47  1  0  0  0  0
 23 48  1  0  0  0  0
 23 49  1  0  0  0  0
M  END
> <s_m_source_file>
AV-unprocessed.smi

> <i_m_source_file_index>
320

> <i_lp_mmshare_version>
43012

> <i_f3d_flags>
0

> <s_epik_input>
W0NIMl0xW0NAQEhdKFtDSDJdMilbQ0gyXVtDQEBIXShbQ0gyXTMpW0NIMl1bQ0BIXTFbQ0gyXUMyM1tDQEhdKFtDSDNdKVtOSF1DKD1PKVtDSDJdbjRbY0hdW2NIXVtjSF1bY0hdYzQ9Tw==

> <s_epik_cmdline>
J2VwaWtfcHl0aG9uJywgJy1waCcsICc3LjAnLCAnLXRuJywgJzgnLCAnLW1hJywgJzIwMCcsICctbWV0YWxfYmluZGluZycsICctaW1hZScsICc8aW5maWxlLm1hZT4nLCAnLW9tYWUnLCAnPG91dGZpbGUubWFlPic=

> <r_lp_tautomer_probability>
1

> <r_epik_Ionization_Penalty>
4.15949e-07

> <r_epik_Ionization_Penalty_Charging>
3.97363e-07

> <r_epik_Ionization_Penalty_Neutral>
1.85865e-08

> <r_epik_State_Penalty>
-0

> <r_epik_Charging_Adjusted_Penalty>
3.97363e-07

> <i_epik_Tot_Q>
0

> <i_epik_Tot_abs_Q>
0

> <r_epik_Metal_State_Penalty>
-0

> <b_epik_Metal_Only>
0

> <s_lp_Force_Field>
OPLS_2005

> <r_lp_Energy>
45.3355

> <b_lp_Chiralities_Consistent>
1

> <s_lp_Variant>
AV-unprocessed.smi:320-2

> <Gold.Version>
5.8.1

> <Gold.Id.Protein>
6NUR|6NUR_protein|mol2

> <Gold.PLP.Fitness>
43.1867

> <Gold.PLP.PLP>
-35.3273

> <Gold.PLP.part.hbond>
-3.0000

> <Gold.PLP.part.metal>
0.0000

> <Gold.PLP.part.buried>
-1.9946

> <Gold.PLP.part.nonpolar>
-29.8319

> <Gold.PLP.part.repulsive>
0.0737

> <Gold.PLP.ligand.clash>
0.0000

> <Gold.PLP.ligand.torsion>
0.2304

> <Gold.PLP.Chemscore.Hbond>
2.7600

> <Gold.PLP.Chemscore.CHOScore>
0.0000

> <Gold.PLP.Chemscore.Metal>
0.0000

> <Gold.Chemscore.Hbonds>
donor molecule, donor type, donor heavy atom, donor atom, acceptor molecule, acceptor atom, score
      P1  H  6896  6909       L1     5  0.70
      P1  H  6931  6943       L1    13  0.86
      P1  H  6934  6947       L1    13  0.67

> <Gold.PLP.Chemscore.Internal.Correction>
0.0402

> <Gold.Rescore>
     Score         DG    S(hbond)    S(metal)    S(lipo)     H(rot)  DE(clash)    DE(int)     intcor
     20.24     -20.70       2.73        0.00      85.51       1.52       0.19       0.28       ----

> <Gold.Chemscore.Fitness>
20.2369

> <Gold.Chemscore.DG>
-20.7037

> <Gold.Chemscore.ZeroCoef>
-5.4800

> <Gold.Chemscore.Hbond>
2.7278

> <Gold.Chemscore.Metal>
0.0000

> <Gold.Chemscore.Lipo>
85.5083

> <Gold.Chemscore.Internal_Hbond>
0.0000

> <Gold.Chemscore.DEClash>
0.1897

> <Gold.Chemscore.DEInternal>
0.2771

> <Gold.Chemscore.Rot>
1.5202

> <Gold.Chemscore.Internal.Correction>
   9.000000E+99

> <Gold.Chemscore.Hbonds>
donor molecule, donor type, donor heavy atom, donor atom, acceptor molecule, acceptor atom, score
      P1  H  6896  6909       L1     5  0.66
      P1  H  6931  6943       L1    13  0.78
      P1  H  6934  6947       L1    13  0.65

> <Gold.Chemscore.Hbond.Weighted>
-9.1109

> <Gold.Chemscore.Metal.Weighted>
-0.0000

> <Gold.Chemscore.Lipo.Weighted>
-10.0045

> <Gold.Chemscore.Internal_Hbond.Weighted>
0.0000

> <Gold.Chemscore.DEClash.Weighted>
0.1897

> <Gold.Chemscore.DEInternal.Weighted>
0.2771

> <Gold.Chemscore.Rot.Weighted>
3.8916

> <Gold.Chemscore.Internal.Correction.Weighted>
   9.000000E+99

> <Gold.Protein.RotatedTorsions>
[ 6907 6896 6895 6894 ] final   28.30 input  -60.11 | X-H torsion
[ 7974 7965 7964 7962 ] final -169.42 input  175.53 | X-H torsion
[ 8008 7997 7996 7995 ] final -159.43 input   59.86 | X-H torsion
[ 10167 10162 10161 10158 ] final  136.37 input  -65.29 | X-H torsion
[ 10718 10713 10712 10709 ] final  -16.49 input   66.30 | X-H torsion
[ 10763 10752 10751 10750 ] final  -92.50 input  -60.55 | X-H torsion
[ 11005 11000 10999 10996 ] final   50.54 input  -57.11 | X-H torsion

> <Gold.Protein.ActiveResidues>
 VAL166  LYS551  ARG553  GLY616  TRP617  ASP618  TYR619  PRO620  LYS621  CYS622 
 ASP623  PHE694  ASN695  SER759  ASP760  ASP761  ALA762  ILE779  LEU786  VAL792 
 PHE793  MET794  SER795  GLU796  ALA797  LYS798  CYS799  TRP800  GLU811  SER814 

> <Gold.Protein.RotatedAtoms>
  152.0150  134.9855  160.0568 H   0  0  0  0  0  0  0  0  0  0  0  0  # atno 6907 bound_to 6896
  152.1392  133.4449  159.4767 H   0  0  0  0  0  0  0  0  0  0  0  0  # atno 6908 bound_to 6896
  150.6863  134.2244  159.4452 H   0  0  0  0  0  0  0  0  0  0  0  0  # atno 6909 bound_to 6896
  144.7186  140.2223  143.6314 H   0  0  0  0  0  0  0  0  0  0  0  0  # atno 7974 bound_to 7965
  155.7625  140.0841  157.2148 H   0  0  0  0  0  0  0  0  0  0  0  0  # atno 8008 bound_to 7997
  154.4002  140.1540  156.2906 H   0  0  0  0  0  0  0  0  0  0  0  0  # atno 8009 bound_to 7997
  155.8825  140.3420  155.5901 H   0  0  0  0  0  0  0  0  0  0  0  0  # atno 8010 bound_to 7997
  139.5182  144.6468  151.5417 H   0  0  0  0  0  0  0  0  0  0  0  0  # atno 10167 bound_to 10162
  156.5869  130.4789  149.6296 H   0  0  0  0  0  0  0  0  0  0  0  0  # atno 10718 bound_to 10713
  154.6867  135.5229  153.8336 H   0  0  0  0  0  0  0  0  0  0  0  0  # atno 10763 bound_to 10752
  153.0602  135.6565  154.0489 H   0  0  0  0  0  0  0  0  0  0  0  0  # atno 10764 bound_to 10752
  154.0369  135.2980  155.3340 H   0  0  0  0  0  0  0  0  0  0  0  0  # atno 10765 bound_to 10752
  140.1008  134.5083  155.8764 H   0  0  0  0  0  0  0  0  0  0  0  0  # atno 11005 bound_to 11000
  145.8489  139.2165  143.1784 LP  0  0  0  0  0  0  0  0  0  0  0  0  # atno 17320 bound_to 7965
  146.0279  140.8286  142.9891 LP  0  0  0  0  0  0  0  0  0  0  0  0  # atno 17321 bound_to 7965
  140.6256  143.9175  150.6562 LP  0  0  0  0  0  0  0  0  0  0  0  0  # atno 17342 bound_to 10162
  140.2463  143.3626  152.1444 LP  0  0  0  0  0  0  0  0  0  0  0  0  # atno 17343 bound_to 10162
  156.2583  130.6947  151.1708 LP  0  0  0  0  0  0  0  0  0  0  0  0  # atno 17370 bound_to 10713
  157.7313  131.0609  150.5684 LP  0  0  0  0  0  0  0  0  0  0  0  0  # atno 17371 bound_to 10713
  141.2105  133.6696  156.6515 LP  0  0  0  0  0  0  0  0  0  0  0  0  # atno 17394 bound_to 11000
  140.3222  134.7998  157.4261 LP  0  0  0  0  0  0  0  0  0  0  0  0  # atno 17395 bound_to 11000

$$$$
