#       Name:                AV-unprocessed.smi:1049
#       Creating user name   scv26
#       Creation time:       Fri Mar 27 03:10:51 2020


#       File generated by GOLD software.
#

@<TRIPOS>MOLECULE
AV-unprocessed.smi:1049
    43    44     1
SMALL
NO_CHARGES


@<TRIPOS>ATOM
      1 ****        -3.9481   2.5255   0.0003 C.3            1 S1                 0.0000
      2 ****        -2.7509   1.5934   0.2318 C.3            1 S1                 0.0000
      3 ****        -3.2059   0.1915   0.6940 C.3            1 S1                 0.0000
      4 ****        -2.0143  -0.7141   1.0591 C.3            1 S1                 0.0000
      5 ****        -1.0565   0.0027   2.0273 C.3            1 S1                 0.0000
      6 ****        -0.6229   1.2673   1.4086 N.am           1 S1                 0.0000
      7 ****         0.5817   1.5026   0.8296 C.2            1 S1                 0.0000
      8 ****         0.8223   2.5006   0.1492 O.2            1 S1                 0.0000
      9 ****         1.5088   0.5575   1.0584 N.am           1 S1                 0.0000
     10 ****         2.8624   0.5485   0.5121 C.3            1 S1                 0.0000
     11 ****         2.9098   0.2297  -0.9978 C.3            1 S1                 0.0000
     12 ****         2.0720  -0.9425  -1.4194 C.2            1 S1                 0.0000
     13 ****         0.7906  -0.8706  -1.8005 N.pl3          1 S1                 1.0000
     14 ****         0.3110  -2.1139  -2.1067 C.2            1 S1                 0.0000
     15 ****         1.3477  -2.9869  -1.9069 C.2            1 S1                 0.0000
     16 ****         2.4182  -2.2406  -1.4832 N.pl3          1 S1                 0.0000
     17 ****         3.7536  -2.7561  -1.1637 C.3            1 S1                 0.0000
     18 ****         4.6507  -2.2898  -2.0321 F              1 S1                 0.0000
     19 ****         4.0984  -2.4314   0.0812 F              1 S1                 0.0000
     20 ****        -1.7528   2.1913   1.2466 C.3            1 S1                 0.0000
     21 ****        -4.5096   2.6859   0.9213 H              1 S1                 0.0000
     22 ****        -4.6329   2.1094  -0.7392 H              1 S1                 0.0000
     23 ****        -3.6220   3.5003  -0.3637 H              1 S1                 0.0000
     24 ****        -2.2326   1.4816  -0.7220 H              1 S1                 0.0000
     25 ****        -3.8507   0.2931   1.5683 H              1 S1                 0.0000
     26 ****        -3.8108  -0.2837  -0.0790 H              1 S1                 0.0000
     27 ****        -2.3746  -1.6419   1.5044 H              1 S1                 0.0000
     28 ****        -1.4759  -0.9944   0.1534 H              1 S1                 0.0000
     29 ****        -1.5711   0.2207   2.9644 H              1 S1                 0.0000
     30 ****        -0.2375  -0.6629   2.2993 H              1 S1                 0.0000
     31 ****         1.2490  -0.2230   1.6442 H              1 S1                 0.0000
     32 ****         3.3579   1.4990   0.7151 H              1 S1                 0.0000
     33 ****         3.4200  -0.2071   1.0642 H              1 S1                 0.0000
     34 ****         2.5518   1.0837  -1.5741 H              1 S1                 0.0000
     35 ****         3.9336   0.0448  -1.3211 H              1 S1                 0.0000
     36 ****        -0.7043  -2.2788  -2.4370 H              1 S1                 0.0000
     37 ****         1.4016  -4.0584  -2.0338 H              1 S1                 0.0000
     38 ****         3.7500  -3.8442  -1.2360 H              1 S1                 0.0000
     39 ****        -1.4340   3.1838   0.9242 H              1 S1                 0.0000
     40 ****        -2.2385   2.3410   2.2122 H              1 S1                 0.0000
     41 ****         0.2546  -0.0132  -1.8518 H              1 S1                 0.0000
     42 ****         0.1111   3.1877   0.0005 LP             1 S1                 0.0000
     43 ****         1.7288   2.6238  -0.2546 LP             1 S1                 0.0000
@<TRIPOS>BOND
    1    1    2 1     
    2    1   21 1     
    3    1   22 1     
    4    1   23 1     
    5    2   20 1     
    6    2    3 1     
    7    2   24 1     
    8    3    4 1     
    9    3   25 1     
   10    3   26 1     
   11    4    5 1     
   12    4   27 1     
   13    4   28 1     
   14    5    6 1     
   15    5   29 1     
   16    5   30 1     
   17    6    7 am    
   18    6   20 1     
   19    7    8 2     
   20    7    9 am    
   21    9   10 1     
   22    9   31 1     
   23   10   11 1     
   24   10   32 1     
   25   10   33 1     
   26   11   12 1     
   27   11   34 1     
   28   11   35 1     
   29   12   16 1     
   30   12   13 2     
   31   13   14 1     
   32   13   41 1     
   33   14   15 2     
   34   14   36 1     
   35   15   16 1     
   36   15   37 1     
   37   16   17 1     
   38   17   18 1     
   39   17   19 1     
   40   17   38 1     
   41   20   39 1     
   42   20   40 1     
   43    8   42 1     
   44    8   43 1     
@<TRIPOS>SUBSTRUCTURE
      1 S1             1
@<TRIPOS>SET
LONE_PAIRS      STATIC     ATOMS    <user>   **** ""
2 42 43
DONOR_HYDROGENS      STATIC     ATOMS    <user>   **** ""
2 31 41
ATOM$BLUE        STATIC     ATOMS    COLORGROUP SYSTEM
2 42 43
ATOM$RED        STATIC     ATOMS    COLORGROUP SYSTEM
2 31 41
