AV-unprocessed.smi:1417|AV-procd|sdf|5772|dock1
  -GOLD-   22720 5413D 1   1.00000     0.00000
 Structure written by MMmdl.
 39 40  0  0  0  0  0  0  0  0  3 V2000
  153.5583  142.2667  160.2828 C   0  0  0  0  0  0  0  0  0  0  0  0
  152.6159  142.0399  159.1509 C   0  0  0  0  0  0  0  0  0  0  0  0
  151.7126  142.8454  158.5170 C   0  0  0  0  0  0  0  0  0  0  0  0
  151.1585  141.9844  157.5255 C   0  0  0  0  0  0  0  0  0  0  0  0
  150.1543  142.3253  156.5829 N   0  0  0  0  0  0  0  0  0  0  0  0
  149.5535  141.5320  155.6804 C   0  0  0  0  0  0  0  0  0  0  0  0
  149.7760  140.3315  155.5251 O   0  0  0  0  0  0  0  0  0  0  0  0
  148.6587  142.2168  154.9528 N   0  0  0  0  0  0  0  0  0  0  0  0
  147.8179  141.6544  153.8960 C   0  0  2  0  0  0  0  0  0  0  0  0
  146.6765  142.6106  153.4956 C   0  0  0  0  0  0  0  0  0  0  0  0
  145.6087  142.7265  154.5970 C   0  0  0  0  0  0  0  0  0  0  0  0
  145.0693  141.3891  154.9606 N   0  3  2  0  0  0  0  0  0  0  0  0
  143.9330  141.4535  155.9148 C   0  0  0  0  0  0  0  0  0  0  0  0
  143.2890  140.0728  156.0789 C   0  0  0  0  0  0  0  0  0  0  0  0
  142.8188  139.5840  154.9135 N   0  5  0  0  0  0  0  0  0  0  0  0
  143.2484  139.5492  157.1897 O   0  0  0  0  0  0  0  0  0  0  0  0
  146.1419  140.4693  155.4164 C   0  0  0  0  0  0  0  0  0  0  0  0
  147.2297  140.3035  154.3390 C   0  0  0  0  0  0  0  0  0  0  0  0
  151.6720  140.7688  157.5622 N   0  0  0  0  0  0  0  0  0  0  0  0
  152.6113  140.7966  158.5995 O   0  0  0  0  0  0  0  0  0  0  0  0
  153.4489  143.2741  160.6851 H   0  0  0  0  0  0  0  0  0  0  0  0
  154.5909  142.1436  159.9561 H   0  0  0  0  0  0  0  0  0  0  0  0
  153.3712  141.5584  161.0899 H   0  0  0  0  0  0  0  0  0  0  0  0
  151.4969  143.8792  158.7405 H   0  0  0  0  0  0  0  0  0  0  0  0
  149.8508  143.2876  156.6083 H   0  0  0  0  0  0  0  0  0  0  0  0
  148.5382  143.1984  155.1555 H   0  0  0  0  0  0  0  0  0  0  0  0
  148.4509  141.4779  153.0244 H   0  0  0  0  0  0  0  0  0  0  0  0
  147.0671  143.5982  153.2482 H   0  0  0  0  0  0  0  0  0  0  0  0
  146.2048  142.2397  152.5846 H   0  0  0  0  0  0  0  0  0  0  0  0
  146.0285  143.2056  155.4828 H   0  0  0  0  0  0  0  0  0  0  0  0
  144.8052  143.3728  154.2431 H   0  0  0  0  0  0  0  0  0  0  0  0
  144.2764  141.7847  156.8966 H   0  0  0  0  0  0  0  0  0  0  0  0
  143.1955  142.1853  155.5810 H   0  0  0  0  0  0  0  0  0  0  0  0
  143.3386  139.7704  154.0476 H   0  0  0  0  0  0  0  0  0  0  0  0
  146.5761  140.8456  156.3439 H   0  0  0  0  0  0  0  0  0  0  0  0
  145.7143  139.4916  155.6419 H   0  0  0  0  0  0  0  0  0  0  0  0
  146.7949  139.8031  153.4725 H   0  0  0  0  0  0  0  0  0  0  0  0
  148.0207  139.6457  154.7019 H   0  0  0  0  0  0  0  0  0  0  0  0
  144.6867  140.9864  154.1162 H   0  0  0  0  0  0  0  0  0  0  0  0
  1  2  1  0  0  0  0
  1 21  1  0  0  0  0
  1 22  1  0  0  0  0
  1 23  1  0  0  0  0
  2 20  1  0  0  0  0
  2  3  2  0  0  0  0
  3  4  1  0  0  0  0
  3 24  1  0  0  0  0
  4  5  1  0  0  0  0
  4 19  2  0  0  0  0
  5  6  1  0  0  0  0
  5 25  1  0  0  0  0
  6  7  2  0  0  0  0
  6  8  1  0  0  0  0
  8  9  1  0  0  0  0
  8 26  1  0  0  0  0
  9 18  1  0  0  0  0
  9 10  1  0  0  0  0
  9 27  1  0  0  0  0
 10 11  1  0  0  0  0
 10 28  1  0  0  0  0
 10 29  1  0  0  0  0
 11 12  1  0  0  0  0
 11 30  1  0  0  0  0
 11 31  1  0  0  0  0
 12 13  1  0  0  0  0
 12 17  1  0  0  0  0
 12 39  1  0  0  0  0
 13 14  1  0  0  0  0
 13 32  1  0  0  0  0
 13 33  1  0  0  0  0
 14 15  1  0  0  0  0
 14 16  2  0  0  0  0
 15 34  1  0  0  0  0
 17 18  1  0  0  0  0
 17 35  1  0  0  0  0
 17 36  1  0  0  0  0
 18 37  1  0  0  0  0
 18 38  1  0  0  0  0
 19 20  1  0  0  0  0
M  CHG  1  12   1
M  CHG  1  15  -1
M  END
> <s_m_source_file>
AV-unprocessed.smi

> <i_m_source_file_index>
1417

> <i_lp_mmshare_version>
43012

> <i_f3d_flags>
0

> <s_epik_input>
W0NIM11jMVtjSF1jKG5vMSlbTkhdQyg9TylbTkhdW0NIXTJbQ0gyXVtDSDJdTihbQ0gyXVtDSDJdMilbQ0gyXUMoPU8pW05IMl0=

> <s_epik_cmdline>
J2VwaWtfcHl0aG9uJywgJy1waCcsICc3LjAnLCAnLXRuJywgJzgnLCAnLW1hJywgJzIwMCcsICctbWV0YWxfYmluZGluZycsICctaW1hZScsICc8aW5maWxlLm1hZT4nLCAnLW9tYWUnLCAnPG91dGZpbGUubWFlPic=

> <r_epik_Ionization_Penalty>
5.73218

> <r_epik_Ionization_Penalty_Charging>
5.73215

> <r_epik_Ionization_Penalty_Neutral>
3.37968e-05

> <r_epik_State_Penalty>
6.58009

> <r_epik_Charging_Adjusted_Penalty>
12.3122

> <i_epik_Tot_Q>
0

> <i_epik_Tot_abs_Q>
2

> <r_epik_Metal_State_Penalty>
2.55295

> <b_epik_Metal_Only>
1

> <s_lp_Force_Field>
OPLS_2005

> <r_lp_Energy>
7.04924

> <b_lp_Chiralities_Consistent>
1

> <s_lp_Variant>
AV-unprocessed.smi:1417-8

> <Gold.Version>
5.8.1

> <Gold.Id.Protein>
6NUR|6NUR_protein|mol2

> <Gold.PLP.Fitness>
44.2976

> <Gold.PLP.PLP>
-29.8536

> <Gold.PLP.part.hbond>
-4.0000

> <Gold.PLP.part.metal>
0.0000

> <Gold.PLP.part.buried>
-6.4706

> <Gold.PLP.part.nonpolar>
-20.0837

> <Gold.PLP.part.repulsive>
0.3208

> <Gold.PLP.ligand.clash>
0.0000

> <Gold.PLP.ligand.torsion>
0.2084

> <Gold.PLP.Chemscore.Hbond>
4.9440

> <Gold.PLP.Chemscore.CHOScore>
0.0000

> <Gold.PLP.Chemscore.Metal>
0.0000

> <Gold.Chemscore.Hbonds>
donor molecule, donor type, donor heavy atom, donor atom, acceptor molecule, acceptor atom, score
      L1  H     5    25       P1  8028  0.93
      L1  H     8    26       P1  8028  1.00
      L1  H    12    39       P1 10175  2.00
      L1  H    15    34       P1 10175  1.00

> <Gold.PLP.Chemscore.Internal.Correction>
0.0288

> <Gold.Rescore>
     Score         DG    S(hbond)    S(metal)    S(lipo)     H(rot)  DE(clash)    DE(int)     intcor
     16.62     -20.79       3.91        0.00      63.24       2.02       1.28       2.89       ----

> <Gold.Chemscore.Fitness>
16.6182

> <Gold.Chemscore.DG>
-20.7898

> <Gold.Chemscore.ZeroCoef>
-5.4800

> <Gold.Chemscore.Hbond>
3.9150

> <Gold.Chemscore.Metal>
0.0000

> <Gold.Chemscore.Lipo>
63.2379

> <Gold.Chemscore.Internal_Hbond>
0.0000

> <Gold.Chemscore.DEClash>
1.2836

> <Gold.Chemscore.DEInternal>
2.8881

> <Gold.Chemscore.Rot>
2.0176

> <Gold.Chemscore.Internal.Correction>
   9.000000E+99

> <Gold.Chemscore.Hbonds>
donor molecule, donor type, donor heavy atom, donor atom, acceptor molecule, acceptor atom, score
      L1  H     5    25       P1  8028  0.89
      L1  H     8    26       P1  8028  0.99
      L1  H    12    39       P1 10175  0.87
      L1  H    15    34       P1 10175  0.99

> <Gold.Chemscore.Hbond.Weighted>
-13.0761

> <Gold.Chemscore.Metal.Weighted>
-0.0000

> <Gold.Chemscore.Lipo.Weighted>
-7.3988

> <Gold.Chemscore.Internal_Hbond.Weighted>
0.0000

> <Gold.Chemscore.DEClash.Weighted>
1.2836

> <Gold.Chemscore.DEInternal.Weighted>
2.8881

> <Gold.Chemscore.Rot.Weighted>
5.1651

> <Gold.Chemscore.Internal.Correction.Weighted>
   9.000000E+99

> <Gold.Protein.RotatedTorsions>
[ 6907 6896 6895 6894 ] final  -28.71 input  -60.11 | X-H torsion
[ 7974 7965 7964 7962 ] final  -19.62 input  175.53 | X-H torsion
[ 8008 7997 7996 7995 ] final   19.12 input   59.86 | X-H torsion
[ 10167 10162 10161 10158 ] final  -72.15 input  -65.29 | X-H torsion
[ 10718 10713 10712 10709 ] final   73.32 input   66.30 | X-H torsion
[ 10763 10752 10751 10750 ] final    6.10 input  -60.55 | X-H torsion
[ 11005 11000 10999 10996 ] final   93.87 input  -57.11 | X-H torsion

> <Gold.Protein.ActiveResidues>
 VAL166  LYS551  ARG553  GLY616  TRP617  ASP618  TYR619  PRO620  LYS621  CYS622 
 ASP623  PHE694  ASN695  SER759  ASP760  ASP761  ALA762  ILE779  LEU786  VAL792 
 PHE793  MET794  SER795  GLU796  ALA797  LYS798  CYS799  TRP800  GLU811  SER814 

> <Gold.Protein.RotatedAtoms>
  151.1292  135.0121  159.8574 H   0  0  0  0  0  0  0  0  0  0  0  0  # atno 6907 bound_to 6896
  152.5450  134.1631  159.8576 H   0  0  0  0  0  0  0  0  0  0  0  0  # atno 6908 bound_to 6896
  151.1696  133.4748  159.2627 H   0  0  0  0  0  0  0  0  0  0  0  0  # atno 6909 bound_to 6896
  146.1831  140.4088  142.8486 H   0  0  0  0  0  0  0  0  0  0  0  0  # atno 7974 bound_to 7965
  154.9161  140.3021  155.5240 H   0  0  0  0  0  0  0  0  0  0  0  0  # atno 8008 bound_to 7997
  156.3012  140.2380  156.4142 H   0  0  0  0  0  0  0  0  0  0  0  0  # atno 8009 bound_to 7997
  154.8377  140.0415  157.1509 H   0  0  0  0  0  0  0  0  0  0  0  0  # atno 8010 bound_to 7997
  140.5215  143.2331  151.7421 H   0  0  0  0  0  0  0  0  0  0  0  0  # atno 10167 bound_to 10162
  157.6542  130.9623  150.1053 H   0  0  0  0  0  0  0  0  0  0  0  0  # atno 10718 bound_to 10713
  153.2517  135.6914  153.7672 H   0  0  0  0  0  0  0  0  0  0  0  0  # atno 10763 bound_to 10752
  153.6765  135.3335  155.3168 H   0  0  0  0  0  0  0  0  0  0  0  0  # atno 10764 bound_to 10752
  154.8396  135.4512  154.1476 H   0  0  0  0  0  0  0  0  0  0  0  0  # atno 10765 bound_to 10752
  139.8805  134.8814  156.3781 H   0  0  0  0  0  0  0  0  0  0  0  0  # atno 11005 bound_to 11000
  144.8350  140.6768  143.6266 LP  0  0  0  0  0  0  0  0  0  0  0  0  # atno 17320 bound_to 7965
  145.4017  139.1596  143.4174 LP  0  0  0  0  0  0  0  0  0  0  0  0  # atno 17321 bound_to 7965
  139.4925  144.4247  151.9939 LP  0  0  0  0  0  0  0  0  0  0  0  0  # atno 17342 bound_to 10162
  140.3344  144.3278  150.5980 LP  0  0  0  0  0  0  0  0  0  0  0  0  # atno 17343 bound_to 10162
  156.1964  130.3657  149.8843 LP  0  0  0  0  0  0  0  0  0  0  0  0  # atno 17370 bound_to 10713
  156.6758  130.8838  151.3569 LP  0  0  0  0  0  0  0  0  0  0  0  0  # atno 17371 bound_to 10713
  140.9418  133.7510  156.0156 LP  0  0  0  0  0  0  0  0  0  0  0  0  # atno 17394 bound_to 11000
  140.8211  134.3288  157.5381 LP  0  0  0  0  0  0  0  0  0  0  0  0  # atno 17395 bound_to 11000

$$$$
