#       Name:                AV-unprocessed.smi:270
#       Creating user name   scv26
#       Creation time:       Thu Mar 26 21:26:57 2020


#       File generated by GOLD software.
#

@<TRIPOS>MOLECULE
AV-unprocessed.smi:270
    66    69     1
SMALL
NO_CHARGES


@<TRIPOS>ATOM
      1 ****        -6.5931  -2.2393  -1.0898 C.3            1 S1                 0.0000
      2 ****        -5.7728  -2.6932   0.1278 C.3            1 S1                 0.0000
      3 ****        -6.4314  -2.2082   1.2953 O.3            1 S1                 0.0000
      4 ****        -5.4623  -1.9500   2.2958 C.3            1 S1                 0.0000
      5 ****        -4.3233  -1.3362   1.4967 C.3            1 S1                 0.0000
      6 ****        -4.3099  -2.1731   0.2205 C.3            1 S1                 0.0000
      7 ****        -3.4704  -3.2938   0.4466 O.3            1 S1                 0.0000
      8 ****        -3.7668  -1.4115  -1.0175 C.3            1 S1                 0.0000
      9 ****        -2.4228  -0.8854  -0.8293 N.pl3          1 S1                 0.0000
     10 ****        -1.2388  -1.5599  -1.0225 C.2            1 S1                 0.0000
     11 ****        -0.1589  -0.8668  -0.7865 N.2            1 S1                 0.0000
     12 ****        -0.6301   0.3839  -0.4034 C.ar           1 S1                 0.0000
     13 ****         0.0048   1.5986  -0.0103 C.ar           1 S1                 0.0000
     14 ****         1.4162   1.7823   0.0594 N.3            1 S1                 0.0000
     15 ****         2.1833   0.6886   0.6375 C.3            1 S1                 0.0000
     16 ****         2.9994   1.7558   1.3741 C.3            1 S1                 0.0000
     17 ****         4.2420   2.0579   0.7588 O.3            1 S1                 0.0000
     18 ****         5.2574   1.1198   1.0766 C.3            1 S1                 0.0000
     19 ****         6.5316   1.4936   0.3104 C.2            1 S1                 0.0000
     20 ****         7.4578   2.0095   0.9374 O.2            1 S1                 0.0000
     21 ****         6.6027   1.2412  -1.0178 N.am           1 S1                 0.0000
     22 ****         5.4957   0.6632  -1.7854 C.3            1 S1                 0.0000
     23 ****         7.8123   1.5650  -1.7788 C.3            1 S1                 0.0000
     24 ****         1.9173   2.7720   1.0058 C.3            1 S1                 0.0000
     25 ****        -0.8195   2.6456   0.2633 N.ar           1 S1                 0.0000
     26 ****        -2.1474   2.5184   0.1915 C.ar           1 S1                 0.0000
     27 ****        -2.8641   1.4452  -0.1414 N.ar           1 S1                 0.0000
     28 ****        -2.0545   0.3900  -0.4372 C.ar           1 S1                 0.0000
     29 ****        -6.1481  -2.5857  -2.0227 H              1 S1                 0.0000
     30 ****        -6.6780  -1.1533  -1.1332 H              1 S1                 0.0000
     31 ****        -7.6046  -2.6430  -1.0423 H              1 S1                 0.0000
     32 ****        -5.7921  -3.7841   0.1668 H              1 S1                 0.0000
     33 ****        -5.8464  -1.2820   3.0669 H              1 S1                 0.0000
     34 ****        -5.1563  -2.8858   2.7661 H              1 S1                 0.0000
     35 ****        -4.5796  -0.3020   1.2645 H              1 S1                 0.0000
     36 ****        -3.3734  -1.3312   2.0333 H              1 S1                 0.0000
     37 ****        -3.5462  -3.8782  -0.2921 H              1 S1                 0.0000
     38 ****        -3.7568  -2.0625  -1.8927 H              1 S1                 0.0000
     39 ****        -4.4171  -0.5725  -1.2657 H              1 S1                 0.0000
     40 ****        -1.2013  -2.5911  -1.3423 H              1 S1                 0.0000
     41 ****         1.6015   0.0585   1.3120 H              1 S1                 0.0000
     42 ****         2.7393   0.1117  -0.1018 H              1 S1                 0.0000
     43 ****         3.0727   1.5929   2.4507 H              1 S1                 0.0000
     44 ****         5.4576   1.1446   2.1492 H              1 S1                 0.0000
     45 ****         4.9544   0.1009   0.8334 H              1 S1                 0.0000
     46 ****         5.3030  -0.3625  -1.4692 H              1 S1                 0.0000
     47 ****         5.6995   0.6400  -2.8563 H              1 S1                 0.0000
     48 ****         4.5803   1.2413  -1.6556 H              1 S1                 0.0000
     49 ****         7.8503   2.6352  -1.9858 H              1 S1                 0.0000
     50 ****         7.8561   1.0375  -2.7320 H              1 S1                 0.0000
     51 ****         8.7155   1.2930  -1.2301 H              1 S1                 0.0000
     52 ****         2.2902   3.6804   0.5321 H              1 S1                 0.0000
     53 ****         1.2394   2.9789   1.8353 H              1 S1                 0.0000
     54 ****        -2.7159   3.4042   0.4336 H              1 S1                 0.0000
     55 ****        -7.0792  -2.8950   1.6249 LP             1 S1                 0.0000
     56 ****        -6.9221  -1.3644   1.0777 LP             1 S1                 0.0000
     57 ****        -3.7550  -3.7658   1.2810 LP             1 S1                 0.0000
     58 ****        -2.5220  -2.9913   0.5417 LP             1 S1                 0.0000
     59 ****         0.7919  -1.1670  -0.8636 LP             1 S1                 0.0000
     60 ****         1.5332   1.9791  -0.9141 LP             1 S1                 0.0000
     61 ****         4.5373   2.9634   1.0636 LP             1 S1                 0.0000
     62 ****         4.1136   2.0656  -0.2329 LP             1 S1                 0.0000
     63 ****         7.3663   2.1739   1.9195 LP             1 S1                 0.0000
     64 ****         8.3013   2.2640   0.4643 LP             1 S1                 0.0000
     65 ****        -0.4241   3.5267   0.5230 LP             1 S1                 0.0000
     66 ****        -3.8633   1.4181  -0.1702 LP             1 S1                 0.0000
@<TRIPOS>BOND
    1    1    2 1     
    2    1   29 1     
    3    1   30 1     
    4    1   31 1     
    5    2    6 1     
    6    2    3 1     
    7    2   32 1     
    8    3    4 1     
    9    4    5 1     
   10    4   33 1     
   11    4   34 1     
   12    5    6 1     
   13    5   35 1     
   14    5   36 1     
   15    6    7 1     
   16    6    8 1     
   17    7   37 1     
   18    8    9 1     
   19    8   38 1     
   20    8   39 1     
   21    9   28 1     
   22    9   10 1     
   23   10   11 2     
   24   10   40 1     
   25   11   12 1     
   26   12   28 ar    
   27   12   13 ar    
   28   13   14 1     
   29   13   25 ar    
   30   14   24 1     
   31   14   15 1     
   32   15   16 1     
   33   15   41 1     
   34   15   42 1     
   35   16   17 1     
   36   16   24 1     
   37   16   43 1     
   38   17   18 1     
   39   18   19 1     
   40   18   44 1     
   41   18   45 1     
   42   19   20 2     
   43   19   21 am    
   44   21   22 1     
   45   21   23 1     
   46   22   46 1     
   47   22   47 1     
   48   22   48 1     
   49   23   49 1     
   50   23   50 1     
   51   23   51 1     
   52   24   52 1     
   53   24   53 1     
   54   25   26 ar    
   55   26   27 ar    
   56   26   54 1     
   57   27   28 ar    
   58    3   55 1     
   59    3   56 1     
   60    7   57 1     
   61    7   58 1     
   62   11   59 1     
   63   14   60 1     
   64   17   61 1     
   65   17   62 1     
   66   20   63 1     
   67   20   64 1     
   68   25   65 1     
   69   27   66 1     
@<TRIPOS>SUBSTRUCTURE
      1 S1             1
@<TRIPOS>SET
LONE_PAIRS      STATIC     ATOMS    <user>   **** ""
12 55 56 57 58 59 60 61 62 63 64 65 66
DONOR_HYDROGENS      STATIC     ATOMS    <user>   **** ""
1 37
ATOM$BLUE        STATIC     ATOMS    COLORGROUP SYSTEM
12 55 56 57 58 59 60 61 62 63 64 65 66
ATOM$RED        STATIC     ATOMS    COLORGROUP SYSTEM
1 37
