AV-unprocessed.smi:1669|AV-procd|sdf|6685|dock1
  -GOLD-   22720 7403D 1   1.00000     0.00000
 Structure written by MMmdl.
 48 50  0  0  0  0  0  0  0  0  2 V2000
  146.4653  137.2895  154.4106 C   0  0  0  0  0  0  0  0  0  0  0  0
  147.1548  137.9457  153.2762 N   0  3  1  0  0  0  0  0  0  0  0  0
  146.2709  138.0802  152.0918 C   0  0  0  0  0  0  0  0  0  0  0  0
  145.4804  136.8095  151.8297 C   0  0  0  0  0  0  0  0  0  0  0  0
  145.9626  135.8587  150.9055 C   0  0  0  0  0  0  0  0  0  0  0  0
  145.2266  134.6862  150.6463 C   0  0  0  0  0  0  0  0  0  0  0  0
  144.0079  134.4576  151.3135 C   0  0  0  0  0  0  0  0  0  0  0  0
  143.5260  135.4011  152.2410 C   0  0  0  0  0  0  0  0  0  0  0  0
  144.2607  136.5746  152.4998 C   0  0  0  0  0  0  0  0  0  0  0  0
  147.8267  139.2127  153.6687 C   0  0  0  0  0  0  0  0  0  0  0  0
  149.1644  138.9512  154.3843 C   0  0  1  0  0  0  0  0  0  0  0  0
  149.8089  137.8645  153.7470 O   0  0  0  0  0  0  0  0  0  0  0  0
  150.0838  140.1876  154.3493 C   0  0  0  0  0  0  0  0  0  0  0  0
  150.9969  140.2348  155.4839 N   0  0  0  0  0  0  0  0  0  0  0  0
  152.1070  139.4867  155.7104 C   0  0  0  0  0  0  0  0  0  0  0  0
  152.5798  138.4403  154.7482 C   0  0  0  0  0  0  0  0  0  0  0  0
  151.9171  137.2062  154.9196 O   0  0  0  0  0  0  0  0  0  0  0  0
  152.7548  139.7416  156.8475 N   0  0  0  0  0  0  0  0  0  0  0  0
  151.9997  140.7522  157.4095 C   0  0  0  0  0  0  0  0  0  0  0  0
  152.1642  141.4561  158.6237 C   0  0  0  0  0  0  0  0  0  0  0  0
  151.2502  142.4646  158.9931 C   0  0  0  0  0  0  0  0  0  0  0  0
  150.1610  142.7827  158.1563 C   0  0  0  0  0  0  0  0  0  0  0  0
  149.9779  142.0927  156.9427 C   0  0  0  0  0  0  0  0  0  0  0  0
  150.8928  141.0865  156.5790 C   0  0  0  0  0  0  0  0  0  0  0  0
  145.6247  137.8920  154.7572 H   0  0  0  0  0  0  0  0  0  0  0  0
  147.1431  137.1352  155.2499 H   0  0  0  0  0  0  0  0  0  0  0  0
  146.0841  136.3114  154.1155 H   0  0  0  0  0  0  0  0  0  0  0  0
  145.5523  138.8848  152.2553 H   0  0  0  0  0  0  0  0  0  0  0  0
  146.8584  138.3596  151.2158 H   0  0  0  0  0  0  0  0  0  0  0  0
  146.8955  136.0287  150.3879 H   0  0  0  0  0  0  0  0  0  0  0  0
  145.5966  133.9625  149.9350 H   0  0  0  0  0  0  0  0  0  0  0  0
  143.4433  133.5585  151.1149 H   0  0  0  0  0  0  0  0  0  0  0  0
  142.5916  135.2248  152.7532 H   0  0  0  0  0  0  0  0  0  0  0  0
  143.8819  137.2942  153.2106 H   0  0  0  0  0  0  0  0  0  0  0  0
  148.0223  139.8370  152.7968 H   0  0  0  0  0  0  0  0  0  0  0  0
  147.1579  139.7959  154.3037 H   0  0  0  0  0  0  0  0  0  0  0  0
  148.9856  138.6743  155.4235 H   0  0  0  0  0  0  0  0  0  0  0  0
  149.3448  137.6674  152.9468 H   0  0  0  0  0  0  0  0  0  0  0  0
  150.6508  140.2177  153.4190 H   0  0  0  0  0  0  0  0  0  0  0  0
  149.4828  141.0977  154.3632 H   0  0  0  0  0  0  0  0  0  0  0  0
  152.4101  138.7863  153.7279 H   0  0  0  0  0  0  0  0  0  0  0  0
  153.6550  138.2955  154.8526 H   0  0  0  0  0  0  0  0  0  0  0  0
  150.9891  137.3461  154.8120 H   0  0  0  0  0  0  0  0  0  0  0  0
  152.9955  141.2201  159.2716 H   0  0  0  0  0  0  0  0  0  0  0  0
  151.3859  142.9969  159.9232 H   0  0  0  0  0  0  0  0  0  0  0  0
  149.4661  143.5569  158.4471 H   0  0  0  0  0  0  0  0  0  0  0  0
  149.1446  142.3347  156.3001 H   0  0  0  0  0  0  0  0  0  0  0  0
  147.8932  137.3189  152.9881 H   0  0  0  0  0  0  0  0  0  0  0  0
  1  2  1  0  0  0  0
  1 25  1  0  0  0  0
  1 26  1  0  0  0  0
  1 27  1  0  0  0  0
  2  3  1  0  0  0  0
  2 10  1  0  0  0  0
  2 48  1  0  0  0  0
  3  4  1  0  0  0  0
  3 28  1  0  0  0  0
  3 29  1  0  0  0  0
  4  9  1  0  0  0  0
  4  5  2  0  0  0  0
  5  6  1  0  0  0  0
  5 30  1  0  0  0  0
  6  7  2  0  0  0  0
  6 31  1  0  0  0  0
  7  8  1  0  0  0  0
  7 32  1  0  0  0  0
  8  9  2  0  0  0  0
  8 33  1  0  0  0  0
  9 34  1  0  0  0  0
 10 11  1  0  0  0  0
 10 35  1  0  0  0  0
 10 36  1  0  0  0  0
 11 12  1  0  0  0  0
 11 13  1  0  0  0  0
 11 37  1  0  0  0  0
 12 38  1  0  0  0  0
 13 14  1  0  0  0  0
 13 39  1  0  0  0  0
 13 40  1  0  0  0  0
 14 24  1  0  0  0  0
 14 15  1  0  0  0  0
 15 16  1  0  0  0  0
 15 18  2  0  0  0  0
 16 17  1  0  0  0  0
 16 41  1  0  0  0  0
 16 42  1  0  0  0  0
 17 43  1  0  0  0  0
 18 19  1  0  0  0  0
 19 24  2  0  0  0  0
 19 20  1  0  0  0  0
 20 21  2  0  0  0  0
 20 44  1  0  0  0  0
 21 22  1  0  0  0  0
 21 45  1  0  0  0  0
 22 23  2  0  0  0  0
 22 46  1  0  0  0  0
 23 24  1  0  0  0  0
 23 47  1  0  0  0  0
M  CHG  1   2   1
M  END
> <s_m_source_file>
AV-unprocessed.smi

> <i_m_source_file_index>
1669

> <i_lp_mmshare_version>
43012

> <i_f3d_flags>
0

> <s_epik_input>
W2NIXTFbY0hdW2NIXVtjSF1bY0hdYzFbQ0gyXU4oW0NIM10pW0NIMl1bQ0BIXShbT0hdKVtDSDJdbihjKG4yKVtDSDJdW09IXSljKGMyMylbY0hdW2NIXVtjSF1bY0hdMw==

> <s_epik_cmdline>
J2VwaWtfcHl0aG9uJywgJy1waCcsICc3LjAnLCAnLXRuJywgJzgnLCAnLW1hJywgJzIwMCcsICctbWV0YWxfYmluZGluZycsICctaW1hZScsICc8aW5maWxlLm1hZT4nLCAnLW9tYWUnLCAnPG91dGZpbGUubWFlPic=

> <r_epik_Ionization_Penalty>
0.0949884

> <r_epik_Ionization_Penalty_Charging>
0.0475377

> <r_epik_Ionization_Penalty_Neutral>
0.0474507

> <r_epik_State_Penalty>
0.078247

> <r_epik_Charging_Adjusted_Penalty>
0.125785

> <i_epik_Tot_Q>
1

> <i_epik_Tot_abs_Q>
1

> <r_epik_Metal_State_Penalty>
0.0403451

> <b_epik_Metal_Only>
0

> <s_lp_Force_Field>
OPLS_2005

> <r_lp_Energy>
15.7652

> <b_lp_Chiralities_Consistent>
1

> <s_lp_Variant>
AV-unprocessed.smi:1669-3

> <Gold.Version>
5.8.1

> <Gold.Id.Protein>
6NUR|6NUR_protein|mol2

> <Gold.PLP.Fitness>
56.8081

> <Gold.PLP.PLP>
-45.6917

> <Gold.PLP.part.hbond>
-4.3405

> <Gold.PLP.part.metal>
0.0000

> <Gold.PLP.part.buried>
-2.2534

> <Gold.PLP.part.nonpolar>
-39.5147

> <Gold.PLP.part.repulsive>
0.0164

> <Gold.PLP.ligand.clash>
0.0000

> <Gold.PLP.ligand.torsion>
1.7001

> <Gold.PLP.Chemscore.Hbond>
4.6320

> <Gold.PLP.Chemscore.CHOScore>
0.0000

> <Gold.PLP.Chemscore.Metal>
0.0000

> <Gold.Chemscore.Hbonds>
donor molecule, donor type, donor heavy atom, donor atom, acceptor molecule, acceptor atom, score
      L1  H     2    48       P1  7948  2.00
      L1  H    12    38       P1  7948  0.80
      P1  H  7997  8010       L1    18  1.00
      P1  H 10752 10763       L1    17  0.82

> <Gold.PLP.Chemscore.Internal.Correction>
0.6205

> <Gold.Rescore>
     Score         DG    S(hbond)    S(metal)    S(lipo)     H(rot)  DE(clash)    DE(int)     intcor
     19.08     -20.91       3.52        0.00     100.69       3.17       0.12       1.71       ----

> <Gold.Chemscore.Fitness>
19.0796

> <Gold.Chemscore.DG>
-20.9078

> <Gold.Chemscore.ZeroCoef>
-5.4800

> <Gold.Chemscore.Hbond>
3.5240

> <Gold.Chemscore.Metal>
0.0000

> <Gold.Chemscore.Lipo>
100.6912

> <Gold.Chemscore.Internal_Hbond>
0.0000

> <Gold.Chemscore.DEClash>
0.1171

> <Gold.Chemscore.DEInternal>
1.7111

> <Gold.Chemscore.Rot>
3.1731

> <Gold.Chemscore.Internal.Correction>
   9.000000E+99

> <Gold.Chemscore.Hbonds>
donor molecule, donor type, donor heavy atom, donor atom, acceptor molecule, acceptor atom, score
      L1  H     2    48       P1  7948  0.99
      L1  H    12    38       P1  7948  0.75
      P1  H  7997  8010       L1    18  0.85
      P1  H 10752 10763       L1    17  0.65

> <Gold.Chemscore.Hbond.Weighted>
-11.7700

> <Gold.Chemscore.Metal.Weighted>
-0.0000

> <Gold.Chemscore.Lipo.Weighted>
-11.7809

> <Gold.Chemscore.Internal_Hbond.Weighted>
0.0000

> <Gold.Chemscore.DEClash.Weighted>
0.1171

> <Gold.Chemscore.DEInternal.Weighted>
1.7111

> <Gold.Chemscore.Rot.Weighted>
8.1230

> <Gold.Chemscore.Internal.Correction.Weighted>
   9.000000E+99

> <Gold.Protein.RotatedTorsions>
[ 6907 6896 6895 6894 ] final  174.39 input  -60.11 | X-H torsion
[ 7974 7965 7964 7962 ] final   10.04 input  175.53 | X-H torsion
[ 8008 7997 7996 7995 ] final   53.82 input   59.86 | X-H torsion
[ 10167 10162 10161 10158 ] final  -21.58 input  -65.29 | X-H torsion
[ 10718 10713 10712 10709 ] final  -48.90 input   66.30 | X-H torsion
[ 10763 10752 10751 10750 ] final   36.77 input  -60.55 | X-H torsion
[ 11005 11000 10999 10996 ] final  143.83 input  -57.11 | X-H torsion

> <Gold.Protein.ActiveResidues>
 VAL166  LYS551  ARG553  GLY616  TRP617  ASP618  TYR619  PRO620  LYS621  CYS622 
 ASP623  PHE694  ASN695  SER759  ASP760  ASP761  ALA762  ILE779  LEU786  VAL792 
 PHE793  MET794  SER795  GLU796  ALA797  LYS798  CYS799  TRP800  GLU811  SER814 

> <Gold.Protein.RotatedAtoms>
  151.7530  133.3328  159.3396 H   0  0  0  0  0  0  0  0  0  0  0  0  # atno 6907 bound_to 6896
  150.7527  134.6175  159.6128 H   0  0  0  0  0  0  0  0  0  0  0  0  # atno 6908 bound_to 6896
  152.3456  134.7078  160.0303 H   0  0  0  0  0  0  0  0  0  0  0  0  # atno 6909 bound_to 6896
  146.2394  139.9693  142.8449 H   0  0  0  0  0  0  0  0  0  0  0  0  # atno 7974 bound_to 7965
  155.4745  140.3466  155.4330 H   0  0  0  0  0  0  0  0  0  0  0  0  # atno 8008 bound_to 7997
  156.1079  140.1453  156.9408 H   0  0  0  0  0  0  0  0  0  0  0  0  # atno 8009 bound_to 7997
  154.4736  140.0892  156.7186 H   0  0  0  0  0  0  0  0  0  0  0  0  # atno 8010 bound_to 7997
  140.7282  143.4615  151.0373 H   0  0  0  0  0  0  0  0  0  0  0  0  # atno 10167 bound_to 10162
  156.1944  130.4154  149.9326 H   0  0  0  0  0  0  0  0  0  0  0  0  # atno 10718 bound_to 10713
  153.0063  135.6296  154.2038 H   0  0  0  0  0  0  0  0  0  0  0  0  # atno 10763 bound_to 10752
  154.1782  135.2815  155.3062 H   0  0  0  0  0  0  0  0  0  0  0  0  # atno 10764 bound_to 10752
  154.5856  135.5634  153.7287 H   0  0  0  0  0  0  0  0  0  0  0  0  # atno 10765 bound_to 10752
  140.0585  134.9218  157.1142 H   0  0  0  0  0  0  0  0  0  0  0  0  # atno 11005 bound_to 11000
  145.1696  140.9714  143.4329 LP  0  0  0  0  0  0  0  0  0  0  0  0  # atno 17320 bound_to 7965
  145.0040  139.3571  143.6153 LP  0  0  0  0  0  0  0  0  0  0  0  0  # atno 17321 bound_to 7965
  139.8300  143.7704  152.3179 LP  0  0  0  0  0  0  0  0  0  0  0  0  # atno 17342 bound_to 10162
  139.7816  144.7442  151.0080 LP  0  0  0  0  0  0  0  0  0  0  0  0  # atno 17343 bound_to 10162
  156.7056  130.8950  151.3604 LP  0  0  0  0  0  0  0  0  0  0  0  0  # atno 17370 bound_to 10713
  157.6949  130.9271  150.0616 LP  0  0  0  0  0  0  0  0  0  0  0  0  # atno 17371 bound_to 10713
  140.3807  134.2290  155.7171 LP  0  0  0  0  0  0  0  0  0  0  0  0  # atno 17394 bound_to 11000
  141.1962  133.8087  157.0680 LP  0  0  0  0  0  0  0  0  0  0  0  0  # atno 17395 bound_to 11000

$$$$
