AV-unprocessed.smi:1794|AV-procd|sdf|7234|dock6
  -GOLD-   22720 8483D 1   1.00000     0.00000
 Structure written by MMmdl.
 55 57  0  0  0  0  0  0  0  0  2 V2000
  147.7388  135.7609  156.2462 C   0  0  0  0  0  0  0  0  0  0  0  0
  149.2790  135.8636  156.1374 C   0  0  0  0  0  0  0  0  0  0  0  0
  149.8279  136.0398  157.5772 C   0  0  0  0  0  0  0  0  0  0  0  0
  149.8031  134.4854  155.6351 C   0  0  0  0  0  0  0  0  0  0  0  0
  148.9332  133.9024  154.6141 N   0  0  0  0  0  0  0  0  0  0  0  0
  148.8662  132.6049  154.2864 C   0  0  0  0  0  0  0  0  0  0  0  0
  149.6074  131.7384  154.7495 O   0  0  0  0  0  0  0  0  0  0  0  0
  147.8693  132.3792  153.4158 N   0  0  0  0  0  0  0  0  0  0  0  0
  147.4060  131.1232  152.9343 C   0  0  0  0  0  0  0  0  0  0  0  0
  147.9985  129.9008  153.3405 C   0  0  0  0  0  0  0  0  0  0  0  0
  147.5076  128.6832  152.8313 C   0  0  0  0  0  0  0  0  0  0  0  0
  146.4391  128.7072  151.9170 C   0  0  0  0  0  0  0  0  0  0  0  0
  145.9079  129.8885  151.5386 N   0  3  0  0  0  0  0  0  0  0  0  0
  146.3377  131.0899  151.9978 C   0  0  0  0  0  0  0  0  0  0  0  0
  145.7236  132.2653  151.5174 N   0  0  0  0  0  0  0  0  0  0  0  0
  145.6679  132.3532  150.0606 C   0  0  0  0  0  0  0  0  0  0  0  0
  144.3314  133.0148  149.7169 C   0  0  0  0  0  0  0  0  0  0  0  0
  143.4491  132.6490  150.9043 C   0  0  0  0  0  0  0  0  0  0  0  0
  144.4363  132.6845  152.0691 C   0  0  0  0  0  0  0  0  0  0  0  0
  149.7252  136.9746  155.2506 N   0  0  0  0  0  0  0  0  0  0  0  0
  151.1783  137.1566  155.1599 C   0  0  0  0  0  0  0  0  0  0  0  0
  151.5609  138.2340  154.1297 C   0  0  0  0  0  0  0  0  0  0  0  0
  150.9168  139.4617  154.4495 O   0  0  0  0  0  0  0  0  0  0  0  0
  149.5007  139.3376  154.4977 C   0  0  0  0  0  0  0  0  0  0  0  0
  149.1146  138.2773  155.5413 C   0  0  0  0  0  0  0  0  0  0  0  0
  147.4474  134.9592  156.9258 H   0  0  0  0  0  0  0  0  0  0  0  0
  147.2728  135.5407  155.2858 H   0  0  0  0  0  0  0  0  0  0  0  0
  147.2907  136.6773  156.6297 H   0  0  0  0  0  0  0  0  0  0  0  0
  149.6563  135.1496  158.1833 H   0  0  0  0  0  0  0  0  0  0  0  0
  149.3426  136.8612  158.1047 H   0  0  0  0  0  0  0  0  0  0  0  0
  150.9009  136.2352  157.5815 H   0  0  0  0  0  0  0  0  0  0  0  0
  150.7887  134.6046  155.1835 H   0  0  0  0  0  0  0  0  0  0  0  0
  149.9658  133.7947  156.4630 H   0  0  0  0  0  0  0  0  0  0  0  0
  148.2819  134.5345  154.1723 H   0  0  0  0  0  0  0  0  0  0  0  0
  147.2896  133.1742  153.1911 H   0  0  0  0  0  0  0  0  0  0  0  0
  148.8302  129.8800  154.0287 H   0  0  0  0  0  0  0  0  0  0  0  0
  147.9485  127.7452  153.1354 H   0  0  0  0  0  0  0  0  0  0  0  0
  146.0013  127.8247  151.4735 H   0  0  0  0  0  0  0  0  0  0  0  0
  146.5061  132.9297  149.6680 H   0  0  0  0  0  0  0  0  0  0  0  0
  145.7129  131.3550  149.6211 H   0  0  0  0  0  0  0  0  0  0  0  0
  144.4556  134.0977  149.6710 H   0  0  0  0  0  0  0  0  0  0  0  0
  143.9250  132.6801  148.7621 H   0  0  0  0  0  0  0  0  0  0  0  0
  142.6078  133.3293  151.0388 H   0  0  0  0  0  0  0  0  0  0  0  0
  143.0552  131.6394  150.7788 H   0  0  0  0  0  0  0  0  0  0  0  0
  144.0883  132.0912  152.9146 H   0  0  0  0  0  0  0  0  0  0  0  0
  144.5490  133.7084  152.4274 H   0  0  0  0  0  0  0  0  0  0  0  0
  151.5856  137.4351  156.1319 H   0  0  0  0  0  0  0  0  0  0  0  0
  151.6690  136.2314  154.8634 H   0  0  0  0  0  0  0  0  0  0  0  0
  152.6399  138.3889  154.1273 H   0  0  0  0  0  0  0  0  0  0  0  0
  151.2804  137.9211  153.1228 H   0  0  0  0  0  0  0  0  0  0  0  0
  149.0677  140.3028  154.7600 H   0  0  0  0  0  0  0  0  0  0  0  0
  149.1146  139.0690  153.5131 H   0  0  0  0  0  0  0  0  0  0  0  0
  148.0301  138.2090  155.5645 H   0  0  0  0  0  0  0  0  0  0  0  0
  149.4262  138.6275  156.5256 H   0  0  0  0  0  0  0  0  0  0  0  0
  145.1411  129.8765  150.8658 H   0  0  0  0  0  0  0  0  0  0  0  0
  1  2  1  0  0  0  0
  1 26  1  0  0  0  0
  1 27  1  0  0  0  0
  1 28  1  0  0  0  0
  2  3  1  0  0  0  0
  2  4  1  0  0  0  0
  2 20  1  0  0  0  0
  3 29  1  0  0  0  0
  3 30  1  0  0  0  0
  3 31  1  0  0  0  0
  4  5  1  0  0  0  0
  4 32  1  0  0  0  0
  4 33  1  0  0  0  0
  5  6  1  0  0  0  0
  5 34  1  0  0  0  0
  6  7  2  0  0  0  0
  6  8  1  0  0  0  0
  8  9  1  0  0  0  0
  8 35  1  0  0  0  0
  9 14  1  0  0  0  0
  9 10  2  0  0  0  0
 10 11  1  0  0  0  0
 10 36  1  0  0  0  0
 11 12  2  0  0  0  0
 11 37  1  0  0  0  0
 12 13  1  0  0  0  0
 12 38  1  0  0  0  0
 13 14  2  0  0  0  0
 13 55  1  0  0  0  0
 14 15  1  0  0  0  0
 15 19  1  0  0  0  0
 15 16  1  0  0  0  0
 16 17  1  0  0  0  0
 16 39  1  0  0  0  0
 16 40  1  0  0  0  0
 17 18  1  0  0  0  0
 17 41  1  0  0  0  0
 17 42  1  0  0  0  0
 18 19  1  0  0  0  0
 18 43  1  0  0  0  0
 18 44  1  0  0  0  0
 19 45  1  0  0  0  0
 19 46  1  0  0  0  0
 20 25  1  0  0  0  0
 20 21  1  0  0  0  0
 21 22  1  0  0  0  0
 21 47  1  0  0  0  0
 21 48  1  0  0  0  0
 22 23  1  0  0  0  0
 22 49  1  0  0  0  0
 22 50  1  0  0  0  0
 23 24  1  0  0  0  0
 24 25  1  0  0  0  0
 24 51  1  0  0  0  0
 24 52  1  0  0  0  0
 25 53  1  0  0  0  0
 25 54  1  0  0  0  0
M  CHG  1  13   1
M  END
> <s_m_source_file>
AV-unprocessed.smi

> <i_m_source_file_index>
1794

> <i_lp_mmshare_version>
43012

> <i_f3d_flags>
0

> <s_epik_input>
W0NIMl0xW0NIMl1PW0NIMl1bQ0gyXU4xQyhbQ0gzXSkoW0NIM10pW0NIMl1bTkhdQyg9TylbTkhdYzJbY0hdW2NIXVtjSF1uYzJOM1tDSDJdW0NIMl1bQ0gyXVtDSDJdMw==

> <s_epik_cmdline>
J2VwaWtfcHl0aG9uJywgJy1waCcsICc3LjAnLCAnLXRuJywgJzgnLCAnLW1hJywgJzIwMCcsICctbWV0YWxfYmluZGluZycsICctaW1hZScsICc8aW5maWxlLm1hZT4nLCAnLW9tYWUnLCAnPG91dGZpbGUubWFlPic=

> <r_epik_Ionization_Penalty>
1.36967

> <r_epik_Ionization_Penalty_Charging>
1.10366

> <r_epik_Ionization_Penalty_Neutral>
0.266011

> <r_epik_State_Penalty>
1.45237

> <r_epik_Charging_Adjusted_Penalty>
2.55603

> <i_epik_Tot_Q>
1

> <i_epik_Tot_abs_Q>
1

> <r_epik_Metal_State_Penalty>
1.53539

> <b_epik_Metal_Only>
0

> <s_lp_Force_Field>
OPLS_2005

> <r_lp_Energy>
75.8074

> <b_lp_Chiralities_Consistent>
1

> <s_lp_Variant>
AV-unprocessed.smi:1794-3

> <Gold.Version>
5.8.1

> <Gold.Id.Protein>
6NUR|6NUR_protein|mol2

> <Gold.PLP.Fitness>
37.5076

> <Gold.PLP.PLP>
-36.2881

> <Gold.PLP.part.hbond>
-1.0000

> <Gold.PLP.part.metal>
0.0000

> <Gold.PLP.part.buried>
-5.1357

> <Gold.PLP.part.nonpolar>
-29.8369

> <Gold.PLP.part.repulsive>
0.4400

> <Gold.PLP.ligand.clash>
0.1210

> <Gold.PLP.ligand.torsion>
0.9312

> <Gold.PLP.Chemscore.Hbond>
1.0000

> <Gold.PLP.Chemscore.CHOScore>
0.0000

> <Gold.PLP.Chemscore.Metal>
0.0000

> <Gold.Chemscore.Hbonds>
donor molecule, donor type, donor heavy atom, donor atom, acceptor molecule, acceptor atom, score
      P1  H  7989  7998       L1    23  1.00

> <Gold.PLP.Chemscore.Internal.Correction>
0.2028

> <Gold.Rescore>
     Score         DG    S(hbond)    S(metal)    S(lipo)     H(rot)  DE(clash)    DE(int)     intcor
     13.21     -15.59       0.82        0.00      97.72       1.58       0.05       2.33       ----

> <Gold.Chemscore.Fitness>
13.2121

> <Gold.Chemscore.DG>
-15.5936

> <Gold.Chemscore.ZeroCoef>
-5.4800

> <Gold.Chemscore.Hbond>
0.8160

> <Gold.Chemscore.Metal>
0.0000

> <Gold.Chemscore.Lipo>
97.7198

> <Gold.Chemscore.Internal_Hbond>
0.0000

> <Gold.Chemscore.DEClash>
0.0546

> <Gold.Chemscore.DEInternal>
2.3270

> <Gold.Chemscore.Rot>
1.5800

> <Gold.Chemscore.Internal.Correction>
   9.000000E+99

> <Gold.Chemscore.Hbonds>
donor molecule, donor type, donor heavy atom, donor atom, acceptor molecule, acceptor atom, score
      P1  H  7989  7998       L1    23  0.75

> <Gold.Chemscore.Hbond.Weighted>
-2.7253

> <Gold.Chemscore.Metal.Weighted>
-0.0000

> <Gold.Chemscore.Lipo.Weighted>
-11.4332

> <Gold.Chemscore.Internal_Hbond.Weighted>
0.0000

> <Gold.Chemscore.DEClash.Weighted>
0.0546

> <Gold.Chemscore.DEInternal.Weighted>
2.3270

> <Gold.Chemscore.Rot.Weighted>
4.0449

> <Gold.Chemscore.Internal.Correction.Weighted>
   9.000000E+99

> <Gold.Protein.RotatedTorsions>
[ 6907 6896 6895 6894 ] final   55.08 input  -60.11 | X-H torsion
[ 7974 7965 7964 7962 ] final  -91.25 input  175.53 | X-H torsion
[ 8008 7997 7996 7995 ] final   42.04 input   59.86 | X-H torsion
[ 10167 10162 10161 10158 ] final   91.41 input  -65.29 | X-H torsion
[ 10718 10713 10712 10709 ] final  -80.91 input   66.30 | X-H torsion
[ 10763 10752 10751 10750 ] final   57.87 input  -60.55 | X-H torsion
[ 11005 11000 10999 10996 ] final  -86.45 input  -57.11 | X-H torsion

> <Gold.Protein.ActiveResidues>
 VAL166  LYS551  ARG553  GLY616  TRP617  ASP618  TYR619  PRO620  LYS621  CYS622 
 ASP623  PHE694  ASN695  SER759  ASP760  ASP761  ALA762  ILE779  LEU786  VAL792 
 PHE793  MET794  SER795  GLU796  ALA797  LYS798  CYS799  TRP800  GLU811  SER814 

> <Gold.Protein.RotatedAtoms>
  152.3503  134.7014  160.0237 H   0  0  0  0  0  0  0  0  0  0  0  0  # atno 6907 bound_to 6896
  151.7370  133.3315  159.3363 H   0  0  0  0  0  0  0  0  0  0  0  0  # atno 6908 bound_to 6896
  150.7536  134.6245  159.6198 H   0  0  0  0  0  0  0  0  0  0  0  0  # atno 6909 bound_to 6896
  145.4156  140.9548  143.2210 H   0  0  0  0  0  0  0  0  0  0  0  0  # atno 7974 bound_to 7965
  155.2796  140.3371  155.4259 H   0  0  0  0  0  0  0  0  0  0  0  0  # atno 8008 bound_to 7997
  156.2096  140.1764  156.7766 H   0  0  0  0  0  0  0  0  0  0  0  0  # atno 8009 bound_to 7997
  154.5667  140.0677  156.8887 H   0  0  0  0  0  0  0  0  0  0  0  0  # atno 8010 bound_to 7997
  139.8377  144.6656  150.9321 H   0  0  0  0  0  0  0  0  0  0  0  0  # atno 10167 bound_to 10162
  156.0060  130.4588  150.3872 H   0  0  0  0  0  0  0  0  0  0  0  0  # atno 10718 bound_to 10713
  152.9858  135.5626  154.5460 H   0  0  0  0  0  0  0  0  0  0  0  0  # atno 10763 bound_to 10752
  154.4906  135.2792  155.1502 H   0  0  0  0  0  0  0  0  0  0  0  0  # atno 10764 bound_to 10752
  154.2973  135.6314  153.5463 H   0  0  0  0  0  0  0  0  0  0  0  0  # atno 10765 bound_to 10752
  141.1630  133.7455  156.9164 H   0  0  0  0  0  0  0  0  0  0  0  0  # atno 11005 bound_to 11000
  144.8279  139.5678  143.6957 LP  0  0  0  0  0  0  0  0  0  0  0  0  # atno 17320 bound_to 7965
  146.2683  139.6572  142.9314 LP  0  0  0  0  0  0  0  0  0  0  0  0  # atno 17321 bound_to 7965
  140.7801  143.3941  151.1259 LP  0  0  0  0  0  0  0  0  0  0  0  0  # atno 17342 bound_to 10162
  139.7590  143.8664  152.3095 LP  0  0  0  0  0  0  0  0  0  0  0  0  # atno 17343 bound_to 10162
  157.1949  131.0424  151.2681 LP  0  0  0  0  0  0  0  0  0  0  0  0  # atno 17370 bound_to 10713
  157.4028  130.7342  149.6780 LP  0  0  0  0  0  0  0  0  0  0  0  0  # atno 17371 bound_to 10713
  140.1482  134.9248  157.2557 LP  0  0  0  0  0  0  0  0  0  0  0  0  # atno 17394 bound_to 11000
  140.2755  134.3411  155.7359 LP  0  0  0  0  0  0  0  0  0  0  0  0  # atno 17395 bound_to 11000

$$$$
