#       Name:                AV-unprocessed.smi:2655
#       Creating user name   scv26
#       Creation time:       Fri Mar 27 14:31:17 2020


#       File generated by GOLD software.
#

@<TRIPOS>MOLECULE
AV-unprocessed.smi:2655
    41    42     1
SMALL
NO_CHARGES


@<TRIPOS>ATOM
      1 ****        -1.9767   3.0791  -1.1521 C.3            1 S1                 0.0000
      2 ****        -2.1034   3.3213   0.3366 C.2            1 S1                 0.0000
      3 ****        -2.5489   4.5118   0.8328 N.pl3          1 S1                 0.0000
      4 ****        -2.5278   4.4496   2.2031 N.am           1 S1                 0.0000
      5 ****        -2.0909   3.2418   2.5966 C.2            1 S1                 0.0000
      6 ****        -1.9621   2.8642   3.7593 O.2            1 S1                 0.0000
      7 ****        -1.8093   2.5142   1.3641 C.2            1 S1                 0.0000
      8 ****        -1.2887   1.0906   1.3169 C.3            1 S1                 0.0000
      9 ****         0.2271   1.0236   1.5627 C.3            1 S1                 0.0000
     10 ****         0.7220  -0.3454   1.4849 N.am           1 S1                 0.0000
     11 ****         1.0060  -0.9959   0.3472 C.2            1 S1                 0.0000
     12 ****         0.8737  -0.4958  -0.7700 O.2            1 S1                 0.0000
     13 ****         1.4446  -2.2414   0.5961 N.am           1 S1                 0.0000
     14 ****         1.8600  -3.2321  -0.3308 C.2            1 S1                 0.0000
     15 ****         1.8633  -3.1118  -1.7511 C.2            1 S1                 0.0000
     16 ****         2.3466  -4.3225  -2.1600 C.2            1 S1                 0.0000
     17 ****         2.6181  -4.9037  -3.5051 C.3            1 S1                 0.0000
     18 ****         2.6132  -5.1137  -1.0864 O.3            1 S1                 0.0000
     19 ****         2.2978  -4.4079   0.0806 N.2            1 S1                 0.0000
     20 ****        -0.9488   2.8163  -1.4035 H              1 S1                 0.0000
     21 ****        -2.2533   3.9676  -1.7205 H              1 S1                 0.0000
     22 ****        -2.6260   2.2583  -1.4576 H              1 S1                 0.0000
     23 ****        -2.8271   5.2443   2.7495 H              1 S1                 0.0000
     24 ****        -1.5286   0.6643   0.3422 H              1 S1                 0.0000
     25 ****        -1.8219   0.4904   2.0553 H              1 S1                 0.0000
     26 ****         0.7577   1.6549   0.8475 H              1 S1                 0.0000
     27 ****         0.4628   1.4129   2.5536 H              1 S1                 0.0000
     28 ****         0.8590  -0.8299   2.3600 H              1 S1                 0.0000
     29 ****         1.4984  -2.5111   1.5672 H              1 S1                 0.0000
     30 ****         1.5659  -2.2864  -2.3800 H              1 S1                 0.0000
     31 ****         2.5973  -4.1316  -4.2743 H              1 S1                 0.0000
     32 ****         1.8699  -5.6546  -3.7587 H              1 S1                 0.0000
     33 ****         3.5984  -5.3799  -3.5312 H              1 S1                 0.0000
     34 ****        -2.7672   5.3571   0.3247 H              1 S1                 0.0000
     35 ****        -2.1919   3.4797   4.5133 LP             1 S1                 0.0000
     36 ****        -1.6276   1.9416   3.9512 LP             1 S1                 0.0000
     37 ****         0.5390   0.4421  -0.8615 LP             1 S1                 0.0000
     38 ****         1.1009  -1.0274  -1.5859 LP             1 S1                 0.0000
     39 ****         3.5830  -5.3574  -1.0805 LP             1 S1                 0.0000
     40 ****         2.0607  -5.9457  -1.1361 LP             1 S1                 0.0000
     41 ****         2.3853  -4.7262   1.0245 LP             1 S1                 0.0000
@<TRIPOS>BOND
    1    1   20 1     
    2    1   21 1     
    3    1   22 1     
    4    1    2 1     
    5    2    7 2     
    6    2    3 1     
    7    3    4 1     
    8    3   34 1     
    9    4   23 1     
   10    4    5 am    
   11    5    7 1     
   12    5    6 2     
   13    7    8 1     
   14    8    9 1     
   15    8   24 1     
   16    8   25 1     
   17    9   10 1     
   18    9   26 1     
   19    9   27 1     
   20   10   11 am    
   21   10   28 1     
   22   11   12 2     
   23   11   13 am    
   24   13   14 1     
   25   13   29 1     
   26   14   19 2     
   27   14   15 1     
   28   15   16 2     
   29   15   30 1     
   30   16   17 1     
   31   16   18 1     
   32   17   31 1     
   33   17   32 1     
   34   17   33 1     
   35   18   19 1     
   36    6   35 1     
   37    6   36 1     
   38   12   37 1     
   39   12   38 1     
   40   18   39 1     
   41   18   40 1     
   42   19   41 1     
@<TRIPOS>SUBSTRUCTURE
      1 S1             1
@<TRIPOS>SET
LONE_PAIRS      STATIC     ATOMS    <user>   **** ""
7 35 36 37 38 39 40 41
DONOR_HYDROGENS      STATIC     ATOMS    <user>   **** ""
4 34 23 28 29
ATOM$BLUE        STATIC     ATOMS    COLORGROUP SYSTEM
7 35 36 37 38 39 40 41
ATOM$RED        STATIC     ATOMS    COLORGROUP SYSTEM
4 34 23 28 29
