#       Name:                AV-unprocessed.smi:3311
#       Creating user name   scv26
#       Creation time:       Fri Mar 27 19:06:22 2020


#       File generated by GOLD software.
#

@<TRIPOS>MOLECULE
AV-unprocessed.smi:3311
    47    48     1
SMALL
NO_CHARGES


@<TRIPOS>ATOM
      1 ****        -2.7194  -1.4042   2.2667 C.3            1 S1                 0.0000
      2 ****        -2.1722  -0.7027   1.0126 C.3            1 S1                 0.0000
      3 ****        -0.6946  -0.6609   1.0992 N.4            1 S1                 1.0000
      4 ****        -0.1015   0.6941   1.1155 C.3            1 S1                 0.0000
      5 ****         1.4357   0.6557   0.9748 C.3            1 S1                 0.0000
      6 ****         1.9415  -0.0776   2.0762 O.3            1 S1                 0.0000
      7 ****         1.8715  -0.0255  -0.3471 C.3            1 S1                 0.0000
      8 ****         3.3903   0.0398  -0.5839 C.3            1 S1                 0.0000
      9 ****         3.9048   1.4844  -0.5245 C.3            1 S1                 0.0000
     10 ****         3.5273   2.1469   0.8078 C.3            1 S1                 0.0000
     11 ****         2.0084   2.0907   1.0525 C.3            1 S1                 0.0000
     12 ****        -2.6087  -1.3979  -0.3053 C.3            1 S1                 0.0000
     13 ****        -4.1371  -1.4402  -0.4930 C.3            1 S1                 0.0000
     14 ****        -1.9835  -0.7788  -1.4695 N.pl3          1 S1                 0.0000
     15 ****        -1.0944  -1.3430  -2.3615 C.2            1 S1                 0.0000
     16 ****        -0.7701  -0.3839  -3.2776 C.2            1 S1                 0.0000
     17 ****        -1.5227   0.7493  -2.8622 C.2            1 S1                 0.0000
     18 ****        -2.2457   0.5110  -1.7803 N.2            1 S1                 0.0000
     19 ****        -3.8078  -1.3680   2.3069 H              1 S1                 0.0000
     20 ****        -2.3534  -0.9228   3.1741 H              1 S1                 0.0000
     21 ****        -2.4167  -2.4513   2.3019 H              1 S1                 0.0000
     22 ****        -2.5602   0.3175   1.0148 H              1 S1                 0.0000
     23 ****        -0.3989  -1.1463   1.9343 H              1 S1                 0.0000
     24 ****        -0.5222   1.2794   0.2971 H              1 S1                 0.0000
     25 ****        -0.3925   1.1934   2.0409 H              1 S1                 0.0000
     26 ****         2.8858  -0.0766   2.0286 H              1 S1                 0.0000
     27 ****         1.5513  -1.0678  -0.3689 H              1 S1                 0.0000
     28 ****         1.3679   0.4613  -1.1837 H              1 S1                 0.0000
     29 ****         3.9080  -0.5645   0.1620 H              1 S1                 0.0000
     30 ****         3.6315  -0.3986  -1.5526 H              1 S1                 0.0000
     31 ****         4.9875   1.4993  -0.6543 H              1 S1                 0.0000
     32 ****         3.4856   2.0579  -1.3525 H              1 S1                 0.0000
     33 ****         4.0534   1.6516   1.6246 H              1 S1                 0.0000
     34 ****         3.8640   3.1841   0.8121 H              1 S1                 0.0000
     35 ****         1.5151   2.7152   0.3061 H              1 S1                 0.0000
     36 ****         1.7768   2.5396   2.0195 H              1 S1                 0.0000
     37 ****        -2.2575  -2.4308  -0.2734 H              1 S1                 0.0000
     38 ****        -4.6198  -2.0562   0.2651 H              1 S1                 0.0000
     39 ****        -4.3985  -1.8663  -1.4622 H              1 S1                 0.0000
     40 ****        -4.5750  -0.4428  -0.4415 H              1 S1                 0.0000
     41 ****        -0.7669  -2.3682  -2.2708 H              1 S1                 0.0000
     42 ****        -0.0988  -0.4776  -4.1184 H              1 S1                 0.0000
     43 ****        -1.5643   1.7312  -3.3104 H              1 S1                 0.0000
     44 ****        -0.3240  -1.1516   0.2984 H              1 S1                 0.0000
     45 ****         1.6028  -1.0178   2.0398 LP             1 S1                 0.0000
     46 ****         1.6463   0.3502   2.9306 LP             1 S1                 0.0000
     47 ****        -2.8518   1.1443  -1.2989 LP             1 S1                 0.0000
@<TRIPOS>BOND
    1    1    2 1     
    2    1   19 1     
    3    1   20 1     
    4    1   21 1     
    5    2    3 1     
    6    2   12 1     
    7    2   22 1     
    8    3    4 1     
    9    3   23 1     
   10    3   44 1     
   11    4    5 1     
   12    4   24 1     
   13    4   25 1     
   14    5   11 1     
   15    5    6 1     
   16    5    7 1     
   17    6   26 1     
   18    7    8 1     
   19    7   27 1     
   20    7   28 1     
   21    8    9 1     
   22    8   29 1     
   23    8   30 1     
   24    9   10 1     
   25    9   31 1     
   26    9   32 1     
   27   10   11 1     
   28   10   33 1     
   29   10   34 1     
   30   11   35 1     
   31   11   36 1     
   32   12   13 1     
   33   12   14 1     
   34   12   37 1     
   35   13   38 1     
   36   13   39 1     
   37   13   40 1     
   38   14   18 1     
   39   14   15 1     
   40   15   16 2     
   41   15   41 1     
   42   16   17 1     
   43   16   42 1     
   44   17   18 2     
   45   17   43 1     
   46    6   45 1     
   47    6   46 1     
   48   18   47 1     
@<TRIPOS>SUBSTRUCTURE
      1 S1             1
@<TRIPOS>SET
LONE_PAIRS      STATIC     ATOMS    <user>   **** ""
3 45 46 47
DONOR_HYDROGENS      STATIC     ATOMS    <user>   **** ""
3 23 44 26
ATOM$BLUE        STATIC     ATOMS    COLORGROUP SYSTEM
3 45 46 47
ATOM$RED        STATIC     ATOMS    COLORGROUP SYSTEM
3 23 44 26
