AV-unprocessed.smi:91|AV-procd|sdf|835|dock9
  -GOLD-   2262017263D 1   1.00000     0.00000
 Structure written by MMmdl.
 60 63  0  0  0  0  0  0  0  0  1 V2000
  152.5752  142.6111  162.4157 C   0  0  0  0  0  0  0  0  0  0  0  0
  153.7162  142.0612  161.7812 O   0  0  0  0  0  0  0  0  0  0  0  0
  153.3840  141.0389  160.8549 C   0  0  0  0  0  0  0  0  0  0  0  0
  152.3038  141.5368  159.8846 C   0  0  2  0  0  0  0  0  0  0  0  0
  152.0384  140.5558  158.7292 C   0  0  0  0  0  0  0  0  0  0  0  0
  151.0873  141.1365  157.7900 N   0  0  0  0  0  0  0  0  0  0  0  0
  150.5516  140.2567  156.9061 C   0  0  0  0  0  0  0  0  0  0  0  0
  150.6395  140.4951  155.5695 N   0  0  0  0  0  0  0  0  0  0  0  0
  150.1269  139.6273  154.6920 C   0  0  0  0  0  0  0  0  0  0  0  0
  149.4927  138.4778  154.9290 N   0  0  0  0  0  0  0  0  0  0  0  0
  149.3917  138.2378  156.2673 C   0  0  0  0  0  0  0  0  0  0  0  0
  149.8861  139.0659  157.3142 C   0  0  0  0  0  0  0  0  0  0  0  0
  149.5814  138.4996  158.5472 N   0  0  0  0  0  0  0  0  0  0  0  0
  148.9522  137.3964  158.2459 C   0  0  0  0  0  0  0  0  0  0  0  0
  148.8017  137.1582  156.8989 N   0  0  0  0  0  0  0  0  0  0  0  0
  148.1529  136.0157  156.2813 C   0  0  0  0  0  0  0  0  0  0  0  0
  149.1443  135.0740  155.5538 C   0  0  1  0  0  0  0  0  0  0  0  0
  150.3014  134.6045  156.4688 C   0  0  0  0  0  0  0  0  0  0  0  0
  149.8217  133.8536  157.5654 O   0  0  0  0  0  0  0  0  0  0  0  0
  148.4081  133.8915  154.8751 C   0  0  2  0  0  0  0  0  0  0  0  0
  149.2981  132.9504  154.0825 C   0  0  0  0  0  0  0  0  0  0  0  0
  148.2938  132.2311  153.1890 C   0  0  0  0  0  0  0  0  0  0  0  0
  147.2613  133.1760  152.9318 O   0  0  0  0  0  0  0  0  0  0  0  0
  147.4088  134.3038  153.7887 C   0  0  0  0  0  0  0  0  0  0  0  0
  151.5146  142.4401  157.2880 C   0  0  0  0  0  0  0  0  0  0  0  0
  151.7992  143.4205  158.4483 C   0  0  0  0  0  0  0  0  0  0  0  0
  152.5380  144.6559  157.9107 C   0  0  0  0  0  0  0  0  0  0  0  0
  150.5022  143.8730  159.1527 C   0  0  0  0  0  0  0  0  0  0  0  0
  152.7027  142.8105  159.3769 O   0  0  0  0  0  0  0  0  0  0  0  0
  152.8834  143.3899  163.1131 H   0  0  0  0  0  0  0  0  0  0  0  0
  152.0323  141.8509  162.9789 H   0  0  0  0  0  0  0  0  0  0  0  0
  151.8971  143.0596  161.6884 H   0  0  0  0  0  0  0  0  0  0  0  0
  154.2749  140.7513  160.2941 H   0  0  0  0  0  0  0  0  0  0  0  0
  153.0309  140.1507  161.3812 H   0  0  0  0  0  0  0  0  0  0  0  0
  151.3876  141.6595  160.4620 H   0  0  0  0  0  0  0  0  0  0  0  0
  152.9637  140.3396  158.1935 H   0  0  0  0  0  0  0  0  0  0  0  0
  151.6792  139.6096  159.1323 H   0  0  0  0  0  0  0  0  0  0  0  0
  150.2429  139.8915  153.6511 H   0  0  0  0  0  0  0  0  0  0  0  0
  148.5847  136.7175  159.0021 H   0  0  0  0  0  0  0  0  0  0  0  0
  147.6067  135.4697  157.0515 H   0  0  0  0  0  0  0  0  0  0  0  0
  147.4043  136.3978  155.5871 H   0  0  0  0  0  0  0  0  0  0  0  0
  149.6074  135.6591  154.7577 H   0  0  0  0  0  0  0  0  0  0  0  0
  151.0147  133.9960  155.9135 H   0  0  0  0  0  0  0  0  0  0  0  0
  150.8692  135.4542  156.8477 H   0  0  0  0  0  0  0  0  0  0  0  0
  149.0152  133.4320  157.3106 H   0  0  0  0  0  0  0  0  0  0  0  0
  147.8764  133.3097  155.6298 H   0  0  0  0  0  0  0  0  0  0  0  0
  150.0040  133.5156  153.4721 H   0  0  0  0  0  0  0  0  0  0  0  0
  149.8635  132.2598  154.7089 H   0  0  0  0  0  0  0  0  0  0  0  0
  148.7437  131.8679  152.2648 H   0  0  0  0  0  0  0  0  0  0  0  0
  147.8610  131.3784  153.7134 H   0  0  0  0  0  0  0  0  0  0  0  0
  146.4467  134.6099  154.2003 H   0  0  0  0  0  0  0  0  0  0  0  0
  147.8003  135.1324  153.1963 H   0  0  0  0  0  0  0  0  0  0  0  0
  152.4169  142.3020  156.6901 H   0  0  0  0  0  0  0  0  0  0  0  0
  150.7539  142.8600  156.6281 H   0  0  0  0  0  0  0  0  0  0  0  0
  151.9388  145.1856  157.1694 H   0  0  0  0  0  0  0  0  0  0  0  0
  153.4795  144.3769  157.4362 H   0  0  0  0  0  0  0  0  0  0  0  0
  152.7708  145.3572  158.7125 H   0  0  0  0  0  0  0  0  0  0  0  0
  149.8693  144.4447  158.4735 H   0  0  0  0  0  0  0  0  0  0  0  0
  150.7228  144.5093  160.0103 H   0  0  0  0  0  0  0  0  0  0  0  0
  149.9052  143.0339  159.5082 H   0  0  0  0  0  0  0  0  0  0  0  0
  1  2  1  0  0  0  0
  1 30  1  0  0  0  0
  1 31  1  0  0  0  0
  1 32  1  0  0  0  0
  2  3  1  0  0  0  0
  3  4  1  0  0  0  0
  3 33  1  0  0  0  0
  3 34  1  0  0  0  0
  4 29  1  0  0  0  0
  4  5  1  0  0  0  0
  4 35  1  0  0  0  0
  5  6  1  0  0  0  0
  5 36  1  0  0  0  0
  5 37  1  0  0  0  0
  6  7  1  0  0  0  0
  6 25  1  0  0  0  0
  7 12  1  0  0  0  0
  7  8  2  0  0  0  0
  8  9  1  0  0  0  0
  9 10  2  0  0  0  0
  9 38  1  0  0  0  0
 10 11  1  0  0  0  0
 11 15  1  0  0  0  0
 11 12  2  0  0  0  0
 12 13  1  0  0  0  0
 13 14  2  0  0  0  0
 14 15  1  0  0  0  0
 14 39  1  0  0  0  0
 15 16  1  0  0  0  0
 16 17  1  0  0  0  0
 16 40  1  0  0  0  0
 16 41  1  0  0  0  0
 17 18  1  0  0  0  0
 17 20  1  0  0  0  0
 17 42  1  0  0  0  0
 18 19  1  0  0  0  0
 18 43  1  0  0  0  0
 18 44  1  0  0  0  0
 19 45  1  0  0  0  0
 20 24  1  0  0  0  0
 20 21  1  0  0  0  0
 20 46  1  0  0  0  0
 21 22  1  0  0  0  0
 21 47  1  0  0  0  0
 21 48  1  0  0  0  0
 22 23  1  0  0  0  0
 22 49  1  0  0  0  0
 22 50  1  0  0  0  0
 23 24  1  0  0  0  0
 24 51  1  0  0  0  0
 24 52  1  0  0  0  0
 25 26  1  0  0  0  0
 25 53  1  0  0  0  0
 25 54  1  0  0  0  0
 26 27  1  0  0  0  0
 26 28  1  0  0  0  0
 26 29  1  0  0  0  0
 27 55  1  0  0  0  0
 27 56  1  0  0  0  0
 27 57  1  0  0  0  0
 28 58  1  0  0  0  0
 28 59  1  0  0  0  0
 28 60  1  0  0  0  0
M  END
> <s_m_source_file>
AV-unprocessed.smi

> <i_m_source_file_index>
91

> <i_lp_mmshare_version>
43012

> <i_f3d_flags>
0

> <s_epik_input>
W0NIM11PW0NIMl1bQ0BASF0oTzEpW0NIMl1OKFtDSDJdQzEoW0NIM10pW0NIM10pYyhuW2NIXW4yKWMoYzIzKW5bY0hdbjNbQ0gyXVtDQEhdKFtDSDJdW09IXSlbQ0BASF00W0NIMl1bQ0gyXU9bQ0gyXTQ=

> <s_epik_cmdline>
J2VwaWtfcHl0aG9uJywgJy1waCcsICc3LjAnLCAnLXRuJywgJzgnLCAnLW1hJywgJzIwMCcsICctbWV0YWxfYmluZGluZycsICctaW1hZScsICc8aW5maWxlLm1hZT4nLCAnLW9tYWUnLCAnPG91dGZpbGUubWFlPic=

> <r_lp_tautomer_probability>
1

> <r_epik_Ionization_Penalty>
8.63591e-05

> <r_epik_Ionization_Penalty_Charging>
0

> <r_epik_Ionization_Penalty_Neutral>
8.63591e-05

> <r_epik_State_Penalty>
-0

> <r_epik_Charging_Adjusted_Penalty>
0

> <i_epik_Tot_Q>
0

> <i_epik_Tot_abs_Q>
0

> <r_epik_Metal_State_Penalty>
-0

> <b_epik_Metal_Only>
0

> <s_lp_Force_Field>
OPLS_2005

> <r_lp_Energy>
46.4326

> <b_lp_Chiralities_Consistent>
1

> <s_lp_Variant>
AV-unprocessed.smi:91-3

> <Gold.Version>
5.8.1

> <Gold.Id.Protein>
6NUR|6NUR_protein|mol2

> <Gold.PLP.Fitness>
49.7066

> <Gold.PLP.PLP>
-44.3130

> <Gold.PLP.part.hbond>
-2.2220

> <Gold.PLP.part.metal>
0.0000

> <Gold.PLP.part.buried>
-6.3207

> <Gold.PLP.part.nonpolar>
-35.6915

> <Gold.PLP.part.repulsive>
0.3149

> <Gold.PLP.ligand.clash>
0.0000

> <Gold.PLP.ligand.torsion>
0.3488

> <Gold.PLP.Chemscore.Hbond>
0.9440

> <Gold.PLP.Chemscore.CHOScore>
0.9499

> <Gold.PLP.Chemscore.Metal>
0.0000

> <Gold.Chemscore.Hbonds>
donor molecule, donor type, donor heavy atom, donor atom, acceptor molecule, acceptor atom, score
      P1  H  6896  6909       L1    19  1.00
      L1  C     9    38       P1  7957  0.91

> <Gold.PLP.Chemscore.Internal.Correction>
0.4094

> <Gold.Rescore>
     Score         DG    S(hbond)    S(metal)    S(lipo)     H(rot)  DE(clash)    DE(int)     intcor
     13.72     -14.12       0.96        0.00     112.77       3.03       0.04       0.36       ----

> <Gold.Chemscore.Fitness>
13.7201

> <Gold.Chemscore.DG>
-14.1174

> <Gold.Chemscore.ZeroCoef>
-5.4800

> <Gold.Chemscore.Hbond>
0.9569

> <Gold.Chemscore.Metal>
0.0000

> <Gold.Chemscore.Lipo>
112.7706

> <Gold.Chemscore.Internal_Hbond>
0.0000

> <Gold.Chemscore.DEClash>
0.0399

> <Gold.Chemscore.DEInternal>
0.3574

> <Gold.Chemscore.Rot>
3.0284

> <Gold.Chemscore.Internal.Correction>
   9.000000E+99

> <Gold.Chemscore.Hbonds>
donor molecule, donor type, donor heavy atom, donor atom, acceptor molecule, acceptor atom, score
      P1  H  6896  6909       L1    19  0.92

> <Gold.Chemscore.Hbond.Weighted>
-3.1960

> <Gold.Chemscore.Metal.Weighted>
-0.0000

> <Gold.Chemscore.Lipo.Weighted>
-13.1942

> <Gold.Chemscore.Internal_Hbond.Weighted>
0.0000

> <Gold.Chemscore.DEClash.Weighted>
0.0399

> <Gold.Chemscore.DEInternal.Weighted>
0.3574

> <Gold.Chemscore.Rot.Weighted>
7.7528

> <Gold.Chemscore.Internal.Correction.Weighted>
   9.000000E+99

> <Gold.Protein.RotatedTorsions>
[ 6907 6896 6895 6894 ] final   -6.92 input  -60.11 | X-H torsion
[ 7974 7965 7964 7962 ] final  108.69 input  175.53 | X-H torsion
[ 8008 7997 7996 7995 ] final -139.72 input   59.86 | X-H torsion
[ 10167 10162 10161 10158 ] final   93.06 input  -65.29 | X-H torsion
[ 10718 10713 10712 10709 ] final  -43.94 input   66.30 | X-H torsion
[ 10763 10752 10751 10750 ] final  157.84 input  -60.55 | X-H torsion
[ 11005 11000 10999 10996 ] final   29.79 input  -57.11 | X-H torsion

> <Gold.Protein.ActiveResidues>
 VAL166  LYS551  ARG553  GLY616  TRP617  ASP618  TYR619  PRO620  LYS621  CYS622 
 ASP623  PHE694  ASN695  SER759  ASP760  ASP761  ALA762  ILE779  LEU786  VAL792 
 PHE793  MET794  SER795  GLU796  ALA797  LYS798  CYS799  TRP800  GLU811  SER814 

> <Gold.Protein.RotatedAtoms>
  151.4579  135.1036  159.9716 H   0  0  0  0  0  0  0  0  0  0  0  0  # atno 6907 bound_to 6896
  152.4864  133.8380  159.7148 H   0  0  0  0  0  0  0  0  0  0  0  0  # atno 6908 bound_to 6896
  150.8977  133.7099  159.2914 H   0  0  0  0  0  0  0  0  0  0  0  0  # atno 6909 bound_to 6896
  145.2774  139.2645  143.3934 H   0  0  0  0  0  0  0  0  0  0  0  0  # atno 7974 bound_to 7965
  155.4495  140.0537  157.3002 H   0  0  0  0  0  0  0  0  0  0  0  0  # atno 8008 bound_to 7997
  154.4783  140.2070  155.9780 H   0  0  0  0  0  0  0  0  0  0  0  0  # atno 8009 bound_to 7997
  156.1167  140.3195  155.8154 H   0  0  0  0  0  0  0  0  0  0  0  0  # atno 8010 bound_to 7997
  139.8216  144.6728  150.9511 H   0  0  0  0  0  0  0  0  0  0  0  0  # atno 10167 bound_to 10162
  156.2438  130.4182  149.8730 H   0  0  0  0  0  0  0  0  0  0  0  0  # atno 10718 bound_to 10713
  154.2065  135.2788  155.2973 H   0  0  0  0  0  0  0  0  0  0  0  0  # atno 10763 bound_to 10752
  154.5812  135.5588  153.7191 H   0  0  0  0  0  0  0  0  0  0  0  0  # atno 10764 bound_to 10752
  153.0074  135.6345  154.2204 H   0  0  0  0  0  0  0  0  0  0  0  0  # atno 10765 bound_to 10752
  140.3012  134.2754  155.7753 H   0  0  0  0  0  0  0  0  0  0  0  0  # atno 11005 bound_to 11000
  146.3227  140.3233  142.8635 LP  0  0  0  0  0  0  0  0  0  0  0  0  # atno 17320 bound_to 7965
  144.9282  140.7946  143.5705 LP  0  0  0  0  0  0  0  0  0  0  0  0  # atno 17321 bound_to 7965
  140.7813  143.4086  151.1030 LP  0  0  0  0  0  0  0  0  0  0  0  0  # atno 17342 bound_to 10162
  139.7746  143.8444  152.3127 LP  0  0  0  0  0  0  0  0  0  0  0  0  # atno 17343 bound_to 10162
  156.6302  130.8662  151.3494 LP  0  0  0  0  0  0  0  0  0  0  0  0  # atno 17370 bound_to 10713
  157.7186  130.9529  150.1351 LP  0  0  0  0  0  0  0  0  0  0  0  0  # atno 17371 bound_to 10713
  141.2127  133.7647  156.9770 LP  0  0  0  0  0  0  0  0  0  0  0  0  # atno 17394 bound_to 11000
  140.1107  134.9478  157.2061 LP  0  0  0  0  0  0  0  0  0  0  0  0  # atno 17395 bound_to 11000

$$$$
