AV-unprocessed.smi:1700|AV-procd|sdf|6820|dock9
  -GOLD-   22720 7593D 1   1.00000     0.00000
 Structure written by MMmdl.
 34 35  0  0  0  0  0  0  0  0  1 V2000
  146.8627  142.6566  154.1578 C   0  0  0  0  0  0  0  0  0  0  0  0
  147.4822  141.2737  154.0366 C   0  0  0  0  0  0  0  0  0  0  0  0
  146.7986  140.2729  153.3140 C   0  0  0  0  0  0  0  0  0  0  0  0
  147.3722  138.9949  153.2017 C   0  0  0  0  0  0  0  0  0  0  0  0
  148.6137  138.7707  153.8207 C   0  0  0  0  0  0  0  0  0  0  0  0
  149.2736  139.7210  154.5137 N   0  0  0  0  0  0  0  0  0  0  0  0
  148.7335  140.9600  154.6324 C   0  0  0  0  0  0  0  0  0  0  0  0
  149.3723  142.0106  155.3506 N   0  0  0  0  0  0  0  0  0  0  0  0
  150.5379  141.9784  156.0206 C   0  0  0  0  0  0  0  0  0  0  0  0
  151.2787  140.9996  156.1188 O   0  0  0  0  0  0  0  0  0  0  0  0
  150.8058  143.1651  156.5839 N   0  0  0  0  0  0  0  0  0  0  0  0
  151.9835  143.4595  157.3922 C   0  0  0  0  0  0  0  0  0  0  0  0
  151.5997  143.8900  158.8174 C   0  0  1  0  0  0  0  0  0  0  0  0
  152.5876  143.4289  159.8846 C   0  0  0  0  0  0  0  0  0  0  0  0
  152.2923  144.3975  161.0075 C   0  0  0  0  0  0  0  0  0  0  0  0
  151.9879  145.6915  160.2536 C   0  0  0  0  0  0  0  0  0  0  0  0
  151.6038  145.3091  158.9344 O   0  0  0  0  0  0  0  0  0  0  0  0
  145.9037  142.7089  153.6418 H   0  0  0  0  0  0  0  0  0  0  0  0
  147.5200  143.4090  153.7211 H   0  0  0  0  0  0  0  0  0  0  0  0
  146.6935  142.9087  155.2051 H   0  0  0  0  0  0  0  0  0  0  0  0
  145.8454  140.4788  152.8496 H   0  0  0  0  0  0  0  0  0  0  0  0
  146.8740  138.2077  152.6555 H   0  0  0  0  0  0  0  0  0  0  0  0
  149.0904  137.8035  153.7586 H   0  0  0  0  0  0  0  0  0  0  0  0
  148.8786  142.8903  155.3578 H   0  0  0  0  0  0  0  0  0  0  0  0
  150.1427  143.9157  156.4579 H   0  0  0  0  0  0  0  0  0  0  0  0
  152.6366  142.5857  157.4250 H   0  0  0  0  0  0  0  0  0  0  0  0
  152.5503  144.2507  156.9010 H   0  0  0  0  0  0  0  0  0  0  0  0
  150.6034  143.5269  159.0762 H   0  0  0  0  0  0  0  0  0  0  0  0
  152.4475  142.3863  160.1712 H   0  0  0  0  0  0  0  0  0  0  0  0
  153.6150  143.5566  159.5405 H   0  0  0  0  0  0  0  0  0  0  0  0
  151.4094  144.0686  161.5573 H   0  0  0  0  0  0  0  0  0  0  0  0
  153.1161  144.4993  161.7146 H   0  0  0  0  0  0  0  0  0  0  0  0
  151.2007  146.2682  160.7397 H   0  0  0  0  0  0  0  0  0  0  0  0
  152.8764  146.3201  160.1881 H   0  0  0  0  0  0  0  0  0  0  0  0
  1  2  1  0  0  0  0
  1 18  1  0  0  0  0
  1 19  1  0  0  0  0
  1 20  1  0  0  0  0
  2  7  1  0  0  0  0
  2  3  2  0  0  0  0
  3  4  1  0  0  0  0
  3 21  1  0  0  0  0
  4  5  2  0  0  0  0
  4 22  1  0  0  0  0
  5  6  1  0  0  0  0
  5 23  1  0  0  0  0
  6  7  2  0  0  0  0
  7  8  1  0  0  0  0
  8  9  1  0  0  0  0
  8 24  1  0  0  0  0
  9 10  2  0  0  0  0
  9 11  1  0  0  0  0
 11 12  1  0  0  0  0
 11 25  1  0  0  0  0
 12 13  1  0  0  0  0
 12 26  1  0  0  0  0
 12 27  1  0  0  0  0
 13 17  1  0  0  0  0
 13 14  1  0  0  0  0
 13 28  1  0  0  0  0
 14 15  1  0  0  0  0
 14 29  1  0  0  0  0
 14 30  1  0  0  0  0
 15 16  1  0  0  0  0
 15 31  1  0  0  0  0
 15 32  1  0  0  0  0
 16 17  1  0  0  0  0
 16 33  1  0  0  0  0
 16 34  1  0  0  0  0
M  END
> <s_m_source_file>
AV-unprocessed.smi

> <i_m_source_file_index>
1700

> <i_lp_mmshare_version>
43012

> <i_f3d_flags>
0

> <s_epik_input>
W0NIM11jMVtjSF1bY0hdW2NIXW5jMVtOSF1DKD1PKVtOSF1bQ0gyXVtDQEBIXTJbQ0gyXVtDSDJdW0NIMl1PMg==

> <s_epik_cmdline>
J2VwaWtfcHl0aG9uJywgJy1waCcsICc3LjAnLCAnLXRuJywgJzgnLCAnLW1hJywgJzIwMCcsICctbWV0YWxfYmluZGluZycsICctaW1hZScsICc8aW5maWxlLm1hZT4nLCAnLW9tYWUnLCAnPG91dGZpbGUubWFlPic=

> <r_lp_tautomer_probability>
1

> <r_epik_Ionization_Penalty>
5.57253e-05

> <r_epik_Ionization_Penalty_Charging>
0

> <r_epik_Ionization_Penalty_Neutral>
5.57253e-05

> <r_epik_State_Penalty>
-0

> <r_epik_Charging_Adjusted_Penalty>
0

> <i_epik_Tot_Q>
0

> <i_epik_Tot_abs_Q>
0

> <r_epik_Metal_State_Penalty>
-0

> <b_epik_Metal_Only>
0

> <s_lp_Force_Field>
OPLS_2005

> <r_lp_Energy>
19.2835

> <b_lp_Chiralities_Consistent>
1

> <s_lp_Variant>
AV-unprocessed.smi:1700-2

> <Gold.Version>
5.8.1

> <Gold.Id.Protein>
6NUR|6NUR_protein|mol2

> <Gold.PLP.Fitness>
44.4261

> <Gold.PLP.PLP>
-36.7311

> <Gold.PLP.part.hbond>
-2.5246

> <Gold.PLP.part.metal>
0.0000

> <Gold.PLP.part.buried>
-3.2232

> <Gold.PLP.part.nonpolar>
-30.4441

> <Gold.PLP.part.repulsive>
0.5131

> <Gold.PLP.ligand.clash>
0.0000

> <Gold.PLP.ligand.torsion>
0.4941

> <Gold.PLP.Chemscore.Hbond>
1.9920

> <Gold.PLP.Chemscore.CHOScore>
0.9010

> <Gold.PLP.Chemscore.Metal>
0.0000

> <Gold.Chemscore.Hbonds>
donor molecule, donor type, donor heavy atom, donor atom, acceptor molecule, acceptor atom, score
      L1  H     8    24       P1  8028  1.00
      L1  H    11    25       P1  8028  1.00
      L1  C     5    23       P1  7948  0.93

> <Gold.PLP.Chemscore.Internal.Correction>
0.0043

> <Gold.Rescore>
     Score         DG    S(hbond)    S(metal)    S(lipo)     H(rot)  DE(clash)    DE(int)     intcor
     17.83     -19.61       1.91        0.00      93.25       1.23       0.24       1.53       ----

> <Gold.Chemscore.Fitness>
17.8350

> <Gold.Chemscore.DG>
-19.6051

> <Gold.Chemscore.ZeroCoef>
-5.4800

> <Gold.Chemscore.Hbond>
1.9080

> <Gold.Chemscore.Metal>
0.0000

> <Gold.Chemscore.Lipo>
93.2539

> <Gold.Chemscore.Internal_Hbond>
0.0000

> <Gold.Chemscore.DEClash>
0.2402

> <Gold.Chemscore.DEInternal>
1.5300

> <Gold.Chemscore.Rot>
1.2337

> <Gold.Chemscore.Internal.Correction>
   9.000000E+99

> <Gold.Chemscore.Hbonds>
donor molecule, donor type, donor heavy atom, donor atom, acceptor molecule, acceptor atom, score
      L1  H     8    24       P1  8028  0.94
      L1  H    11    25       P1  8028  0.98

> <Gold.Chemscore.Hbond.Weighted>
-6.3726

> <Gold.Chemscore.Metal.Weighted>
-0.0000

> <Gold.Chemscore.Lipo.Weighted>
-10.9107

> <Gold.Chemscore.Internal_Hbond.Weighted>
0.0000

> <Gold.Chemscore.DEClash.Weighted>
0.2402

> <Gold.Chemscore.DEInternal.Weighted>
1.5300

> <Gold.Chemscore.Rot.Weighted>
3.1582

> <Gold.Chemscore.Internal.Correction.Weighted>
   9.000000E+99

> <Gold.Protein.RotatedTorsions>
[ 6907 6896 6895 6894 ] final -152.95 input  -60.11 | X-H torsion
[ 7974 7965 7964 7962 ] final -126.07 input  175.53 | X-H torsion
[ 8008 7997 7996 7995 ] final  -21.30 input   59.86 | X-H torsion
[ 10167 10162 10161 10158 ] final  115.53 input  -65.29 | X-H torsion
[ 10718 10713 10712 10709 ] final   -9.17 input   66.30 | X-H torsion
[ 10763 10752 10751 10750 ] final  133.68 input  -60.55 | X-H torsion
[ 11005 11000 10999 10996 ] final -137.53 input  -57.11 | X-H torsion

> <Gold.Protein.ActiveResidues>
 VAL166  LYS551  ARG553  GLY616  TRP617  ASP618  TYR619  PRO620  LYS621  CYS622 
 ASP623  PHE694  ASN695  SER759  ASP760  ASP761  ALA762  ILE779  LEU786  VAL792 
 PHE793  MET794  SER795  GLU796  ALA797  LYS798  CYS799  TRP800  GLU811  SER814 

> <Gold.Protein.RotatedAtoms>
  151.2353  133.4428  159.2605 H   0  0  0  0  0  0  0  0  0  0  0  0  # atno 6907 bound_to 6896
  151.0756  134.9826  159.8340 H   0  0  0  0  0  0  0  0  0  0  0  0  # atno 6908 bound_to 6896
  152.5418  134.2296  159.8872 H   0  0  0  0  0  0  0  0  0  0  0  0  # atno 6909 bound_to 6896
  144.9910  140.7732  143.4554 H   0  0  0  0  0  0  0  0  0  0  0  0  # atno 7974 bound_to 7965
  154.4715  140.2038  155.9984 H   0  0  0  0  0  0  0  0  0  0  0  0  # atno 8008 bound_to 7997
  156.1018  140.3242  155.7922 H   0  0  0  0  0  0  0  0  0  0  0  0  # atno 8009 bound_to 7997
  155.4785  140.0537  157.2961 H   0  0  0  0  0  0  0  0  0  0  0  0  # atno 8010 bound_to 7997
  139.6310  144.7115  151.2432 H   0  0  0  0  0  0  0  0  0  0  0  0  # atno 10167 bound_to 10162
  156.6919  130.5067  149.5941 H   0  0  0  0  0  0  0  0  0  0  0  0  # atno 10718 bound_to 10713
  153.8111  135.3129  155.3401 H   0  0  0  0  0  0  0  0  0  0  0  0  # atno 10763 bound_to 10752
  154.8051  135.4703  154.0374 H   0  0  0  0  0  0  0  0  0  0  0  0  # atno 10764 bound_to 10752
  153.1753  135.6884  153.8640 H   0  0  0  0  0  0  0  0  0  0  0  0  # atno 10765 bound_to 10752
  140.8702  134.2060  157.4655 H   0  0  0  0  0  0  0  0  0  0  0  0  # atno 11005 bound_to 11000
  145.2285  139.2126  143.5055 LP  0  0  0  0  0  0  0  0  0  0  0  0  # atno 17320 bound_to 7965
  146.3431  140.2158  142.8590 LP  0  0  0  0  0  0  0  0  0  0  0  0  # atno 17321 bound_to 7965
  140.7439  143.6480  150.8274 LP  0  0  0  0  0  0  0  0  0  0  0  0  # atno 17342 bound_to 10162
  140.0105  143.5648  152.2841 LP  0  0  0  0  0  0  0  0  0  0  0  0  # atno 17343 bound_to 10162
  156.1791  130.6487  151.0930 LP  0  0  0  0  0  0  0  0  0  0  0  0  # atno 17370 bound_to 10713
  157.7005  131.0777  150.6834 LP  0  0  0  0  0  0  0  0  0  0  0  0  # atno 17371 bound_to 10713
  139.8711  134.9770  156.4944 LP  0  0  0  0  0  0  0  0  0  0  0  0  # atno 17394 bound_to 11000
  140.8582  133.8080  155.9238 LP  0  0  0  0  0  0  0  0  0  0  0  0  # atno 17395 bound_to 11000

$$$$
