AV-unprocessed.smi:1456|AV-procd|sdf|5917|dock5
  -GOLD-   22720 6 03D 1   1.00000     0.00000
 Structure written by MMmdl.
 42 43  0  0  0  0  0  0  0  0  2 V2000
  147.4221  139.5711  155.4178 C   0  0  0  0  0  0  0  0  0  0  0  0
  148.1907  138.9440  154.2338 C   0  0  0  0  0  0  0  0  0  0  0  0
  147.2240  138.9415  153.0337 C   0  0  0  0  0  0  0  0  0  0  0  0
  149.4402  139.7694  153.8376 C   0  0  0  0  0  0  0  0  0  0  0  0
  150.6736  139.5636  154.7379 C   0  0  0  0  0  0  0  0  0  0  0  0
  150.5841  140.2505  156.0247 N   0  0  0  0  0  0  0  0  0  0  0  0
  151.5814  140.3730  156.9132 C   0  0  0  0  0  0  0  0  0  0  0  0
  152.7075  139.9080  156.7361 O   0  0  0  0  0  0  0  0  0  0  0  0
  151.1855  141.0641  157.9961 N   0  0  0  0  0  0  0  0  0  0  0  0
  151.9539  141.4259  159.1336 C   0  0  0  0  0  0  0  0  0  0  0  0
  151.5921  142.3576  160.0235 N   0  0  0  0  0  0  0  0  0  0  0  0
  152.5362  142.5037  161.0430 C   0  0  0  0  0  0  0  0  0  0  0  0
  153.6181  141.6688  160.9127 C   0  0  0  0  0  0  0  0  0  0  0  0
  153.4941  140.6608  159.4955 S   0  0  0  0  0  0  0  0  0  0  0  0
  150.9664  138.0633  154.9020 C   0  0  0  0  0  0  0  0  0  0  0  0
  149.7506  137.1935  155.3148 C   0  0  0  0  0  0  0  0  0  0  0  0
  150.0975  135.7215  155.0183 C   0  0  0  0  0  0  0  0  0  0  0  0
  149.4528  137.2787  156.8283 C   0  0  0  0  0  0  0  0  0  0  0  0
  148.5460  137.5217  154.5008 N   0  3  0  0  0  0  0  0  0  0  0  0
  147.0212  140.5481  155.1454 H   0  0  0  0  0  0  0  0  0  0  0  0
  148.0319  139.7348  156.3000 H   0  0  0  0  0  0  0  0  0  0  0  0
  146.5781  138.9481  155.7157 H   0  0  0  0  0  0  0  0  0  0  0  0
  146.9277  139.9545  152.7581 H   0  0  0  0  0  0  0  0  0  0  0  0
  146.3132  138.3833  153.2549 H   0  0  0  0  0  0  0  0  0  0  0  0
  147.6781  138.4849  152.1531 H   0  0  0  0  0  0  0  0  0  0  0  0
  149.7383  139.4804  152.8285 H   0  0  0  0  0  0  0  0  0  0  0  0
  149.1861  140.8277  153.7638 H   0  0  0  0  0  0  0  0  0  0  0  0
  151.5330  139.9989  154.2241 H   0  0  0  0  0  0  0  0  0  0  0  0
  149.6916  140.6595  156.2601 H   0  0  0  0  0  0  0  0  0  0  0  0
  150.2257  141.3758  158.0061 H   0  0  0  0  0  0  0  0  0  0  0  0
  152.3568  143.2274  161.8243 H   0  0  0  0  0  0  0  0  0  0  0  0
  154.4771  141.5860  161.5618 H   0  0  0  0  0  0  0  0  0  0  0  0
  151.3336  137.7074  153.9379 H   0  0  0  0  0  0  0  0  0  0  0  0
  151.7948  137.9139  155.5963 H   0  0  0  0  0  0  0  0  0  0  0  0
  150.9894  135.4046  155.5605 H   0  0  0  0  0  0  0  0  0  0  0  0
  150.2880  135.5596  153.9564 H   0  0  0  0  0  0  0  0  0  0  0  0
  149.2851  135.0529  155.3067 H   0  0  0  0  0  0  0  0  0  0  0  0
  150.2849  136.8800  157.4097 H   0  0  0  0  0  0  0  0  0  0  0  0
  148.5689  136.6960  157.0901 H   0  0  0  0  0  0  0  0  0  0  0  0
  149.2926  138.2895  157.1882 H   0  0  0  0  0  0  0  0  0  0  0  0
  147.7440  137.0518  154.8957 H   0  0  0  0  0  0  0  0  0  0  0  0
  148.7202  137.1166  153.5921 H   0  0  0  0  0  0  0  0  0  0  0  0
  1  2  1  0  0  0  0
  1 20  1  0  0  0  0
  1 21  1  0  0  0  0
  1 22  1  0  0  0  0
  2 19  1  0  0  0  0
  2  3  1  0  0  0  0
  2  4  1  0  0  0  0
  3 23  1  0  0  0  0
  3 24  1  0  0  0  0
  3 25  1  0  0  0  0
  4  5  1  0  0  0  0
  4 26  1  0  0  0  0
  4 27  1  0  0  0  0
  5  6  1  0  0  0  0
  5 15  1  0  0  0  0
  5 28  1  0  0  0  0
  6  7  1  0  0  0  0
  6 29  1  0  0  0  0
  7  8  2  0  0  0  0
  7  9  1  0  0  0  0
  9 10  1  0  0  0  0
  9 30  1  0  0  0  0
 10 14  1  0  0  0  0
 10 11  2  0  0  0  0
 11 12  1  0  0  0  0
 12 13  2  0  0  0  0
 12 31  1  0  0  0  0
 13 14  1  0  0  0  0
 13 32  1  0  0  0  0
 15 16  1  0  0  0  0
 15 33  1  0  0  0  0
 15 34  1  0  0  0  0
 16 17  1  0  0  0  0
 16 18  1  0  0  0  0
 16 19  1  0  0  0  0
 17 35  1  0  0  0  0
 17 36  1  0  0  0  0
 17 37  1  0  0  0  0
 18 38  1  0  0  0  0
 18 39  1  0  0  0  0
 18 40  1  0  0  0  0
 19 41  1  0  0  0  0
 19 42  1  0  0  0  0
M  CHG  1  19   1
M  END
> <s_m_source_file>
AV-unprocessed.smi

> <i_m_source_file_index>
1456

> <i_lp_mmshare_version>
43012

> <i_f3d_flags>
0

> <s_epik_input>
W0NIM11DMShbQ0gzXSlbQ0gyXVtDSF0oW0NIMl1DKFtDSDNdKShbQ0gzXSlbTkhdMSlbTkhdQyg9TylbTkhdYzJuW2NIXVtjSF1zMg==

> <s_epik_cmdline>
J2VwaWtfcHl0aG9uJywgJy1waCcsICc3LjAnLCAnLXRuJywgJzgnLCAnLW1hJywgJzIwMCcsICctbWV0YWxfYmluZGluZycsICctaW1hZScsICc8aW5maWxlLm1hZT4nLCAnLW9tYWUnLCAnPG91dGZpbGUubWFlPic=

> <r_lp_tautomer_probability>
1

> <r_epik_Ionization_Penalty>
0.000374891

> <r_epik_Ionization_Penalty_Charging>
0.000101406

> <r_epik_Ionization_Penalty_Neutral>
0.000273485

> <r_epik_State_Penalty>
-0

> <r_epik_Charging_Adjusted_Penalty>
0.000101406

> <i_epik_Tot_Q>
1

> <i_epik_Tot_abs_Q>
1

> <r_epik_Metal_State_Penalty>
0.0101225

> <b_epik_Metal_Only>
0

> <s_lp_Force_Field>
OPLS_2005

> <r_lp_Energy>
24.6198

> <b_lp_Chiralities_Consistent>
1

> <s_lp_Variant>
AV-unprocessed.smi:1456-1

> <Gold.Version>
5.8.1

> <Gold.Id.Protein>
6NUR|6NUR_protein|mol2

> <Gold.PLP.Fitness>
37.6879

> <Gold.PLP.PLP>
-28.8669

> <Gold.PLP.part.hbond>
-2.8637

> <Gold.PLP.part.metal>
0.0000

> <Gold.PLP.part.buried>
1.4852

> <Gold.PLP.part.nonpolar>
-26.5891

> <Gold.PLP.part.repulsive>
0.1789

> <Gold.PLP.ligand.clash>
0.0000

> <Gold.PLP.ligand.torsion>
0.0983

> <Gold.PLP.Chemscore.Hbond>
3.0000

> <Gold.PLP.Chemscore.CHOScore>
0.0000

> <Gold.PLP.Chemscore.Metal>
0.0000

> <Gold.Chemscore.Hbonds>
donor molecule, donor type, donor heavy atom, donor atom, acceptor molecule, acceptor atom, score
      L1  H    19    42       P1  7948  2.00
      P1  H  7997  8009       L1     8  1.00

> <Gold.PLP.Chemscore.Internal.Correction>
0.0176

> <Gold.Rescore>
     Score         DG    S(hbond)    S(metal)    S(lipo)     H(rot)  DE(clash)    DE(int)     intcor
     15.75     -18.42       2.00        0.00      75.41       1.00       1.45       1.22       ----

> <Gold.Chemscore.Fitness>
15.7500

> <Gold.Chemscore.DG>
-18.4169

> <Gold.Chemscore.ZeroCoef>
-5.4800

> <Gold.Chemscore.Hbond>
1.9981

> <Gold.Chemscore.Metal>
0.0000

> <Gold.Chemscore.Lipo>
75.4133

> <Gold.Chemscore.Internal_Hbond>
0.0000

> <Gold.Chemscore.DEClash>
1.4485

> <Gold.Chemscore.DEInternal>
1.2183

> <Gold.Chemscore.Rot>
1.0000

> <Gold.Chemscore.Internal.Correction>
   9.000000E+99

> <Gold.Chemscore.Hbonds>
donor molecule, donor type, donor heavy atom, donor atom, acceptor molecule, acceptor atom, score
      L1  H    19    42       P1  7948  0.99
      P1  H  7997  8009       L1     8  0.99

> <Gold.Chemscore.Hbond.Weighted>
-6.6735

> <Gold.Chemscore.Metal.Weighted>
-0.0000

> <Gold.Chemscore.Lipo.Weighted>
-8.8234

> <Gold.Chemscore.Internal_Hbond.Weighted>
0.0000

> <Gold.Chemscore.DEClash.Weighted>
1.4485

> <Gold.Chemscore.DEInternal.Weighted>
1.2183

> <Gold.Chemscore.Rot.Weighted>
2.5600

> <Gold.Chemscore.Internal.Correction.Weighted>
   9.000000E+99

> <Gold.Protein.RotatedTorsions>
[ 6907 6896 6895 6894 ] final   -0.24 input  -60.11 | X-H torsion
[ 7974 7965 7964 7962 ] final -103.52 input  175.53 | X-H torsion
[ 8008 7997 7996 7995 ] final -164.14 input   59.86 | X-H torsion
[ 10167 10162 10161 10158 ] final   84.00 input  -65.29 | X-H torsion
[ 10718 10713 10712 10709 ] final  -64.77 input   66.30 | X-H torsion
[ 10763 10752 10751 10750 ] final  167.78 input  -60.55 | X-H torsion
[ 11005 11000 10999 10996 ] final  129.84 input  -57.11 | X-H torsion

> <Gold.Protein.ActiveResidues>
 VAL166  LYS551  ARG553  GLY616  TRP617  ASP618  TYR619  PRO620  LYS621  CYS622 
 ASP623  PHE694  ASN695  SER759  ASP760  ASP761  ALA762  ILE779  LEU786  VAL792 
 PHE793  MET794  SER795  GLU796  ALA797  LYS798  CYS799  TRP800  GLU811  SER814 

> <Gold.Protein.RotatedAtoms>
  151.5655  135.1064  159.9982 H   0  0  0  0  0  0  0  0  0  0  0  0  # atno 6907 bound_to 6896
  152.4426  133.7472  159.6684 H   0  0  0  0  0  0  0  0  0  0  0  0  # atno 6908 bound_to 6896
  150.8335  133.7984  159.3113 H   0  0  0  0  0  0  0  0  0  0  0  0  # atno 6909 bound_to 6896
  145.2549  140.9250  143.3074 H   0  0  0  0  0  0  0  0  0  0  0  0  # atno 7974 bound_to 7965
  155.8313  140.0934  157.1791 H   0  0  0  0  0  0  0  0  0  0  0  0  # atno 8008 bound_to 7997
  154.3980  140.1418  156.3678 H   0  0  0  0  0  0  0  0  0  0  0  0  # atno 8009 bound_to 7997
  155.8163  140.3448  155.5490 H   0  0  0  0  0  0  0  0  0  0  0  0  # atno 8010 bound_to 7997
  139.9126  144.6262  150.8522 H   0  0  0  0  0  0  0  0  0  0  0  0  # atno 10167 bound_to 10162
  156.0709  130.4238  150.1467 H   0  0  0  0  0  0  0  0  0  0  0  0  # atno 10718 bound_to 10713
  154.3589  135.2753  155.2331 H   0  0  0  0  0  0  0  0  0  0  0  0  # atno 10763 bound_to 10752
  154.4528  135.5926  153.6206 H   0  0  0  0  0  0  0  0  0  0  0  0  # atno 10764 bound_to 10752
  152.9845  135.6046  154.3807 H   0  0  0  0  0  0  0  0  0  0  0  0  # atno 10765 bound_to 10752
  139.9638  134.9596  156.9207 H   0  0  0  0  0  0  0  0  0  0  0  0  # atno 11005 bound_to 11000
  144.9470  139.4125  143.6421 LP  0  0  0  0  0  0  0  0  0  0  0  0  # atno 17320 bound_to 7965
  146.3292  139.8458  142.8882 LP  0  0  0  0  0  0  0  0  0  0  0  0  # atno 17321 bound_to 7965
  140.7682  143.3354  151.2319 LP  0  0  0  0  0  0  0  0  0  0  0  0  # atno 17342 bound_to 10162
  139.6929  143.9661  152.2868 LP  0  0  0  0  0  0  0  0  0  0  0  0  # atno 17343 bound_to 10162
  156.9518  130.9777  151.3496 LP  0  0  0  0  0  0  0  0  0  0  0  0  # atno 17370 bound_to 10713
  157.5779  130.8356  149.8482 LP  0  0  0  0  0  0  0  0  0  0  0  0  # atno 17371 bound_to 10713
  140.5441  134.0691  155.7350 LP  0  0  0  0  0  0  0  0  0  0  0  0  # atno 17394 bound_to 11000
  141.1317  133.9291  157.2521 LP  0  0  0  0  0  0  0  0  0  0  0  0  # atno 17395 bound_to 11000

$$$$
