AV-unprocessed.smi:2880|AV-procd|sdf|11054|dock5
  -GOLD-   2272015523D 1   1.00000     0.00000
 Structure written by MMmdl.
 47 48  0  0  0  0  0  0  0  0  1 V2000
  146.6258  142.3284  156.2185 C   0  0  0  0  0  0  0  0  0  0  0  0
  147.0793  141.7735  154.8539 C   0  0  0  0  0  0  0  0  0  0  0  0
  146.4505  142.6429  153.7390 C   0  0  0  0  0  0  0  0  0  0  0  0
  148.6132  141.8645  154.7381 C   0  0  0  0  0  0  0  0  0  0  0  0
  146.6766  140.3642  154.7538 N   0  0  0  0  0  0  0  0  0  0  0  0
  145.8567  139.6518  155.6131 C   0  0  0  0  0  0  0  0  0  0  0  0
  145.7548  138.3743  155.1415 C   0  0  0  0  0  0  0  0  0  0  0  0
  146.5603  138.3951  153.9720 C   0  0  0  0  0  0  0  0  0  0  0  0
  146.7117  137.2317  153.1754 N   0  0  0  0  0  0  0  0  0  0  0  0
  145.8090  136.2587  152.9647 C   0  0  0  0  0  0  0  0  0  0  0  0
  144.6651  136.2425  153.4209 O   0  0  0  0  0  0  0  0  0  0  0  0
  146.3179  135.2884  152.1906 N   0  0  0  0  0  0  0  0  0  0  0  0
  145.6330  134.0595  151.7911 C   0  0  1  0  0  0  0  0  0  0  0  0
  144.8528  134.3336  150.4899 C   0  0  0  0  0  0  0  0  0  0  0  0
  144.1304  133.0770  149.9854 C   0  0  0  0  0  0  0  0  0  0  0  0
  145.1193  131.9206  149.7939 C   0  0  0  0  0  0  0  0  0  0  0  0
  145.8896  131.6356  151.0917 C   0  0  0  0  0  0  0  0  0  0  0  0
  146.6344  132.8829  151.6158 C   0  0  2  0  0  0  0  0  0  0  0  0
  147.4043  132.5282  152.9093 C   0  0  0  0  0  0  0  0  0  0  0  0
  148.3094  131.4616  152.7096 O   0  0  0  0  0  0  0  0  0  0  0  0
  147.1122  139.5767  153.7406 N   0  0  0  0  0  0  0  0  0  0  0  0
  146.8982  143.3785  156.3289 H   0  0  0  0  0  0  0  0  0  0  0  0
  147.0810  141.7873  157.0485 H   0  0  0  0  0  0  0  0  0  0  0  0
  145.5435  142.2565  156.3332 H   0  0  0  0  0  0  0  0  0  0  0  0
  145.3607  142.6222  153.7786 H   0  0  0  0  0  0  0  0  0  0  0  0
  146.7545  142.3082  152.7463 H   0  0  0  0  0  0  0  0  0  0  0  0
  146.7558  143.6856  153.8338 H   0  0  0  0  0  0  0  0  0  0  0  0
  148.9545  142.8985  154.7976 H   0  0  0  0  0  0  0  0  0  0  0  0
  148.9621  141.4578  153.7881 H   0  0  0  0  0  0  0  0  0  0  0  0
  149.1132  141.3125  155.5345 H   0  0  0  0  0  0  0  0  0  0  0  0
  145.4145  140.1100  156.4852 H   0  0  0  0  0  0  0  0  0  0  0  0
  145.1923  137.5570  155.5673 H   0  0  0  0  0  0  0  0  0  0  0  0
  147.6122  137.1169  152.7342 H   0  0  0  0  0  0  0  0  0  0  0  0
  147.2694  135.3940  151.8709 H   0  0  0  0  0  0  0  0  0  0  0  0
  144.9084  133.7712  152.5550 H   0  0  0  0  0  0  0  0  0  0  0  0
  144.1261  135.1312  150.6508 H   0  0  0  0  0  0  0  0  0  0  0  0
  145.5362  134.6905  149.7177 H   0  0  0  0  0  0  0  0  0  0  0  0
  143.3575  132.7861  150.6980 H   0  0  0  0  0  0  0  0  0  0  0  0
  143.6207  133.2913  149.0457 H   0  0  0  0  0  0  0  0  0  0  0  0
  144.5869  131.0250  149.4725 H   0  0  0  0  0  0  0  0  0  0  0  0
  145.8222  132.1658  148.9967 H   0  0  0  0  0  0  0  0  0  0  0  0
  145.1960  131.2757  151.8530 H   0  0  0  0  0  0  0  0  0  0  0  0
  146.5979  130.8254  150.9145 H   0  0  0  0  0  0  0  0  0  0  0  0
  147.3649  133.1599  150.8534 H   0  0  0  0  0  0  0  0  0  0  0  0
  147.9401  133.3970  153.2931 H   0  0  0  0  0  0  0  0  0  0  0  0
  146.7121  132.2132  153.6906 H   0  0  0  0  0  0  0  0  0  0  0  0
  148.3063  131.2335  151.7924 H   0  0  0  0  0  0  0  0  0  0  0  0
  1  2  1  0  0  0  0
  1 22  1  0  0  0  0
  1 23  1  0  0  0  0
  1 24  1  0  0  0  0
  2  3  1  0  0  0  0
  2  4  1  0  0  0  0
  2  5  1  0  0  0  0
  3 25  1  0  0  0  0
  3 26  1  0  0  0  0
  3 27  1  0  0  0  0
  4 28  1  0  0  0  0
  4 29  1  0  0  0  0
  4 30  1  0  0  0  0
  5 21  1  0  0  0  0
  5  6  1  0  0  0  0
  6  7  2  0  0  0  0
  6 31  1  0  0  0  0
  7  8  1  0  0  0  0
  7 32  1  0  0  0  0
  8  9  1  0  0  0  0
  8 21  2  0  0  0  0
  9 10  1  0  0  0  0
  9 33  1  0  0  0  0
 10 11  2  0  0  0  0
 10 12  1  0  0  0  0
 12 13  1  0  0  0  0
 12 34  1  0  0  0  0
 13 18  1  0  0  0  0
 13 14  1  0  0  0  0
 13 35  1  0  0  0  0
 14 15  1  0  0  0  0
 14 36  1  0  0  0  0
 14 37  1  0  0  0  0
 15 16  1  0  0  0  0
 15 38  1  0  0  0  0
 15 39  1  0  0  0  0
 16 17  1  0  0  0  0
 16 40  1  0  0  0  0
 16 41  1  0  0  0  0
 17 18  1  0  0  0  0
 17 42  1  0  0  0  0
 17 43  1  0  0  0  0
 18 19  1  0  0  0  0
 18 44  1  0  0  0  0
 19 20  1  0  0  0  0
 19 45  1  0  0  0  0
 19 46  1  0  0  0  0
 20 47  1  0  0  0  0
M  END
> <s_m_source_file>
AV-unprocessed.smi

> <i_m_source_file_index>
2880

> <i_lp_mmshare_version>
43012

> <i_f3d_flags>
0

> <s_epik_input>
W0NIM11DKFtDSDNdKShbQ0gzXSluMVtjSF1bY0hdYyhuMSlbTkhdQyg9TylbTkhdW0NAQEhdMltDSDJdW0NIMl1bQ0gyXVtDSDJdW0NASF0yW0NIMl1bT0hd

> <s_epik_cmdline>
J2VwaWtfcHl0aG9uJywgJy1waCcsICc3LjAnLCAnLXRuJywgJzgnLCAnLW1hJywgJzIwMCcsICctbWV0YWxfYmluZGluZycsICctaW1hZScsICc8aW5maWxlLm1hZT4nLCAnLW9tYWUnLCAnPG91dGZpbGUubWFlPic=

> <r_lp_tautomer_probability>
1

> <r_epik_Ionization_Penalty>
3.89283e-05

> <r_epik_Ionization_Penalty_Charging>
0

> <r_epik_Ionization_Penalty_Neutral>
3.89283e-05

> <r_epik_State_Penalty>
-0

> <r_epik_Charging_Adjusted_Penalty>
0

> <i_epik_Tot_Q>
0

> <i_epik_Tot_abs_Q>
0

> <r_epik_Metal_State_Penalty>
-0

> <b_epik_Metal_Only>
0

> <s_lp_Force_Field>
OPLS_2005

> <r_lp_Energy>
21.9333

> <b_lp_Chiralities_Consistent>
1

> <s_lp_Variant>
AV-unprocessed.smi:2880-4

> <Gold.Version>
5.8.1

> <Gold.Id.Protein>
6NUR|6NUR_protein|mol2

> <Gold.PLP.Fitness>
39.7488

> <Gold.PLP.PLP>
-32.3994

> <Gold.PLP.part.hbond>
-3.0000

> <Gold.PLP.part.metal>
0.0000

> <Gold.PLP.part.buried>
-3.9850

> <Gold.PLP.part.nonpolar>
-25.8816

> <Gold.PLP.part.repulsive>
0.2888

> <Gold.PLP.ligand.clash>
0.0000

> <Gold.PLP.ligand.torsion>
0.8320

> <Gold.PLP.Chemscore.Hbond>
3.0000

> <Gold.PLP.Chemscore.CHOScore>
0.0000

> <Gold.PLP.Chemscore.Metal>
0.0000

> <Gold.Chemscore.Hbonds>
donor molecule, donor type, donor heavy atom, donor atom, acceptor molecule, acceptor atom, score
      L1  H     9    33       P1  7948  1.00
      L1  H    12    34       P1  7948  1.00
      L1  H    20    47       P1 10747  1.00

> <Gold.PLP.Chemscore.Internal.Correction>
0.0133

> <Gold.Rescore>
     Score         DG    S(hbond)    S(metal)    S(lipo)     H(rot)  DE(clash)    DE(int)     intcor
     17.25     -19.34       2.96        0.00      76.95       1.97       0.15       1.95       ----

> <Gold.Chemscore.Fitness>
17.2466

> <Gold.Chemscore.DG>
-19.3417

> <Gold.Chemscore.ZeroCoef>
-5.4800

> <Gold.Chemscore.Hbond>
2.9626

> <Gold.Chemscore.Metal>
0.0000

> <Gold.Chemscore.Lipo>
76.9462

> <Gold.Chemscore.Internal_Hbond>
0.0000

> <Gold.Chemscore.DEClash>
0.1482

> <Gold.Chemscore.DEInternal>
1.9469

> <Gold.Chemscore.Rot>
1.9672

> <Gold.Chemscore.Internal.Correction>
   9.000000E+99

> <Gold.Chemscore.Hbonds>
donor molecule, donor type, donor heavy atom, donor atom, acceptor molecule, acceptor atom, score
      L1  H     9    33       P1  7948  0.99
      L1  H    12    34       P1  7948  0.98
      L1  H    20    47       P1 10747  0.98

> <Gold.Chemscore.Hbond.Weighted>
-9.8950

> <Gold.Chemscore.Metal.Weighted>
-0.0000

> <Gold.Chemscore.Lipo.Weighted>
-9.0027

> <Gold.Chemscore.Internal_Hbond.Weighted>
0.0000

> <Gold.Chemscore.DEClash.Weighted>
0.1482

> <Gold.Chemscore.DEInternal.Weighted>
1.9469

> <Gold.Chemscore.Rot.Weighted>
5.0360

> <Gold.Chemscore.Internal.Correction.Weighted>
   9.000000E+99

> <Gold.Protein.RotatedTorsions>
[ 6907 6896 6895 6894 ] final  125.67 input  -60.11 | X-H torsion
[ 7974 7965 7964 7962 ] final  -41.06 input  175.53 | X-H torsion
[ 8008 7997 7996 7995 ] final  -65.95 input   59.86 | X-H torsion
[ 10167 10162 10161 10158 ] final -132.61 input  -65.29 | X-H torsion
[ 10718 10713 10712 10709 ] final   50.38 input   66.30 | X-H torsion
[ 10763 10752 10751 10750 ] final    8.18 input  -60.55 | X-H torsion
[ 11005 11000 10999 10996 ] final  155.36 input  -57.11 | X-H torsion

> <Gold.Protein.ActiveResidues>
 VAL166  LYS551  ARG553  GLY616  TRP617  ASP618  TYR619  PRO620  LYS621  CYS622 
 ASP623  PHE694  ASN695  SER759  ASP760  ASP761  ALA762  ILE779  LEU786  VAL792 
 PHE793  MET794  SER795  GLU796  ALA797  LYS798  CYS799  TRP800  GLU811  SER814 

> <Gold.Protein.RotatedAtoms>
  152.3971  133.6763  159.6285 H   0  0  0  0  0  0  0  0  0  0  0  0  # atno 6907 bound_to 6896
  150.7868  133.8855  159.3307 H   0  0  0  0  0  0  0  0  0  0  0  0  # atno 6908 bound_to 6896
  151.6628  135.0988  160.0234 H   0  0  0  0  0  0  0  0  0  0  0  0  # atno 6909 bound_to 6896
  146.0247  140.6807  142.9161 H   0  0  0  0  0  0  0  0  0  0  0  0  # atno 7974 bound_to 7965
  154.4703  140.0923  156.7128 H   0  0  0  0  0  0  0  0  0  0  0  0  # atno 8008 bound_to 7997
  155.4742  140.3465  155.4312 H   0  0  0  0  0  0  0  0  0  0  0  0  # atno 8009 bound_to 7997
  156.1028  140.1427  156.9433 H   0  0  0  0  0  0  0  0  0  0  0  0  # atno 8010 bound_to 7997
  139.9068  143.6542  152.2584 H   0  0  0  0  0  0  0  0  0  0  0  0  # atno 10167 bound_to 10162
  157.4879  130.8357  149.8168 H   0  0  0  0  0  0  0  0  0  0  0  0  # atno 10718 bound_to 10713
  153.2279  135.6889  153.7924 H   0  0  0  0  0  0  0  0  0  0  0  0  # atno 10763 bound_to 10752
  153.7099  135.3284  155.3245 H   0  0  0  0  0  0  0  0  0  0  0  0  # atno 10764 bound_to 10752
  154.8300  135.4588  154.1152 H   0  0  0  0  0  0  0  0  0  0  0  0  # atno 10765 bound_to 10752
  140.1574  134.8633  157.2531 H   0  0  0  0  0  0  0  0  0  0  0  0  # atno 11005 bound_to 11000
  144.7004  140.3628  143.7160 LP  0  0  0  0  0  0  0  0  0  0  0  0  # atno 17320 bound_to 7965
  145.7137  139.1691  143.2524 LP  0  0  0  0  0  0  0  0  0  0  0  0  # atno 17321 bound_to 7965
  139.6977  144.7639  151.1327 LP  0  0  0  0  0  0  0  0  0  0  0  0  # atno 17342 bound_to 10162
  140.7694  143.5500  150.9215 LP  0  0  0  0  0  0  0  0  0  0  0  0  # atno 17343 bound_to 10162
  156.0157  130.3815  150.2119 LP  0  0  0  0  0  0  0  0  0  0  0  0  # atno 17370 bound_to 10713
  157.0307  131.0006  151.3313 LP  0  0  0  0  0  0  0  0  0  0  0  0  # atno 17371 bound_to 10713
  140.2531  134.3659  155.7434 LP  0  0  0  0  0  0  0  0  0  0  0  0  # atno 17394 bound_to 11000
  141.2206  133.7328  156.8966 LP  0  0  0  0  0  0  0  0  0  0  0  0  # atno 17395 bound_to 11000

$$$$
