AV-unprocessed.smi:2268|AV-procd|sdf|9150|dock9
  -GOLD-   2272012353D 1   1.00000     0.00000
 Structure written by MMmdl.
 37 38  0  0  0  0  0  0  0  0  1 V2000
  153.3077  140.7766  158.8034 C   0  0  0  0  0  0  0  0  0  0  0  0
  152.8427  141.9126  159.6981 C   0  0  0  0  0  0  0  0  0  0  0  0
  153.3656  141.9958  161.0070 C   0  0  0  0  0  0  0  0  0  0  0  0
  152.9553  143.0207  161.8787 C   0  0  0  0  0  0  0  0  0  0  0  0
  153.4639  143.0894  163.1318 F   0  0  0  0  0  0  0  0  0  0  0  0
  152.0135  143.9707  161.4479 C   0  0  0  0  0  0  0  0  0  0  0  0
  151.4879  143.8966  160.1449 C   0  0  0  0  0  0  0  0  0  0  0  0
  151.8987  142.8774  159.2541 C   0  0  0  0  0  0  0  0  0  0  0  0
  151.2988  142.8325  157.8485 C   0  0  2  0  0  0  0  0  0  0  0  0
  151.1834  144.1291  157.2935 O   0  0  0  0  0  0  0  0  0  0  0  0
  149.8987  142.1787  157.8688 C   0  0  0  0  0  0  0  0  0  0  0  0
  149.6155  141.4128  156.6421 N   0  0  0  0  0  0  0  0  0  0  0  0
  148.3620  141.6332  156.0474 C   0  0  0  0  0  0  0  0  0  0  0  0
  148.0050  141.0202  154.9664 N   0  0  0  0  0  0  0  0  0  0  0  0
  148.8780  140.1136  154.3585 C   0  0  0  0  0  0  0  0  0  0  0  0
  148.3612  139.4534  153.0924 C   0  0  0  0  0  0  0  0  0  0  0  0
  150.1071  139.8558  154.8829 C   0  0  0  0  0  0  0  0  0  0  0  0
  151.1005  138.8803  154.2641 C   0  0  0  0  0  0  0  0  0  0  0  0
  150.5263  140.5447  156.1141 C   0  0  0  0  0  0  0  0  0  0  0  0
  151.6250  140.3600  156.6403 O   0  0  0  0  0  0  0  0  0  0  0  0
  153.9694  140.0939  159.3373 H   0  0  0  0  0  0  0  0  0  0  0  0
  153.8541  141.1634  157.9431 H   0  0  0  0  0  0  0  0  0  0  0  0
  152.4559  140.1976  158.4476 H   0  0  0  0  0  0  0  0  0  0  0  0
  154.0857  141.2685  161.3523 H   0  0  0  0  0  0  0  0  0  0  0  0
  151.6927  144.7559  162.1164 H   0  0  0  0  0  0  0  0  0  0  0  0
  150.7603  144.6314  159.8327 H   0  0  0  0  0  0  0  0  0  0  0  0
  151.9591  142.2779  157.1839 H   0  0  0  0  0  0  0  0  0  0  0  0
  150.3021  144.2382  156.9704 H   0  0  0  0  0  0  0  0  0  0  0  0
  149.8364  141.4954  158.7181 H   0  0  0  0  0  0  0  0  0  0  0  0
  149.1321  142.9296  158.0713 H   0  0  0  0  0  0  0  0  0  0  0  0
  147.7205  142.3548  156.5562 H   0  0  0  0  0  0  0  0  0  0  0  0
  148.3156  138.3712  153.2166 H   0  0  0  0  0  0  0  0  0  0  0  0
  149.0137  139.6813  152.2493 H   0  0  0  0  0  0  0  0  0  0  0  0
  147.3592  139.8038  152.8423 H   0  0  0  0  0  0  0  0  0  0  0  0
  152.0247  139.3983  154.0063 H   0  0  0  0  0  0  0  0  0  0  0  0
  150.7281  138.4042  153.3586 H   0  0  0  0  0  0  0  0  0  0  0  0
  151.3430  138.0892  154.9745 H   0  0  0  0  0  0  0  0  0  0  0  0
  1  2  1  0  0  0  0
  1 21  1  0  0  0  0
  1 22  1  0  0  0  0
  1 23  1  0  0  0  0
  2  8  1  0  0  0  0
  2  3  2  0  0  0  0
  3  4  1  0  0  0  0
  3 24  1  0  0  0  0
  4  5  1  0  0  0  0
  4  6  2  0  0  0  0
  6  7  1  0  0  0  0
  6 25  1  0  0  0  0
  7  8  2  0  0  0  0
  7 26  1  0  0  0  0
  8  9  1  0  0  0  0
  9 10  1  0  0  0  0
  9 11  1  0  0  0  0
  9 27  1  0  0  0  0
 10 28  1  0  0  0  0
 11 12  1  0  0  0  0
 11 29  1  0  0  0  0
 11 30  1  0  0  0  0
 12 19  1  0  0  0  0
 12 13  1  0  0  0  0
 13 14  2  0  0  0  0
 13 31  1  0  0  0  0
 14 15  1  0  0  0  0
 15 16  1  0  0  0  0
 15 17  2  0  0  0  0
 16 32  1  0  0  0  0
 16 33  1  0  0  0  0
 16 34  1  0  0  0  0
 17 18  1  0  0  0  0
 17 19  1  0  0  0  0
 18 35  1  0  0  0  0
 18 36  1  0  0  0  0
 18 37  1  0  0  0  0
 19 20  2  0  0  0  0
M  END
> <s_m_source_file>
AV-unprocessed.smi

> <i_m_source_file_index>
2268

> <i_lp_mmshare_version>
43012

> <i_f3d_flags>
0

> <s_epik_input>
W0NIM11jMVtjSF1jKEYpW2NIXVtjSF1jMVtDQEhdKFtPSF0pW0NIMl1uMltjSF1uYyhbQ0gzXSljKFtDSDNdKWMyPU8=

> <s_epik_cmdline>
J2VwaWtfcHl0aG9uJywgJy1waCcsICc3LjAnLCAnLXRuJywgJzgnLCAnLW1hJywgJzIwMCcsICctbWV0YWxfYmluZGluZycsICctaW1hZScsICc8aW5maWxlLm1hZT4nLCAnLW9tYWUnLCAnPG91dGZpbGUubWFlPic=

> <r_lp_tautomer_probability>
1

> <r_epik_Ionization_Penalty>
5.07449e-05

> <r_epik_Ionization_Penalty_Charging>
7.56727e-08

> <r_epik_Ionization_Penalty_Neutral>
5.06692e-05

> <r_epik_State_Penalty>
-0

> <r_epik_Charging_Adjusted_Penalty>
7.56727e-08

> <i_epik_Tot_Q>
0

> <i_epik_Tot_abs_Q>
0

> <r_epik_Metal_State_Penalty>
-0

> <b_epik_Metal_Only>
0

> <s_lp_Force_Field>
OPLS_2005

> <r_lp_Energy>
19.9067

> <b_lp_Chiralities_Consistent>
1

> <s_lp_Variant>
AV-unprocessed.smi:2268-1

> <Gold.Version>
5.8.1

> <Gold.Id.Protein>
6NUR|6NUR_protein|mol2

> <Gold.PLP.Fitness>
45.8201

> <Gold.PLP.PLP>
-43.5305

> <Gold.PLP.part.hbond>
-1.0000

> <Gold.PLP.part.metal>
0.0000

> <Gold.PLP.part.buried>
-0.6237

> <Gold.PLP.part.nonpolar>
-41.6979

> <Gold.PLP.part.repulsive>
0.1048

> <Gold.PLP.ligand.clash>
0.0000

> <Gold.PLP.ligand.torsion>
1.1369

> <Gold.PLP.Chemscore.Hbond>
0.9913

> <Gold.PLP.Chemscore.CHOScore>
0.5274

> <Gold.PLP.Chemscore.Metal>
0.0000

> <Gold.Chemscore.Hbonds>
donor molecule, donor type, donor heavy atom, donor atom, acceptor molecule, acceptor atom, score
      L1  H    10    28       P1  8028  1.00
      L1  C    13    31       P1  8028  0.17

> <Gold.PLP.Chemscore.Internal.Correction>
0.0074

> <Gold.Rescore>
     Score         DG    S(hbond)    S(metal)    S(lipo)     H(rot)  DE(clash)    DE(int)     intcor
     13.99     -16.64       1.00        0.00     110.26       1.98       0.56       2.09       ----

> <Gold.Chemscore.Fitness>
13.9908

> <Gold.Chemscore.DG>
-16.6376

> <Gold.Chemscore.ZeroCoef>
-5.4800

> <Gold.Chemscore.Hbond>
0.9975

> <Gold.Chemscore.Metal>
0.0000

> <Gold.Chemscore.Lipo>
110.2625

> <Gold.Chemscore.Internal_Hbond>
0.0000

> <Gold.Chemscore.DEClash>
0.5603

> <Gold.Chemscore.DEInternal>
2.0864

> <Gold.Chemscore.Rot>
1.9823

> <Gold.Chemscore.Internal.Correction>
   9.000000E+99

> <Gold.Chemscore.Hbonds>
donor molecule, donor type, donor heavy atom, donor atom, acceptor molecule, acceptor atom, score
      L1  H    10    28       P1  8028  0.90

> <Gold.Chemscore.Hbond.Weighted>
-3.3316

> <Gold.Chemscore.Metal.Weighted>
-0.0000

> <Gold.Chemscore.Lipo.Weighted>
-12.9007

> <Gold.Chemscore.Internal_Hbond.Weighted>
0.0000

> <Gold.Chemscore.DEClash.Weighted>
0.5603

> <Gold.Chemscore.DEInternal.Weighted>
2.0864

> <Gold.Chemscore.Rot.Weighted>
5.0748

> <Gold.Chemscore.Internal.Correction.Weighted>
   9.000000E+99

> <Gold.Protein.RotatedTorsions>
[ 6907 6896 6895 6894 ] final  -54.94 input  -60.11 | X-H torsion
[ 7974 7965 7964 7962 ] final  160.72 input  175.53 | X-H torsion
[ 8008 7997 7996 7995 ] final -168.81 input   59.86 | X-H torsion
[ 10167 10162 10161 10158 ] final -146.91 input  -65.29 | X-H torsion
[ 10718 10713 10712 10709 ] final  106.69 input   66.30 | X-H torsion
[ 10763 10752 10751 10750 ] final -158.89 input  -60.55 | X-H torsion
[ 11005 11000 10999 10996 ] final -117.06 input  -57.11 | X-H torsion

> <Gold.Protein.ActiveResidues>
 VAL166  LYS551  ARG553  GLY616  TRP617  ASP618  TYR619  PRO620  LYS621  CYS622 
 ASP623  PHE694  ASN695  SER759  ASP760  ASP761  ALA762  ILE779  LEU786  VAL792 
 PHE793  MET794  SER795  GLU796  ALA797  LYS798  CYS799  TRP800  GLU811  SER814 

> <Gold.Protein.RotatedAtoms>
  150.8295  134.7541  159.6840 H   0  0  0  0  0  0  0  0  0  0  0  0  # atno 6907 bound_to 6896
  152.4401  134.5604  159.9902 H   0  0  0  0  0  0  0  0  0  0  0  0  # atno 6908 bound_to 6896
  151.5769  133.3345  159.3036 H   0  0  0  0  0  0  0  0  0  0  0  0  # atno 6909 bound_to 6896
  144.7722  139.7797  143.6292 H   0  0  0  0  0  0  0  0  0  0  0  0  # atno 7974 bound_to 7965
  155.8964  140.1033  157.1381 H   0  0  0  0  0  0  0  0  0  0  0  0  # atno 8008 bound_to 7997
  154.4021  140.1301  156.4445 H   0  0  0  0  0  0  0  0  0  0  0  0  # atno 8009 bound_to 7997
  155.7473  140.3466  155.5136 H   0  0  0  0  0  0  0  0  0  0  0  0  # atno 8010 bound_to 7997
  139.7670  143.8294  152.2618 H   0  0  0  0  0  0  0  0  0  0  0  0  # atno 10167 bound_to 10162
  157.6658  131.0856  150.6045 H   0  0  0  0  0  0  0  0  0  0  0  0  # atno 10718 bound_to 10713
  154.7520  135.3095  154.8540 H   0  0  0  0  0  0  0  0  0  0  0  0  # atno 10763 bound_to 10752
  153.9325  135.6784  153.4749 H   0  0  0  0  0  0  0  0  0  0  0  0  # atno 10764 bound_to 10752
  153.1116  135.4864  154.8973 H   0  0  0  0  0  0  0  0  0  0  0  0  # atno 10765 bound_to 10752
  141.0380  133.9879  157.3040 H   0  0  0  0  0  0  0  0  0  0  0  0  # atno 11005 bound_to 11000
  146.1877  139.5101  142.9825 LP  0  0  0  0  0  0  0  0  0  0  0  0  # atno 17320 bound_to 7965
  145.6290  141.0308  143.1873 LP  0  0  0  0  0  0  0  0  0  0  0  0  # atno 17321 bound_to 7965
  139.8317  144.7251  150.9442 LP  0  0  0  0  0  0  0  0  0  0  0  0  # atno 17342 bound_to 10162
  140.7811  143.4064  151.1064 LP  0  0  0  0  0  0  0  0  0  0  0  0  # atno 17343 bound_to 10162
  156.6346  130.4441  149.5774 LP  0  0  0  0  0  0  0  0  0  0  0  0  # atno 17370 bound_to 10713
  156.2256  130.6763  151.1412 LP  0  0  0  0  0  0  0  0  0  0  0  0  # atno 17371 bound_to 10713
  139.9255  135.0201  156.8218 LP  0  0  0  0  0  0  0  0  0  0  0  0  # atno 17394 bound_to 11000
  140.6286  133.9927  155.7651 LP  0  0  0  0  0  0  0  0  0  0  0  0  # atno 17395 bound_to 11000

$$$$
