AV-unprocessed.smi:2147|AV-procd|sdf|8744|dock2
  -GOLD-   2272011523D 1   1.00000     0.00000
 Structure written by MMmdl.
 42 44  0  0  0  0  0  0  0  0  2 V2000
  143.1767  146.3819  153.4155 C   0  0  0  0  0  0  0  0  0  0  0  0
  143.5036  145.6762  154.7305 C   0  0  0  0  0  0  0  0  0  0  0  0
  142.9001  146.0139  155.7486 O   0  0  0  0  0  0  0  0  0  0  0  0
  144.5437  144.6085  154.7068 C   0  0  0  0  0  0  0  0  0  0  0  0
  145.1229  144.1581  153.4980 C   0  0  0  0  0  0  0  0  0  0  0  0
  146.1049  143.1492  153.5096 C   0  0  0  0  0  0  0  0  0  0  0  0
  146.5326  142.5676  154.7191 C   0  0  0  0  0  0  0  0  0  0  0  0
  147.4998  141.5890  154.6366 O   0  0  0  0  0  0  0  0  0  0  0  0
  148.3735  141.4108  155.7437 C   0  0  0  0  0  0  0  0  0  0  0  0
  149.8192  141.3394  155.2305 C   0  0  2  0  0  0  0  0  0  0  0  0
  149.8871  140.3483  154.2245 O   0  0  0  0  0  0  0  0  0  0  0  0
  150.8256  141.0252  156.3560 C   0  0  0  0  0  0  0  0  0  0  0  0
  151.2650  142.2247  157.0832 N   0  0  0  0  0  0  0  0  0  0  0  0
  151.2139  143.5322  156.7101 C   0  0  0  0  0  0  0  0  0  0  0  0
  151.7364  144.2717  157.7274 N   0  3  0  0  0  0  0  0  0  0  0  0
  152.1291  143.4247  158.7658 C   0  0  0  0  0  0  0  0  0  0  0  0
  152.7091  143.7047  159.9993 C   0  0  0  0  0  0  0  0  0  0  0  0
  152.9905  142.6014  160.8315 C   0  0  0  0  0  0  0  0  0  0  0  0
  152.6964  141.2829  160.4276 C   0  0  0  0  0  0  0  0  0  0  0  0
  152.1066  141.0109  159.1756 C   0  0  0  0  0  0  0  0  0  0  0  0
  151.8303  142.1070  158.3585 C   0  0  0  0  0  0  0  0  0  0  0  0
  145.9522  143.0163  155.9306 C   0  0  0  0  0  0  0  0  0  0  0  0
  144.9701  144.0256  155.9213 C   0  0  0  0  0  0  0  0  0  0  0  0
  144.0603  146.8836  153.0208 H   0  0  0  0  0  0  0  0  0  0  0  0
  142.3989  147.1306  153.5669 H   0  0  0  0  0  0  0  0  0  0  0  0
  142.8198  145.6649  152.6761 H   0  0  0  0  0  0  0  0  0  0  0  0
  144.8295  144.5735  152.5456 H   0  0  0  0  0  0  0  0  0  0  0  0
  146.5364  142.8185  152.5762 H   0  0  0  0  0  0  0  0  0  0  0  0
  148.2707  142.2313  156.4562 H   0  0  0  0  0  0  0  0  0  0  0  0
  148.1183  140.4820  156.2572 H   0  0  0  0  0  0  0  0  0  0  0  0
  150.0793  142.2918  154.7668 H   0  0  0  0  0  0  0  0  0  0  0  0
  149.0090  140.1581  153.9305 H   0  0  0  0  0  0  0  0  0  0  0  0
  150.3662  140.3613  157.0893 H   0  0  0  0  0  0  0  0  0  0  0  0
  151.6985  140.4958  155.9734 H   0  0  0  0  0  0  0  0  0  0  0  0
  150.8265  143.9139  155.7764 H   0  0  0  0  0  0  0  0  0  0  0  0
  152.9364  144.7136  160.3109 H   0  0  0  0  0  0  0  0  0  0  0  0
  153.4424  142.7696  161.7984 H   0  0  0  0  0  0  0  0  0  0  0  0
  152.9290  140.4622  161.0906 H   0  0  0  0  0  0  0  0  0  0  0  0
  151.8911  139.9966  158.8740 H   0  0  0  0  0  0  0  0  0  0  0  0
  146.2427  142.6025  156.8841 H   0  0  0  0  0  0  0  0  0  0  0  0
  144.5478  144.3465  156.8627 H   0  0  0  0  0  0  0  0  0  0  0  0
  151.8181  145.2802  157.7115 H   0  0  0  0  0  0  0  0  0  0  0  0
  1  2  1  0  0  0  0
  1 24  1  0  0  0  0
  1 25  1  0  0  0  0
  1 26  1  0  0  0  0
  2  3  2  0  0  0  0
  2  4  1  0  0  0  0
  4 23  1  0  0  0  0
  4  5  2  0  0  0  0
  5  6  1  0  0  0  0
  5 27  1  0  0  0  0
  6  7  2  0  0  0  0
  6 28  1  0  0  0  0
  7  8  1  0  0  0  0
  7 22  1  0  0  0  0
  8  9  1  0  0  0  0
  9 10  1  0  0  0  0
  9 29  1  0  0  0  0
  9 30  1  0  0  0  0
 10 11  1  0  0  0  0
 10 12  1  0  0  0  0
 10 31  1  0  0  0  0
 11 32  1  0  0  0  0
 12 13  1  0  0  0  0
 12 33  1  0  0  0  0
 12 34  1  0  0  0  0
 13 21  1  0  0  0  0
 13 14  1  0  0  0  0
 14 15  2  0  0  0  0
 14 35  1  0  0  0  0
 15 16  1  0  0  0  0
 15 42  1  0  0  0  0
 16 21  2  0  0  0  0
 16 17  1  0  0  0  0
 17 18  2  0  0  0  0
 17 36  1  0  0  0  0
 18 19  1  0  0  0  0
 18 37  1  0  0  0  0
 19 20  2  0  0  0  0
 19 38  1  0  0  0  0
 20 21  1  0  0  0  0
 20 39  1  0  0  0  0
 22 23  2  0  0  0  0
 22 40  1  0  0  0  0
 23 41  1  0  0  0  0
M  CHG  1  15   1
M  END
> <s_m_source_file>
AV-unprocessed.smi

> <i_m_source_file_index>
2147

> <i_lp_mmshare_version>
43012

> <i_f3d_flags>
0

> <s_epik_input>
W0NIM11DKD1PKWMxW2NIXVtjSF1jKFtjSF1bY0hdMSlPW0NIMl1bQ0BIXShbT0hdKVtDSDJdbihbY0hdbjIpYyhjMjMpW2NIXVtjSF1bY0hdW2NIXTM=

> <s_epik_cmdline>
J2VwaWtfcHl0aG9uJywgJy1waCcsICc3LjAnLCAnLXRuJywgJzgnLCAnLW1hJywgJzIwMCcsICctbWV0YWxfYmluZGluZycsICctaW1hZScsICc8aW5maWxlLm1hZT4nLCAnLW9tYWUnLCAnPG91dGZpbGUubWFlPic=

> <r_lp_tautomer_probability>
0.99995

> <r_epik_Ionization_Penalty>
1.40272

> <r_epik_Ionization_Penalty_Charging>
1.40272

> <r_epik_Ionization_Penalty_Neutral>
2.3993e-06

> <r_epik_State_Penalty>
1.48501

> <r_epik_Charging_Adjusted_Penalty>
2.88772

> <i_epik_Tot_Q>
1

> <i_epik_Tot_abs_Q>
1

> <r_epik_Metal_State_Penalty>
5.5274

> <b_epik_Metal_Only>
0

> <s_lp_Force_Field>
OPLS_2005

> <r_lp_Energy>
26.2273

> <b_lp_Chiralities_Consistent>
1

> <s_lp_Variant>
AV-unprocessed.smi:2147-3

> <Gold.Version>
5.8.1

> <Gold.Id.Protein>
6NUR|6NUR_protein|mol2

> <Gold.PLP.Fitness>
51.7071

> <Gold.PLP.PLP>
-48.9437

> <Gold.PLP.part.hbond>
-2.0000

> <Gold.PLP.part.metal>
0.0000

> <Gold.PLP.part.buried>
-5.6527

> <Gold.PLP.part.nonpolar>
-41.4577

> <Gold.PLP.part.repulsive>
0.1566

> <Gold.PLP.ligand.clash>
0.0000

> <Gold.PLP.ligand.torsion>
1.3140

> <Gold.PLP.Chemscore.Hbond>
0.7520

> <Gold.PLP.Chemscore.CHOScore>
0.9937

> <Gold.PLP.Chemscore.Metal>
0.0000

> <Gold.Chemscore.Hbonds>
donor molecule, donor type, donor heavy atom, donor atom, acceptor molecule, acceptor atom, score
      P1  H  7989  7998       L1    11  0.71
      L1  C    14    35       P1  8028  0.83

> <Gold.PLP.Chemscore.Internal.Correction>
0.1541

> <Gold.Rescore>
     Score         DG    S(hbond)    S(metal)    S(lipo)     H(rot)  DE(clash)    DE(int)     intcor
     13.35     -14.64       0.66        0.00     113.75       2.48       0.08       1.21       ----

> <Gold.Chemscore.Fitness>
13.3522

> <Gold.Chemscore.DG>
-14.6422

> <Gold.Chemscore.ZeroCoef>
-5.4800

> <Gold.Chemscore.Hbond>
0.6627

> <Gold.Chemscore.Metal>
0.0000

> <Gold.Chemscore.Lipo>
113.7452

> <Gold.Chemscore.Internal_Hbond>
0.0000

> <Gold.Chemscore.DEClash>
0.0776

> <Gold.Chemscore.DEInternal>
1.2124

> <Gold.Chemscore.Rot>
2.4842

> <Gold.Chemscore.Internal.Correction>
   9.000000E+99

> <Gold.Chemscore.Hbonds>
donor molecule, donor type, donor heavy atom, donor atom, acceptor molecule, acceptor atom, score
      P1  H  7989  7998       L1    11  0.12

> <Gold.Chemscore.Hbond.Weighted>
-2.2135

> <Gold.Chemscore.Metal.Weighted>
-0.0000

> <Gold.Chemscore.Lipo.Weighted>
-13.3082

> <Gold.Chemscore.Internal_Hbond.Weighted>
0.0000

> <Gold.Chemscore.DEClash.Weighted>
0.0776

> <Gold.Chemscore.DEInternal.Weighted>
1.2124

> <Gold.Chemscore.Rot.Weighted>
6.3594

> <Gold.Chemscore.Internal.Correction.Weighted>
   9.000000E+99

> <Gold.Protein.RotatedTorsions>
[ 6907 6896 6895 6894 ] final  102.34 input  -60.11 | X-H torsion
[ 7974 7965 7964 7962 ] final -108.57 input  175.53 | X-H torsion
[ 8008 7997 7996 7995 ] final -164.22 input   59.86 | X-H torsion
[ 10167 10162 10161 10158 ] final -172.09 input  -65.29 | X-H torsion
[ 10718 10713 10712 10709 ] final -162.26 input   66.30 | X-H torsion
[ 10763 10752 10751 10750 ] final  -68.26 input  -60.55 | X-H torsion
[ 11005 11000 10999 10996 ] final   38.26 input  -57.11 | X-H torsion

> <Gold.Protein.ActiveResidues>
 VAL166  LYS551  ARG553  GLY616  TRP617  ASP618  TYR619  PRO620  LYS621  CYS622 
 ASP623  PHE694  ASN695  SER759  ASP760  ASP761  ALA762  ILE779  LEU786  VAL792 
 PHE793  MET794  SER795  GLU796  ALA797  LYS798  CYS799  TRP800  GLU811  SER814 

> <Gold.Protein.RotatedAtoms>
  152.5326  133.9991  159.7885 H   0  0  0  0  0  0  0  0  0  0  0  0  # atno 6907 bound_to 6896
  151.0213  133.5866  159.2678 H   0  0  0  0  0  0  0  0  0  0  0  0  # atno 6908 bound_to 6896
  151.2905  135.0747  159.9256 H   0  0  0  0  0  0  0  0  0  0  0  0  # atno 6909 bound_to 6896
  145.1912  140.9015  143.3423 H   0  0  0  0  0  0  0  0  0  0  0  0  # atno 7974 bound_to 7965
  155.8325  140.0936  157.1784 H   0  0  0  0  0  0  0  0  0  0  0  0  # atno 8008 bound_to 7997
  154.3980  140.1416  156.3692 H   0  0  0  0  0  0  0  0  0  0  0  0  # atno 8009 bound_to 7997
  155.8150  140.3448  155.5483 H   0  0  0  0  0  0  0  0  0  0  0  0  # atno 8010 bound_to 7997
  139.5765  144.1522  152.1457 H   0  0  0  0  0  0  0  0  0  0  0  0  # atno 10167 bound_to 10162
  156.6079  130.8838  151.2929 H   0  0  0  0  0  0  0  0  0  0  0  0  # atno 10718 bound_to 10713
  154.3864  135.6062  153.5819 H   0  0  0  0  0  0  0  0  0  0  0  0  # atno 10763 bound_to 10752
  152.9787  135.5873  154.4350 H   0  0  0  0  0  0  0  0  0  0  0  0  # atno 10764 bound_to 10752
  154.4127  135.2844  155.2004 H   0  0  0  0  0  0  0  0  0  0  0  0  # atno 10765 bound_to 10752
  140.2144  134.3716  155.8034 H   0  0  0  0  0  0  0  0  0  0  0  0  # atno 11005 bound_to 11000
  145.0039  139.3572  143.6153 LP  0  0  0  0  0  0  0  0  0  0  0  0  # atno 17320 bound_to 7965
  146.3436  139.9274  142.8758 LP  0  0  0  0  0  0  0  0  0  0  0  0  # atno 17321 bound_to 7965
  140.1065  144.5494  150.6953 LP  0  0  0  0  0  0  0  0  0  0  0  0  # atno 17342 bound_to 10162
  140.7047  143.2459  151.4762 LP  0  0  0  0  0  0  0  0  0  0  0  0  # atno 17343 bound_to 10162
  157.7262  130.9626  150.1647 LP  0  0  0  0  0  0  0  0  0  0  0  0  # atno 17370 bound_to 10713
  156.2414  130.3691  149.8332 LP  0  0  0  0  0  0  0  0  0  0  0  0  # atno 17371 bound_to 10713
  141.2225  133.7160  156.8472 LP  0  0  0  0  0  0  0  0  0  0  0  0  # atno 17394 bound_to 11000
  140.1916  134.8961  157.3067 LP  0  0  0  0  0  0  0  0  0  0  0  0  # atno 17395 bound_to 11000

$$$$
