#       Name:                AV-unprocessed.smi:1550
#       Creating user name   scv26
#       Creation time:       Fri Mar 27 06:41:08 2020


#       File generated by GOLD software.
#

@<TRIPOS>MOLECULE
AV-unprocessed.smi:1550
    51    52     1
SMALL
NO_CHARGES


@<TRIPOS>ATOM
      1 ****        -1.5216  -2.9192  -1.7913 C.3            1 S1                 0.0000
      2 ****        -1.0422  -2.0520  -0.6179 C.3            1 S1                 0.0000
      3 ****         0.3817  -2.0194  -0.6621 O.3            1 S1                 0.0000
      4 ****         1.0176  -1.5271   0.5125 C.3            1 S1                 0.0000
      5 ****         2.5374  -1.5723   0.3094 C.3            1 S1                 0.0000
      6 ****         3.0208  -0.5216  -0.7101 C.3            1 S1                 0.0000
      7 ****         4.5495  -0.5367  -0.8179 C.3            1 S1                 0.0000
      8 ****         5.1660  -0.3941   0.5774 C.3            1 S1                 0.0000
      9 ****         4.5812  -1.4498   1.5292 C.3            1 S1                 0.0000
     10 ****         3.1618  -1.3350   1.5696 O.3            1 S1                 0.0000
     11 ****        -1.6095  -0.6261  -0.7099 C.2            1 S1                 0.0000
     12 ****        -1.4350   0.0269  -1.7386 O.2            1 S1                 0.0000
     13 ****        -2.2441  -0.1874   0.3949 N.am           1 S1                 0.0000
     14 ****        -2.8707   1.0459   0.6435 C.2            1 S1                 0.0000
     15 ****        -3.1931   1.9652  -0.3085 C.2            1 S1                 0.0000
     16 ****        -3.8535   3.2241   0.0139 C.2            1 S1                 0.0000
     17 ****        -4.1338   4.3142  -1.0054 C.3            1 S1                 0.0000
     18 ****        -5.3798   4.1981  -1.4627 F              1 S1                 0.0000
     19 ****        -4.0017   5.5247  -0.4620 F              1 S1                 0.0000
     20 ****        -3.3003   4.2252  -2.0419 F              1 S1                 0.0000
     21 ****        -4.0929   3.3585   1.3677 C.2            1 S1                 0.0000
     22 ****        -3.8338   2.4883   2.3680 N.pl3          1 S1                -1.0000
     23 ****        -3.2161   1.3146   2.0550 C.2            1 S1                 0.0000
     24 ****        -2.9440   0.4799   2.9188 O.2            1 S1                 0.0000
     25 ****        -2.6104  -2.9729  -1.8250 H              1 S1                 0.0000
     26 ****        -1.1452  -3.9380  -1.6968 H              1 S1                 0.0000
     27 ****        -1.1745  -2.5282  -2.7486 H              1 S1                 0.0000
     28 ****        -1.3656  -2.5251   0.3117 H              1 S1                 0.0000
     29 ****         0.7037  -0.5102   0.7514 H              1 S1                 0.0000
     30 ****         0.7405  -2.1590   1.3574 H              1 S1                 0.0000
     31 ****         2.8137  -2.5724  -0.0293 H              1 S1                 0.0000
     32 ****         2.5770  -0.7092  -1.6884 H              1 S1                 0.0000
     33 ****         2.6878   0.4703  -0.4017 H              1 S1                 0.0000
     34 ****         4.8767  -1.4734  -1.2705 H              1 S1                 0.0000
     35 ****         4.8933   0.2658  -1.4709 H              1 S1                 0.0000
     36 ****         6.2505  -0.4921   0.5231 H              1 S1                 0.0000
     37 ****         4.9603   0.6030   0.9691 H              1 S1                 0.0000
     38 ****         4.8667  -2.4558   1.2175 H              1 S1                 0.0000
     39 ****         4.9746  -1.3061   2.5356 H              1 S1                 0.0000
     40 ****        -2.2490  -0.8180   1.1837 H              1 S1                 0.0000
     41 ****        -2.9845   1.7835  -1.3494 H              1 S1                 0.0000
     42 ****        -4.5581   4.3118   1.6977 H              1 S1                 0.0000
     43 ****         0.6534  -1.4361  -1.4276 LP             1 S1                 0.0000
     44 ****         0.7069  -2.9515  -0.8214 LP             1 S1                 0.0000
     45 ****         2.8088  -1.9995   2.2283 LP             1 S1                 0.0000
     46 ****         2.9271  -0.4106   1.8704 LP             1 S1                 0.0000
     47 ****        -0.9286  -0.3710  -2.5035 LP             1 S1                 0.0000
     48 ****        -1.7997   0.9554  -1.8093 LP             1 S1                 0.0000
     49 ****        -4.0882   2.6995   3.3118 LP             1 S1                 0.0000
     50 ****        -2.4916  -0.3746   2.6635 LP             1 S1                 0.0000
     51 ****        -3.1755   0.6567   3.8755 LP             1 S1                 0.0000
@<TRIPOS>BOND
    1    1    2 1     
    2    1   25 1     
    3    1   26 1     
    4    1   27 1     
    5    2    3 1     
    6    2   11 1     
    7    2   28 1     
    8    3    4 1     
    9    4    5 1     
   10    4   29 1     
   11    4   30 1     
   12    5   10 1     
   13    5    6 1     
   14    5   31 1     
   15    6    7 1     
   16    6   32 1     
   17    6   33 1     
   18    7    8 1     
   19    7   34 1     
   20    7   35 1     
   21    8    9 1     
   22    8   36 1     
   23    8   37 1     
   24    9   10 1     
   25    9   38 1     
   26    9   39 1     
   27   11   12 2     
   28   11   13 am    
   29   13   14 1     
   30   13   40 1     
   31   14   23 1     
   32   14   15 2     
   33   15   16 1     
   34   15   41 1     
   35   16   17 1     
   36   16   21 2     
   37   17   18 1     
   38   17   19 1     
   39   17   20 1     
   40   21   22 1     
   41   21   42 1     
   42   22   23 1     
   43   23   24 2     
   44    3   43 1     
   45    3   44 1     
   46   10   45 1     
   47   10   46 1     
   48   12   47 1     
   49   12   48 1     
   50   22   49 1     
   51   24   50 1     
   52   24   51 1     
@<TRIPOS>SUBSTRUCTURE
      1 S1             1
@<TRIPOS>SET
LONE_PAIRS      STATIC     ATOMS    <user>   **** ""
9 43 44 45 46 47 48 49 50 51
DONOR_HYDROGENS      STATIC     ATOMS    <user>   **** ""
1 40
ATOM$BLUE        STATIC     ATOMS    COLORGROUP SYSTEM
9 43 44 45 46 47 48 49 50 51
ATOM$RED        STATIC     ATOMS    COLORGROUP SYSTEM
1 40
