AV-unprocessed.smi:1005|AV-procd|sdf|4369|dock7
  -GOLD-   22720 2273D 1   1.00000     0.00000
 Structure written by MMmdl.
 57 59  0  0  0  0  0  0  0  0  3 V2000
  152.2101  140.5465  156.0871 C   0  0  0  0  0  0  0  0  0  0  0  0
  150.8875  140.0544  155.5263 C   0  0  0  0  0  0  0  0  0  0  0  0
  149.8442  140.9830  155.3116 C   0  0  0  0  0  0  0  0  0  0  0  0
  148.5992  140.5660  154.7927 C   0  0  0  0  0  0  0  0  0  0  0  0
  147.4571  141.2929  154.5029 N   0  0  0  0  0  0  0  0  0  0  0  0
  146.6432  140.3446  154.0494 C   0  0  0  0  0  0  0  0  0  0  0  0
  147.1239  139.0871  154.0082 N   0  0  0  0  0  0  0  0  0  0  0  0
  146.4230  137.9002  153.5521 C   0  0  0  0  0  0  0  0  0  0  0  0
  146.2266  137.8847  152.0242 C   0  0  1  0  0  0  0  0  0  0  0  0
  147.4145  138.3235  151.3934 O   0  0  0  0  0  0  0  0  0  0  0  0
  145.8903  136.4728  151.5055 C   0  0  0  0  0  0  0  0  0  0  0  0
  144.4453  136.3152  151.1876 N   0  3  2  0  0  0  0  0  0  0  0  0
  143.5247  136.6154  152.3135 C   0  0  0  0  0  0  0  0  0  0  0  0
  143.4525  135.4437  153.3110 C   0  0  0  0  0  0  0  0  0  0  0  0
  143.0994  134.2481  152.6255 O   0  0  0  0  0  0  0  0  0  0  0  0
  144.0511  133.8829  151.6307 C   0  0  1  0  0  0  0  0  0  0  0  0
  143.5994  132.5468  151.0104 C   0  0  0  0  0  0  0  0  0  0  0  0
  144.7039  131.5605  150.8858 N   0  3  0  0  0  0  0  0  0  0  0  0
  145.4479  131.3440  152.1486 C   0  0  0  0  0  0  0  0  0  0  0  0
  145.6184  131.8906  149.7698 C   0  0  0  0  0  0  0  0  0  0  0  0
  144.1057  135.0075  150.5741 C   0  0  0  0  0  0  0  0  0  0  0  0
  148.4236  139.1832  154.4943 C   0  0  0  0  0  0  0  0  0  0  0  0
  149.4540  138.2497  154.7034 C   0  0  0  0  0  0  0  0  0  0  0  0
  150.6926  138.6835  155.2204 C   0  0  0  0  0  0  0  0  0  0  0  0
  151.8002  137.6684  155.4397 C   0  0  0  0  0  0  0  0  0  0  0  0
  152.2048  141.6275  156.2298 H   0  0  0  0  0  0  0  0  0  0  0  0
  153.0283  140.3041  155.4088 H   0  0  0  0  0  0  0  0  0  0  0  0
  152.4106  140.0821  157.0529 H   0  0  0  0  0  0  0  0  0  0  0  0
  149.9926  142.0274  155.5440 H   0  0  0  0  0  0  0  0  0  0  0  0
  145.6392  140.5778  153.7254 H   0  0  0  0  0  0  0  0  0  0  0  0
  146.9760  137.0188  153.8799 H   0  0  0  0  0  0  0  0  0  0  0  0
  145.4560  137.8644  154.0556 H   0  0  0  0  0  0  0  0  0  0  0  0
  145.4299  138.5839  151.7715 H   0  0  0  0  0  0  0  0  0  0  0  0
  148.0772  138.4536  152.0556 H   0  0  0  0  0  0  0  0  0  0  0  0
  146.4869  136.2861  150.6109 H   0  0  0  0  0  0  0  0  0  0  0  0
  146.1968  135.7195  152.2313 H   0  0  0  0  0  0  0  0  0  0  0  0
  143.8077  137.5354  152.8235 H   0  0  0  0  0  0  0  0  0  0  0  0
  142.5311  136.7920  151.8991 H   0  0  0  0  0  0  0  0  0  0  0  0
  144.3966  135.3090  153.8400 H   0  0  0  0  0  0  0  0  0  0  0  0
  142.6965  135.6474  154.0696 H   0  0  0  0  0  0  0  0  0  0  0  0
  145.0354  133.7696  152.0850 H   0  0  0  0  0  0  0  0  0  0  0  0
  142.8117  132.1289  151.6393 H   0  0  0  0  0  0  0  0  0  0  0  0
  143.1520  132.7118  150.0291 H   0  0  0  0  0  0  0  0  0  0  0  0
  145.9127  132.2688  152.4929 H   0  0  0  0  0  0  0  0  0  0  0  0
  146.2360  130.6037  152.0060 H   0  0  0  0  0  0  0  0  0  0  0  0
  144.7982  130.9722  152.9397 H   0  0  0  0  0  0  0  0  0  0  0  0
  146.1101  132.8500  149.9375 H   0  0  0  0  0  0  0  0  0  0  0  0
  145.0758  131.9438  148.8255 H   0  0  0  0  0  0  0  0  0  0  0  0
  146.3889  131.1264  149.6616 H   0  0  0  0  0  0  0  0  0  0  0  0
  143.1315  135.1023  150.0925 H   0  0  0  0  0  0  0  0  0  0  0  0
  144.8135  134.7645  149.7804 H   0  0  0  0  0  0  0  0  0  0  0  0
  149.2938  137.2086  154.4654 H   0  0  0  0  0  0  0  0  0  0  0  0
  151.4771  136.6621  155.1714 H   0  0  0  0  0  0  0  0  0  0  0  0
  152.1048  137.6540  156.4865 H   0  0  0  0  0  0  0  0  0  0  0  0
  152.6692  137.9144  154.8290 H   0  0  0  0  0  0  0  0  0  0  0  0
  144.2772  130.6782  150.6402 H   0  0  0  0  0  0  0  0  0  0  0  0
  144.2663  137.0082  150.4738 H   0  0  0  0  0  0  0  0  0  0  0  0
  1  2  1  0  0  0  0
  1 26  1  0  0  0  0
  1 27  1  0  0  0  0
  1 28  1  0  0  0  0
  2 24  1  0  0  0  0
  2  3  2  0  0  0  0
  3  4  1  0  0  0  0
  3 29  1  0  0  0  0
  4 22  2  0  0  0  0
  4  5  1  0  0  0  0
  5  6  2  0  0  0  0
  6  7  1  0  0  0  0
  6 30  1  0  0  0  0
  7  8  1  0  0  0  0
  7 22  1  0  0  0  0
  8  9  1  0  0  0  0
  8 31  1  0  0  0  0
  8 32  1  0  0  0  0
  9 10  1  0  0  0  0
  9 11  1  0  0  0  0
  9 33  1  0  0  0  0
 10 34  1  0  0  0  0
 11 12  1  0  0  0  0
 11 35  1  0  0  0  0
 11 36  1  0  0  0  0
 12 21  1  0  0  0  0
 12 13  1  0  0  0  0
 12 57  1  0  0  0  0
 13 14  1  0  0  0  0
 13 37  1  0  0  0  0
 13 38  1  0  0  0  0
 14 15  1  0  0  0  0
 14 39  1  0  0  0  0
 14 40  1  0  0  0  0
 15 16  1  0  0  0  0
 16 17  1  0  0  0  0
 16 21  1  0  0  0  0
 16 41  1  0  0  0  0
 17 18  1  0  0  0  0
 17 42  1  0  0  0  0
 17 43  1  0  0  0  0
 18 19  1  0  0  0  0
 18 20  1  0  0  0  0
 18 56  1  0  0  0  0
 19 44  1  0  0  0  0
 19 45  1  0  0  0  0
 19 46  1  0  0  0  0
 20 47  1  0  0  0  0
 20 48  1  0  0  0  0
 20 49  1  0  0  0  0
 21 50  1  0  0  0  0
 21 51  1  0  0  0  0
 22 23  1  0  0  0  0
 23 24  2  0  0  0  0
 23 52  1  0  0  0  0
 24 25  1  0  0  0  0
 25 53  1  0  0  0  0
 25 54  1  0  0  0  0
 25 55  1  0  0  0  0
M  CHG  1  12   1
M  CHG  1  18   1
M  END
> <s_m_source_file>
AV-unprocessed.smi

> <i_m_source_file_index>
1005

> <i_lp_mmshare_version>
43012

> <i_f3d_flags>
0

> <s_epik_input>
W0NIM11jKFtjSF0xKWMoW0NIM10pW2NIXWMoYzEyKW4oW2NIXW4yKVtDSDJdW0NASF0oW09IXSlbQ0gyXU4zW0NIMl1bQ0gyXU9bQ0BIXShbQ0gyXTMpW0NIMl1OKFtDSDNdKVtDSDNd

> <s_epik_cmdline>
J2VwaWtfcHl0aG9uJywgJy1waCcsICc3LjAnLCAnLXRuJywgJzgnLCAnLW1hJywgJzIwMCcsICctbWV0YWxfYmluZGluZycsICctaW1hZScsICc8aW5maWxlLm1hZT4nLCAnLW9tYWUnLCAnPG91dGZpbGUubWFlPic=

> <r_epik_Ionization_Penalty>
1.0968

> <r_epik_Ionization_Penalty_Charging>
1.0096

> <r_epik_Ionization_Penalty_Neutral>
0.0871956

> <r_epik_State_Penalty>
1.31185

> <r_epik_Charging_Adjusted_Penalty>
2.32145

> <i_epik_Tot_Q>
2

> <i_epik_Tot_abs_Q>
2

> <r_epik_Metal_State_Penalty>
1.22442

> <b_epik_Metal_Only>
0

> <s_lp_Force_Field>
OPLS_2005

> <r_lp_Energy>
34.9346

> <b_lp_Chiralities_Consistent>
1

> <s_lp_Variant>
AV-unprocessed.smi:1005-8

> <Gold.Version>
5.8.1

> <Gold.Id.Protein>
6NUR|6NUR_protein|mol2

> <Gold.PLP.Fitness>
49.2036

> <Gold.PLP.PLP>
-43.1570

> <Gold.PLP.part.hbond>
-4.0000

> <Gold.PLP.part.metal>
0.0000

> <Gold.PLP.part.buried>
-3.0486

> <Gold.PLP.part.nonpolar>
-36.3503

> <Gold.PLP.part.repulsive>
0.4367

> <Gold.PLP.ligand.clash>
0.0000

> <Gold.PLP.ligand.torsion>
1.6363

> <Gold.PLP.Chemscore.Hbond>
2.0744

> <Gold.PLP.Chemscore.CHOScore>
1.0000

> <Gold.PLP.Chemscore.Metal>
0.0000

> <Gold.Chemscore.Hbonds>
donor molecule, donor type, donor heavy atom, donor atom, acceptor molecule, acceptor atom, score
      L1  H    10    34       P1  7957  0.02
      L1  H    12    57       P1 10171  1.00
      P1  H  7954  7966       L1    10  1.00
      L1  C     6    30       P1 10175  1.00

> <Gold.PLP.Chemscore.Internal.Correction>
0.0960

> <Gold.Rescore>
     Score         DG    S(hbond)    S(metal)    S(lipo)     H(rot)  DE(clash)    DE(int)     intcor
     15.35     -17.07       1.74        0.00     103.62       2.48       0.16       1.56       ----

> <Gold.Chemscore.Fitness>
15.3546

> <Gold.Chemscore.DG>
-17.0734

> <Gold.Chemscore.ZeroCoef>
-5.4800

> <Gold.Chemscore.Hbond>
1.7433

> <Gold.Chemscore.Metal>
0.0000

> <Gold.Chemscore.Lipo>
103.6181

> <Gold.Chemscore.Internal_Hbond>
0.0000

> <Gold.Chemscore.DEClash>
0.1597

> <Gold.Chemscore.DEInternal>
1.5592

> <Gold.Chemscore.Rot>
2.4814

> <Gold.Chemscore.Internal.Correction>
   9.000000E+99

> <Gold.Chemscore.Hbonds>
donor molecule, donor type, donor heavy atom, donor atom, acceptor molecule, acceptor atom, score
      L1  H    10    34       P1  7957  0.02
      L1  H    12    57       P1 10171  0.99
      P1  H  7954  7966       L1    10  0.69

> <Gold.Chemscore.Hbond.Weighted>
-5.8225

> <Gold.Chemscore.Metal.Weighted>
-0.0000

> <Gold.Chemscore.Lipo.Weighted>
-12.1233

> <Gold.Chemscore.Internal_Hbond.Weighted>
0.0000

> <Gold.Chemscore.DEClash.Weighted>
0.1597

> <Gold.Chemscore.DEInternal.Weighted>
1.5592

> <Gold.Chemscore.Rot.Weighted>
6.3524

> <Gold.Chemscore.Internal.Correction.Weighted>
   9.000000E+99

> <Gold.Protein.RotatedTorsions>
[ 6907 6896 6895 6894 ] final -123.83 input  -60.11 | X-H torsion
[ 7974 7965 7964 7962 ] final  -99.08 input  175.53 | X-H torsion
[ 8008 7997 7996 7995 ] final  -87.49 input   59.86 | X-H torsion
[ 10167 10162 10161 10158 ] final    0.29 input  -65.29 | X-H torsion
[ 10718 10713 10712 10709 ] final -109.69 input   66.30 | X-H torsion
[ 10763 10752 10751 10750 ] final  -38.31 input  -60.55 | X-H torsion
[ 11005 11000 10999 10996 ] final -109.51 input  -57.11 | X-H torsion

> <Gold.Protein.ActiveResidues>
 VAL166  LYS551  ARG553  GLY616  TRP617  ASP618  TYR619  PRO620  LYS621  CYS622 
 ASP623  PHE694  ASN695  SER759  ASP760  ASP761  ALA762  ILE779  LEU786  VAL792 
 PHE793  MET794  SER795  GLU796  ALA797  LYS798  CYS799  TRP800  GLU811  SER814 

> <Gold.Protein.RotatedAtoms>
  150.8708  133.7508  159.2961 H   0  0  0  0  0  0  0  0  0  0  0  0  # atno 6907 bound_to 6896
  151.5120  135.1063  159.9866 H   0  0  0  0  0  0  0  0  0  0  0  0  # atno 6908 bound_to 6896
  152.4694  133.7950  159.6978 H   0  0  0  0  0  0  0  0  0  0  0  0  # atno 6909 bound_to 6896
  145.3122  140.9403  143.2763 H   0  0  0  0  0  0  0  0  0  0  0  0  # atno 7974 bound_to 7965
  154.6638  140.0565  157.0091 H   0  0  0  0  0  0  0  0  0  0  0  0  # atno 8008 bound_to 7997
  155.1189  140.3245  155.4484 H   0  0  0  0  0  0  0  0  0  0  0  0  # atno 8009 bound_to 7997
  156.2629  140.2001  156.6312 H   0  0  0  0  0  0  0  0  0  0  0  0  # atno 8010 bound_to 7997
  140.6735  143.6981  150.7973 H   0  0  0  0  0  0  0  0  0  0  0  0  # atno 10167 bound_to 10162
  156.0551  130.5777  150.8135 H   0  0  0  0  0  0  0  0  0  0  0  0  # atno 10718 bound_to 10713
  153.9106  135.6793  153.4751 H   0  0  0  0  0  0  0  0  0  0  0  0  # atno 10763 bound_to 10752
  153.1080  135.4796  154.8983 H   0  0  0  0  0  0  0  0  0  0  0  0  # atno 10764 bound_to 10752
  154.7529  135.3189  154.8480 H   0  0  0  0  0  0  0  0  0  0  0  0  # atno 10765 bound_to 10752
  141.0843  133.9165  157.2219 H   0  0  0  0  0  0  0  0  0  0  0  0  # atno 11005 bound_to 11000
  144.9007  139.4654  143.6634 LP  0  0  0  0  0  0  0  0  0  0  0  0  # atno 17320 bound_to 7965
  146.3114  139.7759  142.9017 LP  0  0  0  0  0  0  0  0  0  0  0  0  # atno 17321 bound_to 7965
  140.0671  143.5098  152.2599 LP  0  0  0  0  0  0  0  0  0  0  0  0  # atno 17342 bound_to 10162
  139.6015  144.7584  151.3160 LP  0  0  0  0  0  0  0  0  0  0  0  0  # atno 17343 bound_to 10162
  157.5513  131.0944  150.9692 LP  0  0  0  0  0  0  0  0  0  0  0  0  # atno 17370 bound_to 10713
  156.9951  130.5578  149.5306 LP  0  0  0  0  0  0  0  0  0  0  0  0  # atno 17371 bound_to 10713
  139.9660  135.0142  156.9388 LP  0  0  0  0  0  0  0  0  0  0  0  0  # atno 17394 bound_to 11000
  140.5398  134.0732  155.7338 LP  0  0  0  0  0  0  0  0  0  0  0  0  # atno 17395 bound_to 11000

$$$$
