#       Name:                AV-unprocessed.smi:2301
#       Creating user name   scv26
#       Creation time:       Fri Mar 27 12:45:32 2020


#       File generated by GOLD software.
#

@<TRIPOS>MOLECULE
AV-unprocessed.smi:2301
    42    43     1
SMALL
NO_CHARGES


@<TRIPOS>ATOM
      1 ****        -5.5649   1.2218  -0.7441 C.3            1 S1                 0.0000
      2 ****        -4.8358  -0.0967  -0.5930 C.ar           1 S1                 0.0000
      3 ****        -5.5247  -1.3217  -0.6896 C.ar           1 S1                 0.0000
      4 ****        -4.7871  -2.5100  -0.5431 C.ar           1 S1                 0.0000
      5 ****        -3.4012  -2.4254  -0.3084 C.ar           1 S1                 0.0000
      6 ****        -2.7863  -1.1556  -0.2257 C.ar           1 S1                 0.0000
      7 ****        -1.3863  -1.1783   0.0124 N.am           1 S1                 0.0000
      8 ****        -0.5468  -0.1347   0.1342 C.2            1 S1                 0.0000
      9 ****        -0.8684   1.0516   0.0590 O.2            1 S1                 0.0000
     10 ****         0.7109  -0.5469   0.3506 N.am           1 S1                 0.0000
     11 ****         1.8654   0.3287   0.5299 C.3            1 S1                 0.0000
     12 ****         2.9522  -0.4079   1.3360 C.3            1 S1                 0.0000
     13 ****         4.2146   0.4542   1.4992 C.3            1 S1                 0.0000
     14 ****         4.7562   0.9064   0.1323 C.3            1 S1                 0.0000
     15 ****         5.8723   1.7501   0.3216 O.3            1 S1                 0.0000
     16 ****         3.6773   1.6534  -0.6699 C.3            1 S1                 0.0000
     17 ****         2.4149   0.7924  -0.8356 C.3            1 S1                 0.0000
     18 ****        -3.5067  -0.0152  -0.3683 N.ar           1 S1                 0.0000
     19 ****         1.5583   1.2063   1.1022 H              1 S1                 0.0000
     20 ****         5.0877   0.0337  -0.4320 H              1 S1                 0.0000
     21 ****        -6.6448   1.0747  -0.7755 H              1 S1                 0.0000
     22 ****        -5.2607   1.7177  -1.6661 H              1 S1                 0.0000
     23 ****        -5.3369   1.8822   0.0932 H              1 S1                 0.0000
     24 ****        -6.5891  -1.3531  -0.8712 H              1 S1                 0.0000
     25 ****        -5.2752  -3.4710  -0.6103 H              1 S1                 0.0000
     26 ****        -2.8204  -3.3291  -0.1942 H              1 S1                 0.0000
     27 ****        -0.9761  -2.0962   0.0984 H              1 S1                 0.0000
     28 ****         0.8843  -1.5403   0.3961 H              1 S1                 0.0000
     29 ****         2.5674  -0.6826   2.3189 H              1 S1                 0.0000
     30 ****         3.2162  -1.3408   0.8356 H              1 S1                 0.0000
     31 ****         3.9801   1.3252   2.1130 H              1 S1                 0.0000
     32 ****         4.9780  -0.1082   2.0381 H              1 S1                 0.0000
     33 ****         5.5930   2.5152   0.8013 H              1 S1                 0.0000
     34 ****         3.4146   2.5835  -0.1635 H              1 S1                 0.0000
     35 ****         4.0636   1.9329  -1.6507 H              1 S1                 0.0000
     36 ****         2.6483  -0.0752  -1.4545 H              1 S1                 0.0000
     37 ****         1.6564   1.3606  -1.3752 H              1 S1                 0.0000
     38 ****        -1.8226   1.3015  -0.1053 LP             1 S1                 0.0000
     39 ****        -0.1753   1.7650   0.1622 LP             1 S1                 0.0000
     40 ****         6.2415   2.0250  -0.5662 LP             1 S1                 0.0000
     41 ****         6.5769   1.2657   0.8401 LP             1 S1                 0.0000
     42 ****        -3.0583   0.8765  -0.3077 LP             1 S1                 0.0000
@<TRIPOS>BOND
    1    1    2 1     
    2    1   21 1     
    3    1   22 1     
    4    1   23 1     
    5    2   18 ar    
    6    2    3 ar    
    7    3    4 ar    
    8    3   24 1     
    9    4    5 ar    
   10    4   25 1     
   11    5    6 ar    
   12    5   26 1     
   13    6    7 1     
   14    6   18 ar    
   15    7    8 am    
   16    7   27 1     
   17    8    9 2     
   18    8   10 am    
   19   10   11 1     
   20   10   28 1     
   21   11   19 1     
   22   11   17 1     
   23   11   12 1     
   24   12   13 1     
   25   12   29 1     
   26   12   30 1     
   27   13   14 1     
   28   13   31 1     
   29   13   32 1     
   30   14   20 1     
   31   14   15 1     
   32   14   16 1     
   33   15   33 1     
   34   16   17 1     
   35   16   34 1     
   36   16   35 1     
   37   17   36 1     
   38   17   37 1     
   39    9   38 1     
   40    9   39 1     
   41   15   40 1     
   42   15   41 1     
   43   18   42 1     
@<TRIPOS>SUBSTRUCTURE
      1 S1             1
@<TRIPOS>SET
LONE_PAIRS      STATIC     ATOMS    <user>   **** ""
5 38 39 40 41 42
DONOR_HYDROGENS      STATIC     ATOMS    <user>   **** ""
3 27 28 33
ATOM$BLUE        STATIC     ATOMS    COLORGROUP SYSTEM
5 38 39 40 41 42
ATOM$RED        STATIC     ATOMS    COLORGROUP SYSTEM
3 27 28 33
