AV-unprocessed.smi:187|AV-procd|sdf|1471|dock6
  -GOLD-   2262019293D 1   1.00000     0.00000
 Structure written by MMmdl.
 53 56  0  0  0  0  0  0  0  0  1 V2000
  153.4718  136.9915  163.4017 C   0  0  0  0  0  0  0  0  0  0  0  0
  154.8792  136.7276  162.8259 C   0  0  1  0  0  0  0  0  0  0  0  0
  155.5868  135.6557  163.6816 C   0  0  0  0  0  0  0  0  0  0  0  0
  156.9669  135.2943  163.1174 C   0  0  0  0  0  0  0  0  0  0  0  0
  156.8298  134.8353  161.6549 C   0  0  2  0  0  0  0  0  0  0  0  0
  158.1971  134.4860  161.0536 C   0  0  0  0  0  0  0  0  0  0  0  0
  158.2118  134.0385  159.7956 N   0  0  0  0  0  0  0  0  0  0  0  0
  159.2273  134.6168  161.7125 O   0  0  0  0  0  0  0  0  0  0  0  0
  156.1362  135.9385  160.8338 C   0  0  0  0  0  0  0  0  0  0  0  0
  154.8457  136.3134  161.4135 N   0  0  0  0  0  0  0  0  0  0  0  0
  154.1723  137.1112  160.5503 C   0  0  0  0  0  0  0  0  0  0  0  0
  153.3754  136.5670  159.5921 N   0  0  0  0  0  0  0  0  0  0  0  0
  152.6923  137.3605  158.7613 C   0  0  0  0  0  0  0  0  0  0  0  0
  152.6584  138.6944  158.7197 N   0  0  0  0  0  0  0  0  0  0  0  0
  153.4507  139.2415  159.6861 C   0  0  0  0  0  0  0  0  0  0  0  0
  154.2285  138.5274  160.6395 C   0  0  0  0  0  0  0  0  0  0  0  0
  154.8892  139.4154  161.4786 N   0  0  0  0  0  0  0  0  0  0  0  0
  154.5180  140.5907  161.0482 C   0  0  0  0  0  0  0  0  0  0  0  0
  153.6764  140.5795  159.9577 N   0  0  0  0  0  0  0  0  0  0  0  0
  153.0872  141.7142  159.3094 C   0  0  0  0  0  0  0  0  0  0  0  0
  153.3922  143.1366  159.7818 C   0  0  0  0  0  0  0  0  0  0  0  0
  151.9734  143.5750  159.3514 C   0  0  0  0  0  0  0  0  0  0  0  0
  151.2273  144.5160  160.3139 C   0  0  0  0  0  0  0  0  0  0  0  0
  151.1914  144.0077  161.6313 O   0  0  0  0  0  0  0  0  0  0  0  0
  151.8248  144.1010  157.9078 C   0  0  0  0  0  0  0  0  0  0  0  0
  150.6982  143.5562  157.2523 O   0  0  0  0  0  0  0  0  0  0  0  0
  151.6143  142.0800  159.5132 C   0  0  0  0  0  0  0  0  0  0  0  0
  153.5274  137.2492  164.4596 H   0  0  0  0  0  0  0  0  0  0  0  0
  152.8364  136.1100  163.3098 H   0  0  0  0  0  0  0  0  0  0  0  0
  152.9667  137.8176  162.9021 H   0  0  0  0  0  0  0  0  0  0  0  0
  155.4603  137.6487  162.8938 H   0  0  0  0  0  0  0  0  0  0  0  0
  155.6931  136.0075  164.7083 H   0  0  0  0  0  0  0  0  0  0  0  0
  154.9719  134.7555  163.7270 H   0  0  0  0  0  0  0  0  0  0  0  0
  157.6259  136.1613  163.1865 H   0  0  0  0  0  0  0  0  0  0  0  0
  157.4190  134.5079  163.7233 H   0  0  0  0  0  0  0  0  0  0  0  0
  156.2011  133.9430  161.6304 H   0  0  0  0  0  0  0  0  0  0  0  0
  159.0880  133.7953  159.3571 H   0  0  0  0  0  0  0  0  0  0  0  0
  157.3443  133.9448  159.2875 H   0  0  0  0  0  0  0  0  0  0  0  0
  156.7698  136.8258  160.7817 H   0  0  0  0  0  0  0  0  0  0  0  0
  155.9957  135.5914  159.8085 H   0  0  0  0  0  0  0  0  0  0  0  0
  152.0853  136.8541  158.0256 H   0  0  0  0  0  0  0  0  0  0  0  0
  154.8560  141.5036  161.5167 H   0  0  0  0  0  0  0  0  0  0  0  0
  153.3152  141.6042  158.2478 H   0  0  0  0  0  0  0  0  0  0  0  0
  153.5444  143.1932  160.8615 H   0  0  0  0  0  0  0  0  0  0  0  0
  154.2099  143.6225  159.2490 H   0  0  0  0  0  0  0  0  0  0  0  0
  151.6810  145.5072  160.3301 H   0  0  0  0  0  0  0  0  0  0  0  0
  150.1948  144.6581  159.9936 H   0  0  0  0  0  0  0  0  0  0  0  0
  150.3784  144.2715  162.0339 H   0  0  0  0  0  0  0  0  0  0  0  0
  151.7162  145.1854  157.8931 H   0  0  0  0  0  0  0  0  0  0  0  0
  152.7134  143.8807  157.3157 H   0  0  0  0  0  0  0  0  0  0  0  0
  150.1829  144.2649  156.8989 H   0  0  0  0  0  0  0  0  0  0  0  0
  150.9411  141.6834  158.7525 H   0  0  0  0  0  0  0  0  0  0  0  0
  151.2586  141.8304  160.5147 H   0  0  0  0  0  0  0  0  0  0  0  0
  1  2  1  0  0  0  0
  1 28  1  0  0  0  0
  1 29  1  0  0  0  0
  1 30  1  0  0  0  0
  2 10  1  0  0  0  0
  2  3  1  0  0  0  0
  2 31  1  0  0  0  0
  3  4  1  0  0  0  0
  3 32  1  0  0  0  0
  3 33  1  0  0  0  0
  4  5  1  0  0  0  0
  4 34  1  0  0  0  0
  4 35  1  0  0  0  0
  5  6  1  0  0  0  0
  5  9  1  0  0  0  0
  5 36  1  0  0  0  0
  6  7  1  0  0  0  0
  6  8  2  0  0  0  0
  7 37  1  0  0  0  0
  7 38  1  0  0  0  0
  9 10  1  0  0  0  0
  9 39  1  0  0  0  0
  9 40  1  0  0  0  0
 10 11  1  0  0  0  0
 11 16  1  0  0  0  0
 11 12  2  0  0  0  0
 12 13  1  0  0  0  0
 13 14  2  0  0  0  0
 13 41  1  0  0  0  0
 14 15  1  0  0  0  0
 15 19  1  0  0  0  0
 15 16  2  0  0  0  0
 16 17  1  0  0  0  0
 17 18  2  0  0  0  0
 18 19  1  0  0  0  0
 18 42  1  0  0  0  0
 19 20  1  0  0  0  0
 20 27  1  0  0  0  0
 20 21  1  0  0  0  0
 20 43  1  0  0  0  0
 21 22  1  0  0  0  0
 21 44  1  0  0  0  0
 21 45  1  0  0  0  0
 22 23  1  0  0  0  0
 22 25  1  0  0  0  0
 22 27  1  0  0  0  0
 23 24  1  0  0  0  0
 23 46  1  0  0  0  0
 23 47  1  0  0  0  0
 24 48  1  0  0  0  0
 25 26  1  0  0  0  0
 25 49  1  0  0  0  0
 25 50  1  0  0  0  0
 26 51  1  0  0  0  0
 27 52  1  0  0  0  0
 27 53  1  0  0  0  0
M  END
> <s_m_source_file>
AV-unprocessed.smi

> <i_m_source_file_index>
187

> <i_lp_mmshare_version>
43012

> <i_f3d_flags>
0

> <s_epik_input>
W0NIM11bQ0BASF0xW0NIMl1bQ0gyXVtDQEBIXShDKD1PKVtOSDJdKVtDSDJdTjFjKG5bY0hdbjIpYyhjMjMpbltjSF1uM1tDSF0oW0NIMl00KVtDSDJdQzQoW0NIMl1bT0hdKVtDSDJdW09IXQ==

> <s_epik_cmdline>
J2VwaWtfcHl0aG9uJywgJy1waCcsICc3LjAnLCAnLXRuJywgJzgnLCAnLW1hJywgJzIwMCcsICctbWV0YWxfYmluZGluZycsICctaW1hZScsICc8aW5maWxlLm1hZT4nLCAnLW9tYWUnLCAnPG91dGZpbGUubWFlPic=

> <r_lp_tautomer_probability>
1

> <r_epik_Ionization_Penalty>
0.0017711

> <r_epik_Ionization_Penalty_Charging>
0

> <r_epik_Ionization_Penalty_Neutral>
0.0017711

> <r_epik_State_Penalty>
0.00107211

> <r_epik_Charging_Adjusted_Penalty>
0.00107211

> <i_epik_Tot_Q>
0

> <i_epik_Tot_abs_Q>
0

> <r_epik_Metal_State_Penalty>
-0

> <b_epik_Metal_Only>
0

> <s_lp_Force_Field>
OPLS_2005

> <r_lp_Energy>
43.5948

> <b_lp_Chiralities_Consistent>
1

> <s_lp_Variant>
AV-unprocessed.smi:187-4

> <Gold.Version>
5.8.1

> <Gold.Id.Protein>
6NUR|6NUR_protein|mol2

> <Gold.PLP.Fitness>
47.1188

> <Gold.PLP.PLP>
-43.4992

> <Gold.PLP.part.hbond>
-4.1305

> <Gold.PLP.part.metal>
0.0000

> <Gold.PLP.part.buried>
-6.8865

> <Gold.PLP.part.nonpolar>
-32.7018

> <Gold.PLP.part.repulsive>
0.0000

> <Gold.PLP.ligand.clash>
0.0000

> <Gold.PLP.ligand.torsion>
1.5126

> <Gold.PLP.Chemscore.Hbond>
1.9760

> <Gold.PLP.Chemscore.CHOScore>
0.0000

> <Gold.PLP.Chemscore.Metal>
0.0000

> <Gold.Chemscore.Hbonds>
donor molecule, donor type, donor heavy atom, donor atom, acceptor molecule, acceptor atom, score
      L1  H    26    51       P1  8028  0.93
      P1  H  6896  6907       L1    12  0.94

> <Gold.PLP.Chemscore.Internal.Correction>
0.7168

> <Gold.Rescore>
     Score         DG    S(hbond)    S(metal)    S(lipo)     H(rot)  DE(clash)    DE(int)     intcor
     10.76     -13.30       1.74        0.00     104.46       3.99       0.17       2.37       ----

> <Gold.Chemscore.Fitness>
10.7583

> <Gold.Chemscore.DG>
-13.2962

> <Gold.Chemscore.ZeroCoef>
-5.4800

> <Gold.Chemscore.Hbond>
1.7393

> <Gold.Chemscore.Metal>
0.0000

> <Gold.Chemscore.Lipo>
104.4604

> <Gold.Chemscore.Internal_Hbond>
0.0000

> <Gold.Chemscore.DEClash>
0.1712

> <Gold.Chemscore.DEInternal>
2.3667

> <Gold.Chemscore.Rot>
3.9902

> <Gold.Chemscore.Internal.Correction>
   9.000000E+99

> <Gold.Chemscore.Hbonds>
donor molecule, donor type, donor heavy atom, donor atom, acceptor molecule, acceptor atom, score
      L1  H    26    51       P1  8028  0.83
      P1  H  6896  6907       L1    12  0.57

> <Gold.Chemscore.Hbond.Weighted>
-5.8091

> <Gold.Chemscore.Metal.Weighted>
-0.0000

> <Gold.Chemscore.Lipo.Weighted>
-12.2219

> <Gold.Chemscore.Internal_Hbond.Weighted>
0.0000

> <Gold.Chemscore.DEClash.Weighted>
0.1712

> <Gold.Chemscore.DEInternal.Weighted>
2.3667

> <Gold.Chemscore.Rot.Weighted>
10.2148

> <Gold.Chemscore.Internal.Correction.Weighted>
   9.000000E+99

> <Gold.Protein.RotatedTorsions>
[ 6907 6896 6895 6894 ] final   37.80 input  -60.11 | X-H torsion
[ 7974 7965 7964 7962 ] final -172.61 input  175.53 | X-H torsion
[ 8008 7997 7996 7995 ] final   22.01 input   59.86 | X-H torsion
[ 10167 10162 10161 10158 ] final -116.44 input  -65.29 | X-H torsion
[ 10718 10713 10712 10709 ] final   46.02 input   66.30 | X-H torsion
[ 10763 10752 10751 10750 ] final  -57.00 input  -60.55 | X-H torsion
[ 11005 11000 10999 10996 ] final -138.18 input  -57.11 | X-H torsion

> <Gold.Protein.ActiveResidues>
 VAL166  LYS551  ARG553  GLY616  TRP617  ASP618  TYR619  PRO620  LYS621  CYS622 
 ASP623  PHE694  ASN695  SER759  ASP760  ASP761  ALA762  ILE779  LEU786  VAL792 
 PHE793  MET794  SER795  GLU796  ALA797  LYS798  CYS799  TRP800  GLU811  SER814 

> <Gold.Protein.RotatedAtoms>
  152.1480  134.9010  160.0549 H   0  0  0  0  0  0  0  0  0  0  0  0  # atno 6907 bound_to 6896
  152.0053  133.3836  159.4206 H   0  0  0  0  0  0  0  0  0  0  0  0  # atno 6908 bound_to 6896
  150.6872  134.3711  159.5036 H   0  0  0  0  0  0  0  0  0  0  0  0  # atno 6909 bound_to 6896
  144.7145  140.1747  143.6364 H   0  0  0  0  0  0  0  0  0  0  0  0  # atno 7974 bound_to 7965
  154.9592  140.3076  155.5039 H   0  0  0  0  0  0  0  0  0  0  0  0  # atno 8008 bound_to 7997
  156.2979  140.2304  156.4614 H   0  0  0  0  0  0  0  0  0  0  0  0  # atno 8009 bound_to 7997
  154.7981  140.0435  157.1240 H   0  0  0  0  0  0  0  0  0  0  0  0  # atno 8010 bound_to 7997
  140.0792  143.4804  152.1935 H   0  0  0  0  0  0  0  0  0  0  0  0  # atno 10167 bound_to 10162
  157.4437  130.8096  149.7719 H   0  0  0  0  0  0  0  0  0  0  0  0  # atno 10718 bound_to 10713
  154.2155  135.6387  153.5128 H   0  0  0  0  0  0  0  0  0  0  0  0  # atno 10763 bound_to 10752
  152.9980  135.5484  154.6170 H   0  0  0  0  0  0  0  0  0  0  0  0  # atno 10764 bound_to 10752
  154.5617  135.2909  155.0886 H   0  0  0  0  0  0  0  0  0  0  0  0  # atno 10765 bound_to 10752
  140.8641  134.2133  157.4690 H   0  0  0  0  0  0  0  0  0  0  0  0  # atno 11005 bound_to 11000
  145.8912  139.2376  143.1548 LP  0  0  0  0  0  0  0  0  0  0  0  0  # atno 17320 bound_to 7965
  145.9902  140.8609  143.0070 LP  0  0  0  0  0  0  0  0  0  0  0  0  # atno 17321 bound_to 7965
  139.5790  144.7501  151.3690 LP  0  0  0  0  0  0  0  0  0  0  0  0  # atno 17342 bound_to 10162
  140.7086  143.7448  150.7527 LP  0  0  0  0  0  0  0  0  0  0  0  0  # atno 17343 bound_to 10162
  155.9959  130.3909  150.2801 LP  0  0  0  0  0  0  0  0  0  0  0  0  # atno 17370 bound_to 10713
  157.0968  131.0185  151.3101 LP  0  0  0  0  0  0  0  0  0  0  0  0  # atno 17371 bound_to 10713
  139.8708  134.9743  156.4842 LP  0  0  0  0  0  0  0  0  0  0  0  0  # atno 17394 bound_to 11000
  140.8649  133.8031  155.9304 LP  0  0  0  0  0  0  0  0  0  0  0  0  # atno 17395 bound_to 11000

$$$$
