AV-unprocessed.smi:2195|AV-procd|sdf|8905|dock7
  -GOLD-   2272012123D 1   1.00000     0.00000
 Structure written by MMmdl.
 39 41  0  0  0  0  0  0  0  0  1 V2000
  144.1708  145.2789  154.1462 C   0  0  0  0  0  0  0  0  0  0  0  0
  145.0535  144.0700  154.3791 C   0  0  0  0  0  0  0  0  0  0  0  0
  145.9890  143.6686  153.4050 C   0  0  0  0  0  0  0  0  0  0  0  0
  146.8061  142.5443  153.6319 C   0  0  0  0  0  0  0  0  0  0  0  0
  146.7042  141.8061  154.8291 C   0  0  0  0  0  0  0  0  0  0  0  0
  147.5445  140.7224  154.9694 O   0  0  0  0  0  0  0  0  0  0  0  0
  148.7869  140.7379  154.2781 C   0  0  0  0  0  0  0  0  0  0  0  0
  149.9214  140.5471  155.2969 C   0  0  1  0  0  0  0  0  0  0  0  0
  150.9919  139.8812  154.6553 O   0  0  0  0  0  0  0  0  0  0  0  0
  150.4316  141.8918  155.8509 C   0  0  0  0  0  0  0  0  0  0  0  0
  151.0701  141.7509  157.1475 N   0  0  0  0  0  0  0  0  0  0  0  0
  151.3401  140.6050  157.8022 C   0  0  0  0  0  0  0  0  0  0  0  0
  151.9346  140.7058  158.9879 N   0  0  0  0  0  0  0  0  0  0  0  0
  152.0644  142.0778  159.1190 C   0  0  0  0  0  0  0  0  0  0  0  0
  152.6184  142.8512  160.1643 C   0  0  0  0  0  0  0  0  0  0  0  0
  152.6404  144.2589  160.0772 C   0  0  0  0  0  0  0  0  0  0  0  0
  152.1103  144.9141  158.9464 C   0  0  0  0  0  0  0  0  0  0  0  0
  151.5542  144.1647  157.8918 C   0  0  0  0  0  0  0  0  0  0  0  0
  151.5337  142.7606  157.9832 C   0  0  0  0  0  0  0  0  0  0  0  0
  145.7581  142.2135  155.8034 C   0  0  0  0  0  0  0  0  0  0  0  0
  144.9403  143.3377  155.5770 C   0  0  0  0  0  0  0  0  0  0  0  0
  144.4518  145.8076  153.2349 H   0  0  0  0  0  0  0  0  0  0  0  0
  144.2540  145.9748  154.9813 H   0  0  0  0  0  0  0  0  0  0  0  0
  143.1283  144.9731  154.0561 H   0  0  0  0  0  0  0  0  0  0  0  0
  146.0849  144.2199  152.4809 H   0  0  0  0  0  0  0  0  0  0  0  0
  147.5204  142.2463  152.8786 H   0  0  0  0  0  0  0  0  0  0  0  0
  148.8296  139.9700  153.5034 H   0  0  0  0  0  0  0  0  0  0  0  0
  148.8976  141.7090  153.7924 H   0  0  0  0  0  0  0  0  0  0  0  0
  149.5678  139.9325  156.1259 H   0  0  0  0  0  0  0  0  0  0  0  0
  151.4056  139.3083  155.2831 H   0  0  0  0  0  0  0  0  0  0  0  0
  151.1411  142.3470  155.1581 H   0  0  0  0  0  0  0  0  0  0  0  0
  149.6046  142.5950  155.9570 H   0  0  0  0  0  0  0  0  0  0  0  0
  151.0822  139.6422  157.3857 H   0  0  0  0  0  0  0  0  0  0  0  0
  153.0270  142.3604  161.0350 H   0  0  0  0  0  0  0  0  0  0  0  0
  153.0659  144.8389  160.8831 H   0  0  0  0  0  0  0  0  0  0  0  0
  152.1308  145.9925  158.8890 H   0  0  0  0  0  0  0  0  0  0  0  0
  151.1472  144.6620  157.0238 H   0  0  0  0  0  0  0  0  0  0  0  0
  145.6390  141.6800  156.7340 H   0  0  0  0  0  0  0  0  0  0  0  0
  144.2240  143.6372  156.3280 H   0  0  0  0  0  0  0  0  0  0  0  0
  1  2  1  0  0  0  0
  1 22  1  0  0  0  0
  1 23  1  0  0  0  0
  1 24  1  0  0  0  0
  2 21  1  0  0  0  0
  2  3  2  0  0  0  0
  3  4  1  0  0  0  0
  3 25  1  0  0  0  0
  4  5  2  0  0  0  0
  4 26  1  0  0  0  0
  5  6  1  0  0  0  0
  5 20  1  0  0  0  0
  6  7  1  0  0  0  0
  7  8  1  0  0  0  0
  7 27  1  0  0  0  0
  7 28  1  0  0  0  0
  8  9  1  0  0  0  0
  8 10  1  0  0  0  0
  8 29  1  0  0  0  0
  9 30  1  0  0  0  0
 10 11  1  0  0  0  0
 10 31  1  0  0  0  0
 10 32  1  0  0  0  0
 11 19  1  0  0  0  0
 11 12  1  0  0  0  0
 12 13  2  0  0  0  0
 12 33  1  0  0  0  0
 13 14  1  0  0  0  0
 14 19  2  0  0  0  0
 14 15  1  0  0  0  0
 15 16  2  0  0  0  0
 15 34  1  0  0  0  0
 16 17  1  0  0  0  0
 16 35  1  0  0  0  0
 17 18  2  0  0  0  0
 17 36  1  0  0  0  0
 18 19  1  0  0  0  0
 18 37  1  0  0  0  0
 20 21  2  0  0  0  0
 20 38  1  0  0  0  0
 21 39  1  0  0  0  0
M  END
> <s_m_source_file>
AV-unprocessed.smi

> <i_m_source_file_index>
2195

> <i_lp_mmshare_version>
43012

> <i_f3d_flags>
0

> <s_epik_input>
W0NIM11jMVtjSF1bY0hdYyhbY0hdW2NIXTEpT1tDSDJdW0NASF0oW09IXSlbQ0gyXW4oW2NIXW4yKWMoYzIzKVtjSF1bY0hdW2NIXVtjSF0z

> <s_epik_cmdline>
J2VwaWtfcHl0aG9uJywgJy1waCcsICc3LjAnLCAnLXRuJywgJzgnLCAnLW1hJywgJzIwMCcsICctbWV0YWxfYmluZGluZycsICctaW1hZScsICc8aW5maWxlLm1hZT4nLCAnLW9tYWUnLCAnPG91dGZpbGUubWFlPic=

> <r_lp_tautomer_probability>
1

> <r_epik_Ionization_Penalty>
0.0609831

> <r_epik_Ionization_Penalty_Charging>
0

> <r_epik_Ionization_Penalty_Neutral>
0.0609831

> <r_epik_State_Penalty>
0.0529032

> <r_epik_Charging_Adjusted_Penalty>
0.0529032

> <i_epik_Tot_Q>
0

> <i_epik_Tot_abs_Q>
0

> <r_epik_Metal_State_Penalty>
5.53344e-05

> <b_epik_Metal_Only>
0

> <s_lp_Force_Field>
OPLS_2005

> <r_lp_Energy>
16.3269

> <b_lp_Chiralities_Consistent>
1

> <s_lp_Variant>
AV-unprocessed.smi:2195-2

> <Gold.Version>
5.8.1

> <Gold.Id.Protein>
6NUR|6NUR_protein|mol2

> <Gold.PLP.Fitness>
50.5544

> <Gold.PLP.PLP>
-50.3365

> <Gold.PLP.part.hbond>
-1.0000

> <Gold.PLP.part.metal>
0.0000

> <Gold.PLP.part.buried>
-8.3730

> <Gold.PLP.part.nonpolar>
-41.7207

> <Gold.PLP.part.repulsive>
0.0784

> <Gold.PLP.ligand.clash>
0.0000

> <Gold.PLP.ligand.torsion>
1.4080

> <Gold.PLP.Chemscore.Hbond>
1.0000

> <Gold.PLP.Chemscore.CHOScore>
0.0000

> <Gold.PLP.Chemscore.Metal>
0.0000

> <Gold.Chemscore.Hbonds>
donor molecule, donor type, donor heavy atom, donor atom, acceptor molecule, acceptor atom, score
      P1  H  7989  7998       L1     9  1.00

> <Gold.PLP.Chemscore.Internal.Correction>
0.0339

> <Gold.Rescore>
     Score         DG    S(hbond)    S(metal)    S(lipo)     H(rot)  DE(clash)    DE(int)     intcor
     16.46     -17.92       0.88        0.00     129.01       2.19       0.04       1.42       ----

> <Gold.Chemscore.Fitness>
16.4616

> <Gold.Chemscore.DG>
-17.9195

> <Gold.Chemscore.ZeroCoef>
-5.4800

> <Gold.Chemscore.Hbond>
0.8821

> <Gold.Chemscore.Metal>
0.0000

> <Gold.Chemscore.Lipo>
129.0074

> <Gold.Chemscore.Internal_Hbond>
0.0000

> <Gold.Chemscore.DEClash>
0.0352

> <Gold.Chemscore.DEInternal>
1.4228

> <Gold.Chemscore.Rot>
2.1877

> <Gold.Chemscore.Internal.Correction>
   9.000000E+99

> <Gold.Chemscore.Hbonds>
donor molecule, donor type, donor heavy atom, donor atom, acceptor molecule, acceptor atom, score
      P1  H  7989  7998       L1     9  0.74

> <Gold.Chemscore.Hbond.Weighted>
-2.9461

> <Gold.Chemscore.Metal.Weighted>
-0.0000

> <Gold.Chemscore.Lipo.Weighted>
-15.0939

> <Gold.Chemscore.Internal_Hbond.Weighted>
0.0000

> <Gold.Chemscore.DEClash.Weighted>
0.0352

> <Gold.Chemscore.DEInternal.Weighted>
1.4228

> <Gold.Chemscore.Rot.Weighted>
5.6005

> <Gold.Chemscore.Internal.Correction.Weighted>
   9.000000E+99

> <Gold.Protein.RotatedTorsions>
[ 6907 6896 6895 6894 ] final  -54.12 input  -60.11 | X-H torsion
[ 7974 7965 7964 7962 ] final  -41.86 input  175.53 | X-H torsion
[ 8008 7997 7996 7995 ] final   70.94 input   59.86 | X-H torsion
[ 10167 10162 10161 10158 ] final   28.26 input  -65.29 | X-H torsion
[ 10718 10713 10712 10709 ] final   12.70 input   66.30 | X-H torsion
[ 10763 10752 10751 10750 ] final  -99.78 input  -60.55 | X-H torsion
[ 11005 11000 10999 10996 ] final  -42.07 input  -57.11 | X-H torsion

> <Gold.Protein.ActiveResidues>
 VAL166  LYS551  ARG553  GLY616  TRP617  ASP618  TYR619  PRO620  LYS621  CYS622 
 ASP623  PHE694  ASN695  SER759  ASP760  ASP761  ALA762  ILE779  LEU786  VAL792 
 PHE793  MET794  SER795  GLU796  ALA797  LYS798  CYS799  TRP800  GLU811  SER814 

> <Gold.Protein.RotatedAtoms>
  150.8366  134.7641  159.6897 H   0  0  0  0  0  0  0  0  0  0  0  0  # atno 6907 bound_to 6896
  152.4461  134.5487  159.9870 H   0  0  0  0  0  0  0  0  0  0  0  0  # atno 6908 bound_to 6896
  151.5636  133.3362  159.3012 H   0  0  0  0  0  0  0  0  0  0  0  0  # atno 6909 bound_to 6896
  146.0171  140.6895  142.9196 H   0  0  0  0  0  0  0  0  0  0  0  0  # atno 7974 bound_to 7965
  155.7464  140.3489  155.5129 H   0  0  0  0  0  0  0  0  0  0  0  0  # atno 8008 bound_to 7997
  155.9046  140.1040  157.1346 H   0  0  0  0  0  0  0  0  0  0  0  0  # atno 8009 bound_to 7997
  154.4048  140.1279  156.4467 H   0  0  0  0  0  0  0  0  0  0  0  0  # atno 8010 bound_to 7997
  140.4868  144.0530  150.6283 H   0  0  0  0  0  0  0  0  0  0  0  0  # atno 10167 bound_to 10162
  157.0139  130.6128  149.5712 H   0  0  0  0  0  0  0  0  0  0  0  0  # atno 10718 bound_to 10713
  154.7526  135.4959  153.9317 H   0  0  0  0  0  0  0  0  0  0  0  0  # atno 10763 bound_to 10752
  153.1160  135.6720  153.9425 H   0  0  0  0  0  0  0  0  0  0  0  0  # atno 10764 bound_to 10752
  153.9170  135.3092  155.3427 H   0  0  0  0  0  0  0  0  0  0  0  0  # atno 10765 bound_to 10752
  141.0290  133.6828  156.2544 H   0  0  0  0  0  0  0  0  0  0  0  0  # atno 11005 bound_to 11000
  144.6975  140.3500  143.7183 LP  0  0  0  0  0  0  0  0  0  0  0  0  # atno 17320 bound_to 7965
  145.7251  139.1720  143.2462 LP  0  0  0  0  0  0  0  0  0  0  0  0  # atno 17321 bound_to 7965
  140.3788  143.2814  152.0194 LP  0  0  0  0  0  0  0  0  0  0  0  0  # atno 17342 bound_to 10162
  139.4843  144.6172  151.7325 LP  0  0  0  0  0  0  0  0  0  0  0  0  # atno 17343 bound_to 10162
  156.0126  130.5219  150.8036 LP  0  0  0  0  0  0  0  0  0  0  0  0  # atno 17370 bound_to 10713
  157.5300  131.0936  150.9968 LP  0  0  0  0  0  0  0  0  0  0  0  0  # atno 17371 bound_to 10713
  140.6440  134.5136  157.5572 LP  0  0  0  0  0  0  0  0  0  0  0  0  # atno 17394 bound_to 11000
  139.9195  134.8178  156.1257 LP  0  0  0  0  0  0  0  0  0  0  0  0  # atno 17395 bound_to 11000

$$$$
