AV-unprocessed.smi:1570|AV-procd|sdf|6321|dock10
  -GOLD-   22720 6533D 1   1.00000     0.00000
 Structure written by MMmdl.
 52 54  0  0  0  0  0  0  0  0  2 V2000
  153.2276  142.6243  162.2846 C   0  0  0  0  0  0  0  0  0  0  0  0
  153.8005  141.5806  161.3171 C   0  0  0  0  0  0  0  0  0  0  0  0
  152.9994  141.4944  160.0988 N   0  0  0  0  0  0  0  0  0  0  0  0
  152.4416  140.3768  159.5780 C   0  0  0  0  0  0  0  0  0  0  0  0
  152.5319  139.2386  160.0385 O   0  0  0  0  0  0  0  0  0  0  0  0
  151.7475  140.7290  158.4697 N   0  0  0  0  0  0  0  0  0  0  0  0
  150.9852  139.8304  157.6039 C   0  0  0  0  0  0  0  0  0  0  0  0
  151.4690  139.8972  156.1410 C   0  0  1  0  0  0  0  0  0  0  0  0
  152.8186  139.4760  156.1010 O   0  0  0  0  0  0  0  0  0  0  0  0
  150.6581  138.9562  155.2278 C   0  0  0  0  0  0  0  0  0  0  0  0
  149.3536  139.5453  154.8342 N   0  3  1  0  0  0  0  0  0  0  0  0
  149.4720  140.9530  154.3875 C   0  0  0  0  0  0  0  0  0  0  0  0
  148.0883  141.5501  154.0629 C   0  0  2  0  0  0  0  0  0  0  0  0
  147.2455  141.8611  155.3127 C   0  0  0  0  0  0  0  0  0  0  0  0
  147.3940  140.7134  153.1374 O   0  0  0  0  0  0  0  0  0  0  0  0
  147.2392  139.3580  153.5514 C   0  0  1  0  0  0  0  0  0  0  0  0
  146.4864  138.6092  152.4459 C   0  0  0  0  0  0  0  0  0  0  0  0
  148.6245  138.7451  153.8210 C   0  0  0  0  0  0  0  0  0  0  0  0
  151.8535  142.1152  158.2832 C   0  0  0  0  0  0  0  0  0  0  0  0
  151.3097  142.9640  157.3029 C   0  0  0  0  0  0  0  0  0  0  0  0
  151.6063  144.3435  157.4050 C   0  0  0  0  0  0  0  0  0  0  0  0
  152.4180  144.8371  158.4590 C   0  0  0  0  0  0  0  0  0  0  0  0
  152.9498  143.9618  159.4344 C   0  0  0  0  0  0  0  0  0  0  0  0
  152.6416  142.5960  159.3087 C   0  0  0  0  0  0  0  0  0  0  0  0
  153.8285  142.6825  163.1923 H   0  0  0  0  0  0  0  0  0  0  0  0
  152.2076  142.3737  162.5771 H   0  0  0  0  0  0  0  0  0  0  0  0
  153.2131  143.6163  161.8321 H   0  0  0  0  0  0  0  0  0  0  0  0
  154.8301  141.8325  161.0611 H   0  0  0  0  0  0  0  0  0  0  0  0
  153.8406  140.6058  161.8056 H   0  0  0  0  0  0  0  0  0  0  0  0
  151.0005  138.8069  157.9798 H   0  0  0  0  0  0  0  0  0  0  0  0
  149.9414  140.1441  157.6584 H   0  0  0  0  0  0  0  0  0  0  0  0
  151.4057  140.9208  155.7736 H   0  0  0  0  0  0  0  0  0  0  0  0
  152.8469  138.5743  155.8183 H   0  0  0  0  0  0  0  0  0  0  0  0
  151.2526  138.7294  154.3410 H   0  0  0  0  0  0  0  0  0  0  0  0
  150.4779  137.9998  155.7214 H   0  0  0  0  0  0  0  0  0  0  0  0
  149.9636  141.5525  155.1550 H   0  0  0  0  0  0  0  0  0  0  0  0
  150.1072  140.9919  153.5011 H   0  0  0  0  0  0  0  0  0  0  0  0
  148.2493  142.4984  153.5490 H   0  0  0  0  0  0  0  0  0  0  0  0
  147.7392  142.6080  155.9349 H   0  0  0  0  0  0  0  0  0  0  0  0
  147.0823  140.9804  155.9334 H   0  0  0  0  0  0  0  0  0  0  0  0
  146.2699  142.2597  155.0337 H   0  0  0  0  0  0  0  0  0  0  0  0
  146.6362  139.3155  154.4588 H   0  0  0  0  0  0  0  0  0  0  0  0
  146.3281  137.5648  152.7160 H   0  0  0  0  0  0  0  0  0  0  0  0
  147.0391  138.6317  151.5061 H   0  0  0  0  0  0  0  0  0  0  0  0
  145.5088  139.0578  152.2676 H   0  0  0  0  0  0  0  0  0  0  0  0
  149.2064  138.7082  152.8982 H   0  0  0  0  0  0  0  0  0  0  0  0
  148.5046  137.7167  154.1602 H   0  0  0  0  0  0  0  0  0  0  0  0
  150.6886  142.5870  156.5044 H   0  0  0  0  0  0  0  0  0  0  0  0
  151.2082  145.0302  156.6725 H   0  0  0  0  0  0  0  0  0  0  0  0
  152.6308  145.8943  158.5184 H   0  0  0  0  0  0  0  0  0  0  0  0
  153.5649  144.3321  160.2412 H   0  0  0  0  0  0  0  0  0  0  0  0
  148.7855  139.5598  155.6699 H   0  0  0  0  0  0  0  0  0  0  0  0
  1  2  1  0  0  0  0
  1 25  1  0  0  0  0
  1 26  1  0  0  0  0
  1 27  1  0  0  0  0
  2  3  1  0  0  0  0
  2 28  1  0  0  0  0
  2 29  1  0  0  0  0
  3 24  1  0  0  0  0
  3  4  1  0  0  0  0
  4  5  2  0  0  0  0
  4  6  1  0  0  0  0
  6  7  1  0  0  0  0
  6 19  1  0  0  0  0
  7  8  1  0  0  0  0
  7 30  1  0  0  0  0
  7 31  1  0  0  0  0
  8  9  1  0  0  0  0
  8 10  1  0  0  0  0
  8 32  1  0  0  0  0
  9 33  1  0  0  0  0
 10 11  1  0  0  0  0
 10 34  1  0  0  0  0
 10 35  1  0  0  0  0
 11 18  1  0  0  0  0
 11 12  1  0  0  0  0
 11 52  1  0  0  0  0
 12 13  1  0  0  0  0
 12 36  1  0  0  0  0
 12 37  1  0  0  0  0
 13 14  1  0  0  0  0
 13 15  1  0  0  0  0
 13 38  1  0  0  0  0
 14 39  1  0  0  0  0
 14 40  1  0  0  0  0
 14 41  1  0  0  0  0
 15 16  1  0  0  0  0
 16 17  1  0  0  0  0
 16 18  1  0  0  0  0
 16 42  1  0  0  0  0
 17 43  1  0  0  0  0
 17 44  1  0  0  0  0
 17 45  1  0  0  0  0
 18 46  1  0  0  0  0
 18 47  1  0  0  0  0
 19 24  2  0  0  0  0
 19 20  1  0  0  0  0
 20 21  2  0  0  0  0
 20 48  1  0  0  0  0
 21 22  1  0  0  0  0
 21 49  1  0  0  0  0
 22 23  2  0  0  0  0
 22 50  1  0  0  0  0
 23 24  1  0  0  0  0
 23 51  1  0  0  0  0
M  CHG  1  11   1
M  END
> <s_m_source_file>
AV-unprocessed.smi

> <i_m_source_file_index>
1570

> <i_lp_mmshare_version>
43012

> <i_f3d_flags>
0

> <s_epik_input>
W2NIXTFbY0hdW2NIXVtjSF1jKGMxMiluKFtDSDJdW0NIM10pYyg9TyluMltDSDJdW0NASF0oW09IXSlbQ0gyXU4zW0NIMl1bQ0BASF0oW0NIM10pT1tDQEBIXShbQ0gzXSlbQ0gyXTM=

> <s_epik_cmdline>
J2VwaWtfcHl0aG9uJywgJy1waCcsICc3LjAnLCAnLXRuJywgJzgnLCAnLW1hJywgJzIwMCcsICctbWV0YWxfYmluZGluZycsICctaW1hZScsICc8aW5maWxlLm1hZT4nLCAnLW9tYWUnLCAnPG91dGZpbGUubWFlPic=

> <r_epik_Ionization_Penalty>
0.706332

> <r_epik_Ionization_Penalty_Charging>
0.706318

> <r_epik_Ionization_Penalty_Neutral>
1.42224e-05

> <r_epik_State_Penalty>
0.729493

> <r_epik_Charging_Adjusted_Penalty>
1.43581

> <i_epik_Tot_Q>
1

> <i_epik_Tot_abs_Q>
1

> <r_epik_Metal_State_Penalty>
0.729493

> <b_epik_Metal_Only>
0

> <s_lp_Force_Field>
OPLS_2005

> <r_lp_Energy>
54.8336

> <b_lp_Chiralities_Consistent>
1

> <s_lp_Variant>
AV-unprocessed.smi:1570-10

> <Gold.Version>
5.8.1

> <Gold.Id.Protein>
6NUR|6NUR_protein|mol2

> <Gold.PLP.Fitness>
59.1308

> <Gold.PLP.PLP>
-56.6062

> <Gold.PLP.part.hbond>
-1.0000

> <Gold.PLP.part.metal>
0.0000

> <Gold.PLP.part.buried>
-2.3780

> <Gold.PLP.part.nonpolar>
-54.0176

> <Gold.PLP.part.repulsive>
0.3184

> <Gold.PLP.ligand.clash>
0.0000

> <Gold.PLP.ligand.torsion>
0.2947

> <Gold.PLP.Chemscore.Hbond>
1.0000

> <Gold.PLP.Chemscore.CHOScore>
0.0000

> <Gold.PLP.Chemscore.Metal>
0.0000

> <Gold.Chemscore.Hbonds>
donor molecule, donor type, donor heavy atom, donor atom, acceptor molecule, acceptor atom, score
      P1  H  7997  8010       L1     9  1.00

> <Gold.PLP.Chemscore.Internal.Correction>
0.1139

> <Gold.Rescore>
     Score         DG    S(hbond)    S(metal)    S(lipo)     H(rot)  DE(clash)    DE(int)     intcor
     19.18     -20.38       0.85        0.00     149.77       2.13       0.33       0.87       ----

> <Gold.Chemscore.Fitness>
19.1838

> <Gold.Chemscore.DG>
-20.3772

> <Gold.Chemscore.ZeroCoef>
-5.4800

> <Gold.Chemscore.Hbond>
0.8465

> <Gold.Chemscore.Metal>
0.0000

> <Gold.Chemscore.Lipo>
149.7726

> <Gold.Chemscore.Internal_Hbond>
0.0000

> <Gold.Chemscore.DEClash>
0.3269

> <Gold.Chemscore.DEInternal>
0.8665

> <Gold.Chemscore.Rot>
2.1303

> <Gold.Chemscore.Internal.Correction>
   9.000000E+99

> <Gold.Chemscore.Hbonds>
donor molecule, donor type, donor heavy atom, donor atom, acceptor molecule, acceptor atom, score
      P1  H  7997  8010       L1     9  0.74

> <Gold.Chemscore.Hbond.Weighted>
-2.8273

> <Gold.Chemscore.Metal.Weighted>
-0.0000

> <Gold.Chemscore.Lipo.Weighted>
-17.5234

> <Gold.Chemscore.Internal_Hbond.Weighted>
0.0000

> <Gold.Chemscore.DEClash.Weighted>
0.3269

> <Gold.Chemscore.DEInternal.Weighted>
0.8665

> <Gold.Chemscore.Rot.Weighted>
5.4535

> <Gold.Chemscore.Internal.Correction.Weighted>
   9.000000E+99

> <Gold.Protein.RotatedTorsions>
[ 6907 6896 6895 6894 ] final    7.46 input  -60.11 | X-H torsion
[ 7974 7965 7964 7962 ] final  157.40 input  175.53 | X-H torsion
[ 8008 7997 7996 7995 ] final   95.01 input   59.86 | X-H torsion
[ 10167 10162 10161 10158 ] final -110.75 input  -65.29 | X-H torsion
[ 10718 10713 10712 10709 ] final   55.08 input   66.30 | X-H torsion
[ 10763 10752 10751 10750 ] final  -58.26 input  -60.55 | X-H torsion
[ 11005 11000 10999 10996 ] final -116.37 input  -57.11 | X-H torsion

> <Gold.Protein.ActiveResidues>
 VAL166  LYS551  ARG553  GLY616  TRP617  ASP618  TYR619  PRO620  LYS621  CYS622 
 ASP623  PHE694  ASN695  SER759  ASP760  ASP761  ALA762  ILE779  LEU786  VAL792 
 PHE793  MET794  SER795  GLU796  ALA797  LYS798  CYS799  TRP800  GLU811  SER814 

> <Gold.Protein.RotatedAtoms>
  151.6902  135.0947  160.0231 H   0  0  0  0  0  0  0  0  0  0  0  0  # atno 6907 bound_to 6896
  152.3783  133.6507  159.6149 H   0  0  0  0  0  0  0  0  0  0  0  0  # atno 6908 bound_to 6896
  150.7726  133.9073  159.3400 H   0  0  0  0  0  0  0  0  0  0  0  0  # atno 6909 bound_to 6896
  144.7906  139.7335  143.6223 H   0  0  0  0  0  0  0  0  0  0  0  0  # atno 7974 bound_to 7965
  156.0642  140.3292  155.7498 H   0  0  0  0  0  0  0  0  0  0  0  0  # atno 8008 bound_to 7997
  155.5407  140.0601  157.2888 H   0  0  0  0  0  0  0  0  0  0  0  0  # atno 8009 bound_to 7997
  154.4497  140.1911  156.0576 H   0  0  0  0  0  0  0  0  0  0  0  0  # atno 8010 bound_to 7997
  140.1411  143.4279  152.1561 H   0  0  0  0  0  0  0  0  0  0  0  0  # atno 10167 bound_to 10162
  157.5313  130.8632  149.8692 H   0  0  0  0  0  0  0  0  0  0  0  0  # atno 10718 bound_to 10713
  154.2354  135.6353  153.5189 H   0  0  0  0  0  0  0  0  0  0  0  0  # atno 10763 bound_to 10752
  152.9940  135.5529  154.5968 H   0  0  0  0  0  0  0  0  0  0  0  0  # atno 10764 bound_to 10752
  154.5461  135.2898  155.1026 H   0  0  0  0  0  0  0  0  0  0  0  0  # atno 10765 bound_to 10752
  141.0426  133.9812  157.2969 H   0  0  0  0  0  0  0  0  0  0  0  0  # atno 11005 bound_to 11000
  146.2156  139.5543  142.9652 LP  0  0  0  0  0  0  0  0  0  0  0  0  # atno 17320 bound_to 7965
  145.5805  141.0383  143.2124 LP  0  0  0  0  0  0  0  0  0  0  0  0  # atno 17321 bound_to 7965
  139.5472  144.7308  151.4548 LP  0  0  0  0  0  0  0  0  0  0  0  0  # atno 17342 bound_to 10162
  140.6760  143.8189  150.7059 LP  0  0  0  0  0  0  0  0  0  0  0  0  # atno 17343 bound_to 10162
  156.0425  130.3735  150.1400 LP  0  0  0  0  0  0  0  0  0  0  0  0  # atno 17370 bound_to 10713
  156.9584  130.9797  151.3484 LP  0  0  0  0  0  0  0  0  0  0  0  0  # atno 17371 bound_to 10713
  139.9287  135.0201  156.8326 LP  0  0  0  0  0  0  0  0  0  0  0  0  # atno 17394 bound_to 11000
  140.6206  133.9998  155.7616 LP  0  0  0  0  0  0  0  0  0  0  0  0  # atno 17395 bound_to 11000

$$$$
