AV-unprocessed.smi:825|AV-procd|sdf|3851|dock4
  -GOLD-   22720 1303D 1   1.00000     0.00000
 Structure written by MMmdl.
 38 39  0  0  0  0  0  0  0  0  1 V2000
  144.6269  137.5105  152.6497 O   0  0  0  0  0  0  0  0  0  0  0  0
  145.7856  137.1653  152.4188 C   0  0  0  0  0  0  0  0  0  0  0  0
  146.8488  137.9662  152.5768 N   0  0  0  0  0  0  0  0  0  0  0  0
  146.8100  139.3529  153.0304 C   0  0  0  0  0  0  0  0  0  0  0  0
  147.8771  139.6112  154.1074 C   0  0  0  0  0  0  0  0  0  0  0  0
  148.2585  141.0859  154.2872 C   0  0  0  0  0  0  0  0  0  0  0  0
  149.6621  141.0788  154.9092 C   0  0  0  0  0  0  0  0  0  0  0  0
  150.2127  139.6565  154.7267 C   0  0  0  0  0  0  0  0  0  0  0  0
  149.2170  138.9345  153.8166 C   0  0  0  0  0  0  0  0  0  0  0  0
  146.1542  135.9515  151.9788 N   0  0  0  0  0  0  0  0  0  0  0  0
  145.3138  134.8371  151.7328 C   0  0  0  0  0  0  0  0  0  0  0  0
  144.6947  133.9513  152.6596 C   0  0  0  0  0  0  0  0  0  0  0  0
  143.9893  133.0231  152.0305 N   0  0  0  0  0  0  0  0  0  0  0  0
  144.1423  133.2970  150.7114 N   0  0  0  0  0  0  0  0  0  0  0  0
  143.4985  132.4518  149.7249 C   0  0  0  0  0  0  0  0  0  0  0  0
  143.9732  132.7841  148.3036 C   0  0  0  0  0  0  0  0  0  0  0  0
  143.4645  134.0397  147.9083 O   0  0  0  0  0  0  0  0  0  0  0  0
  144.9457  134.3990  150.4964 C   0  0  0  0  0  0  0  0  0  0  0  0
  147.7600  137.5890  152.3608 H   0  0  0  0  0  0  0  0  0  0  0  0
  146.9570  140.0481  152.2025 H   0  0  0  0  0  0  0  0  0  0  0  0
  145.8148  139.5545  153.4278 H   0  0  0  0  0  0  0  0  0  0  0  0
  147.5116  139.2336  155.0643 H   0  0  0  0  0  0  0  0  0  0  0  0
  148.2987  141.5800  153.3154 H   0  0  0  0  0  0  0  0  0  0  0  0
  147.5381  141.6284  154.9004 H   0  0  0  0  0  0  0  0  0  0  0  0
  150.3010  141.8175  154.4243 H   0  0  0  0  0  0  0  0  0  0  0  0
  149.6189  141.3324  155.9690 H   0  0  0  0  0  0  0  0  0  0  0  0
  151.2220  139.6517  154.3140 H   0  0  0  0  0  0  0  0  0  0  0  0
  150.2534  139.1554  155.6947 H   0  0  0  0  0  0  0  0  0  0  0  0
  149.1913  137.8593  153.9963 H   0  0  0  0  0  0  0  0  0  0  0  0
  149.4962  139.0904  152.7734 H   0  0  0  0  0  0  0  0  0  0  0  0
  147.1394  135.8055  151.8143 H   0  0  0  0  0  0  0  0  0  0  0  0
  144.7293  133.9386  153.7388 H   0  0  0  0  0  0  0  0  0  0  0  0
  143.7077  131.4084  149.9663 H   0  0  0  0  0  0  0  0  0  0  0  0
  142.4188  132.5857  149.8064 H   0  0  0  0  0  0  0  0  0  0  0  0
  145.0625  132.8124  148.2591 H   0  0  0  0  0  0  0  0  0  0  0  0
  143.6369  132.0253  147.5961 H   0  0  0  0  0  0  0  0  0  0  0  0
  144.1789  134.6578  147.8790 H   0  0  0  0  0  0  0  0  0  0  0  0
  145.1810  134.7624  149.5070 H   0  0  0  0  0  0  0  0  0  0  0  0
  1  2  2  0  0  0  0
  2  3  1  0  0  0  0
  2 10  1  0  0  0  0
  3  4  1  0  0  0  0
  3 19  1  0  0  0  0
  4  5  1  0  0  0  0
  4 20  1  0  0  0  0
  4 21  1  0  0  0  0
  5  9  1  0  0  0  0
  5  6  1  0  0  0  0
  5 22  1  0  0  0  0
  6  7  1  0  0  0  0
  6 23  1  0  0  0  0
  6 24  1  0  0  0  0
  7  8  1  0  0  0  0
  7 25  1  0  0  0  0
  7 26  1  0  0  0  0
  8  9  1  0  0  0  0
  8 27  1  0  0  0  0
  8 28  1  0  0  0  0
  9 29  1  0  0  0  0
  9 30  1  0  0  0  0
 10 11  1  0  0  0  0
 10 31  1  0  0  0  0
 11 18  2  0  0  0  0
 11 12  1  0  0  0  0
 12 13  2  0  0  0  0
 12 32  1  0  0  0  0
 13 14  1  0  0  0  0
 14 15  1  0  0  0  0
 14 18  1  0  0  0  0
 15 16  1  0  0  0  0
 15 33  1  0  0  0  0
 15 34  1  0  0  0  0
 16 17  1  0  0  0  0
 16 35  1  0  0  0  0
 16 36  1  0  0  0  0
 17 37  1  0  0  0  0
 18 38  1  0  0  0  0
M  END
> <s_m_source_file>
AV-unprocessed.smi

> <i_m_source_file_index>
825

> <i_lp_mmshare_version>
43012

> <i_f3d_flags>
0

> <s_epik_input>
W0NIMl0xW0NIMl1bQ0gyXVtDSDJdW0NIXTFbQ0gyXVtOSF1DKD1PKVtOSF1jMltjSF1ubihbY0hdMilbQ0gyXVtDSDJdW09IXQ==

> <s_epik_cmdline>
J2VwaWtfcHl0aG9uJywgJy1waCcsICc3LjAnLCAnLXRuJywgJzgnLCAnLW1hJywgJzIwMCcsICctbWV0YWxfYmluZGluZycsICctaW1hZScsICc8aW5maWxlLm1hZT4nLCAnLW9tYWUnLCAnPG91dGZpbGUubWFlPic=

> <r_lp_tautomer_probability>
1

> <r_epik_Ionization_Penalty>
0.000577844

> <r_epik_Ionization_Penalty_Charging>
0

> <r_epik_Ionization_Penalty_Neutral>
0.000577844

> <r_epik_State_Penalty>
-0

> <r_epik_Charging_Adjusted_Penalty>
0

> <i_epik_Tot_Q>
0

> <i_epik_Tot_abs_Q>
0

> <r_epik_Metal_State_Penalty>
-0

> <b_epik_Metal_Only>
0

> <s_lp_Force_Field>
OPLS_2005

> <r_lp_Energy>
26.6731

> <b_lp_Chiralities_Consistent>
1

> <s_lp_Variant>
AV-unprocessed.smi:825-1

> <Gold.Version>
5.8.1

> <Gold.Id.Protein>
6NUR|6NUR_protein|mol2

> <Gold.PLP.Fitness>
47.9411

> <Gold.PLP.PLP>
-35.4338

> <Gold.PLP.part.hbond>
-6.0000

> <Gold.PLP.part.metal>
0.0000

> <Gold.PLP.part.buried>
0.3704

> <Gold.PLP.part.nonpolar>
-30.1684

> <Gold.PLP.part.repulsive>
0.6782

> <Gold.PLP.ligand.clash>
0.0000

> <Gold.PLP.ligand.torsion>
1.0722

> <Gold.PLP.Chemscore.Hbond>
3.8800

> <Gold.PLP.Chemscore.CHOScore>
1.0000

> <Gold.PLP.Chemscore.Metal>
0.0000

> <Gold.Chemscore.Hbonds>
donor molecule, donor type, donor heavy atom, donor atom, acceptor molecule, acceptor atom, score
      L1  H     3    19       P1  7948  1.00
      L1  H    10    31       P1  7948  1.00
      L1  H    17    37       P1  7921  0.86
      P1  H 10192 10197       L1    17  1.00
      L1  C    18    38       P1  7921  1.00

> <Gold.PLP.Chemscore.Internal.Correction>
0.0117

> <Gold.Rescore>
     Score         DG    S(hbond)    S(metal)    S(lipo)     H(rot)  DE(clash)    DE(int)     intcor
     17.17     -20.25       3.53        0.00      75.92       2.31       0.75       2.33       ----

> <Gold.Chemscore.Fitness>
17.1697

> <Gold.Chemscore.DG>
-20.2482

> <Gold.Chemscore.ZeroCoef>
-5.4800

> <Gold.Chemscore.Hbond>
3.5324

> <Gold.Chemscore.Metal>
0.0000

> <Gold.Chemscore.Lipo>
75.9202

> <Gold.Chemscore.Internal_Hbond>
0.0000

> <Gold.Chemscore.DEClash>
0.7520

> <Gold.Chemscore.DEInternal>
2.3265

> <Gold.Chemscore.Rot>
2.3097

> <Gold.Chemscore.Internal.Correction>
   9.000000E+99

> <Gold.Chemscore.Hbonds>
donor molecule, donor type, donor heavy atom, donor atom, acceptor molecule, acceptor atom, score
      L1  H     3    19       P1  7948  0.98
      L1  H    10    31       P1  7948  0.99
      L1  H    17    37       P1  7921  0.84
      P1  H 10192 10197       L1    17  0.25

> <Gold.Chemscore.Hbond.Weighted>
-11.7983

> <Gold.Chemscore.Metal.Weighted>
-0.0000

> <Gold.Chemscore.Lipo.Weighted>
-8.8827

> <Gold.Chemscore.Internal_Hbond.Weighted>
0.0000

> <Gold.Chemscore.DEClash.Weighted>
0.7520

> <Gold.Chemscore.DEInternal.Weighted>
2.3265

> <Gold.Chemscore.Rot.Weighted>
5.9128

> <Gold.Chemscore.Internal.Correction.Weighted>
   9.000000E+99

> <Gold.Protein.RotatedTorsions>
[ 6907 6896 6895 6894 ] final  140.43 input  -60.11 | X-H torsion
[ 7974 7965 7964 7962 ] final  172.94 input  175.53 | X-H torsion
[ 8008 7997 7996 7995 ] final   38.14 input   59.86 | X-H torsion
[ 10167 10162 10161 10158 ] final  -29.02 input  -65.29 | X-H torsion
[ 10718 10713 10712 10709 ] final -125.69 input   66.30 | X-H torsion
[ 10763 10752 10751 10750 ] final   71.46 input  -60.55 | X-H torsion
[ 11005 11000 10999 10996 ] final  135.78 input  -57.11 | X-H torsion

> <Gold.Protein.ActiveResidues>
 VAL166  LYS551  ARG553  GLY616  TRP617  ASP618  TYR619  PRO620  LYS621  CYS622 
 ASP623  PHE694  ASN695  SER759  ASP760  ASP761  ALA762  ILE779  LEU786  VAL792 
 PHE793  MET794  SER795  GLU796  ALA797  LYS798  CYS799  TRP800  GLU811  SER814 

> <Gold.Protein.RotatedAtoms>
  152.2431  133.5152  159.5281 H   0  0  0  0  0  0  0  0  0  0  0  0  # atno 6907 bound_to 6896
  150.7070  134.1062  159.3992 H   0  0  0  0  0  0  0  0  0  0  0  0  # atno 6908 bound_to 6896
  151.8983  135.0389  160.0555 H   0  0  0  0  0  0  0  0  0  0  0  0  # atno 6909 bound_to 6896
  144.7255  139.9574  143.6434 H   0  0  0  0  0  0  0  0  0  0  0  0  # atno 7974 bound_to 7965
  155.2153  140.3326  155.4323 H   0  0  0  0  0  0  0  0  0  0  0  0  # atno 8008 bound_to 7997
  156.2355  140.1870  156.7180 H   0  0  0  0  0  0  0  0  0  0  0  0  # atno 8009 bound_to 7997
  154.6051  140.0617  156.9406 H   0  0  0  0  0  0  0  0  0  0  0  0  # atno 8010 bound_to 7997
  140.7264  143.3963  151.1342 H   0  0  0  0  0  0  0  0  0  0  0  0  # atno 10167 bound_to 10162
  156.1698  130.6659  151.0164 H   0  0  0  0  0  0  0  0  0  0  0  0  # atno 10718 bound_to 10713
  153.0400  135.5136  154.7596 H   0  0  0  0  0  0  0  0  0  0  0  0  # atno 10763 bound_to 10752
  154.6541  135.2929  154.9952 H   0  0  0  0  0  0  0  0  0  0  0  0  # atno 10764 bound_to 10752
  154.0825  135.6662  153.4892 H   0  0  0  0  0  0  0  0  0  0  0  0  # atno 10765 bound_to 10752
  140.0002  134.9481  157.0055 H   0  0  0  0  0  0  0  0  0  0  0  0  # atno 11005 bound_to 11000
  146.0664  139.3655  143.0550 LP  0  0  0  0  0  0  0  0  0  0  0  0  # atno 17320 bound_to 7965
  145.8025  140.9764  143.0991 LP  0  0  0  0  0  0  0  0  0  0  0  0  # atno 17321 bound_to 7965
  139.7575  143.8685  152.3092 LP  0  0  0  0  0  0  0  0  0  0  0  0  # atno 17342 bound_to 10162
  139.8559  144.7141  150.9157 LP  0  0  0  0  0  0  0  0  0  0  0  0  # atno 17343 bound_to 10162
  157.6794  131.0842  150.7409 LP  0  0  0  0  0  0  0  0  0  0  0  0  # atno 17370 bound_to 10713
  156.7469  130.4756  149.5465 LP  0  0  0  0  0  0  0  0  0  0  0  0  # atno 17371 bound_to 10713
  140.4742  134.1355  155.7207 LP  0  0  0  0  0  0  0  0  0  0  0  0  # atno 17394 bound_to 11000
  141.1636  133.8746  157.1779 LP  0  0  0  0  0  0  0  0  0  0  0  0  # atno 17395 bound_to 11000

$$$$
