AV-unprocessed.smi:1240|AV-procd|sdf|5198|dock9
  -GOLD-   22720 4283D 1   1.00000     0.00000
 Structure written by MMmdl.
 47 49  0  0  0  0  0  0  0  0  1 V2000
  144.5619  136.6169  152.1339 O   0  0  0  0  0  0  0  0  0  0  0  0
  145.7696  136.4303  151.9865 C   0  0  0  0  0  0  0  0  0  0  0  0
  146.7052  137.2960  152.4017 N   0  0  0  0  0  0  0  0  0  0  0  0
  146.4354  138.5434  153.1104 C   0  0  0  0  0  0  0  0  0  0  0  0
  147.7344  139.2875  153.5343 C   0  0  1  0  0  0  0  0  0  0  0  0
  147.4458  140.5414  154.4147 C   0  0  1  0  0  0  0  0  0  0  0  0
  146.8156  141.7643  153.7434 C   0  0  0  0  0  0  0  0  0  0  0  0
  145.7564  142.2309  154.7444 C   0  0  0  0  0  0  0  0  0  0  0  0
  146.1325  141.6253  155.9720 O   0  0  0  0  0  0  0  0  0  0  0  0
  146.5808  140.3168  155.6603 C   0  0  0  0  0  0  0  0  0  0  0  0
  148.8173  138.4150  154.0288 N   0  0  0  0  0  0  0  0  0  0  0  0
  150.0954  139.0771  154.2816 C   0  0  0  0  0  0  0  0  0  0  0  0
  151.1839  138.0742  154.7039 C   0  0  0  0  0  0  0  0  0  0  0  0
  150.7457  137.3268  155.8335 O   0  0  0  0  0  0  0  0  0  0  0  0
  149.5347  136.6204  155.5863 C   0  0  0  0  0  0  0  0  0  0  0  0
  148.4343  137.6192  155.1928 C   0  0  0  0  0  0  0  0  0  0  0  0
  146.3289  135.3443  151.4255 N   0  0  0  0  0  0  0  0  0  0  0  0
  145.6886  134.1871  150.9056 C   0  0  0  0  0  0  0  0  0  0  0  0
  146.5038  133.1034  150.5183 C   0  0  0  0  0  0  0  0  0  0  0  0
  145.8928  131.9500  149.9877 C   0  0  0  0  0  0  0  0  0  0  0  0
  144.5593  131.8283  149.8188 N   0  0  0  0  0  0  0  0  0  0  0  0
  143.7819  132.8726  150.1754 C   0  0  0  0  0  0  0  0  0  0  0  0
  144.2906  134.0703  150.7162 C   0  0  0  0  0  0  0  0  0  0  0  0
  147.6747  137.0654  152.2407 H   0  0  0  0  0  0  0  0  0  0  0  0
  145.8288  139.1675  152.4551 H   0  0  0  0  0  0  0  0  0  0  0  0
  145.8087  138.3167  153.9728 H   0  0  0  0  0  0  0  0  0  0  0  0
  148.1275  139.7197  152.6129 H   0  0  0  0  0  0  0  0  0  0  0  0
  148.4088  140.8844  154.7964 H   0  0  0  0  0  0  0  0  0  0  0  0
  147.5717  142.5366  153.5974 H   0  0  0  0  0  0  0  0  0  0  0  0
  146.3746  141.5630  152.7687 H   0  0  0  0  0  0  0  0  0  0  0  0
  145.7087  143.3166  154.8311 H   0  0  0  0  0  0  0  0  0  0  0  0
  144.7688  141.8686  154.4552 H   0  0  0  0  0  0  0  0  0  0  0  0
  145.7120  139.6881  155.4615 H   0  0  0  0  0  0  0  0  0  0  0  0
  147.1401  139.8765  156.4860 H   0  0  0  0  0  0  0  0  0  0  0  0
  150.4426  139.5859  153.3856 H   0  0  0  0  0  0  0  0  0  0  0  0
  149.9813  139.8325  155.0592 H   0  0  0  0  0  0  0  0  0  0  0  0
  151.4193  137.3955  153.8826 H   0  0  0  0  0  0  0  0  0  0  0  0
  152.1045  138.5993  154.9581 H   0  0  0  0  0  0  0  0  0  0  0  0
  149.6878  135.8811  154.7986 H   0  0  0  0  0  0  0  0  0  0  0  0
  149.2489  136.0761  156.4864 H   0  0  0  0  0  0  0  0  0  0  0  0
  148.2365  138.2668  156.0464 H   0  0  0  0  0  0  0  0  0  0  0  0
  147.5108  137.0767  154.9870 H   0  0  0  0  0  0  0  0  0  0  0  0
  147.3373  135.3066  151.4455 H   0  0  0  0  0  0  0  0  0  0  0  0
  147.5773  133.1475  150.6301 H   0  0  0  0  0  0  0  0  0  0  0  0
  146.4924  131.1026  149.6894 H   0  0  0  0  0  0  0  0  0  0  0  0
  142.7200  132.7532  150.0191 H   0  0  0  0  0  0  0  0  0  0  0  0
  143.6071  134.8687  150.9604 H   0  0  0  0  0  0  0  0  0  0  0  0
  1  2  2  0  0  0  0
  2  3  1  0  0  0  0
  2 17  1  0  0  0  0
  3  4  1  0  0  0  0
  3 24  1  0  0  0  0
  4  5  1  0  0  0  0
  4 25  1  0  0  0  0
  4 26  1  0  0  0  0
  5  6  1  0  0  0  0
  5 11  1  0  0  0  0
  5 27  1  0  0  0  0
  6 10  1  0  0  0  0
  6  7  1  0  0  0  0
  6 28  1  0  0  0  0
  7  8  1  0  0  0  0
  7 29  1  0  0  0  0
  7 30  1  0  0  0  0
  8  9  1  0  0  0  0
  8 31  1  0  0  0  0
  8 32  1  0  0  0  0
  9 10  1  0  0  0  0
 10 33  1  0  0  0  0
 10 34  1  0  0  0  0
 11 16  1  0  0  0  0
 11 12  1  0  0  0  0
 12 13  1  0  0  0  0
 12 35  1  0  0  0  0
 12 36  1  0  0  0  0
 13 14  1  0  0  0  0
 13 37  1  0  0  0  0
 13 38  1  0  0  0  0
 14 15  1  0  0  0  0
 15 16  1  0  0  0  0
 15 39  1  0  0  0  0
 15 40  1  0  0  0  0
 16 41  1  0  0  0  0
 16 42  1  0  0  0  0
 17 18  1  0  0  0  0
 17 43  1  0  0  0  0
 18 23  1  0  0  0  0
 18 19  2  0  0  0  0
 19 20  1  0  0  0  0
 19 44  1  0  0  0  0
 20 21  2  0  0  0  0
 20 45  1  0  0  0  0
 21 22  1  0  0  0  0
 22 23  2  0  0  0  0
 22 46  1  0  0  0  0
 23 47  1  0  0  0  0
M  END
> <s_m_source_file>
AV-unprocessed.smi

> <i_m_source_file_index>
1240

> <i_lp_mmshare_version>
43012

> <i_f3d_flags>
0

> <s_epik_input>
W2NIXTFbY0hdbltjSF1bY0hdYzFbTkhdQyg9TylbTkhdW0NIMl1bQ0BIXShbQ0BASF0yW0NIMl1bQ0gyXU9bQ0gyXTIpTjNbQ0gyXVtDSDJdT1tDSDJdW0NIMl0z

> <s_epik_cmdline>
J2VwaWtfcHl0aG9uJywgJy1waCcsICc3LjAnLCAnLXRuJywgJzgnLCAnLW1hJywgJzIwMCcsICctbWV0YWxfYmluZGluZycsICctaW1hZScsICc8aW5maWxlLm1hZT4nLCAnLW9tYWUnLCAnPG91dGZpbGUubWFlPic=

> <r_epik_Ionization_Penalty>
0.238664

> <r_epik_Ionization_Penalty_Charging>
0

> <r_epik_Ionization_Penalty_Neutral>
0.238664

> <r_epik_State_Penalty>
0.217087

> <r_epik_Charging_Adjusted_Penalty>
0.217087

> <i_epik_Tot_Q>
0

> <i_epik_Tot_abs_Q>
0

> <r_epik_Metal_State_Penalty>
0.199194

> <b_epik_Metal_Only>
0

> <s_lp_Force_Field>
OPLS_2005

> <r_lp_Energy>
57.1619

> <b_lp_Chiralities_Consistent>
1

> <s_lp_Variant>
AV-unprocessed.smi:1240-4

> <Gold.Version>
5.8.1

> <Gold.Id.Protein>
6NUR|6NUR_protein|mol2

> <Gold.PLP.Fitness>
46.7154

> <Gold.PLP.PLP>
-35.7297

> <Gold.PLP.part.hbond>
-2.7173

> <Gold.PLP.part.metal>
0.0000

> <Gold.PLP.part.buried>
-6.0251

> <Gold.PLP.part.nonpolar>
-29.5018

> <Gold.PLP.part.repulsive>
1.2522

> <Gold.PLP.ligand.clash>
0.0000

> <Gold.PLP.ligand.torsion>
0.4810

> <Gold.PLP.Chemscore.Hbond>
1.9850

> <Gold.PLP.Chemscore.CHOScore>
1.8831

> <Gold.PLP.Chemscore.Metal>
0.0000

> <Gold.Chemscore.Hbonds>
donor molecule, donor type, donor heavy atom, donor atom, acceptor molecule, acceptor atom, score
      L1  H     3    24       P1  7948  1.00
      L1  H    17    43       P1  7948  0.96
      P1  H 10785 10796       L1    21  0.03
      L1  C    20    45       P1 10747  0.86
      L1  C    22    46       P1 10186  1.00

> <Gold.PLP.Chemscore.Internal.Correction>
0.3434

> <Gold.Rescore>
     Score         DG    S(hbond)    S(metal)    S(lipo)     H(rot)  DE(clash)    DE(int)     intcor
     16.40     -18.38       1.89        0.00      92.28       1.65       0.10       1.87       ----

> <Gold.Chemscore.Fitness>
16.4025

> <Gold.Chemscore.DG>
-18.3769

> <Gold.Chemscore.ZeroCoef>
-5.4800

> <Gold.Chemscore.Hbond>
1.8942

> <Gold.Chemscore.Metal>
0.0000

> <Gold.Chemscore.Lipo>
92.2760

> <Gold.Chemscore.Internal_Hbond>
0.0000

> <Gold.Chemscore.DEClash>
0.1018

> <Gold.Chemscore.DEInternal>
1.8726

> <Gold.Chemscore.Rot>
1.6508

> <Gold.Chemscore.Internal.Correction>
   9.000000E+99

> <Gold.Chemscore.Hbonds>
donor molecule, donor type, donor heavy atom, donor atom, acceptor molecule, acceptor atom, score
      L1  H     3    24       P1  7948  0.96
      L1  H    17    43       P1  7948  0.79
      P1  H 10785 10796       L1    21  0.04

> <Gold.Chemscore.Hbond.Weighted>
-6.3268

> <Gold.Chemscore.Metal.Weighted>
-0.0000

> <Gold.Chemscore.Lipo.Weighted>
-10.7963

> <Gold.Chemscore.Internal_Hbond.Weighted>
0.0000

> <Gold.Chemscore.DEClash.Weighted>
0.1018

> <Gold.Chemscore.DEInternal.Weighted>
1.8726

> <Gold.Chemscore.Rot.Weighted>
4.2262

> <Gold.Chemscore.Internal.Correction.Weighted>
   9.000000E+99

> <Gold.Protein.RotatedTorsions>
[ 6907 6896 6895 6894 ] final -162.28 input  -60.11 | X-H torsion
[ 7974 7965 7964 7962 ] final -168.86 input  175.53 | X-H torsion
[ 8008 7997 7996 7995 ] final   69.11 input   59.86 | X-H torsion
[ 10167 10162 10161 10158 ] final  145.43 input  -65.29 | X-H torsion
[ 10718 10713 10712 10709 ] final  136.37 input   66.30 | X-H torsion
[ 10763 10752 10751 10750 ] final    5.27 input  -60.55 | X-H torsion
[ 11005 11000 10999 10996 ] final -120.32 input  -57.11 | X-H torsion

> <Gold.Protein.ActiveResidues>
 VAL166  LYS551  ARG553  GLY616  TRP617  ASP618  TYR619  PRO620  LYS621  CYS622 
 ASP623  PHE694  ASN695  SER759  ASP760  ASP761  ALA762  ILE779  LEU786  VAL792 
 PHE793  MET794  SER795  GLU796  ALA797  LYS798  CYS799  TRP800  GLU811  SER814 

> <Gold.Protein.RotatedAtoms>
  151.3779  133.3831  159.2706 H   0  0  0  0  0  0  0  0  0  0  0  0  # atno 6907 bound_to 6896
  150.9600  134.8990  159.7735 H   0  0  0  0  0  0  0  0  0  0  0  0  # atno 6908 bound_to 6896
  152.5146  134.3737  159.9379 H   0  0  0  0  0  0  0  0  0  0  0  0  # atno 6909 bound_to 6896
  144.7195  140.2307  143.6304 H   0  0  0  0  0  0  0  0  0  0  0  0  # atno 7974 bound_to 7965
  155.7187  140.3493  155.5006 H   0  0  0  0  0  0  0  0  0  0  0  0  # atno 8008 bound_to 7997
  155.9290  140.1081  157.1169 H   0  0  0  0  0  0  0  0  0  0  0  0  # atno 8009 bound_to 7997
  154.4082  140.1235  156.4764 H   0  0  0  0  0  0  0  0  0  0  0  0  # atno 8010 bound_to 7997
  139.4926  144.5902  151.6696 H   0  0  0  0  0  0  0  0  0  0  0  0  # atno 10167 bound_to 10162
  157.4473  131.1063  151.0074 H   0  0  0  0  0  0  0  0  0  0  0  0  # atno 10718 bound_to 10713
  153.2614  135.6923  153.7575 H   0  0  0  0  0  0  0  0  0  0  0  0  # atno 10763 bound_to 10752
  153.6633  135.3357  155.3134 H   0  0  0  0  0  0  0  0  0  0  0  0  # atno 10764 bound_to 10752
  154.8431  135.4482  154.1605 H   0  0  0  0  0  0  0  0  0  0  0  0  # atno 10765 bound_to 10752
  141.0152  134.0206  157.3360 H   0  0  0  0  0  0  0  0  0  0  0  0  # atno 11005 bound_to 11000
  145.8414  139.2131  143.1825 LP  0  0  0  0  0  0  0  0  0  0  0  0  # atno 17320 bound_to 7965
  146.0343  140.8227  142.9860 LP  0  0  0  0  0  0  0  0  0  0  0  0  # atno 17321 bound_to 7965
  140.5527  144.0398  150.6134 LP  0  0  0  0  0  0  0  0  0  0  0  0  # atno 17342 bound_to 10162
  140.3458  143.2992  152.0540 LP  0  0  0  0  0  0  0  0  0  0  0  0  # atno 17343 bound_to 10162
  157.0916  130.5944  149.5441 LP  0  0  0  0  0  0  0  0  0  0  0  0  # atno 17370 bound_to 10713
  155.9973  130.5044  150.7528 LP  0  0  0  0  0  0  0  0  0  0  0  0  # atno 17371 bound_to 10713
  139.9113  135.0190  156.7701 LP  0  0  0  0  0  0  0  0  0  0  0  0  # atno 17394 bound_to 11000
  140.6667  133.9596  155.7834 LP  0  0  0  0  0  0  0  0  0  0  0  0  # atno 17395 bound_to 11000

$$$$
