AV-unprocessed.smi:74|AV-procd|sdf|764|dock3
  -GOLD-   2262017103D 1   1.00000     0.00000
 Structure written by MMmdl.
 58 62  0  0  0  0  0  0  0  0  1 V2000
  146.3407  131.4902  149.6305 O   0  0  0  0  0  0  0  0  0  0  0  0
  145.8979  131.6016  150.9678 C   0  0  0  0  0  0  0  0  0  0  0  0
  144.9431  132.7943  151.1405 C   0  0  0  0  0  0  0  0  0  0  0  0
  143.5140  132.3584  150.7570 C   0  0  0  0  0  0  0  0  0  0  0  0
  143.4606  131.8728  149.4309 O   0  0  0  0  0  0  0  0  0  0  0  0
  145.0624  133.5542  152.4811 C   0  0  0  0  0  0  0  0  0  0  0  0
  144.9199  134.8808  151.7320 C   0  0  0  0  0  0  0  0  0  0  0  0
  145.5797  136.0653  152.1962 N   0  0  0  0  0  0  0  0  0  0  0  0
  145.6463  137.2803  151.5527 C   0  0  0  0  0  0  0  0  0  0  0  0
  146.2648  138.2240  152.2086 N   0  0  0  0  0  0  0  0  0  0  0  0
  146.6273  137.6238  153.4090 C   0  0  0  0  0  0  0  0  0  0  0  0
  147.3004  138.0741  154.5803 C   0  0  0  0  0  0  0  0  0  0  0  0
  147.7824  139.3366  154.7121 N   0  0  0  0  0  0  0  0  0  0  0  0
  147.5482  140.2116  153.5676 C   0  0  0  0  0  0  0  0  0  0  0  0
  147.8390  141.6723  153.9499 C   0  0  0  0  0  0  0  0  0  0  0  0
  149.1643  141.7837  154.4588 O   0  0  0  0  0  0  0  0  0  0  0  0
  149.3642  140.9897  155.6256 C   0  0  2  0  0  0  0  0  0  0  0  0
  150.7764  141.2512  156.1672 C   0  0  0  0  0  0  0  0  0  0  0  0
  150.8830  142.5984  156.5984 O   0  0  0  0  0  0  0  0  0  0  0  0
  151.6316  142.7363  157.7926 C   0  0  0  0  0  0  0  0  0  0  0  0
  151.7977  144.2097  158.0971 C   0  0  0  0  0  0  0  0  0  0  0  0
  152.3779  144.6640  159.4175 C   0  0  0  0  0  0  0  0  0  0  0  0
  150.9154  144.8815  159.1246 C   0  0  0  0  0  0  0  0  0  0  0  0
  149.1096  139.5050  155.2992 C   0  0  0  0  0  0  0  0  0  0  0  0
  147.4437  137.1827  155.5980 N   0  0  0  0  0  0  0  0  0  0  0  0
  146.9729  135.9381  155.4795 C   0  0  0  0  0  0  0  0  0  0  0  0
  146.3357  135.3825  154.4478 N   0  0  0  0  0  0  0  0  0  0  0  0
  146.1841  136.2706  153.4241 C   0  0  0  0  0  0  0  0  0  0  0  0
  145.4210  134.1180  150.5030 C   0  0  0  0  0  0  0  0  0  0  0  0
  147.1892  131.0744  149.6291 H   0  0  0  0  0  0  0  0  0  0  0  0
  145.4287  130.6639  151.2657 H   0  0  0  0  0  0  0  0  0  0  0  0
  146.7787  131.7155  151.6007 H   0  0  0  0  0  0  0  0  0  0  0  0
  143.1530  131.5672  151.4144 H   0  0  0  0  0  0  0  0  0  0  0  0
  142.8047  133.1801  150.8583 H   0  0  0  0  0  0  0  0  0  0  0  0
  143.8628  132.5103  148.8609 H   0  0  0  0  0  0  0  0  0  0  0  0
  144.2662  133.3570  153.1998 H   0  0  0  0  0  0  0  0  0  0  0  0
  146.0427  133.4456  152.9494 H   0  0  0  0  0  0  0  0  0  0  0  0
  143.8679  135.1484  151.6191 H   0  0  0  0  0  0  0  0  0  0  0  0
  145.2231  137.4471  150.5729 H   0  0  0  0  0  0  0  0  0  0  0  0
  148.2007  139.9047  152.7492 H   0  0  0  0  0  0  0  0  0  0  0  0
  146.5253  140.1313  153.2026 H   0  0  0  0  0  0  0  0  0  0  0  0
  147.7403  142.3159  153.0759 H   0  0  0  0  0  0  0  0  0  0  0  0
  147.1217  142.0289  154.6908 H   0  0  0  0  0  0  0  0  0  0  0  0
  148.6506  141.3155  156.3848 H   0  0  0  0  0  0  0  0  0  0  0  0
  150.9948  140.5693  156.9903 H   0  0  0  0  0  0  0  0  0  0  0  0
  151.5101  141.0604  155.3825 H   0  0  0  0  0  0  0  0  0  0  0  0
  151.1110  142.2582  158.6234 H   0  0  0  0  0  0  0  0  0  0  0  0
  152.6110  142.2656  157.6918 H   0  0  0  0  0  0  0  0  0  0  0  0
  152.0485  144.8129  157.2265 H   0  0  0  0  0  0  0  0  0  0  0  0
  152.6360  143.8996  160.1479 H   0  0  0  0  0  0  0  0  0  0  0  0
  153.0292  145.5357  159.4055 H   0  0  0  0  0  0  0  0  0  0  0  0
  150.5901  145.8992  158.9181 H   0  0  0  0  0  0  0  0  0  0  0  0
  150.1987  144.2628  159.6611 H   0  0  0  0  0  0  0  0  0  0  0  0
  149.1952  138.9098  156.2094 H   0  0  0  0  0  0  0  0  0  0  0  0
  149.8595  139.1374  154.5970 H   0  0  0  0  0  0  0  0  0  0  0  0
  147.1298  135.2960  156.3336 H   0  0  0  0  0  0  0  0  0  0  0  0
  146.5063  134.1677  150.3934 H   0  0  0  0  0  0  0  0  0  0  0  0
  144.9217  134.3851  149.5711 H   0  0  0  0  0  0  0  0  0  0  0  0
  1  2  1  0  0  0  0
  1 30  1  0  0  0  0
  2  3  1  0  0  0  0
  2 31  1  0  0  0  0
  2 32  1  0  0  0  0
  3 29  1  0  0  0  0
  3  4  1  0  0  0  0
  3  6  1  0  0  0  0
  4  5  1  0  0  0  0
  4 33  1  0  0  0  0
  4 34  1  0  0  0  0
  5 35  1  0  0  0  0
  6  7  1  0  0  0  0
  6 36  1  0  0  0  0
  6 37  1  0  0  0  0
  7  8  1  0  0  0  0
  7 29  1  0  0  0  0
  7 38  1  0  0  0  0
  8 28  1  0  0  0  0
  8  9  1  0  0  0  0
  9 10  2  0  0  0  0
  9 39  1  0  0  0  0
 10 11  1  0  0  0  0
 11 28  2  0  0  0  0
 11 12  1  0  0  0  0
 12 13  1  0  0  0  0
 12 25  2  0  0  0  0
 13 24  1  0  0  0  0
 13 14  1  0  0  0  0
 14 15  1  0  0  0  0
 14 40  1  0  0  0  0
 14 41  1  0  0  0  0
 15 16  1  0  0  0  0
 15 42  1  0  0  0  0
 15 43  1  0  0  0  0
 16 17  1  0  0  0  0
 17 18  1  0  0  0  0
 17 24  1  0  0  0  0
 17 44  1  0  0  0  0
 18 19  1  0  0  0  0
 18 45  1  0  0  0  0
 18 46  1  0  0  0  0
 19 20  1  0  0  0  0
 20 21  1  0  0  0  0
 20 47  1  0  0  0  0
 20 48  1  0  0  0  0
 21 23  1  0  0  0  0
 21 22  1  0  0  0  0
 21 49  1  0  0  0  0
 22 23  1  0  0  0  0
 22 50  1  0  0  0  0
 22 51  1  0  0  0  0
 23 52  1  0  0  0  0
 23 53  1  0  0  0  0
 24 54  1  0  0  0  0
 24 55  1  0  0  0  0
 25 26  1  0  0  0  0
 26 27  2  0  0  0  0
 26 56  1  0  0  0  0
 27 28  1  0  0  0  0
 29 57  1  0  0  0  0
 29 58  1  0  0  0  0
M  END
> <s_m_source_file>
AV-unprocessed.smi

> <i_m_source_file_index>
74

> <i_lp_mmshare_version>
43012

> <i_f3d_flags>
0

> <s_epik_input>
W09IXVtDSDJdQzEoW0NIMl1bT0hdKVtDSDJdW0NIXShbQ0gyXTEpbihbY0hdbjIpYyhjMjMpbltjSF1uYzNONFtDSDJdW0NIMl1PW0NASF0oW0NIMl00KVtDSDJdT1tDSDJdW0NIXTVbQ0gyXVtDSDJdNQ==

> <s_epik_cmdline>
J2VwaWtfcHl0aG9uJywgJy1waCcsICc3LjAnLCAnLXRuJywgJzgnLCAnLW1hJywgJzIwMCcsICctbWV0YWxfYmluZGluZycsICctaW1hZScsICc8aW5maWxlLm1hZT4nLCAnLW9tYWUnLCAnPG91dGZpbGUubWFlPic=

> <r_lp_tautomer_probability>
1

> <r_epik_Ionization_Penalty>
5.89322e-05

> <r_epik_Ionization_Penalty_Charging>
0

> <r_epik_Ionization_Penalty_Neutral>
5.89322e-05

> <r_epik_State_Penalty>
-0

> <r_epik_Charging_Adjusted_Penalty>
0

> <i_epik_Tot_Q>
0

> <i_epik_Tot_abs_Q>
0

> <r_epik_Metal_State_Penalty>
-0

> <b_epik_Metal_Only>
0

> <s_lp_Force_Field>
OPLS_2005

> <r_lp_Energy>
49.4071

> <b_lp_Chiralities_Consistent>
1

> <s_lp_Variant>
AV-unprocessed.smi:74-2

> <Gold.Version>
5.8.1

> <Gold.Id.Protein>
6NUR|6NUR_protein|mol2

> <Gold.PLP.Fitness>
53.2907

> <Gold.PLP.PLP>
-47.1009

> <Gold.PLP.part.hbond>
-4.3473

> <Gold.PLP.part.metal>
0.0000

> <Gold.PLP.part.buried>
-2.7093

> <Gold.PLP.part.nonpolar>
-40.2555

> <Gold.PLP.part.repulsive>
1.2367

> <Gold.PLP.ligand.clash>
0.7801

> <Gold.PLP.ligand.torsion>
1.4460

> <Gold.PLP.Chemscore.Hbond>
2.0935

> <Gold.PLP.Chemscore.CHOScore>
0.6946

> <Gold.PLP.Chemscore.Metal>
0.0000

> <Gold.Chemscore.Hbonds>
donor molecule, donor type, donor heavy atom, donor atom, acceptor molecule, acceptor atom, score
      L1  H     1    30       P1 10747  1.00
      P1  H  8011  8017       L1    16  0.05
      P1  H 10785 10796       L1     5  1.00
      L1  C     9    39       P1 10171  0.73

> <Gold.PLP.Chemscore.Internal.Correction>
1.4975

> <Gold.Rescore>
     Score         DG    S(hbond)    S(metal)    S(lipo)     H(rot)  DE(clash)    DE(int)     intcor
     10.84     -15.70       1.87        0.00     120.77       3.97       0.89       3.97       ----

> <Gold.Chemscore.Fitness>
10.8406

> <Gold.Chemscore.DG>
-15.7016

> <Gold.Chemscore.ZeroCoef>
-5.4800

> <Gold.Chemscore.Hbond>
1.8695

> <Gold.Chemscore.Metal>
0.0000

> <Gold.Chemscore.Lipo>
120.7737

> <Gold.Chemscore.Internal_Hbond>
0.0000

> <Gold.Chemscore.DEClash>
0.8869

> <Gold.Chemscore.DEInternal>
3.9741

> <Gold.Chemscore.Rot>
3.9660

> <Gold.Chemscore.Internal.Correction>
   9.000000E+99

> <Gold.Chemscore.Hbonds>
donor molecule, donor type, donor heavy atom, donor atom, acceptor molecule, acceptor atom, score
      L1  H     1    30       P1 10747  0.97
      P1  H 10785 10796       L1     5  0.90

> <Gold.Chemscore.Hbond.Weighted>
-6.2440

> <Gold.Chemscore.Metal.Weighted>
-0.0000

> <Gold.Chemscore.Lipo.Weighted>
-14.1305

> <Gold.Chemscore.Internal_Hbond.Weighted>
0.0000

> <Gold.Chemscore.DEClash.Weighted>
0.8869

> <Gold.Chemscore.DEInternal.Weighted>
3.9741

> <Gold.Chemscore.Rot.Weighted>
10.1529

> <Gold.Chemscore.Internal.Correction.Weighted>
   9.000000E+99

> <Gold.Protein.RotatedTorsions>
[ 6907 6896 6895 6894 ] final  -85.78 input  -60.11 | X-H torsion
[ 7974 7965 7964 7962 ] final -147.36 input  175.53 | X-H torsion
[ 8008 7997 7996 7995 ] final -147.98 input   59.86 | X-H torsion
[ 10167 10162 10161 10158 ] final -136.06 input  -65.29 | X-H torsion
[ 10718 10713 10712 10709 ] final  125.29 input   66.30 | X-H torsion
[ 10763 10752 10751 10750 ] final  123.56 input  -60.55 | X-H torsion
[ 11005 11000 10999 10996 ] final  104.08 input  -57.11 | X-H torsion

> <Gold.Protein.ActiveResidues>
 VAL166  LYS551  ARG553  GLY616  TRP617  ASP618  TYR619  PRO620  LYS621  CYS622 
 ASP623  PHE694  ASN695  SER759  ASP760  ASP761  ALA762  ILE779  LEU786  VAL792 
 PHE793  MET794  SER795  GLU796  ALA797  LYS798  CYS799  TRP800  GLU811  SER814 

> <Gold.Protein.RotatedAtoms>
  150.6869  134.3153  159.4763 H   0  0  0  0  0  0  0  0  0  0  0  0  # atno 6907 bound_to 6896
  152.1034  134.9323  160.0578 H   0  0  0  0  0  0  0  0  0  0  0  0  # atno 6908 bound_to 6896
  152.0593  133.4020  159.4448 H   0  0  0  0  0  0  0  0  0  0  0  0  # atno 6909 bound_to 6896
  144.8098  140.5337  143.5650 H   0  0  0  0  0  0  0  0  0  0  0  0  # atno 7974 bound_to 7965
  155.5842  140.0646  157.2775 H   0  0  0  0  0  0  0  0  0  0  0  0  # atno 8008 bound_to 7997
  154.4324  140.1847  156.1054 H   0  0  0  0  0  0  0  0  0  0  0  0  # atno 8009 bound_to 7997
  156.0282  140.3309  155.7115 H   0  0  0  0  0  0  0  0  0  0  0  0  # atno 8010 bound_to 7997
  139.8716  143.6950  152.2639 H   0  0  0  0  0  0  0  0  0  0  0  0  # atno 10167 bound_to 10162
  157.5515  131.1094  150.8694 H   0  0  0  0  0  0  0  0  0  0  0  0  # atno 10718 bound_to 10713
  153.6475  135.3368  155.3090 H   0  0  0  0  0  0  0  0  0  0  0  0  # atno 10763 bound_to 10752
  154.8545  135.4333  154.1939 H   0  0  0  0  0  0  0  0  0  0  0  0  # atno 10764 bound_to 10752
  153.2874  135.7014  153.7401 H   0  0  0  0  0  0  0  0  0  0  0  0  # atno 10765 bound_to 10752
  139.8789  134.9287  156.5308 H   0  0  0  0  0  0  0  0  0  0  0  0  # atno 11005 bound_to 11000
  145.5350  139.1475  143.3478 LP  0  0  0  0  0  0  0  0  0  0  0  0  # atno 17320 bound_to 7965
  146.2395  140.5491  142.8940 LP  0  0  0  0  0  0  0  0  0  0  0  0  # atno 17321 bound_to 7965
  139.7279  144.7589  151.0849 LP  0  0  0  0  0  0  0  0  0  0  0  0  # atno 17342 bound_to 10162
  140.7760  143.5125  150.9635 LP  0  0  0  0  0  0  0  0  0  0  0  0  # atno 17343 bound_to 10162
  156.9217  130.5317  149.5279 LP  0  0  0  0  0  0  0  0  0  0  0  0  # atno 17370 bound_to 10713
  156.0581  130.5639  150.9134 LP  0  0  0  0  0  0  0  0  0  0  0  0  # atno 17371 bound_to 10713
  140.8382  133.8225  155.9049 LP  0  0  0  0  0  0  0  0  0  0  0  0  # atno 17394 bound_to 11000
  140.9263  134.2078  157.4894 LP  0  0  0  0  0  0  0  0  0  0  0  0  # atno 17395 bound_to 11000

$$$$
