AV-unprocessed.smi:1601|AV-procd|sdf|6432|dock1
  -GOLD-   22720 7 73D 1   1.00000     0.00000
 Structure written by MMmdl.
 41 42  0  0  0  0  0  0  0  0  1 V2000
  150.5769  140.8635  156.4428 C   0  0  0  0  0  0  0  0  0  0  0  0
  150.2843  140.8233  157.9645 C   0  0  1  0  0  0  0  0  0  0  0  0
  150.5659  139.3841  158.4874 C   0  0  0  0  0  0  0  0  0  0  0  0
  149.3568  138.5804  158.6442 N   0  0  0  0  0  0  0  0  0  0  0  0
  149.3016  137.3820  159.2472 C   0  0  0  0  0  0  0  0  0  0  0  0
  150.2912  136.8287  159.7287 O   0  0  0  0  0  0  0  0  0  0  0  0
  147.9144  136.7226  159.3252 C   0  0  2  0  0  0  0  0  0  0  0  0
  146.8365  137.4971  158.5401 C   0  0  0  0  0  0  0  0  0  0  0  0
  147.5251  136.5033  160.7136 N   0  0  0  0  0  0  0  0  0  0  0  0
  146.4704  135.7516  161.1908 C   0  0  0  0  0  0  0  0  0  0  0  0
  146.5071  135.8116  162.5543 C   0  0  0  0  0  0  0  0  0  0  0  0
  147.6417  136.6249  162.8264 C   0  0  0  0  0  0  0  0  0  0  0  0
  148.2510  137.0333  161.7257 N   0  0  0  0  0  0  0  0  0  0  0  0
  151.0059  141.8762  158.7170 N   0  0  0  0  0  0  0  0  0  0  0  0
  152.4171  141.5373  158.9381 C   0  0  0  0  0  0  0  0  0  0  0  0
  153.1910  142.6392  159.6818 C   0  0  0  0  0  0  0  0  0  0  0  0
  153.0919  143.8606  158.9633 O   0  0  0  0  0  0  0  0  0  0  0  0
  151.7423  144.2714  158.7969 C   0  0  0  0  0  0  0  0  0  0  0  0
  150.9552  143.1820  158.0483 C   0  0  0  0  0  0  0  0  0  0  0  0
  150.0778  140.0598  155.9027 H   0  0  0  0  0  0  0  0  0  0  0  0
  151.6454  140.7762  156.2442 H   0  0  0  0  0  0  0  0  0  0  0  0
  150.2202  141.7807  155.9762 H   0  0  0  0  0  0  0  0  0  0  0  0
  149.2154  141.0059  158.0855 H   0  0  0  0  0  0  0  0  0  0  0  0
  151.2330  138.8634  157.7995 H   0  0  0  0  0  0  0  0  0  0  0  0
  151.0647  139.3861  159.4555 H   0  0  0  0  0  0  0  0  0  0  0  0
  148.5011  138.9657  158.2720 H   0  0  0  0  0  0  0  0  0  0  0  0
  148.0057  135.7405  158.8584 H   0  0  0  0  0  0  0  0  0  0  0  0
  147.1169  137.6073  157.4920 H   0  0  0  0  0  0  0  0  0  0  0  0
  146.6728  138.4964  158.9454 H   0  0  0  0  0  0  0  0  0  0  0  0
  145.8827  136.9697  158.5674 H   0  0  0  0  0  0  0  0  0  0  0  0
  145.7872  135.2421  160.5272 H   0  0  0  0  0  0  0  0  0  0  0  0
  145.8291  135.3431  163.2520 H   0  0  0  0  0  0  0  0  0  0  0  0
  148.0390  136.9266  163.7842 H   0  0  0  0  0  0  0  0  0  0  0  0
  152.5050  140.6305  159.5336 H   0  0  0  0  0  0  0  0  0  0  0  0
  152.9035  141.3379  157.9820 H   0  0  0  0  0  0  0  0  0  0  0  0
  152.8039  142.7690  160.6935 H   0  0  0  0  0  0  0  0  0  0  0  0
  154.2423  142.3660  159.7742 H   0  0  0  0  0  0  0  0  0  0  0  0
  151.2921  144.4735  159.7699 H   0  0  0  0  0  0  0  0  0  0  0  0
  151.7222  145.2054  158.2352 H   0  0  0  0  0  0  0  0  0  0  0  0
  151.3398  143.0919  157.0312 H   0  0  0  0  0  0  0  0  0  0  0  0
  149.9297  143.5361  157.9701 H   0  0  0  0  0  0  0  0  0  0  0  0
  1  2  1  0  0  0  0
  1 20  1  0  0  0  0
  1 21  1  0  0  0  0
  1 22  1  0  0  0  0
  2  3  1  0  0  0  0
  2 14  1  0  0  0  0
  2 23  1  0  0  0  0
  3  4  1  0  0  0  0
  3 24  1  0  0  0  0
  3 25  1  0  0  0  0
  4  5  1  0  0  0  0
  4 26  1  0  0  0  0
  5  6  2  0  0  0  0
  5  7  1  0  0  0  0
  7  8  1  0  0  0  0
  7  9  1  0  0  0  0
  7 27  1  0  0  0  0
  8 28  1  0  0  0  0
  8 29  1  0  0  0  0
  8 30  1  0  0  0  0
  9 13  1  0  0  0  0
  9 10  1  0  0  0  0
 10 11  2  0  0  0  0
 10 31  1  0  0  0  0
 11 12  1  0  0  0  0
 11 32  1  0  0  0  0
 12 13  2  0  0  0  0
 12 33  1  0  0  0  0
 14 19  1  0  0  0  0
 14 15  1  0  0  0  0
 15 16  1  0  0  0  0
 15 34  1  0  0  0  0
 15 35  1  0  0  0  0
 16 17  1  0  0  0  0
 16 36  1  0  0  0  0
 16 37  1  0  0  0  0
 17 18  1  0  0  0  0
 18 19  1  0  0  0  0
 18 38  1  0  0  0  0
 18 39  1  0  0  0  0
 19 40  1  0  0  0  0
 19 41  1  0  0  0  0
M  END
> <s_m_source_file>
AV-unprocessed.smi

> <i_m_source_file_index>
1601

> <i_lp_mmshare_version>
43012

> <i_f3d_flags>
0

> <s_epik_input>
W0NIMl0xW0NIMl1PW0NIMl1bQ0gyXU4xW0NASF0oW0NIM10pW0NIMl1bTkhdQyg9TylbQ0BIXShbQ0gzXSluMltjSF1bY0hdW2NIXW4y

> <s_epik_cmdline>
J2VwaWtfcHl0aG9uJywgJy1waCcsICc3LjAnLCAnLXRuJywgJzgnLCAnLW1hJywgJzIwMCcsICctbWV0YWxfYmluZGluZycsICctaW1hZScsICc8aW5maWxlLm1hZT4nLCAnLW9tYWUnLCAnPG91dGZpbGUubWFlPic=

> <r_lp_tautomer_probability>
1

> <r_epik_Ionization_Penalty>
0.203323

> <r_epik_Ionization_Penalty_Charging>
0

> <r_epik_Ionization_Penalty_Neutral>
0.203323

> <r_epik_State_Penalty>
0.193192

> <r_epik_Charging_Adjusted_Penalty>
0.193192

> <i_epik_Tot_Q>
0

> <i_epik_Tot_abs_Q>
0

> <r_epik_Metal_State_Penalty>
0.193187

> <b_epik_Metal_Only>
0

> <s_lp_Force_Field>
OPLS_2005

> <r_lp_Energy>
32.6682

> <b_lp_Chiralities_Consistent>
1

> <s_lp_Variant>
AV-unprocessed.smi:1601-2

> <Gold.Version>
5.8.1

> <Gold.Id.Protein>
6NUR|6NUR_protein|mol2

> <Gold.PLP.Fitness>
39.2852

> <Gold.PLP.PLP>
-35.3829

> <Gold.PLP.part.hbond>
-2.1803

> <Gold.PLP.part.metal>
0.0000

> <Gold.PLP.part.buried>
-6.5499

> <Gold.PLP.part.nonpolar>
-28.4188

> <Gold.PLP.part.repulsive>
0.2107

> <Gold.PLP.ligand.clash>
0.1709

> <Gold.PLP.ligand.torsion>
1.0303

> <Gold.PLP.Chemscore.Hbond>
2.0000

> <Gold.PLP.Chemscore.CHOScore>
0.0000

> <Gold.PLP.Chemscore.Metal>
0.0000

> <Gold.Chemscore.Hbonds>
donor molecule, donor type, donor heavy atom, donor atom, acceptor molecule, acceptor atom, score
      P1  H  6896  6907       L1     6  1.00
      P1  H  6931  6943       L1    13  0.81
      P1  H  6934  6947       L1    13  0.01

> <Gold.PLP.Chemscore.Internal.Correction>
0.1337

> <Gold.Rescore>
     Score         DG    S(hbond)    S(metal)    S(lipo)     H(rot)  DE(clash)    DE(int)     intcor
     15.05     -17.27       1.94        0.00      84.56       1.79       0.02       2.20       ----

> <Gold.Chemscore.Fitness>
15.0534

> <Gold.Chemscore.DG>
-17.2735

> <Gold.Chemscore.ZeroCoef>
-5.4800

> <Gold.Chemscore.Hbond>
1.9386

> <Gold.Chemscore.Metal>
0.0000

> <Gold.Chemscore.Lipo>
84.5618

> <Gold.Chemscore.Internal_Hbond>
0.0000

> <Gold.Chemscore.DEClash>
0.0195

> <Gold.Chemscore.DEInternal>
2.2006

> <Gold.Chemscore.Rot>
1.7872

> <Gold.Chemscore.Internal.Correction>
   9.000000E+99

> <Gold.Chemscore.Hbonds>
donor molecule, donor type, donor heavy atom, donor atom, acceptor molecule, acceptor atom, score
      P1  H  6896  6907       L1     6  0.99
      P1  H  6931  6943       L1    13  0.69

> <Gold.Chemscore.Hbond.Weighted>
-6.4750

> <Gold.Chemscore.Metal.Weighted>
-0.0000

> <Gold.Chemscore.Lipo.Weighted>
-9.8937

> <Gold.Chemscore.Internal_Hbond.Weighted>
0.0000

> <Gold.Chemscore.DEClash.Weighted>
0.0195

> <Gold.Chemscore.DEInternal.Weighted>
2.2006

> <Gold.Chemscore.Rot.Weighted>
4.5752

> <Gold.Chemscore.Internal.Correction.Weighted>
   9.000000E+99

> <Gold.Protein.RotatedTorsions>
[ 6907 6896 6895 6894 ] final  -39.45 input  -60.11 | X-H torsion
[ 7974 7965 7964 7962 ] final  -39.48 input  175.53 | X-H torsion
[ 8008 7997 7996 7995 ] final   62.27 input   59.86 | X-H torsion
[ 10167 10162 10161 10158 ] final  -79.66 input  -65.29 | X-H torsion
[ 10718 10713 10712 10709 ] final   -0.41 input   66.30 | X-H torsion
[ 10763 10752 10751 10750 ] final -165.30 input  -60.55 | X-H torsion
[ 11005 11000 10999 10996 ] final -161.24 input  -57.11 | X-H torsion

> <Gold.Protein.ActiveResidues>
 VAL166  LYS551  ARG553  GLY616  TRP617  ASP618  TYR619  PRO620  LYS621  CYS622 
 ASP623  PHE694  ASN695  SER759  ASP760  ASP761  ALA762  ILE779  LEU786  VAL792 
 PHE793  MET794  SER795  GLU796  ALA797  LYS798  CYS799  TRP800  GLU811  SER814 

> <Gold.Protein.RotatedAtoms>
  150.9902  134.9238  159.7894 H   0  0  0  0  0  0  0  0  0  0  0  0  # atno 6907 bound_to 6896
  152.5248  134.3292  159.9186 H   0  0  0  0  0  0  0  0  0  0  0  0  # atno 6908 bound_to 6896
  151.3298  133.3964  159.2696 H   0  0  0  0  0  0  0  0  0  0  0  0  # atno 6909 bound_to 6896
  146.0392  140.6631  142.9095 H   0  0  0  0  0  0  0  0  0  0  0  0  # atno 7974 bound_to 7965
  155.6116  140.3495  155.4624 H   0  0  0  0  0  0  0  0  0  0  0  0  # atno 8008 bound_to 7997
  156.0150  140.1241  157.0440 H   0  0  0  0  0  0  0  0  0  0  0  0  # atno 8009 bound_to 7997
  154.4294  140.1074  156.5869 H   0  0  0  0  0  0  0  0  0  0  0  0  # atno 8010 bound_to 7997
  140.4573  143.2464  151.8401 H   0  0  0  0  0  0  0  0  0  0  0  0  # atno 10167 bound_to 10162
  156.8208  130.5455  149.5697 H   0  0  0  0  0  0  0  0  0  0  0  0  # atno 10718 bound_to 10713
  154.6945  135.2977  154.9431 H   0  0  0  0  0  0  0  0  0  0  0  0  # atno 10763 bound_to 10752
  154.0383  135.6661  153.4791 H   0  0  0  0  0  0  0  0  0  0  0  0  # atno 10764 bound_to 10752
  153.0636  135.5101  154.8056 H   0  0  0  0  0  0  0  0  0  0  0  0  # atno 10765 bound_to 10752
  140.6226  134.4734  157.5224 H   0  0  0  0  0  0  0  0  0  0  0  0  # atno 11005 bound_to 11000
  144.7066  140.3876  143.7113 LP  0  0  0  0  0  0  0  0  0  0  0  0  # atno 17320 bound_to 7965
  145.6913  139.1640  143.2645 LP  0  0  0  0  0  0  0  0  0  0  0  0  # atno 17321 bound_to 7965
  139.4802  144.5049  151.9010 LP  0  0  0  0  0  0  0  0  0  0  0  0  # atno 17342 bound_to 10162
  140.4136  144.2337  150.5888 LP  0  0  0  0  0  0  0  0  0  0  0  0  # atno 17343 bound_to 10162
  156.0990  130.5954  150.9862 LP  0  0  0  0  0  0  0  0  0  0  0  0  # atno 17370 bound_to 10713
  157.6458  131.0904  150.8156 LP  0  0  0  0  0  0  0  0  0  0  0  0  # atno 17371 bound_to 10713
  139.9147  134.8271  156.1406 LP  0  0  0  0  0  0  0  0  0  0  0  0  # atno 17394 bound_to 11000
  141.0731  133.6787  156.2182 LP  0  0  0  0  0  0  0  0  0  0  0  0  # atno 17395 bound_to 11000

$$$$
