AV-unprocessed.smi:297|AV-procd|sdf|2260|dock3
  -GOLD-   2262022143D 1   1.00000     0.00000
 Structure written by MMmdl.
 29 30  0  0  0  0  0  0  0  0  1 V2000
  151.7457  146.0332  160.0285 N   0  0  0  0  0  0  0  0  0  0  0  0
  151.8454  144.8985  159.8235 C   0  0  0  0  0  0  0  0  0  0  0  0
  151.9708  143.4718  159.5657 C   0  0  0  0  0  0  0  0  0  0  0  0
  151.5687  143.0378  158.3507 N   0  0  0  0  0  0  0  0  0  0  0  0
  151.6618  141.7203  158.0442 C   0  0  0  0  0  0  0  0  0  0  0  0
  151.2360  141.2985  156.7659 N   0  0  0  0  0  0  0  0  0  0  0  0
  149.9048  141.7423  156.3625 C   0  0  0  0  0  0  0  0  0  0  0  0
  149.6967  141.5003  154.8592 C   0  0  0  0  0  0  0  0  0  0  0  0
  149.9338  140.1301  154.5569 O   0  0  0  0  0  0  0  0  0  0  0  0
  151.2746  139.7344  154.8483 C   0  0  2  0  0  0  0  0  0  0  0  0
  151.4711  138.2780  154.4024 C   0  0  0  0  0  0  0  0  0  0  0  0
  150.9829  137.9319  153.2078 N   0  0  0  0  0  0  0  0  0  0  0  0
  152.0714  137.4741  155.1136 O   0  0  0  0  0  0  0  0  0  0  0  0
  151.5422  139.9281  156.3580 C   0  0  0  0  0  0  0  0  0  0  0  0
  152.1638  140.7804  158.9739 C   0  0  0  0  0  0  0  0  0  0  0  0
  152.5835  141.2275  160.2404 C   0  0  0  0  0  0  0  0  0  0  0  0
  152.4906  142.5972  160.5497 C   0  0  0  0  0  0  0  0  0  0  0  0
  153.0050  143.1532  162.1059 Cl  0  0  0  0  0  0  0  0  0  0  0  0
  149.1605  141.1881  156.9359 H   0  0  0  0  0  0  0  0  0  0  0  0
  149.7468  142.7984  156.5761 H   0  0  0  0  0  0  0  0  0  0  0  0
  148.6748  141.7534  154.5769 H   0  0  0  0  0  0  0  0  0  0  0  0
  150.3575  142.1356  154.2669 H   0  0  0  0  0  0  0  0  0  0  0  0
  151.9641  140.3509  154.2689 H   0  0  0  0  0  0  0  0  0  0  0  0
  151.0975  136.9855  152.8747 H   0  0  0  0  0  0  0  0  0  0  0  0
  150.5080  138.6188  152.6403 H   0  0  0  0  0  0  0  0  0  0  0  0
  152.5887  139.7065  156.5729 H   0  0  0  0  0  0  0  0  0  0  0  0
  150.9346  139.2357  156.9434 H   0  0  0  0  0  0  0  0  0  0  0  0
  152.2181  139.7280  158.7387 H   0  0  0  0  0  0  0  0  0  0  0  0
  152.9689  140.5260  160.9656 H   0  0  0  0  0  0  0  0  0  0  0  0
  1  2  3  0  0  0  0
  2  3  1  0  0  0  0
  3 17  1  0  0  0  0
  3  4  2  0  0  0  0
  4  5  1  0  0  0  0
  5  6  1  0  0  0  0
  5 15  2  0  0  0  0
  6 14  1  0  0  0  0
  6  7  1  0  0  0  0
  7  8  1  0  0  0  0
  7 19  1  0  0  0  0
  7 20  1  0  0  0  0
  8  9  1  0  0  0  0
  8 21  1  0  0  0  0
  8 22  1  0  0  0  0
  9 10  1  0  0  0  0
 10 11  1  0  0  0  0
 10 14  1  0  0  0  0
 10 23  1  0  0  0  0
 11 12  1  0  0  0  0
 11 13  2  0  0  0  0
 12 24  1  0  0  0  0
 12 25  1  0  0  0  0
 14 26  1  0  0  0  0
 14 27  1  0  0  0  0
 15 16  1  0  0  0  0
 15 28  1  0  0  0  0
 16 17  2  0  0  0  0
 16 29  1  0  0  0  0
 17 18  1  0  0  0  0
M  END
> <s_m_source_file>
AV-unprocessed.smi

> <i_m_source_file_index>
297

> <i_lp_mmshare_version>
43012

> <i_f3d_flags>
0

> <s_epik_input>
TiNDYzFuYyhbY0hdW2NIXWMxQ2wpTjJbQ0gyXVtDSDJdT1tDQEhdKFtDSDJdMilDKD1PKVtOSDJd

> <s_epik_cmdline>
J2VwaWtfcHl0aG9uJywgJy1waCcsICc3LjAnLCAnLXRuJywgJzgnLCAnLW1hJywgJzIwMCcsICctbWV0YWxfYmluZGluZycsICctaW1hZScsICc8aW5maWxlLm1hZT4nLCAnLW9tYWUnLCAnPG91dGZpbGUubWFlPic=

> <r_lp_tautomer_probability>
1

> <r_epik_Ionization_Penalty>
8.82403e-08

> <r_epik_Ionization_Penalty_Charging>
0

> <r_epik_Ionization_Penalty_Neutral>
8.82403e-08

> <r_epik_State_Penalty>
-0

> <r_epik_Charging_Adjusted_Penalty>
0

> <i_epik_Tot_Q>
0

> <i_epik_Tot_abs_Q>
0

> <r_epik_Metal_State_Penalty>
-0

> <b_epik_Metal_Only>
0

> <s_lp_Force_Field>
OPLS_2005

> <r_lp_Energy>
18.7144

> <b_lp_Chiralities_Consistent>
1

> <s_lp_Variant>
AV-unprocessed.smi:297-2

> <Gold.Version>
5.8.1

> <Gold.Id.Protein>
6NUR|6NUR_protein|mol2

> <Gold.PLP.Fitness>
42.0339

> <Gold.PLP.PLP>
-36.9327

> <Gold.PLP.part.hbond>
-5.3628

> <Gold.PLP.part.metal>
0.0000

> <Gold.PLP.part.buried>
-0.0068

> <Gold.PLP.part.nonpolar>
-31.6789

> <Gold.PLP.part.repulsive>
0.5953

> <Gold.PLP.ligand.clash>
0.0000

> <Gold.PLP.ligand.torsion>
0.5805

> <Gold.PLP.Chemscore.Hbond>
1.9699

> <Gold.PLP.Chemscore.CHOScore>
0.0000

> <Gold.PLP.Chemscore.Metal>
0.0000

> <Gold.Chemscore.Hbonds>
donor molecule, donor type, donor heavy atom, donor atom, acceptor molecule, acceptor atom, score
      L1  H    12    24       P1  7949  0.90
      L1  H    12    25       P1  7957  0.41
      P1  H 10752 10765       L1    13  0.64

> <Gold.PLP.Chemscore.Internal.Correction>
0.3525

> <Gold.Rescore>
     Score         DG    S(hbond)    S(metal)    S(lipo)     H(rot)  DE(clash)    DE(int)     intcor
     13.48     -15.18       1.39        0.00      75.98       1.50       1.40       0.30       ----

> <Gold.Chemscore.Fitness>
13.4800

> <Gold.Chemscore.DG>
-15.1818

> <Gold.Chemscore.ZeroCoef>
-5.4800

> <Gold.Chemscore.Hbond>
1.3934

> <Gold.Chemscore.Metal>
0.0000

> <Gold.Chemscore.Lipo>
75.9777

> <Gold.Chemscore.Internal_Hbond>
0.0000

> <Gold.Chemscore.DEClash>
1.4017

> <Gold.Chemscore.DEInternal>
0.3001

> <Gold.Chemscore.Rot>
1.5006

> <Gold.Chemscore.Internal.Correction>
   9.000000E+99

> <Gold.Chemscore.Hbonds>
donor molecule, donor type, donor heavy atom, donor atom, acceptor molecule, acceptor atom, score
      L1  H    12    24       P1  7949  0.35
      L1  H    12    25       P1  7957  0.05
      P1  H 10752 10765       L1    13  0.62

> <Gold.Chemscore.Hbond.Weighted>
-4.6541

> <Gold.Chemscore.Metal.Weighted>
-0.0000

> <Gold.Chemscore.Lipo.Weighted>
-8.8894

> <Gold.Chemscore.Internal_Hbond.Weighted>
0.0000

> <Gold.Chemscore.DEClash.Weighted>
1.4017

> <Gold.Chemscore.DEInternal.Weighted>
0.3001

> <Gold.Chemscore.Rot.Weighted>
3.8416

> <Gold.Chemscore.Internal.Correction.Weighted>
   9.000000E+99

> <Gold.Protein.RotatedTorsions>
[ 6907 6896 6895 6894 ] final   15.83 input  -60.11 | X-H torsion
[ 7974 7965 7964 7962 ] final -140.75 input  175.53 | X-H torsion
[ 8008 7997 7996 7995 ] final  165.23 input   59.86 | X-H torsion
[ 10167 10162 10161 10158 ] final  -17.66 input  -65.29 | X-H torsion
[ 10718 10713 10712 10709 ] final  101.06 input   66.30 | X-H torsion
[ 10763 10752 10751 10750 ] final  179.23 input  -60.55 | X-H torsion
[ 11005 11000 10999 10996 ] final -158.39 input  -57.11 | X-H torsion

> <Gold.Protein.ActiveResidues>
 VAL166  LYS551  ARG553  GLY616  TRP617  ASP618  TYR619  PRO620  LYS621  CYS622 
 ASP623  PHE694  ASN695  SER759  ASP760  ASP761  ALA762  ILE779  LEU786  VAL792 
 PHE793  MET794  SER795  GLU796  ALA797  LYS798  CYS799  TRP800  GLU811  SER814 

> <Gold.Protein.RotatedAtoms>
  151.8242  135.0642  160.0428 H   0  0  0  0  0  0  0  0  0  0  0  0  # atno 6907 bound_to 6896
  152.2928  133.5573  159.5577 H   0  0  0  0  0  0  0  0  0  0  0  0  # atno 6908 bound_to 6896
  150.7238  134.0320  159.3779 H   0  0  0  0  0  0  0  0  0  0  0  0  # atno 6909 bound_to 6896
  144.8573  140.6163  143.5351 H   0  0  0  0  0  0  0  0  0  0  0  0  # atno 7974 bound_to 7965
  156.1817  140.1676  156.8261 H   0  0  0  0  0  0  0  0  0  0  0  0  # atno 8008 bound_to 7997
  154.5368  140.0745  156.8474 H   0  0  0  0  0  0  0  0  0  0  0  0  # atno 8009 bound_to 7997
  155.3295  140.3378  155.4242 H   0  0  0  0  0  0  0  0  0  0  0  0  # atno 8010 bound_to 7997
  140.7250  143.4994  150.9889 H   0  0  0  0  0  0  0  0  0  0  0  0  # atno 10167 bound_to 10162
  157.6839  131.0716  150.5195 H   0  0  0  0  0  0  0  0  0  0  0  0  # atno 10718 bound_to 10713
  154.5180  135.2792  155.1287 H   0  0  0  0  0  0  0  0  0  0  0  0  # atno 10763 bound_to 10752
  154.2856  135.6277  153.5368 H   0  0  0  0  0  0  0  0  0  0  0  0  # atno 10764 bound_to 10752
  152.9931  135.5661  154.5661 H   0  0  0  0  0  0  0  0  0  0  0  0  # atno 10765 bound_to 10752
  140.6541  134.4419  157.5235 H   0  0  0  0  0  0  0  0  0  0  0  0  # atno 11005 bound_to 11000
  145.4381  139.1539  143.3985 LP  0  0  0  0  0  0  0  0  0  0  0  0  # atno 17320 bound_to 7965
  146.2833  140.4501  142.8768 LP  0  0  0  0  0  0  0  0  0  0  0  0  # atno 17321 bound_to 7965
  139.8702  143.7202  152.3167 LP  0  0  0  0  0  0  0  0  0  0  0  0  # atno 17342 bound_to 10162
  139.7448  144.7550  151.0597 LP  0  0  0  0  0  0  0  0  0  0  0  0  # atno 17343 bound_to 10162
  156.5509  130.4231  149.6108 LP  0  0  0  0  0  0  0  0  0  0  0  0  # atno 17370 bound_to 10713
  156.2904  130.7121  151.1968 LP  0  0  0  0  0  0  0  0  0  0  0  0  # atno 17371 bound_to 10713
  139.9035  134.8501  156.1797 LP  0  0  0  0  0  0  0  0  0  0  0  0  # atno 17394 bound_to 11000
  141.0514  133.6886  156.1780 LP  0  0  0  0  0  0  0  0  0  0  0  0  # atno 17395 bound_to 11000

$$$$
