AV-unprocessed.smi:139|AV-procd|sdf|1183|dock1
  -GOLD-   2262018333D 1   1.00000     0.00000
 Structure written by MMmdl.
 50 53  0  0  0  0  0  0  0  0  1 V2000
  152.8811  139.4128  155.9248 O   0  0  0  0  0  0  0  0  0  0  0  0
  151.8499  139.2038  156.5650 C   0  0  0  0  0  0  0  0  0  0  0  0
  151.0481  137.9113  156.3562 C   0  0  0  0  0  0  0  0  0  0  0  0
  149.7679  137.9071  157.0967 N   0  0  0  0  0  0  0  0  0  0  0  0
  148.6948  138.7007  156.6210 C   0  0  0  0  0  0  0  0  0  0  0  0
  148.8044  139.3791  155.5989 O   0  0  0  0  0  0  0  0  0  0  0  0
  147.4780  138.6596  157.4242 C   0  0  0  0  0  0  0  0  0  0  0  0
  146.4092  139.3831  157.0499 F   0  0  0  0  0  0  0  0  0  0  0  0
  147.4067  137.9075  158.5418 C   0  0  0  0  0  0  0  0  0  0  0  0
  148.4618  137.1346  158.9935 N   0  0  0  0  0  0  0  0  0  0  0  0
  148.3728  136.3100  160.2612 C   0  0  2  0  0  0  0  0  0  0  0  0
  147.5150  135.0504  160.0320 C   0  0  0  0  0  0  0  0  0  0  0  0
  146.4993  135.1245  161.1552 C   0  0  0  0  0  0  0  0  0  0  0  0
  146.3953  136.6237  161.3895 C   0  0  0  0  0  0  0  0  0  0  0  0
  147.7451  137.0513  161.2686 O   0  0  0  0  0  0  0  0  0  0  0  0
  149.6786  137.1320  158.2778 C   0  0  0  0  0  0  0  0  0  0  0  0
  150.6403  136.4708  158.6772 O   0  0  0  0  0  0  0  0  0  0  0  0
  151.3518  140.0633  157.4696 N   0  0  0  0  0  0  0  0  0  0  0  0
  151.8861  141.3848  157.8080 C   0  0  1  0  0  0  0  0  0  0  0  0
  150.8490  142.4963  157.5452 C   0  0  0  0  0  0  0  0  0  0  0  0
  151.3450  143.8537  158.0473 C   0  0  0  0  0  0  0  0  0  0  0  0
  151.6031  143.8187  159.5577 C   0  0  0  0  0  0  0  0  0  0  0  0
  152.4221  142.6166  160.0034 C   0  0  0  0  0  0  0  0  0  0  0  0
  153.0519  142.6595  161.2653 C   0  0  0  0  0  0  0  0  0  0  0  0
  153.8096  141.5662  161.7233 C   0  0  0  0  0  0  0  0  0  0  0  0
  153.9435  140.4209  160.9188 C   0  0  0  0  0  0  0  0  0  0  0  0
  153.3184  140.3704  159.6590 C   0  0  0  0  0  0  0  0  0  0  0  0
  152.5448  141.4586  159.1915 C   0  0  0  0  0  0  0  0  0  0  0  0
  150.9010  137.7730  155.2845 H   0  0  0  0  0  0  0  0  0  0  0  0
  151.6551  137.0542  156.6545 H   0  0  0  0  0  0  0  0  0  0  0  0
  146.4784  137.9274  159.0920 H   0  0  0  0  0  0  0  0  0  0  0  0
  149.4047  136.1029  160.5496 H   0  0  0  0  0  0  0  0  0  0  0  0
  147.0156  135.1025  159.0634 H   0  0  0  0  0  0  0  0  0  0  0  0
  148.1273  134.1492  160.0670 H   0  0  0  0  0  0  0  0  0  0  0  0
  145.5449  134.6640  160.8994 H   0  0  0  0  0  0  0  0  0  0  0  0
  146.8895  134.6336  162.0478 H   0  0  0  0  0  0  0  0  0  0  0  0
  145.7795  137.0953  160.6224 H   0  0  0  0  0  0  0  0  0  0  0  0
  145.9809  136.8716  162.3667 H   0  0  0  0  0  0  0  0  0  0  0  0
  150.5030  139.7929  157.9447 H   0  0  0  0  0  0  0  0  0  0  0  0
  152.7047  141.5482  157.1061 H   0  0  0  0  0  0  0  0  0  0  0  0
  150.6133  142.5459  156.4817 H   0  0  0  0  0  0  0  0  0  0  0  0
  149.9118  142.2719  158.0556 H   0  0  0  0  0  0  0  0  0  0  0  0
  152.2675  144.1118  157.5255 H   0  0  0  0  0  0  0  0  0  0  0  0
  150.6244  144.6368  157.8094 H   0  0  0  0  0  0  0  0  0  0  0  0
  152.1025  144.7378  159.8667 H   0  0  0  0  0  0  0  0  0  0  0  0
  150.6515  143.7866  160.0892 H   0  0  0  0  0  0  0  0  0  0  0  0
  152.9529  143.5357  161.8893 H   0  0  0  0  0  0  0  0  0  0  0  0
  154.2885  141.6067  162.6905 H   0  0  0  0  0  0  0  0  0  0  0  0
  154.5266  139.5810  161.2665 H   0  0  0  0  0  0  0  0  0  0  0  0
  153.4369  139.4847  159.0525 H   0  0  0  0  0  0  0  0  0  0  0  0
  1  2  2  0  0  0  0
  2  3  1  0  0  0  0
  2 18  1  0  0  0  0
  3  4  1  0  0  0  0
  3 29  1  0  0  0  0
  3 30  1  0  0  0  0
  4 16  1  0  0  0  0
  4  5  1  0  0  0  0
  5  6  2  0  0  0  0
  5  7  1  0  0  0  0
  7  8  1  0  0  0  0
  7  9  2  0  0  0  0
  9 10  1  0  0  0  0
  9 31  1  0  0  0  0
 10 11  1  0  0  0  0
 10 16  1  0  0  0  0
 11 15  1  0  0  0  0
 11 12  1  0  0  0  0
 11 32  1  0  0  0  0
 12 13  1  0  0  0  0
 12 33  1  0  0  0  0
 12 34  1  0  0  0  0
 13 14  1  0  0  0  0
 13 35  1  0  0  0  0
 13 36  1  0  0  0  0
 14 15  1  0  0  0  0
 14 37  1  0  0  0  0
 14 38  1  0  0  0  0
 16 17  2  0  0  0  0
 18 19  1  0  0  0  0
 18 39  1  0  0  0  0
 19 28  1  0  0  0  0
 19 20  1  0  0  0  0
 19 40  1  0  0  0  0
 20 21  1  0  0  0  0
 20 41  1  0  0  0  0
 20 42  1  0  0  0  0
 21 22  1  0  0  0  0
 21 43  1  0  0  0  0
 21 44  1  0  0  0  0
 22 23  1  0  0  0  0
 22 45  1  0  0  0  0
 22 46  1  0  0  0  0
 23 28  2  0  0  0  0
 23 24  1  0  0  0  0
 24 25  2  0  0  0  0
 24 47  1  0  0  0  0
 25 26  1  0  0  0  0
 25 48  1  0  0  0  0
 26 27  2  0  0  0  0
 26 49  1  0  0  0  0
 27 28  1  0  0  0  0
 27 50  1  0  0  0  0
M  END
> <s_m_source_file>
AV-unprocessed.smi

> <i_m_source_file_index>
139

> <i_lp_mmshare_version>
43012

> <i_f3d_flags>
0

> <s_epik_input>
W2NIXTFbY0hdW2NIXVtjSF1jKGMxMilbQ0BASF0oW0NIMl1bQ0gyXVtDSDJdMilbTkhdQyg9TylbQ0gyXW4zYyg9TyljKEYpW2NIXW4oYzM9TylbQ0BASF00W0NIMl1bQ0gyXVtDSDJdTzQ=

> <s_epik_cmdline>
J2VwaWtfcHl0aG9uJywgJy1waCcsICc3LjAnLCAnLXRuJywgJzgnLCAnLW1hJywgJzIwMCcsICctbWV0YWxfYmluZGluZycsICctaW1hZScsICc8aW5maWxlLm1hZT4nLCAnLW9tYWUnLCAnPG91dGZpbGUubWFlPic=

> <r_lp_tautomer_probability>
1

> <r_epik_Ionization_Penalty>
3.261e-08

> <r_epik_Ionization_Penalty_Charging>
3.6725e-09

> <r_epik_Ionization_Penalty_Neutral>
2.89375e-08

> <r_epik_State_Penalty>
-0

> <r_epik_Charging_Adjusted_Penalty>
3.6725e-09

> <i_epik_Tot_Q>
0

> <i_epik_Tot_abs_Q>
0

> <r_epik_Metal_State_Penalty>
-0

> <b_epik_Metal_Only>
0

> <s_epik_Chemistry_Notes>
This compound contains an acetal/aminal-like group ( X-CH(R)-Y where X, Y are N, S, or O) that may be acid/base labile, releasing an aldehyde.

> <s_lp_Force_Field>
OPLS_2005

> <r_lp_Energy>
30.9596

> <b_lp_Chiralities_Consistent>
1

> <s_lp_Variant>
AV-unprocessed.smi:139-3

> <Gold.Version>
5.8.1

> <Gold.Id.Protein>
6NUR|6NUR_protein|mol2

> <Gold.PLP.Fitness>
56.3967

> <Gold.PLP.PLP>
-47.1594

> <Gold.PLP.part.hbond>
-3.9934

> <Gold.PLP.part.metal>
0.0000

> <Gold.PLP.part.buried>
-5.7137

> <Gold.PLP.part.nonpolar>
-38.3627

> <Gold.PLP.part.repulsive>
0.0783

> <Gold.PLP.ligand.clash>
0.0000

> <Gold.PLP.ligand.torsion>
0.6730

> <Gold.PLP.Chemscore.Hbond>
3.4888

> <Gold.PLP.Chemscore.CHOScore>
0.0000

> <Gold.PLP.Chemscore.Metal>
0.0000

> <Gold.Chemscore.Hbonds>
donor molecule, donor type, donor heavy atom, donor atom, acceptor molecule, acceptor atom, score
      P1  H  6896  6908       L1    17  0.98
      P1  H  6931  6943       L1    15  1.00
      P1  H  6934  6947       L1    15  0.48
      P1  H  7997  8010       L1     1  1.00

> <Gold.PLP.Chemscore.Internal.Correction>
0.1169

> <Gold.Rescore>
     Score         DG    S(hbond)    S(metal)    S(lipo)     H(rot)  DE(clash)    DE(int)     intcor
     23.49     -24.64       2.82        0.00     122.92       1.82       0.07       1.07       ----

> <Gold.Chemscore.Fitness>
23.4939

> <Gold.Chemscore.DG>
-24.6379

> <Gold.Chemscore.ZeroCoef>
-5.4800

> <Gold.Chemscore.Hbond>
2.8231

> <Gold.Chemscore.Metal>
0.0000

> <Gold.Chemscore.Lipo>
122.9155

> <Gold.Chemscore.Internal_Hbond>
0.0000

> <Gold.Chemscore.DEClash>
0.0749

> <Gold.Chemscore.DEInternal>
1.0691

> <Gold.Chemscore.Rot>
1.8174

> <Gold.Chemscore.Internal.Correction>
   9.000000E+99

> <Gold.Chemscore.Hbonds>
donor molecule, donor type, donor heavy atom, donor atom, acceptor molecule, acceptor atom, score
      P1  H  6896  6908       L1    17  0.93
      P1  H  6931  6943       L1    15  0.53
      P1  H  6934  6947       L1    15  0.04
      P1  H  7997  8010       L1     1  1.00

> <Gold.Chemscore.Hbond.Weighted>
-9.4293

> <Gold.Chemscore.Metal.Weighted>
-0.0000

> <Gold.Chemscore.Lipo.Weighted>
-14.3811

> <Gold.Chemscore.Internal_Hbond.Weighted>
0.0000

> <Gold.Chemscore.DEClash.Weighted>
0.0749

> <Gold.Chemscore.DEInternal.Weighted>
1.0691

> <Gold.Chemscore.Rot.Weighted>
4.6524

> <Gold.Chemscore.Internal.Correction.Weighted>
   9.000000E+99

> <Gold.Protein.RotatedTorsions>
[ 6907 6896 6895 6894 ] final -154.60 input  -60.11 | X-H torsion
[ 7974 7965 7964 7962 ] final  -85.81 input  175.53 | X-H torsion
[ 8008 7997 7996 7995 ] final   72.99 input   59.86 | X-H torsion
[ 10167 10162 10161 10158 ] final -130.43 input  -65.29 | X-H torsion
[ 10718 10713 10712 10709 ] final   93.58 input   66.30 | X-H torsion
[ 10763 10752 10751 10750 ] final  128.40 input  -60.55 | X-H torsion
[ 11005 11000 10999 10996 ] final -138.36 input  -57.11 | X-H torsion

> <Gold.Protein.ActiveResidues>
 VAL166  LYS551  ARG553  GLY616  TRP617  ASP618  TYR619  PRO620  LYS621  CYS622 
 ASP623  PHE694  ASN695  SER759  ASP760  ASP761  ALA762  ILE779  LEU786  VAL792 
 PHE793  MET794  SER795  GLU796  ALA797  LYS798  CYS799  TRP800  GLU811  SER814 

> <Gold.Protein.RotatedAtoms>
  151.2599  133.4307  159.2615 H   0  0  0  0  0  0  0  0  0  0  0  0  # atno 6907 bound_to 6896
  151.0540  134.9692  159.8236 H   0  0  0  0  0  0  0  0  0  0  0  0  # atno 6908 bound_to 6896
  152.5387  134.2553  159.8967 H   0  0  0  0  0  0  0  0  0  0  0  0  # atno 6909 bound_to 6896
  145.4883  140.9554  143.1826 H   0  0  0  0  0  0  0  0  0  0  0  0  # atno 7974 bound_to 7965
  155.7770  140.3483  155.5277 H   0  0  0  0  0  0  0  0  0  0  0  0  # atno 8008 bound_to 7997
  155.8766  140.0995  157.1535 H   0  0  0  0  0  0  0  0  0  0  0  0  # atno 8009 bound_to 7997
  154.4021  140.1330  156.4132 H   0  0  0  0  0  0  0  0  0  0  0  0  # atno 8010 bound_to 7997
  139.9294  143.6289  152.2533 H   0  0  0  0  0  0  0  0  0  0  0  0  # atno 10167 bound_to 10162
  157.6954  131.0483  150.4055 H   0  0  0  0  0  0  0  0  0  0  0  0  # atno 10718 bound_to 10713
  153.7249  135.3247  155.3274 H   0  0  0  0  0  0  0  0  0  0  0  0  # atno 10763 bound_to 10752
  154.8344  135.4508  154.1180 H   0  0  0  0  0  0  0  0  0  0  0  0  # atno 10764 bound_to 10752
  153.2311  135.6960  153.7969 H   0  0  0  0  0  0  0  0  0  0  0  0  # atno 10765 bound_to 10752
  140.8623  134.2154  157.4700 H   0  0  0  0  0  0  0  0  0  0  0  0  # atno 11005 bound_to 11000
  144.7848  139.6449  143.7138 LP  0  0  0  0  0  0  0  0  0  0  0  0  # atno 17320 bound_to 7965
  146.2299  139.5794  142.9562 LP  0  0  0  0  0  0  0  0  0  0  0  0  # atno 17321 bound_to 7965
  139.6795  144.7656  151.1635 LP  0  0  0  0  0  0  0  0  0  0  0  0  # atno 17342 bound_to 10162
  140.7641  143.5746  150.8959 LP  0  0  0  0  0  0  0  0  0  0  0  0  # atno 17343 bound_to 10162
  156.4444  130.3998  149.6676 LP  0  0  0  0  0  0  0  0  0  0  0  0  # atno 17370 bound_to 10713
  156.3848  130.7597  151.2593 LP  0  0  0  0  0  0  0  0  0  0  0  0  # atno 17371 bound_to 10713
  139.8707  134.9735  156.4812 LP  0  0  0  0  0  0  0  0  0  0  0  0  # atno 17394 bound_to 11000
  140.8669  133.8018  155.9323 LP  0  0  0  0  0  0  0  0  0  0  0  0  # atno 17395 bound_to 11000

$$$$
