AV-unprocessed.smi:308|AV-procd|sdf|2287|dock3
  -GOLD-   2262022183D 1   1.00000     0.00000
 Structure written by MMmdl.
 50 51  0  0  0  0  0  0  0  0  2 V2000
  144.4645  134.2761  151.4521 C   0  0  0  0  0  0  0  0  0  0  0  0
  144.8565  135.7478  151.2607 C   0  0  2  0  0  0  0  0  0  0  0  0
  146.0250  135.9042  150.2734 C   0  0  0  0  0  0  0  0  0  0  0  0
  146.4260  137.3805  150.1129 C   0  0  0  0  0  0  0  0  0  0  0  0
  146.7688  137.9919  151.4225 N   0  3  1  0  0  0  0  0  0  0  0  0
  147.2803  139.3792  151.2776 C   0  0  0  0  0  0  0  0  0  0  0  0
  147.3044  140.1660  152.6061 C   0  0  0  0  0  0  0  0  0  0  0  0
  148.6073  140.1376  153.2663 N   0  0  0  0  0  0  0  0  0  0  0  0
  148.8817  140.7034  154.4502 C   0  0  0  0  0  0  0  0  0  0  0  0
  148.0516  141.3353  155.1018 O   0  0  0  0  0  0  0  0  0  0  0  0
  150.1585  140.4827  154.8071 N   0  0  0  0  0  0  0  0  0  0  0  0
  150.8536  140.8949  155.9778 C   0  0  0  0  0  0  0  0  0  0  0  0
  151.7888  140.1071  156.6893 C   0  0  0  0  0  0  0  0  0  0  0  0
  152.4012  140.6433  157.8386 C   0  0  0  0  0  0  0  0  0  0  0  0
  152.0653  141.9537  158.2600 C   0  0  0  0  0  0  0  0  0  0  0  0
  152.6546  142.5348  159.4062 N   0  0  0  0  0  0  0  0  0  0  0  0
  152.5133  143.9669  159.6491 C   0  0  0  0  0  0  0  0  0  0  0  0
  153.4928  141.7298  160.2860 C   0  0  0  0  0  0  0  0  0  0  0  0
  151.1611  142.6991  157.5794 N   0  0  0  0  0  0  0  0  0  0  0  0
  150.5788  142.1828  156.4779 C   0  0  0  0  0  0  0  0  0  0  0  0
  145.6456  137.8811  152.3900 C   0  0  0  0  0  0  0  0  0  0  0  0
  145.2307  136.4144  152.5946 C   0  0  0  0  0  0  0  0  0  0  0  0
  145.2901  133.6946  151.8633 H   0  0  0  0  0  0  0  0  0  0  0  0
  144.1757  133.8202  150.5048 H   0  0  0  0  0  0  0  0  0  0  0  0
  143.6187  134.1816  152.1336 H   0  0  0  0  0  0  0  0  0  0  0  0
  143.9910  136.2700  150.8495 H   0  0  0  0  0  0  0  0  0  0  0  0
  146.8847  135.3291  150.6210 H   0  0  0  0  0  0  0  0  0  0  0  0
  145.7513  135.4918  149.3016 H   0  0  0  0  0  0  0  0  0  0  0  0
  147.2832  137.4450  149.4414 H   0  0  0  0  0  0  0  0  0  0  0  0
  145.6147  137.9434  149.6483 H   0  0  0  0  0  0  0  0  0  0  0  0
  148.3003  139.3379  150.8933 H   0  0  0  0  0  0  0  0  0  0  0  0
  146.6989  139.9157  150.5266 H   0  0  0  0  0  0  0  0  0  0  0  0
  147.0022  141.1999  152.4323 H   0  0  0  0  0  0  0  0  0  0  0  0
  146.5710  139.7555  153.2996 H   0  0  0  0  0  0  0  0  0  0  0  0
  149.3442  139.6263  152.8021 H   0  0  0  0  0  0  0  0  0  0  0  0
  150.6989  139.9134  154.1722 H   0  0  0  0  0  0  0  0  0  0  0  0
  152.0503  139.1046  156.3918 H   0  0  0  0  0  0  0  0  0  0  0  0
  153.1132  140.0355  158.3761 H   0  0  0  0  0  0  0  0  0  0  0  0
  152.9913  144.5388  158.8532 H   0  0  0  0  0  0  0  0  0  0  0  0
  152.9733  144.2571  160.5937 H   0  0  0  0  0  0  0  0  0  0  0  0
  151.4605  144.2474  159.6940 H   0  0  0  0  0  0  0  0  0  0  0  0
  152.9046  140.9458  160.7635 H   0  0  0  0  0  0  0  0  0  0  0  0
  153.9398  142.3375  161.0731 H   0  0  0  0  0  0  0  0  0  0  0  0
  154.3046  141.2658  159.7248 H   0  0  0  0  0  0  0  0  0  0  0  0
  149.8681  142.8248  155.9780 H   0  0  0  0  0  0  0  0  0  0  0  0
  145.9353  138.3016  153.3525 H   0  0  0  0  0  0  0  0  0  0  0  0
  144.7957  138.4651  152.0326 H   0  0  0  0  0  0  0  0  0  0  0  0
  144.3887  136.3647  153.2861 H   0  0  0  0  0  0  0  0  0  0  0  0
  146.0492  135.8675  153.0656 H   0  0  0  0  0  0  0  0  0  0  0  0
  147.5334  137.4469  151.7950 H   0  0  0  0  0  0  0  0  0  0  0  0
  1  2  1  0  0  0  0
  1 23  1  0  0  0  0
  1 24  1  0  0  0  0
  1 25  1  0  0  0  0
  2 22  1  0  0  0  0
  2  3  1  0  0  0  0
  2 26  1  0  0  0  0
  3  4  1  0  0  0  0
  3 27  1  0  0  0  0
  3 28  1  0  0  0  0
  4  5  1  0  0  0  0
  4 29  1  0  0  0  0
  4 30  1  0  0  0  0
  5  6  1  0  0  0  0
  5 21  1  0  0  0  0
  5 50  1  0  0  0  0
  6  7  1  0  0  0  0
  6 31  1  0  0  0  0
  6 32  1  0  0  0  0
  7  8  1  0  0  0  0
  7 33  1  0  0  0  0
  7 34  1  0  0  0  0
  8  9  1  0  0  0  0
  8 35  1  0  0  0  0
  9 10  2  0  0  0  0
  9 11  1  0  0  0  0
 11 12  1  0  0  0  0
 11 36  1  0  0  0  0
 12 20  1  0  0  0  0
 12 13  2  0  0  0  0
 13 14  1  0  0  0  0
 13 37  1  0  0  0  0
 14 15  2  0  0  0  0
 14 38  1  0  0  0  0
 15 16  1  0  0  0  0
 15 19  1  0  0  0  0
 16 17  1  0  0  0  0
 16 18  1  0  0  0  0
 17 39  1  0  0  0  0
 17 40  1  0  0  0  0
 17 41  1  0  0  0  0
 18 42  1  0  0  0  0
 18 43  1  0  0  0  0
 18 44  1  0  0  0  0
 19 20  2  0  0  0  0
 20 45  1  0  0  0  0
 21 22  1  0  0  0  0
 21 46  1  0  0  0  0
 21 47  1  0  0  0  0
 22 48  1  0  0  0  0
 22 49  1  0  0  0  0
M  CHG  1   5   1
M  END
> <s_m_source_file>
AV-unprocessed.smi

> <i_m_source_file_index>
308

> <i_lp_mmshare_version>
43012

> <i_f3d_flags>
0

> <s_epik_input>
W0NIM11bQ0hdMVtDSDJdW0NIMl1OKFtDSDJdW0NIMl0xKVtDSDJdW0NIMl1bTkhdQyg9TylbTkhdYzJbY0hdW2NIXWMoTihbQ0gzXSlbQ0gzXSluW2NIXTI=

> <s_epik_cmdline>
J2VwaWtfcHl0aG9uJywgJy1waCcsICc3LjAnLCAnLXRuJywgJzgnLCAnLW1hJywgJzIwMCcsICctbWV0YWxfYmluZGluZycsICctaW1hZScsICc8aW5maWxlLm1hZT4nLCAnLW9tYWUnLCAnPG91dGZpbGUubWFlPic=

> <r_lp_tautomer_probability>
1

> <r_epik_Ionization_Penalty>
0.536661

> <r_epik_Ionization_Penalty_Charging>
0.00139388

> <r_epik_Ionization_Penalty_Neutral>
0.535267

> <r_epik_State_Penalty>
0.543381

> <r_epik_Charging_Adjusted_Penalty>
0.544775

> <i_epik_Tot_Q>
1

> <i_epik_Tot_abs_Q>
1

> <r_epik_Metal_State_Penalty>
0.284523

> <b_epik_Metal_Only>
0

> <s_lp_Force_Field>
OPLS_2005

> <r_lp_Energy>
27.2838

> <b_lp_Chiralities_Consistent>
1

> <s_lp_Variant>
AV-unprocessed.smi:308-3

> <Gold.Version>
5.8.1

> <Gold.Id.Protein>
6NUR|6NUR_protein|mol2

> <Gold.PLP.Fitness>
51.4232

> <Gold.PLP.PLP>
-42.8058

> <Gold.PLP.part.hbond>
-2.2547

> <Gold.PLP.part.metal>
0.0000

> <Gold.PLP.part.buried>
0.9094

> <Gold.PLP.part.nonpolar>
-42.0508

> <Gold.PLP.part.repulsive>
0.4951

> <Gold.PLP.ligand.clash>
0.0000

> <Gold.PLP.ligand.torsion>
0.7691

> <Gold.PLP.Chemscore.Hbond>
2.3520

> <Gold.PLP.Chemscore.CHOScore>
1.0000

> <Gold.PLP.Chemscore.Metal>
0.0000

> <Gold.Chemscore.Hbonds>
donor molecule, donor type, donor heavy atom, donor atom, acceptor molecule, acceptor atom, score
      L1  H     5    50       P1  7948  2.00
      L1  H     8    35       P1  7957  0.32
      L1  C    20    45       P1  8028  1.00

> <Gold.PLP.Chemscore.Internal.Correction>
0.0994

> <Gold.Rescore>
     Score         DG    S(hbond)    S(metal)    S(lipo)     H(rot)  DE(clash)    DE(int)     intcor
     15.24     -17.96       1.46        0.00      96.26       1.42       0.81       1.91       ----

> <Gold.Chemscore.Fitness>
15.2359

> <Gold.Chemscore.DG>
-17.9615

> <Gold.Chemscore.ZeroCoef>
-5.4800

> <Gold.Chemscore.Hbond>
1.4566

> <Gold.Chemscore.Metal>
0.0000

> <Gold.Chemscore.Lipo>
96.2555

> <Gold.Chemscore.Internal_Hbond>
0.0000

> <Gold.Chemscore.DEClash>
0.8121

> <Gold.Chemscore.DEInternal>
1.9134

> <Gold.Chemscore.Rot>
1.4241

> <Gold.Chemscore.Internal.Correction>
   9.000000E+99

> <Gold.Chemscore.Hbonds>
donor molecule, donor type, donor heavy atom, donor atom, acceptor molecule, acceptor atom, score
      L1  H     5    50       P1  7948  0.99
      L1  H     8    35       P1  7957  0.32

> <Gold.Chemscore.Hbond.Weighted>
-4.8652

> <Gold.Chemscore.Metal.Weighted>
-0.0000

> <Gold.Chemscore.Lipo.Weighted>
-11.2619

> <Gold.Chemscore.Internal_Hbond.Weighted>
0.0000

> <Gold.Chemscore.DEClash.Weighted>
0.8121

> <Gold.Chemscore.DEInternal.Weighted>
1.9134

> <Gold.Chemscore.Rot.Weighted>
3.6456

> <Gold.Chemscore.Internal.Correction.Weighted>
   9.000000E+99

> <Gold.Protein.RotatedTorsions>
[ 6907 6896 6895 6894 ] final  112.74 input  -60.11 | X-H torsion
[ 7974 7965 7964 7962 ] final   30.48 input  175.53 | X-H torsion
[ 8008 7997 7996 7995 ] final  -62.03 input   59.86 | X-H torsion
[ 10167 10162 10161 10158 ] final  -32.07 input  -65.29 | X-H torsion
[ 10718 10713 10712 10709 ] final  144.13 input   66.30 | X-H torsion
[ 10763 10752 10751 10750 ] final  -22.00 input  -60.55 | X-H torsion
[ 11005 11000 10999 10996 ] final   36.52 input  -57.11 | X-H torsion

> <Gold.Protein.ActiveResidues>
 VAL166  LYS551  ARG553  GLY616  TRP617  ASP618  TYR619  PRO620  LYS621  CYS622 
 ASP623  PHE694  ASN695  SER759  ASP760  ASP761  ALA762  ILE779  LEU786  VAL792 
 PHE793  MET794  SER795  GLU796  ALA797  LYS798  CYS799  TRP800  GLU811  SER814 

> <Gold.Protein.RotatedAtoms>
  152.4899  133.8473  159.7183 H   0  0  0  0  0  0  0  0  0  0  0  0  # atno 6907 bound_to 6896
  150.9020  133.7097  159.2883 H   0  0  0  0  0  0  0  0  0  0  0  0  # atno 6908 bound_to 6896
  151.4536  135.1036  159.9757 H   0  0  0  0  0  0  0  0  0  0  0  0  # atno 6909 bound_to 6896
  146.1609  139.6783  142.9034 H   0  0  0  0  0  0  0  0  0  0  0  0  # atno 7974 bound_to 7965
  154.4478  140.1005  156.6524 H   0  0  0  0  0  0  0  0  0  0  0  0  # atno 8008 bound_to 7997
  155.5383  140.3483  155.4423 H   0  0  0  0  0  0  0  0  0  0  0  0  # atno 8009 bound_to 7997
  156.0615  140.1327  156.9925 H   0  0  0  0  0  0  0  0  0  0  0  0  # atno 8010 bound_to 7997
  140.7227  143.3723  151.1755 H   0  0  0  0  0  0  0  0  0  0  0  0  # atno 10167 bound_to 10162
  157.3608  131.0965  151.0916 H   0  0  0  0  0  0  0  0  0  0  0  0  # atno 10718 bound_to 10713
  153.6450  135.6983  153.5228 H   0  0  0  0  0  0  0  0  0  0  0  0  # atno 10763 bound_to 10752
  153.2752  135.4202  155.1026 H   0  0  0  0  0  0  0  0  0  0  0  0  # atno 10764 bound_to 10752
  154.8490  135.3588  154.5994 H   0  0  0  0  0  0  0  0  0  0  0  0  # atno 10765 bound_to 10752
  140.2317  134.3519  155.7961 H   0  0  0  0  0  0  0  0  0  0  0  0  # atno 11005 bound_to 11000
  145.4590  141.0432  143.2762 LP  0  0  0  0  0  0  0  0  0  0  0  0  # atno 17320 bound_to 7965
  144.8026  139.6112  143.7065 LP  0  0  0  0  0  0  0  0  0  0  0  0  # atno 17321 bound_to 7965
  139.7296  143.9093  152.3015 LP  0  0  0  0  0  0  0  0  0  0  0  0  # atno 17342 bound_to 10162
  139.8878  144.6982  150.8805 LP  0  0  0  0  0  0  0  0  0  0  0  0  # atno 17343 bound_to 10162
  157.2057  130.6415  149.5755 LP  0  0  0  0  0  0  0  0  0  0  0  0  # atno 17370 bound_to 10713
  155.9737  130.4676  150.6331 LP  0  0  0  0  0  0  0  0  0  0  0  0  # atno 17371 bound_to 10713
  141.2217  133.7249  156.8743 LP  0  0  0  0  0  0  0  0  0  0  0  0  # atno 17394 bound_to 11000
  140.1743  134.9078  157.2872 LP  0  0  0  0  0  0  0  0  0  0  0  0  # atno 17395 bound_to 11000

$$$$
