AV-unprocessed.smi:157|AV-procd|sdf|1291|dock4
  -GOLD-   2262018573D 1   1.00000     0.00000
 Structure written by MMmdl.
 35 37  0  0  0  0  0  0  0  0  1 V2000
  154.1044  135.8075  157.3733 O   0  0  0  0  0  0  0  0  0  0  0  0
  154.4510  137.1684  157.2316 C   0  0  0  0  0  0  0  0  0  0  0  0
  153.7255  138.0187  158.2868 C   0  0  1  0  0  0  0  0  0  0  0  0
  153.5877  139.3692  157.8350 O   0  0  0  0  0  0  0  0  0  0  0  0
  152.2987  139.8500  158.0918 C   0  0  1  0  0  0  0  0  0  0  0  0
  151.5307  139.8883  156.7988 N   0  0  0  0  0  0  0  0  0  0  0  0
  151.9075  139.3838  155.6149 C   0  0  0  0  0  0  0  0  0  0  0  0
  151.0341  139.5556  154.6378 N   0  0  0  0  0  0  0  0  0  0  0  0
  149.9927  140.2586  155.2387 C   0  0  0  0  0  0  0  0  0  0  0  0
  150.2882  140.4907  156.5742 C   0  0  0  0  0  0  0  0  0  0  0  0
  149.6661  141.1201  157.6358 N   0  0  0  0  0  0  0  0  0  0  0  0
  148.7059  141.9504  157.3760 C   0  0  0  0  0  0  0  0  0  0  0  0
  148.1003  142.2714  156.1696 N   0  0  0  0  0  0  0  0  0  0  0  0
  147.6412  141.2761  155.2160 C   0  0  0  0  0  0  0  0  0  0  0  0
  148.7785  140.6136  154.4294 C   0  0  1  0  0  0  0  0  0  0  0  0
  149.2054  141.4855  153.4028 O   0  0  0  0  0  0  0  0  0  0  0  0
  151.6557  138.8518  159.0549 C   0  0  0  0  0  0  0  0  0  0  0  0
  152.3031  137.5536  158.6210 C   0  0  2  0  0  0  0  0  0  0  0  0
  152.2754  136.6068  159.6686 O   0  0  0  0  0  0  0  0  0  0  0  0
  154.3230  138.0679  159.1991 H   0  0  0  0  0  0  0  0  0  0  0  0
  152.3069  140.8823  158.4432 H   0  0  0  0  0  0  0  0  0  0  0  0
  148.3859  139.7206  153.9421 H   0  0  0  0  0  0  0  0  0  0  0  0
  151.8003  137.1555  157.7384 H   0  0  0  0  0  0  0  0  0  0  0  0
  153.5506  135.7158  158.1335 H   0  0  0  0  0  0  0  0  0  0  0  0
  155.5301  137.2593  157.3571 H   0  0  0  0  0  0  0  0  0  0  0  0
  154.2132  137.4989  156.2209 H   0  0  0  0  0  0  0  0  0  0  0  0
  152.8451  138.8742  155.4564 H   0  0  0  0  0  0  0  0  0  0  0  0
  148.2638  142.5057  158.2044 H   0  0  0  0  0  0  0  0  0  0  0  0
  147.5408  143.1105  156.1201 H   0  0  0  0  0  0  0  0  0  0  0  0
  147.1090  140.5084  155.7796 H   0  0  0  0  0  0  0  0  0  0  0  0
  146.9095  141.7194  154.5399 H   0  0  0  0  0  0  0  0  0  0  0  0
  149.0643  141.0557  152.5729 H   0  0  0  0  0  0  0  0  0  0  0  0
  151.9504  139.1189  160.0711 H   0  0  0  0  0  0  0  0  0  0  0  0
  150.5672  138.8472  158.9925 H   0  0  0  0  0  0  0  0  0  0  0  0
  152.7925  136.9418  160.3854 H   0  0  0  0  0  0  0  0  0  0  0  0
  1  2  1  0  0  0  0
  1 24  1  0  0  0  0
  2  3  1  0  0  0  0
  2 25  1  0  0  0  0
  2 26  1  0  0  0  0
  3 20  1  0  0  0  0
  3 18  1  0  0  0  0
  3  4  1  0  0  0  0
  4  5  1  0  0  0  0
  5 21  1  0  0  0  0
  5  6  1  0  0  0  0
  5 17  1  0  0  0  0
  6 10  1  0  0  0  0
  6  7  1  0  0  0  0
  7  8  2  0  0  0  0
  7 27  1  0  0  0  0
  8  9  1  0  0  0  0
  9 15  1  0  0  0  0
  9 10  2  0  0  0  0
 10 11  1  0  0  0  0
 11 12  2  0  0  0  0
 12 13  1  0  0  0  0
 12 28  1  0  0  0  0
 13 14  1  0  0  0  0
 13 29  1  0  0  0  0
 14 15  1  0  0  0  0
 14 30  1  0  0  0  0
 14 31  1  0  0  0  0
 15 22  1  0  0  0  0
 15 16  1  0  0  0  0
 16 32  1  0  0  0  0
 17 18  1  0  0  0  0
 17 33  1  0  0  0  0
 17 34  1  0  0  0  0
 18 23  1  0  0  0  0
 18 19  1  0  0  0  0
 19 35  1  0  0  0  0
M  END
> <s_m_source_file>
AV-unprocessed.smi

> <i_m_source_file_index>
157

> <i_lp_mmshare_version>
43012

> <i_f3d_flags>
0

> <s_epik_input>
W09IXVtDSDJdW0NASF0xT1tDQEhdKFtDSDJdW0NAQEhdMVtPSF0pbihbY0hdbjIpYyhjMjMpTj1bQ0hdW05IXVtDSDJdW0NASF0zW09IXQ==

> <s_epik_cmdline>
J2VwaWtfcHl0aG9uJywgJy1waCcsICc3LjAnLCAnLXRuJywgJzgnLCAnLW1hJywgJzIwMCcsICctbWV0YWxfYmluZGluZycsICctaW1hZScsICc8aW5maWxlLm1hZT4nLCAnLW9tYWUnLCAnPG91dGZpbGUubWFlPic=

> <r_lp_tautomer_probability>
1

> <r_epik_Ionization_Penalty>
0.0357149

> <r_epik_Ionization_Penalty_Charging>
0.0355056

> <r_epik_Ionization_Penalty_Neutral>
0.000209255

> <r_epik_State_Penalty>
0.0296046

> <r_epik_Charging_Adjusted_Penalty>
0.0651102

> <i_epik_Tot_Q>
0

> <i_epik_Tot_abs_Q>
0

> <r_epik_Metal_State_Penalty>
3.03559e-05

> <b_epik_Metal_Only>
0

> <s_epik_Chemistry_Notes>
This compound has an imine and may undergo hydrolysis. This compound contains an acetal/aminal-like group ( X-CH(R)-Y where X, Y are N, S, or O) that may be acid/base labile, releasing an aldehyde.

> <s_lp_Force_Field>
OPLS_2005

> <r_lp_Energy>
41.3094

> <b_lp_Chiralities_Consistent>
1

> <s_lp_Variant>
AV-unprocessed.smi:157-1

> <Gold.Version>
5.8.1

> <Gold.Id.Protein>
6NUR|6NUR_protein|mol2

> <Gold.PLP.Fitness>
40.7360

> <Gold.PLP.PLP>
-26.6941

> <Gold.PLP.part.hbond>
-7.3188

> <Gold.PLP.part.metal>
0.0000

> <Gold.PLP.part.buried>
-3.1765

> <Gold.PLP.part.nonpolar>
-16.7869

> <Gold.PLP.part.repulsive>
0.1660

> <Gold.PLP.ligand.clash>
0.0000

> <Gold.PLP.ligand.torsion>
0.5169

> <Gold.PLP.Chemscore.Hbond>
5.0183

> <Gold.PLP.Chemscore.CHOScore>
0.0000

> <Gold.PLP.Chemscore.Metal>
0.0000

> <Gold.Chemscore.Hbonds>
donor molecule, donor type, donor heavy atom, donor atom, acceptor molecule, acceptor atom, score
      L1  H    13    29       P1  8028  0.09
      L1  H    16    32       P1  7957  1.00
      P1  H  6896  6907       L1    19  1.00
      P1  H  7989  7998       L1     8  0.95
      P1  H  7997  8010       L1     4  0.98
      P1  H 10752 10763       L1     1  0.72

> <Gold.PLP.Chemscore.Internal.Correction>
0.0209

> <Gold.Rescore>
     Score         DG    S(hbond)    S(metal)    S(lipo)     H(rot)  DE(clash)    DE(int)     intcor
     13.32     -13.72       4.08        0.00      33.42       3.64       0.00       0.39       ----

> <Gold.Chemscore.Fitness>
13.3227

> <Gold.Chemscore.DG>
-13.7157

> <Gold.Chemscore.ZeroCoef>
-5.4800

> <Gold.Chemscore.Hbond>
4.0820

> <Gold.Chemscore.Metal>
0.0000

> <Gold.Chemscore.Lipo>
33.4240

> <Gold.Chemscore.Internal_Hbond>
0.0000

> <Gold.Chemscore.DEClash>
0.0000

> <Gold.Chemscore.DEInternal>
0.3930

> <Gold.Chemscore.Rot>
3.6362

> <Gold.Chemscore.Internal.Correction>
   9.000000E+99

> <Gold.Chemscore.Hbonds>
donor molecule, donor type, donor heavy atom, donor atom, acceptor molecule, acceptor atom, score
      L1  H    13    29       P1  8028  0.01
      L1  H    16    32       P1  7957  0.97
      P1  H  6896  6907       L1    19  0.80
      P1  H  7989  7998       L1     8  0.16
      P1  H  7997  8010       L1     4  0.83
      P1  H 10752 10763       L1     1  0.12

> <Gold.Chemscore.Hbond.Weighted>
-13.6338

> <Gold.Chemscore.Metal.Weighted>
-0.0000

> <Gold.Chemscore.Lipo.Weighted>
-3.9106

> <Gold.Chemscore.Internal_Hbond.Weighted>
0.0000

> <Gold.Chemscore.DEClash.Weighted>
0.0000

> <Gold.Chemscore.DEInternal.Weighted>
0.3930

> <Gold.Chemscore.Rot.Weighted>
9.3087

> <Gold.Chemscore.Internal.Correction.Weighted>
   9.000000E+99

> <Gold.Protein.RotatedTorsions>
[ 6907 6896 6895 6894 ] final    4.49 input  -60.11 | X-H torsion
[ 7974 7965 7964 7962 ] final  -31.29 input  175.53 | X-H torsion
[ 8008 7997 7996 7995 ] final   55.74 input   59.86 | X-H torsion
[ 10167 10162 10161 10158 ] final  162.42 input  -65.29 | X-H torsion
[ 10718 10713 10712 10709 ] final  -48.27 input   66.30 | X-H torsion
[ 10763 10752 10751 10750 ] final  160.49 input  -60.55 | X-H torsion
[ 11005 11000 10999 10996 ] final  -49.36 input  -57.11 | X-H torsion

> <Gold.Protein.ActiveResidues>
 VAL166  LYS551  ARG553  GLY616  TRP617  ASP618  TYR619  PRO620  LYS621  CYS622 
 ASP623  PHE694  ASN695  SER759  ASP760  ASP761  ALA762  ILE779  LEU786  VAL792 
 PHE793  MET794  SER795  GLU796  ALA797  LYS798  CYS799  TRP800  GLU811  SER814 

> <Gold.Protein.RotatedAtoms>
  151.6421  135.1011  160.0143 H   0  0  0  0  0  0  0  0  0  0  0  0  # atno 6907 bound_to 6896
  152.4048  133.6868  159.6355 H   0  0  0  0  0  0  0  0  0  0  0  0  # atno 6908 bound_to 6896
  150.7944  133.8645  159.3282 H   0  0  0  0  0  0  0  0  0  0  0  0  # atno 6909 bound_to 6896
  146.1078  140.5648  142.8791 H   0  0  0  0  0  0  0  0  0  0  0  0  # atno 7974 bound_to 7965
  155.5060  140.3476  155.4379 H   0  0  0  0  0  0  0  0  0  0  0  0  # atno 8008 bound_to 7997
  156.0882  140.1404  156.9654 H   0  0  0  0  0  0  0  0  0  0  0  0  # atno 8009 bound_to 7997
  154.4619  140.0932  156.6892 H   0  0  0  0  0  0  0  0  0  0  0  0  # atno 8010 bound_to 7997
  139.4860  144.4439  151.8916 H   0  0  0  0  0  0  0  0  0  0  0  0  # atno 10167 bound_to 10162
  156.2004  130.4156  149.9249 H   0  0  0  0  0  0  0  0  0  0  0  0  # atno 10718 bound_to 10713
  154.2483  135.2772  155.2827 H   0  0  0  0  0  0  0  0  0  0  0  0  # atno 10763 bound_to 10752
  154.5487  135.5681  153.6906 H   0  0  0  0  0  0  0  0  0  0  0  0  # atno 10764 bound_to 10752
  152.9985  135.6269  154.2629 H   0  0  0  0  0  0  0  0  0  0  0  0  # atno 10765 bound_to 10752
  141.0754  133.6667  156.3574 H   0  0  0  0  0  0  0  0  0  0  0  0  # atno 11005 bound_to 11000
  144.7486  140.5132  143.6818 LP  0  0  0  0  0  0  0  0  0  0  0  0  # atno 17320 bound_to 7965
  145.5724  139.1484  143.3281 LP  0  0  0  0  0  0  0  0  0  0  0  0  # atno 17321 bound_to 7965
  140.3892  144.2637  150.5901 LP  0  0  0  0  0  0  0  0  0  0  0  0  # atno 17342 bound_to 10162
  140.5161  143.2277  151.8460 LP  0  0  0  0  0  0  0  0  0  0  0  0  # atno 17343 bound_to 10162
  156.6960  130.8914  151.3594 LP  0  0  0  0  0  0  0  0  0  0  0  0  # atno 17370 bound_to 10713
  157.6982  130.9305  150.0707 LP  0  0  0  0  0  0  0  0  0  0  0  0  # atno 17371 bound_to 10713
  140.5583  134.5959  157.5427 LP  0  0  0  0  0  0  0  0  0  0  0  0  # atno 17394 bound_to 11000
  139.9567  134.7523  156.0326 LP  0  0  0  0  0  0  0  0  0  0  0  0  # atno 17395 bound_to 11000

$$$$
