AV-unprocessed.smi:341|AV-procd|sdf|2383|dock7
  -GOLD-   2262022313D 1   1.00000     0.00000
 Structure written by MMmdl.
 44 46  0  0  0  0  0  0  0  0  1 V2000
  151.7119  144.1778  157.6842 C   0  0  0  0  0  0  0  0  0  0  0  0
  151.2313  142.7446  157.9450 C   0  0  0  0  0  0  0  0  0  0  0  0
  152.1371  142.0399  158.8488 N   0  0  0  0  0  0  0  0  0  0  0  0
  152.7938  140.8836  158.5941 C   0  0  0  0  0  0  0  0  0  0  0  0
  152.7482  140.2414  157.5451 O   0  0  0  0  0  0  0  0  0  0  0  0
  153.5084  140.5542  159.6962 N   0  0  0  0  0  0  0  0  0  0  0  0
  154.3683  139.3822  159.8580 C   0  0  0  0  0  0  0  0  0  0  0  0
  153.5498  138.0763  159.9162 C   0  0  1  0  0  0  0  0  0  0  0  0
  153.1141  137.7803  158.6040 O   0  0  0  0  0  0  0  0  0  0  0  0
  154.4018  136.8876  160.3923 C   0  0  0  0  0  0  0  0  0  0  0  0
  153.9875  136.5227  161.7024 O   0  0  0  0  0  0  0  0  0  0  0  0
  154.4980  137.2288  162.7704 C   0  0  0  0  0  0  0  0  0  0  0  0
  154.2023  136.7399  164.0596 C   0  0  0  0  0  0  0  0  0  0  0  0
  154.6815  137.3972  165.2090 C   0  0  0  0  0  0  0  0  0  0  0  0
  155.4671  138.5592  165.0801 C   0  0  0  0  0  0  0  0  0  0  0  0
  155.9633  139.2402  166.2642 C   0  0  0  0  0  0  0  0  0  0  0  0
  156.3585  139.7824  167.2068 N   0  0  0  0  0  0  0  0  0  0  0  0
  155.7699  139.0579  163.7978 C   0  0  0  0  0  0  0  0  0  0  0  0
  155.2895  138.3990  162.6491 C   0  0  0  0  0  0  0  0  0  0  0  0
  153.3003  141.5262  160.6855 C   0  0  0  0  0  0  0  0  0  0  0  0
  153.8086  141.6426  161.9912 C   0  0  0  0  0  0  0  0  0  0  0  0
  153.3947  142.7627  162.7493 C   0  0  0  0  0  0  0  0  0  0  0  0
  152.5023  143.7211  162.2024 C   0  0  0  0  0  0  0  0  0  0  0  0
  152.0063  143.5804  160.8851 C   0  0  0  0  0  0  0  0  0  0  0  0
  152.4358  142.4597  160.1529 C   0  0  0  0  0  0  0  0  0  0  0  0
  151.0312  144.6988  157.0110 H   0  0  0  0  0  0  0  0  0  0  0  0
  152.7017  144.1847  157.2264 H   0  0  0  0  0  0  0  0  0  0  0  0
  151.7664  144.7508  158.6104 H   0  0  0  0  0  0  0  0  0  0  0  0
  150.2251  142.7626  158.3664 H   0  0  0  0  0  0  0  0  0  0  0  0
  151.1546  142.1987  157.0043 H   0  0  0  0  0  0  0  0  0  0  0  0
  155.1238  139.3394  159.0726 H   0  0  0  0  0  0  0  0  0  0  0  0
  154.9237  139.5093  160.7886 H   0  0  0  0  0  0  0  0  0  0  0  0
  152.6913  138.1984  160.5783 H   0  0  0  0  0  0  0  0  0  0  0  0
  153.6486  138.2653  157.9941 H   0  0  0  0  0  0  0  0  0  0  0  0
  154.3250  136.0511  159.6950 H   0  0  0  0  0  0  0  0  0  0  0  0
  155.4499  137.1870  160.4395 H   0  0  0  0  0  0  0  0  0  0  0  0
  153.6008  135.8493  164.1686 H   0  0  0  0  0  0  0  0  0  0  0  0
  154.4424  137.0039  166.1868 H   0  0  0  0  0  0  0  0  0  0  0  0
  156.3721  139.9485  163.6870 H   0  0  0  0  0  0  0  0  0  0  0  0
  155.5430  138.8126  161.6850 H   0  0  0  0  0  0  0  0  0  0  0  0
  154.4875  140.9109  162.4035 H   0  0  0  0  0  0  0  0  0  0  0  0
  153.7619  142.8892  163.7569 H   0  0  0  0  0  0  0  0  0  0  0  0
  152.1979  144.5683  162.7988 H   0  0  0  0  0  0  0  0  0  0  0  0
  151.3263  144.3060  160.4643 H   0  0  0  0  0  0  0  0  0  0  0  0
  1  2  1  0  0  0  0
  1 26  1  0  0  0  0
  1 27  1  0  0  0  0
  1 28  1  0  0  0  0
  2  3  1  0  0  0  0
  2 29  1  0  0  0  0
  2 30  1  0  0  0  0
  3 25  1  0  0  0  0
  3  4  1  0  0  0  0
  4  5  2  0  0  0  0
  4  6  1  0  0  0  0
  6  7  1  0  0  0  0
  6 20  1  0  0  0  0
  7  8  1  0  0  0  0
  7 31  1  0  0  0  0
  7 32  1  0  0  0  0
  8  9  1  0  0  0  0
  8 10  1  0  0  0  0
  8 33  1  0  0  0  0
  9 34  1  0  0  0  0
 10 11  1  0  0  0  0
 10 35  1  0  0  0  0
 10 36  1  0  0  0  0
 11 12  1  0  0  0  0
 12 19  1  0  0  0  0
 12 13  2  0  0  0  0
 13 14  1  0  0  0  0
 13 37  1  0  0  0  0
 14 15  2  0  0  0  0
 14 38  1  0  0  0  0
 15 16  1  0  0  0  0
 15 18  1  0  0  0  0
 16 17  3  0  0  0  0
 18 19  2  0  0  0  0
 18 39  1  0  0  0  0
 19 40  1  0  0  0  0
 20 25  2  0  0  0  0
 20 21  1  0  0  0  0
 21 22  2  0  0  0  0
 21 41  1  0  0  0  0
 22 23  1  0  0  0  0
 22 42  1  0  0  0  0
 23 24  2  0  0  0  0
 23 43  1  0  0  0  0
 24 25  1  0  0  0  0
 24 44  1  0  0  0  0
M  END
> <s_m_source_file>
AV-unprocessed.smi

> <i_m_source_file_index>
341

> <i_lp_mmshare_version>
43012

> <i_f3d_flags>
0

> <s_epik_input>
W2NIXTFbY0hdW2NIXVtjSF1jKGMxMiluKFtDSDJdW0NIM10pYyg9TyluMltDSDJdW0NASF0oW09IXSlbQ0gyXU9jM1tjSF1bY0hdYyhDI04pW2NIXVtjSF0z

> <s_epik_cmdline>
J2VwaWtfcHl0aG9uJywgJy1waCcsICc3LjAnLCAnLXRuJywgJzgnLCAnLW1hJywgJzIwMCcsICctbWV0YWxfYmluZGluZycsICctaW1hZScsICc8aW5maWxlLm1hZT4nLCAnLW9tYWUnLCAnPG91dGZpbGUubWFlPic=

> <r_lp_tautomer_probability>
1

> <r_epik_Ionization_Penalty>
2.40146e-06

> <r_epik_Ionization_Penalty_Charging>
2.16099e-09

> <r_epik_Ionization_Penalty_Neutral>
2.3993e-06

> <r_epik_State_Penalty>
-0

> <r_epik_Charging_Adjusted_Penalty>
2.16099e-09

> <i_epik_Tot_Q>
0

> <i_epik_Tot_abs_Q>
0

> <r_epik_Metal_State_Penalty>
-0

> <b_epik_Metal_Only>
0

> <s_lp_Force_Field>
OPLS_2005

> <r_lp_Energy>
47.9836

> <b_lp_Chiralities_Consistent>
1

> <s_lp_Variant>
AV-unprocessed.smi:341-2

> <Gold.Version>
5.8.1

> <Gold.Id.Protein>
6NUR|6NUR_protein|mol2

> <Gold.PLP.Fitness>
56.9614

> <Gold.PLP.PLP>
-55.9563

> <Gold.PLP.part.hbond>
-1.0508

> <Gold.PLP.part.metal>
0.0000

> <Gold.PLP.part.buried>
-2.6150

> <Gold.PLP.part.nonpolar>
-50.6414

> <Gold.PLP.part.repulsive>
0.0576

> <Gold.PLP.ligand.clash>
0.0000

> <Gold.PLP.ligand.torsion>
1.0310

> <Gold.PLP.Chemscore.Hbond>
0.9920

> <Gold.PLP.Chemscore.CHOScore>
0.0000

> <Gold.PLP.Chemscore.Metal>
0.0000

> <Gold.Chemscore.Hbonds>
donor molecule, donor type, donor heavy atom, donor atom, acceptor molecule, acceptor atom, score
      P1  H  7997  8009       L1     5  0.99

> <Gold.PLP.Chemscore.Internal.Correction>
0.0911

> <Gold.Rescore>
     Score         DG    S(hbond)    S(metal)    S(lipo)     H(rot)  DE(clash)    DE(int)     intcor
     17.96     -19.28       0.86        0.00     147.64       2.48       0.27       1.04       ----

> <Gold.Chemscore.Fitness>
17.9628

> <Gold.Chemscore.DG>
-19.2795

> <Gold.Chemscore.ZeroCoef>
-5.4800

> <Gold.Chemscore.Hbond>
0.8581

> <Gold.Chemscore.Metal>
0.0000

> <Gold.Chemscore.Lipo>
147.6425

> <Gold.Chemscore.Internal_Hbond>
0.0000

> <Gold.Chemscore.DEClash>
0.2718

> <Gold.Chemscore.DEInternal>
1.0449

> <Gold.Chemscore.Rot>
2.4768

> <Gold.Chemscore.Internal.Correction>
   9.000000E+99

> <Gold.Chemscore.Hbonds>
donor molecule, donor type, donor heavy atom, donor atom, acceptor molecule, acceptor atom, score
      P1  H  7997  8009       L1     5  0.77

> <Gold.Chemscore.Hbond.Weighted>
-2.8660

> <Gold.Chemscore.Metal.Weighted>
-0.0000

> <Gold.Chemscore.Lipo.Weighted>
-17.2742

> <Gold.Chemscore.Internal_Hbond.Weighted>
0.0000

> <Gold.Chemscore.DEClash.Weighted>
0.2718

> <Gold.Chemscore.DEInternal.Weighted>
1.0449

> <Gold.Chemscore.Rot.Weighted>
6.3407

> <Gold.Chemscore.Internal.Correction.Weighted>
   9.000000E+99

> <Gold.Protein.RotatedTorsions>
[ 6907 6896 6895 6894 ] final   67.06 input  -60.11 | X-H torsion
[ 7974 7965 7964 7962 ] final   53.44 input  175.53 | X-H torsion
[ 8008 7997 7996 7995 ] final  173.68 input   59.86 | X-H torsion
[ 10167 10162 10161 10158 ] final   49.75 input  -65.29 | X-H torsion
[ 10718 10713 10712 10709 ] final  -96.55 input   66.30 | X-H torsion
[ 10763 10752 10751 10750 ] final  -97.00 input  -60.55 | X-H torsion
[ 11005 11000 10999 10996 ] final -111.79 input  -57.11 | X-H torsion

> <Gold.Protein.ActiveResidues>
 VAL166  LYS551  ARG553  GLY616  TRP617  ASP618  TYR619  PRO620  LYS621  CYS622 
 ASP623  PHE694  ASN695  SER759  ASP760  ASP761  ALA762  ILE779  LEU786  VAL792 
 PHE793  MET794  SER795  GLU796  ALA797  LYS798  CYS799  TRP800  GLU811  SER814 

> <Gold.Protein.RotatedAtoms>
  152.4525  134.5363  159.9825 H   0  0  0  0  0  0  0  0  0  0  0  0  # atno 6907 bound_to 6896
  151.5432  133.3423  159.2947 H   0  0  0  0  0  0  0  0  0  0  0  0  # atno 6908 bound_to 6896
  150.8458  134.7798  159.7032 H   0  0  0  0  0  0  0  0  0  0  0  0  # atno 6909 bound_to 6896
  145.9711  139.4150  143.0189 H   0  0  0  0  0  0  0  0  0  0  0  0  # atno 7974 bound_to 7965
  156.1051  140.1454  156.9415 H   0  0  0  0  0  0  0  0  0  0  0  0  # atno 8008 bound_to 7997
  154.4728  140.0904  156.7232 H   0  0  0  0  0  0  0  0  0  0  0  0  # atno 8009 bound_to 7997
  155.4694  140.3441  155.4326 H   0  0  0  0  0  0  0  0  0  0  0  0  # atno 8010 bound_to 7997
  140.2796  144.3171  150.6268 H   0  0  0  0  0  0  0  0  0  0  0  0  # atno 10167 bound_to 10162
  156.0064  130.5156  150.6243 H   0  0  0  0  0  0  0  0  0  0  0  0  # atno 10718 bound_to 10713
  154.7289  135.5063  153.8932 H   0  0  0  0  0  0  0  0  0  0  0  0  # atno 10763 bound_to 10752
  153.0931  135.6665  153.9824 H   0  0  0  0  0  0  0  0  0  0  0  0  # atno 10764 bound_to 10752
  153.9630  135.3046  155.3411 H   0  0  0  0  0  0  0  0  0  0  0  0  # atno 10765 bound_to 10752
  141.0714  133.9374  157.2478 H   0  0  0  0  0  0  0  0  0  0  0  0  # atno 11005 bound_to 11000
  145.7904  140.9817  143.1052 LP  0  0  0  0  0  0  0  0  0  0  0  0  # atno 17320 bound_to 7965
  144.6837  139.9676  143.7481 LP  0  0  0  0  0  0  0  0  0  0  0  0  # atno 17321 bound_to 7965
  140.5822  143.2172  151.7407 LP  0  0  0  0  0  0  0  0  0  0  0  0  # atno 17342 bound_to 10162
  139.4966  144.4063  152.0128 LP  0  0  0  0  0  0  0  0  0  0  0  0  # atno 17343 bound_to 10162
  157.4052  131.0816  151.1271 LP  0  0  0  0  0  0  0  0  0  0  0  0  # atno 17370 bound_to 10713
  157.1920  130.6356  149.5708 LP  0  0  0  0  0  0  0  0  0  0  0  0  # atno 17371 bound_to 10713
  139.9527  135.0172  156.9040 LP  0  0  0  0  0  0  0  0  0  0  0  0  # atno 17394 bound_to 11000
  140.5666  134.0484  155.7416 LP  0  0  0  0  0  0  0  0  0  0  0  0  # atno 17395 bound_to 11000

$$$$
