AV-unprocessed.smi:2671|AV-procd|sdf|10351|dock4
  -GOLD-   2272014373D 1   1.00000     0.00000
 Structure written by MMmdl.
 29 30  0  0  0  0  0  0  0  0  1 V2000
  154.3966  140.0519  160.1610 O   0  0  0  0  0  0  0  0  0  0  0  0
  153.5579  140.6648  159.5040 C   0  0  0  0  0  0  0  0  0  0  0  0
  153.1136  142.0044  159.9078 C   0  0  0  0  0  0  0  0  0  0  0  0
  152.1919  142.6537  159.1684 C   0  0  0  0  0  0  0  0  0  0  0  0
  151.6797  144.0428  159.5140 C   0  0  0  0  0  0  0  0  0  0  0  0
  152.0707  144.9190  158.5894 F   0  0  0  0  0  0  0  0  0  0  0  0
  150.3476  144.0460  159.5513 F   0  0  0  0  0  0  0  0  0  0  0  0
  152.1321  144.4561  160.6996 F   0  0  0  0  0  0  0  0  0  0  0  0
  151.6659  142.0631  158.0309 N   0  0  0  0  0  0  0  0  0  0  0  0
  152.1020  140.7942  157.6703 C   0  0  0  0  0  0  0  0  0  0  0  0
  151.2582  140.2562  156.1540 S   0  0  0  0  0  0  0  0  0  0  0  0
  149.6096  140.9868  156.3733 C   0  0  0  0  0  0  0  0  0  0  0  0
  148.8779  141.1570  155.0351 C   0  0  1  0  0  0  0  0  0  0  0  0
  148.5133  139.8468  154.3347 C   0  0  0  0  0  0  0  0  0  0  0  0
  147.2755  140.2002  153.5226 C   0  0  0  0  0  0  0  0  0  0  0  0
  146.8664  141.5813  154.0411 C   0  0  0  0  0  0  0  0  0  0  0  0
  147.6089  141.7567  155.2388 O   0  0  0  0  0  0  0  0  0  0  0  0
  152.9877  140.1165  158.3435 N   0  0  0  0  0  0  0  0  0  0  0  0
  150.9788  142.5817  157.5024 H   0  0  0  0  0  0  0  0  0  0  0  0
  153.5252  142.4660  160.7938 H   0  0  0  0  0  0  0  0  0  0  0  0
  149.7238  141.9590  156.8533 H   0  0  0  0  0  0  0  0  0  0  0  0
  149.0236  140.3631  157.0493 H   0  0  0  0  0  0  0  0  0  0  0  0
  149.4584  141.7934  154.3643 H   0  0  0  0  0  0  0  0  0  0  0  0
  149.3274  139.4628  153.7193 H   0  0  0  0  0  0  0  0  0  0  0  0
  148.2594  139.0811  155.0691 H   0  0  0  0  0  0  0  0  0  0  0  0
  147.4872  140.2335  152.4535 H   0  0  0  0  0  0  0  0  0  0  0  0
  146.4874  139.4642  153.6862 H   0  0  0  0  0  0  0  0  0  0  0  0
  147.1492  142.3574  153.3285 H   0  0  0  0  0  0  0  0  0  0  0  0
  145.7947  141.6615  154.2242 H   0  0  0  0  0  0  0  0  0  0  0  0
  1  2  2  0  0  0  0
  2 18  1  0  0  0  0
  2  3  1  0  0  0  0
  3 20  1  0  0  0  0
  3  4  2  0  0  0  0
  4  5  1  0  0  0  0
  4  9  1  0  0  0  0
  5  6  1  0  0  0  0
  5  7  1  0  0  0  0
  5  8  1  0  0  0  0
  9 10  1  0  0  0  0
  9 19  1  0  0  0  0
 10 11  1  0  0  0  0
 10 18  2  0  0  0  0
 11 12  1  0  0  0  0
 12 13  1  0  0  0  0
 12 21  1  0  0  0  0
 12 22  1  0  0  0  0
 13 17  1  0  0  0  0
 13 14  1  0  0  0  0
 13 23  1  0  0  0  0
 14 15  1  0  0  0  0
 14 24  1  0  0  0  0
 14 25  1  0  0  0  0
 15 16  1  0  0  0  0
 15 26  1  0  0  0  0
 15 27  1  0  0  0  0
 16 17  1  0  0  0  0
 16 28  1  0  0  0  0
 16 29  1  0  0  0  0
M  END
> <s_m_source_file>
AV-unprocessed.smi

> <i_m_source_file_index>
2671

> <i_lp_mmshare_version>
43012

> <i_f3d_flags>
0

> <s_epik_input>
W09IXWMxW2NIXWMoQyhGKShGKUYpbmMobjEpU1tDSDJdW0NAQEhdMltDSDJdW0NIMl1bQ0gyXU8y

> <s_epik_cmdline>
J2VwaWtfcHl0aG9uJywgJy1waCcsICc3LjAnLCAnLXRuJywgJzgnLCAnLW1hJywgJzIwMCcsICctbWV0YWxfYmluZGluZycsICctaW1hZScsICc8aW5maWxlLm1hZT4nLCAnLW9tYWUnLCAnPG91dGZpbGUubWFlPic=

> <r_lp_tautomer_probability>
0.273662

> <r_epik_Ionization_Penalty>
1.33793

> <r_epik_Ionization_Penalty_Charging>
1.33793

> <r_epik_Ionization_Penalty_Neutral>
8.2996e-08

> <r_epik_State_Penalty>
1.59174

> <r_epik_Charging_Adjusted_Penalty>
2.92967

> <i_epik_Tot_Q>
0

> <i_epik_Tot_abs_Q>
0

> <r_epik_Metal_State_Penalty>
2.31522

> <b_epik_Metal_Only>
0

> <s_lp_Force_Field>
OPLS_2005

> <r_lp_Energy>
25.3569

> <b_lp_Chiralities_Consistent>
1

> <s_lp_Variant>
AV-unprocessed.smi:2671-6

> <Gold.Version>
5.8.1

> <Gold.Id.Protein>
6NUR|6NUR_protein|mol2

> <Gold.PLP.Fitness>
42.9966

> <Gold.PLP.PLP>
-41.2580

> <Gold.PLP.part.hbond>
-1.0000

> <Gold.PLP.part.metal>
0.0000

> <Gold.PLP.part.buried>
-4.4784

> <Gold.PLP.part.nonpolar>
-35.7156

> <Gold.PLP.part.repulsive>
1.1076

> <Gold.PLP.ligand.clash>
0.0000

> <Gold.PLP.ligand.torsion>
0.6259

> <Gold.PLP.Chemscore.Hbond>
0.9913

> <Gold.PLP.Chemscore.CHOScore>
0.0000

> <Gold.PLP.Chemscore.Metal>
0.0000

> <Gold.Chemscore.Hbonds>
donor molecule, donor type, donor heavy atom, donor atom, acceptor molecule, acceptor atom, score
      P1  H  7997  8008       L1    18  0.89

> <Gold.PLP.Chemscore.Internal.Correction>
0.0167

> <Gold.Rescore>
     Score         DG    S(hbond)    S(metal)    S(lipo)     H(rot)  DE(clash)    DE(int)     intcor
     10.08     -10.69       0.39        0.00      70.47       1.69       0.08       0.53       ----

> <Gold.Chemscore.Fitness>
10.0795

> <Gold.Chemscore.DG>
-10.6869

> <Gold.Chemscore.ZeroCoef>
-5.4800

> <Gold.Chemscore.Hbond>
0.3875

> <Gold.Chemscore.Metal>
0.0000

> <Gold.Chemscore.Lipo>
70.4708

> <Gold.Chemscore.Internal_Hbond>
0.0000

> <Gold.Chemscore.DEClash>
0.0785

> <Gold.Chemscore.DEInternal>
0.5289

> <Gold.Chemscore.Rot>
1.6924

> <Gold.Chemscore.Internal.Correction>
   9.000000E+99

> <Gold.Chemscore.Hbonds>
donor molecule, donor type, donor heavy atom, donor atom, acceptor molecule, acceptor atom, score
      P1  H  7997  8008       L1    18  0.11

> <Gold.Chemscore.Hbond.Weighted>
-1.2942

> <Gold.Chemscore.Metal.Weighted>
-0.0000

> <Gold.Chemscore.Lipo.Weighted>
-8.2451

> <Gold.Chemscore.Internal_Hbond.Weighted>
0.0000

> <Gold.Chemscore.DEClash.Weighted>
0.0785

> <Gold.Chemscore.DEInternal.Weighted>
0.5289

> <Gold.Chemscore.Rot.Weighted>
4.3324

> <Gold.Chemscore.Internal.Correction.Weighted>
   9.000000E+99

> <Gold.Protein.RotatedTorsions>
[ 6907 6896 6895 6894 ] final  113.19 input  -60.11 | X-H torsion
[ 7974 7965 7964 7962 ] final  -46.80 input  175.53 | X-H torsion
[ 8008 7997 7996 7995 ] final  -85.25 input   59.86 | X-H torsion
[ 10167 10162 10161 10158 ] final  -30.00 input  -65.29 | X-H torsion
[ 10718 10713 10712 10709 ] final -120.35 input   66.30 | X-H torsion
[ 10763 10752 10751 10750 ] final   41.66 input  -60.55 | X-H torsion
[ 11005 11000 10999 10996 ] final   67.96 input  -57.11 | X-H torsion

> <Gold.Protein.ActiveResidues>
 VAL166  LYS551  ARG553  GLY616  TRP617  ASP618  TYR619  PRO620  LYS621  CYS622 
 ASP623  PHE694  ASN695  SER759  ASP760  ASP761  ALA762  ILE779  LEU786  VAL792 
 PHE793  MET794  SER795  GLU796  ALA797  LYS798  CYS799  TRP800  GLU811  SER814 

> <Gold.Protein.RotatedAtoms>
  152.4875  133.8411  159.7152 H   0  0  0  0  0  0  0  0  0  0  0  0  # atno 6907 bound_to 6896
  150.8974  133.7154  159.2895 H   0  0  0  0  0  0  0  0  0  0  0  0  # atno 6908 bound_to 6896
  151.4606  135.1042  159.9776 H   0  0  0  0  0  0  0  0  0  0  0  0  # atno 6909 bound_to 6896
  145.9681  140.7411  142.9424 H   0  0  0  0  0  0  0  0  0  0  0  0  # atno 7974 bound_to 7965
  154.6387  140.0594  156.9820 H   0  0  0  0  0  0  0  0  0  0  0  0  # atno 8008 bound_to 7997
  155.1551  140.3277  155.4404 H   0  0  0  0  0  0  0  0  0  0  0  0  # atno 8009 bound_to 7997
  156.2520  140.1940  156.6661 H   0  0  0  0  0  0  0  0  0  0  0  0  # atno 8010 bound_to 7997
  140.7254  143.3883  151.1475 H   0  0  0  0  0  0  0  0  0  0  0  0  # atno 10167 bound_to 10162
  156.1251  130.6353  150.9529 H   0  0  0  0  0  0  0  0  0  0  0  0  # atno 10718 bound_to 10713
  152.9902  135.6155  154.2824 H   0  0  0  0  0  0  0  0  0  0  0  0  # atno 10763 bound_to 10752
  154.2552  135.2784  155.2802 H   0  0  0  0  0  0  0  0  0  0  0  0  # atno 10764 bound_to 10752
  154.5253  135.5803  153.6771 H   0  0  0  0  0  0  0  0  0  0  0  0  # atno 10765 bound_to 10752
  139.9740  134.6854  156.0391 H   0  0  0  0  0  0  0  0  0  0  0  0  # atno 11005 bound_to 11000
  144.6830  140.2703  143.7306 LP  0  0  0  0  0  0  0  0  0  0  0  0  # atno 17320 bound_to 7965
  145.7944  139.1939  143.2084 LP  0  0  0  0  0  0  0  0  0  0  0  0  # atno 17321 bound_to 7965
  139.7484  143.8817  152.3070 LP  0  0  0  0  0  0  0  0  0  0  0  0  # atno 17342 bound_to 10162
  139.8662  144.7092  150.9041 LP  0  0  0  0  0  0  0  0  0  0  0  0  # atno 17343 bound_to 10162
  157.6433  131.0907  150.8206 LP  0  0  0  0  0  0  0  0  0  0  0  0  # atno 17370 bound_to 10713
  156.8297  130.5012  149.5333 LP  0  0  0  0  0  0  0  0  0  0  0  0  # atno 17371 bound_to 10713
  141.1418  133.6563  156.3751 LP  0  0  0  0  0  0  0  0  0  0  0  0  # atno 17394 bound_to 11000
  140.5234  134.6282  157.5326 LP  0  0  0  0  0  0  0  0  0  0  0  0  # atno 17395 bound_to 11000

$$$$
