AV-unprocessed.smi:244|AV-procd|sdf|1874|dock4
  -GOLD-   2262020513D 1   1.00000     0.00000
 Structure written by MMmdl.
 56 60  0  0  0  0  0  0  0  0  1 V2000
  154.8172  140.4762  159.8313 C   0  0  0  0  0  0  0  0  0  0  0  0
  153.4457  140.5621  160.3206 N   0  0  0  0  0  0  0  0  0  0  0  0
  153.1144  141.8784  160.8701 C   0  0  0  0  0  0  0  0  0  0  0  0
  152.9965  142.9633  159.7807 C   0  0  0  0  0  0  0  0  0  0  0  0
  151.9958  142.5653  158.6868 C   0  0  2  0  0  0  0  0  0  0  0  0
  150.6720  142.6009  159.2153 O   0  0  0  0  0  0  0  0  0  0  0  0
  149.6930  142.3129  158.2231 C   0  0  0  0  0  0  0  0  0  0  0  0
  149.9121  140.8939  157.6755 C   0  0  0  0  0  0  0  0  0  0  0  0
  151.2864  140.7434  157.1969 N   0  0  0  0  0  0  0  0  0  0  0  0
  151.5805  139.6564  156.4351 C   0  0  0  0  0  0  0  0  0  0  0  0
  152.5153  139.7562  155.4519 N   0  0  0  0  0  0  0  0  0  0  0  0
  152.8017  138.7045  154.6796 C   0  0  0  0  0  0  0  0  0  0  0  0
  152.2845  137.4758  154.7186 N   0  0  0  0  0  0  0  0  0  0  0  0
  151.3563  137.3618  155.7108 C   0  0  0  0  0  0  0  0  0  0  0  0
  150.9462  138.3918  156.6049 C   0  0  0  0  0  0  0  0  0  0  0  0
  149.9871  137.8971  157.4818 N   0  0  0  0  0  0  0  0  0  0  0  0
  149.8295  136.6544  157.1183 C   0  0  0  0  0  0  0  0  0  0  0  0
  150.6209  136.2455  156.0694 N   0  0  0  0  0  0  0  0  0  0  0  0
  150.6566  134.9196  155.4713 C   0  0  0  0  0  0  0  0  0  0  0  0
  149.3058  134.4654  154.8636 C   0  0  0  0  0  0  0  0  0  0  0  0
  148.6699  135.6084  154.3187 O   0  0  0  0  0  0  0  0  0  0  0  0
  149.4785  133.4227  153.7371 C   0  0  0  0  0  0  0  0  0  0  0  0
  148.1323  132.8261  153.2892 C   0  0  0  0  0  0  0  0  0  0  0  0
  147.4417  132.2797  154.4062 O   0  0  0  0  0  0  0  0  0  0  0  0
  147.1109  133.2608  155.3816 C   0  0  0  0  0  0  0  0  0  0  0  0
  148.3954  133.8788  155.9612 C   0  0  0  0  0  0  0  0  0  0  0  0
  152.3141  141.1506  158.1579 C   0  0  2  0  0  0  0  0  0  0  0  0
  152.4607  140.1389  159.3245 C   0  0  0  0  0  0  0  0  0  0  0  0
  155.5185  140.7253  160.6280 H   0  0  0  0  0  0  0  0  0  0  0  0
  155.0054  141.1479  158.9945 H   0  0  0  0  0  0  0  0  0  0  0  0
  155.0377  139.4600  159.5033 H   0  0  0  0  0  0  0  0  0  0  0  0
  152.1660  141.7977  161.4028 H   0  0  0  0  0  0  0  0  0  0  0  0
  153.8601  142.1648  161.6125 H   0  0  0  0  0  0  0  0  0  0  0  0
  152.6939  143.9089  160.2313 H   0  0  0  0  0  0  0  0  0  0  0  0
  153.9730  143.1459  159.3320 H   0  0  0  0  0  0  0  0  0  0  0  0
  152.0645  143.2896  157.8732 H   0  0  0  0  0  0  0  0  0  0  0  0
  148.7011  142.3955  158.6673 H   0  0  0  0  0  0  0  0  0  0  0  0
  149.7443  143.0507  157.4210 H   0  0  0  0  0  0  0  0  0  0  0  0
  149.7067  140.1570  158.4530 H   0  0  0  0  0  0  0  0  0  0  0  0
  149.2086  140.7081  156.8629 H   0  0  0  0  0  0  0  0  0  0  0  0
  153.5515  138.8720  153.9206 H   0  0  0  0  0  0  0  0  0  0  0  0
  149.1344  135.9936  157.6157 H   0  0  0  0  0  0  0  0  0  0  0  0
  151.4293  134.9219  154.7017 H   0  0  0  0  0  0  0  0  0  0  0  0
  150.9885  134.2097  156.2302 H   0  0  0  0  0  0  0  0  0  0  0  0
  148.8847  135.6636  153.4002 H   0  0  0  0  0  0  0  0  0  0  0  0
  149.9863  133.8590  152.8762 H   0  0  0  0  0  0  0  0  0  0  0  0
  150.1168  132.6127  154.0923 H   0  0  0  0  0  0  0  0  0  0  0  0
  147.5139  133.5785  152.7974 H   0  0  0  0  0  0  0  0  0  0  0  0
  148.3016  132.0334  152.5602 H   0  0  0  0  0  0  0  0  0  0  0  0
  146.4678  134.0257  154.9432 H   0  0  0  0  0  0  0  0  0  0  0  0
  146.5363  132.7850  156.1765 H   0  0  0  0  0  0  0  0  0  0  0  0
  148.9368  133.1006  156.5009 H   0  0  0  0  0  0  0  0  0  0  0  0
  148.1441  134.6421  156.6988 H   0  0  0  0  0  0  0  0  0  0  0  0
  153.2690  141.2165  157.6414 H   0  0  0  0  0  0  0  0  0  0  0  0
  152.7349  139.1534  158.9459 H   0  0  0  0  0  0  0  0  0  0  0  0
  151.5049  140.0158  159.8344 H   0  0  0  0  0  0  0  0  0  0  0  0
  1  2  1  0  0  0  0
  1 29  1  0  0  0  0
  1 30  1  0  0  0  0
  1 31  1  0  0  0  0
  2 28  1  0  0  0  0
  2  3  1  0  0  0  0
  3  4  1  0  0  0  0
  3 32  1  0  0  0  0
  3 33  1  0  0  0  0
  4  5  1  0  0  0  0
  4 34  1  0  0  0  0
  4 35  1  0  0  0  0
  5 27  1  0  0  0  0
  5  6  1  0  0  0  0
  5 36  1  0  0  0  0
  6  7  1  0  0  0  0
  7  8  1  0  0  0  0
  7 37  1  0  0  0  0
  7 38  1  0  0  0  0
  8  9  1  0  0  0  0
  8 39  1  0  0  0  0
  8 40  1  0  0  0  0
  9 10  1  0  0  0  0
  9 27  1  0  0  0  0
 10 15  1  0  0  0  0
 10 11  2  0  0  0  0
 11 12  1  0  0  0  0
 12 13  2  0  0  0  0
 12 41  1  0  0  0  0
 13 14  1  0  0  0  0
 14 18  1  0  0  0  0
 14 15  2  0  0  0  0
 15 16  1  0  0  0  0
 16 17  2  0  0  0  0
 17 18  1  0  0  0  0
 17 42  1  0  0  0  0
 18 19  1  0  0  0  0
 19 20  1  0  0  0  0
 19 43  1  0  0  0  0
 19 44  1  0  0  0  0
 20 26  1  0  0  0  0
 20 21  1  0  0  0  0
 20 22  1  0  0  0  0
 21 45  1  0  0  0  0
 22 23  1  0  0  0  0
 22 46  1  0  0  0  0
 22 47  1  0  0  0  0
 23 24  1  0  0  0  0
 23 48  1  0  0  0  0
 23 49  1  0  0  0  0
 24 25  1  0  0  0  0
 25 26  1  0  0  0  0
 25 50  1  0  0  0  0
 25 51  1  0  0  0  0
 26 52  1  0  0  0  0
 26 53  1  0  0  0  0
 27 28  1  0  0  0  0
 27 54  1  0  0  0  0
 28 55  1  0  0  0  0
 28 56  1  0  0  0  0
M  END
> <s_m_source_file>
AV-unprocessed.smi

> <i_m_source_file_index>
244

> <i_lp_mmshare_version>
43012

> <i_f3d_flags>
0

> <s_epik_input>
W0NIMl0xW0NIMl1OKFtDSDNdKVtDSDJdW0NAQEhdKFtDQEhdMTIpTihbQ0gyXVtDSDJdTzIpYyhuW2NIXW4zKWMoYzM0KW5bY0hdbjRbQ0gyXUM1KFtPSF0pW0NIMl1bQ0gyXU9bQ0gyXVtDSDJdNQ==

> <s_epik_cmdline>
J2VwaWtfcHl0aG9uJywgJy1waCcsICc3LjAnLCAnLXRuJywgJzgnLCAnLW1hJywgJzIwMCcsICctbWV0YWxfYmluZGluZycsICctaW1hZScsICc8aW5maWxlLm1hZT4nLCAnLW9tYWUnLCAnPG91dGZpbGUubWFlPic=

> <r_lp_tautomer_probability>
1

> <r_epik_Ionization_Penalty>
2.27765

> <r_epik_Ionization_Penalty_Charging>
0

> <r_epik_Ionization_Penalty_Neutral>
2.27765

> <r_epik_State_Penalty>
2.4114

> <r_epik_Charging_Adjusted_Penalty>
2.4114

> <i_epik_Tot_Q>
0

> <i_epik_Tot_abs_Q>
0

> <r_epik_Metal_State_Penalty>
2.39769

> <b_epik_Metal_Only>
0

> <s_lp_Force_Field>
OPLS_2005

> <r_lp_Energy>
43.9701

> <b_lp_Chiralities_Consistent>
1

> <s_lp_Variant>
AV-unprocessed.smi:244-11

> <Gold.Version>
5.8.1

> <Gold.Id.Protein>
6NUR|6NUR_protein|mol2

> <Gold.PLP.Fitness>
49.8812

> <Gold.PLP.PLP>
-43.4132

> <Gold.PLP.part.hbond>
-4.2435

> <Gold.PLP.part.metal>
0.0000

> <Gold.PLP.part.buried>
-8.2706

> <Gold.PLP.part.nonpolar>
-31.8528

> <Gold.PLP.part.repulsive>
0.1491

> <Gold.PLP.ligand.clash>
0.0000

> <Gold.PLP.ligand.torsion>
0.8926

> <Gold.PLP.Chemscore.Hbond>
2.6058

> <Gold.PLP.Chemscore.CHOScore>
0.0000

> <Gold.PLP.Chemscore.Metal>
0.0000

> <Gold.Chemscore.Hbonds>
donor molecule, donor type, donor heavy atom, donor atom, acceptor molecule, acceptor atom, score
      L1  H    21    45       P1  7948  1.00
      P1  H  7989  7998       L1    11  0.03
      P1  H  7997  8010       L1    11  1.00
      P1  H 10752 10764       L1    13  0.58

> <Gold.PLP.Chemscore.Internal.Correction>
0.4358

> <Gold.Rescore>
     Score         DG    S(hbond)    S(metal)    S(lipo)     H(rot)  DE(clash)    DE(int)     intcor
     17.87     -18.96       2.46        0.00      90.18       2.06       0.02       1.07       ----

> <Gold.Chemscore.Fitness>
17.8698

> <Gold.Chemscore.DG>
-18.9620

> <Gold.Chemscore.ZeroCoef>
-5.4800

> <Gold.Chemscore.Hbond>
2.4574

> <Gold.Chemscore.Metal>
0.0000

> <Gold.Chemscore.Lipo>
90.1775

> <Gold.Chemscore.Internal_Hbond>
0.0000

> <Gold.Chemscore.DEClash>
0.0217

> <Gold.Chemscore.DEInternal>
1.0705

> <Gold.Chemscore.Rot>
2.0611

> <Gold.Chemscore.Internal.Correction>
   9.000000E+99

> <Gold.Chemscore.Hbonds>
donor molecule, donor type, donor heavy atom, donor atom, acceptor molecule, acceptor atom, score
      L1  H    21    45       P1  7948  0.90
      P1  H  7997  8010       L1    11  0.20
      P1  H 10752 10764       L1    13  0.49

> <Gold.Chemscore.Hbond.Weighted>
-8.2078

> <Gold.Chemscore.Metal.Weighted>
-0.0000

> <Gold.Chemscore.Lipo.Weighted>
-10.5508

> <Gold.Chemscore.Internal_Hbond.Weighted>
0.0000

> <Gold.Chemscore.DEClash.Weighted>
0.0217

> <Gold.Chemscore.DEInternal.Weighted>
1.0705

> <Gold.Chemscore.Rot.Weighted>
5.2765

> <Gold.Chemscore.Internal.Correction.Weighted>
   9.000000E+99

> <Gold.Protein.RotatedTorsions>
[ 6907 6896 6895 6894 ] final   73.34 input  -60.11 | X-H torsion
[ 7974 7965 7964 7962 ] final  -80.44 input  175.53 | X-H torsion
[ 8008 7997 7996 7995 ] final   84.62 input   59.86 | X-H torsion
[ 10167 10162 10161 10158 ] final  123.44 input  -65.29 | X-H torsion
[ 10718 10713 10712 10709 ] final    7.71 input   66.30 | X-H torsion
[ 10763 10752 10751 10750 ] final  -94.42 input  -60.55 | X-H torsion
[ 11005 11000 10999 10996 ] final -155.45 input  -57.11 | X-H torsion

> <Gold.Protein.ActiveResidues>
 VAL166  LYS551  ARG553  GLY616  TRP617  ASP618  TYR619  PRO620  LYS621  CYS622 
 ASP623  PHE694  ASN695  SER759  ASP760  ASP761  ALA762  ILE779  LEU786  VAL792 
 PHE793  MET794  SER795  GLU796  ALA797  LYS798  CYS799  TRP800  GLU811  SER814 

> <Gold.Protein.RotatedAtoms>
  152.4917  134.4437  159.9551 H   0  0  0  0  0  0  0  0  0  0  0  0  # atno 6907 bound_to 6896
  151.4423  133.3634  159.2791 H   0  0  0  0  0  0  0  0  0  0  0  0  # atno 6908 bound_to 6896
  150.9079  134.8518  159.7465 H   0  0  0  0  0  0  0  0  0  0  0  0  # atno 6909 bound_to 6896
  145.5599  140.9484  143.1453 H   0  0  0  0  0  0  0  0  0  0  0  0  # atno 7974 bound_to 7965
  155.9394  140.3409  155.6315 H   0  0  0  0  0  0  0  0  0  0  0  0  # atno 8008 bound_to 7997
  155.7058  140.0766  157.2410 H   0  0  0  0  0  0  0  0  0  0  0  0  # atno 8009 bound_to 7997
  154.4100  140.1632  156.2229 H   0  0  0  0  0  0  0  0  0  0  0  0  # atno 8010 bound_to 7997
  139.5799  144.6981  151.3555 H   0  0  0  0  0  0  0  0  0  0  0  0  # atno 10167 bound_to 10162
  156.9409  130.5861  149.5652 H   0  0  0  0  0  0  0  0  0  0  0  0  # atno 10718 bound_to 10713
  154.7053  135.5158  153.8586 H   0  0  0  0  0  0  0  0  0  0  0  0  # atno 10763 bound_to 10752
  153.0736  135.6609  154.0203 H   0  0  0  0  0  0  0  0  0  0  0  0  # atno 10764 bound_to 10752
  154.0055  135.3007  155.3377 H   0  0  0  0  0  0  0  0  0  0  0  0  # atno 10765 bound_to 10752
  140.6864  134.4089  157.5223 H   0  0  0  0  0  0  0  0  0  0  0  0  # atno 11005 bound_to 11000
  144.7488  139.7248  143.7281 LP  0  0  0  0  0  0  0  0  0  0  0  0  # atno 17320 bound_to 7965
  146.1858  139.5073  142.9837 LP  0  0  0  0  0  0  0  0  0  0  0  0  # atno 17321 bound_to 7965
  140.7079  143.7468  150.7513 LP  0  0  0  0  0  0  0  0  0  0  0  0  # atno 17342 bound_to 10162
  140.0997  143.4799  152.2432 LP  0  0  0  0  0  0  0  0  0  0  0  0  # atno 17343 bound_to 10162
  156.0405  130.5488  150.8758 LP  0  0  0  0  0  0  0  0  0  0  0  0  # atno 17370 bound_to 10713
  157.5785  131.0946  150.9308 LP  0  0  0  0  0  0  0  0  0  0  0  0  # atno 17371 bound_to 10713
  139.8936  134.8726  156.2214 LP  0  0  0  0  0  0  0  0  0  0  0  0  # atno 17394 bound_to 11000
  141.0277  133.7006  156.1375 LP  0  0  0  0  0  0  0  0  0  0  0  0  # atno 17395 bound_to 11000

$$$$
