#       Name:                AV-unprocessed.smi:45
#       Creating user name   scv26
#       Creation time:       Thu Mar 26 16:29:33 2020


#       File generated by GOLD software.
#

@<TRIPOS>MOLECULE
AV-unprocessed.smi:45
    70    73     1
SMALL
NO_CHARGES


@<TRIPOS>ATOM
      1 ****        -8.3137   0.2691   1.6184 C.3            1 S1                 0.0000
      2 ****        -7.6945  -0.1021   0.3956 O.3            1 S1                 0.0000
      3 ****        -6.3297  -0.3045   0.3890 C.ar           1 S1                 0.0000
      4 ****        -5.5025  -0.1457   1.5300 C.ar           1 S1                 0.0000
      5 ****        -4.1149  -0.3717   1.4453 C.ar           1 S1                 0.0000
      6 ****        -3.5316  -0.7607   0.2234 C.ar           1 S1                 0.0000
      7 ****        -2.0387  -1.0043   0.1333 C.3            1 S1                 0.0000
      8 ****        -1.2542   0.2145   0.2613 N.pl3          1 S1                 0.0000
      9 ****         0.1466   0.1977   0.1579 C.ar           1 S1                 0.0000
     10 ****         0.8151   1.3733   0.3074 N.pl3          1 S1                 1.0000
     11 ****         2.1555   1.4199   0.2335 C.ar           1 S1                 0.0000
     12 ****         2.7891   2.6498   0.4052 N.pl3          1 S1                 0.0000
     13 ****         2.1795   3.7161   1.1924 C.3            1 S1                 0.0000
     14 ****         3.3373   4.4831   1.8290 C.3            1 S1                 0.0000
     15 ****         4.4658   4.2903   0.8246 C.3            1 S1                 0.0000
     16 ****         4.2322   2.8689   0.2916 C.3            1 S1                 0.0000
     17 ****         4.7667   2.6800  -1.1439 C.3            1 S1                 0.0000
     18 ****         6.1708   2.8243  -1.1586 O.3            1 S1                 0.0000
     19 ****         2.8930   0.3248   0.0142 N.ar           1 S1                 0.0000
     20 ****         2.2799  -0.8637  -0.1409 C.ar           1 S1                 0.0000
     21 ****         0.8784  -0.9953  -0.0753 C.ar           1 S1                 0.0000
     22 ****         0.2225  -2.3352  -0.2882 C.2            1 S1                 0.0000
     23 ****        -0.7485  -2.4012  -1.0499 O.2            1 S1                 0.0000
     24 ****         0.8248  -3.3123   0.4449 N.pl3          1 S1                -1.0000
     25 ****         0.4601  -4.7282   0.3800 C.3            1 S1                 0.0000
     26 ****         1.1795  -5.4506  -0.7529 C.ar           1 S1                 0.0000
     27 ****         0.5124  -5.5890  -1.9053 N.ar           1 S1                 0.0000
     28 ****         1.1590  -6.2051  -2.9184 C.ar           1 S1                 0.0000
     29 ****         2.4765  -6.6851  -2.7753 C.ar           1 S1                 0.0000
     30 ****         3.0788  -6.4846  -1.5170 C.ar           1 S1                 0.0000
     31 ****         2.4284  -5.8665  -0.5074 N.ar           1 S1                 0.0000
     32 ****        -4.3462  -0.9183  -0.9147 C.ar           1 S1                 0.0000
     33 ****        -5.7341  -0.6916  -0.8323 C.ar           1 S1                 0.0000
     34 ****        -6.7047  -0.8949  -2.2468 Cl             1 S1                 0.0000
     35 ****         4.7214   2.1576   0.9591 H              1 S1                 0.0000
     36 ****        -9.3859   0.3809   1.4573 H              1 S1                 0.0000
     37 ****        -7.9345   1.2239   1.9845 H              1 S1                 0.0000
     38 ****        -8.1738  -0.4948   2.3845 H              1 S1                 0.0000
     39 ****        -5.9085   0.1503   2.4853 H              1 S1                 0.0000
     40 ****        -3.4979  -0.2449   2.3229 H              1 S1                 0.0000
     41 ****        -1.7524  -1.7002   0.9230 H              1 S1                 0.0000
     42 ****        -1.8063  -1.4851  -0.8178 H              1 S1                 0.0000
     43 ****        -1.7358   1.0970   0.3667 H              1 S1                 0.0000
     44 ****         1.6109   4.3621   0.5225 H              1 S1                 0.0000
     45 ****         1.4991   3.3339   1.9545 H              1 S1                 0.0000
     46 ****         3.1028   5.5316   2.0146 H              1 S1                 0.0000
     47 ****         3.6087   4.0229   2.7802 H              1 S1                 0.0000
     48 ****         4.3620   5.0219   0.0217 H              1 S1                 0.0000
     49 ****         5.4542   4.4181   1.2672 H              1 S1                 0.0000
     50 ****         4.5311   1.6918  -1.5365 H              1 S1                 0.0000
     51 ****         4.3221   3.4071  -1.8246 H              1 S1                 0.0000
     52 ****         6.4787   2.6860  -2.0415 H              1 S1                 0.0000
     53 ****         2.9216  -1.7124  -0.3294 H              1 S1                 0.0000
     54 ****         0.7075  -5.2348   1.3138 H              1 S1                 0.0000
     55 ****        -0.6159  -4.8724   0.2656 H              1 S1                 0.0000
     56 ****         0.6223  -6.3154  -3.8489 H              1 S1                 0.0000
     57 ****         2.9953  -7.1780  -3.5838 H              1 S1                 0.0000
     58 ****         4.0858  -6.8214  -1.3196 H              1 S1                 0.0000
     59 ****        -3.9081  -1.2127  -1.8572 H              1 S1                 0.0000
     60 ****         0.2810   2.2239   0.4798 H              1 S1                 0.0000
     61 ****        -7.8899   0.6211  -0.2668 LP             1 S1                 0.0000
     62 ****        -8.1217  -0.9546   0.0942 LP             1 S1                 0.0000
     63 ****         6.5852   2.1498  -0.5477 LP             1 S1                 0.0000
     64 ****         6.4181   3.7447  -0.8558 LP             1 S1                 0.0000
     65 ****         3.8897   0.3887  -0.0340 LP             1 S1                 0.0000
     66 ****        -1.0814  -1.5771  -1.5082 LP             1 S1                 0.0000
     67 ****        -1.2013  -3.2787  -1.2080 LP             1 S1                 0.0000
     68 ****         1.5618  -3.0458   1.0659 LP             1 S1                 0.0000
     69 ****        -0.4229  -5.2513  -2.0113 LP             1 S1                 0.0000
     70 ****         2.8602  -5.7258   0.3835 LP             1 S1                 0.0000
@<TRIPOS>BOND
    1    1    2 1     
    2    1   36 1     
    3    1   37 1     
    4    1   38 1     
    5    2    3 1     
    6    3   33 ar    
    7    3    4 ar    
    8    4    5 ar    
    9    4   39 1     
   10    5    6 ar    
   11    5   40 1     
   12    6    7 1     
   13    6   32 ar    
   14    7    8 1     
   15    7   41 1     
   16    7   42 1     
   17    8    9 1     
   18    8   43 1     
   19    9   21 ar    
   20    9   10 ar    
   21   10   11 ar    
   22   10   60 1     
   23   11   12 1     
   24   11   19 ar    
   25   12   16 1     
   26   12   13 1     
   27   13   14 1     
   28   13   44 1     
   29   13   45 1     
   30   14   15 1     
   31   14   46 1     
   32   14   47 1     
   33   15   16 1     
   34   15   48 1     
   35   15   49 1     
   36   16   35 1     
   37   16   17 1     
   38   17   18 1     
   39   17   50 1     
   40   17   51 1     
   41   18   52 1     
   42   19   20 ar    
   43   20   21 ar    
   44   20   53 1     
   45   21   22 1     
   46   22   23 2     
   47   22   24 1     
   48   24   25 1     
   49   25   26 1     
   50   25   54 1     
   51   25   55 1     
   52   26   31 ar    
   53   26   27 ar    
   54   27   28 ar    
   55   28   29 ar    
   56   28   56 1     
   57   29   30 ar    
   58   29   57 1     
   59   30   31 ar    
   60   30   58 1     
   61   32   33 ar    
   62   32   59 1     
   63   33   34 1     
   64    2   61 1     
   65    2   62 1     
   66   18   63 1     
   67   18   64 1     
   68   19   65 1     
   69   23   66 1     
   70   23   67 1     
   71   24   68 1     
   72   27   69 1     
   73   31   70 1     
@<TRIPOS>SUBSTRUCTURE
      1 S1             1
@<TRIPOS>SET
LONE_PAIRS      STATIC     ATOMS    <user>   **** ""
10 61 62 63 64 65 66 67 68 69 70
DONOR_HYDROGENS      STATIC     ATOMS    <user>   **** ""
3 43 60 52
ATOM$BLUE        STATIC     ATOMS    COLORGROUP SYSTEM
10 61 62 63 64 65 66 67 68 69 70
ATOM$RED        STATIC     ATOMS    COLORGROUP SYSTEM
3 43 60 52
