AV-unprocessed.smi:1517|AV-procd|sdf|6123|dock8
  -GOLD-   22720 6263D 1   1.00000     0.00000
 Structure written by MMmdl.
 41 43  0  0  0  0  0  0  0  0  1 V2000
  152.5333  137.1704  153.7195 O   0  0  0  0  0  0  0  0  0  0  0  0
  151.6185  137.9486  154.4592 C   0  0  0  0  0  0  0  0  0  0  0  0
  152.3284  139.1910  155.0106 C   0  0  0  0  0  0  0  0  0  0  0  0
  151.4258  140.0355  155.7701 N   0  0  0  0  0  0  0  0  0  0  0  0
  150.1974  140.6072  155.4599 C   0  0  0  0  0  0  0  0  0  0  0  0
  149.5827  140.4551  154.2881 N   0  0  0  0  0  0  0  0  0  0  0  0
  148.4250  141.1885  154.4665 C   0  0  0  0  0  0  0  0  0  0  0  0
  147.3443  141.4260  153.5871 C   0  0  0  0  0  0  0  0  0  0  0  0
  146.2528  142.2204  153.9954 C   0  0  0  0  0  0  0  0  0  0  0  0
  146.2250  142.7868  155.2865 C   0  0  0  0  0  0  0  0  0  0  0  0
  147.2911  142.5633  156.1791 C   0  0  0  0  0  0  0  0  0  0  0  0
  148.3793  141.7713  155.7664 C   0  0  0  0  0  0  0  0  0  0  0  0
  149.5608  141.3688  156.3816 N   0  0  0  0  0  0  0  0  0  0  0  0
  149.9895  141.7153  157.7310 C   0  0  0  0  0  0  0  0  0  0  0  0
  151.3326  142.4704  157.7535 C   0  0  1  0  0  0  0  0  0  0  0  0
  151.2046  143.7050  157.0733 O   0  0  0  0  0  0  0  0  0  0  0  0
  151.8399  142.6410  159.1797 C   0  0  0  0  0  0  0  0  0  0  0  0
  151.4918  143.7853  159.9330 C   0  0  0  0  0  0  0  0  0  0  0  0
  151.9535  143.9356  161.2549 C   0  0  0  0  0  0  0  0  0  0  0  0
  152.7628  142.9410  161.8355 C   0  0  0  0  0  0  0  0  0  0  0  0
  153.2059  143.0848  163.1069 F   0  0  0  0  0  0  0  0  0  0  0  0
  153.1074  141.7950  161.0942 C   0  0  0  0  0  0  0  0  0  0  0  0
  152.6462  141.6424  159.7718 C   0  0  0  0  0  0  0  0  0  0  0  0
  152.9779  140.5276  159.0768 F   0  0  0  0  0  0  0  0  0  0  0  0
  152.2085  137.0851  152.8362 H   0  0  0  0  0  0  0  0  0  0  0  0
  150.7895  138.2332  153.8106 H   0  0  0  0  0  0  0  0  0  0  0  0
  151.2097  137.3426  155.2684 H   0  0  0  0  0  0  0  0  0  0  0  0
  153.1605  138.8988  155.6520 H   0  0  0  0  0  0  0  0  0  0  0  0
  152.7465  139.7800  154.1940 H   0  0  0  0  0  0  0  0  0  0  0  0
  151.7553  140.2393  156.7027 H   0  0  0  0  0  0  0  0  0  0  0  0
  147.3553  140.9963  152.5963 H   0  0  0  0  0  0  0  0  0  0  0  0
  145.4328  142.3958  153.3146 H   0  0  0  0  0  0  0  0  0  0  0  0
  145.3846  143.3934  155.5909 H   0  0  0  0  0  0  0  0  0  0  0  0
  147.2727  142.9956  157.1685 H   0  0  0  0  0  0  0  0  0  0  0  0
  149.2098  142.2966  158.2243 H   0  0  0  0  0  0  0  0  0  0  0  0
  150.0781  140.7893  158.3007 H   0  0  0  0  0  0  0  0  0  0  0  0
  152.0684  141.8927  157.1929 H   0  0  0  0  0  0  0  0  0  0  0  0
  150.3896  143.7008  156.5946 H   0  0  0  0  0  0  0  0  0  0  0  0
  150.8651  144.5528  159.5022 H   0  0  0  0  0  0  0  0  0  0  0  0
  151.6842  144.8132  161.8243 H   0  0  0  0  0  0  0  0  0  0  0  0
  153.7247  141.0297  161.5413 H   0  0  0  0  0  0  0  0  0  0  0  0
  1  2  1  0  0  0  0
  1 25  1  0  0  0  0
  2  3  1  0  0  0  0
  2 26  1  0  0  0  0
  2 27  1  0  0  0  0
  3  4  1  0  0  0  0
  3 28  1  0  0  0  0
  3 29  1  0  0  0  0
  4  5  1  0  0  0  0
  4 30  1  0  0  0  0
  5 13  1  0  0  0  0
  5  6  2  0  0  0  0
  6  7  1  0  0  0  0
  7 12  2  0  0  0  0
  7  8  1  0  0  0  0
  8  9  2  0  0  0  0
  8 31  1  0  0  0  0
  9 10  1  0  0  0  0
  9 32  1  0  0  0  0
 10 11  2  0  0  0  0
 10 33  1  0  0  0  0
 11 12  1  0  0  0  0
 11 34  1  0  0  0  0
 12 13  1  0  0  0  0
 13 14  1  0  0  0  0
 14 15  1  0  0  0  0
 14 35  1  0  0  0  0
 14 36  1  0  0  0  0
 15 16  1  0  0  0  0
 15 17  1  0  0  0  0
 15 37  1  0  0  0  0
 16 38  1  0  0  0  0
 17 23  1  0  0  0  0
 17 18  2  0  0  0  0
 18 19  1  0  0  0  0
 18 39  1  0  0  0  0
 19 20  2  0  0  0  0
 19 40  1  0  0  0  0
 20 21  1  0  0  0  0
 20 22  1  0  0  0  0
 22 23  2  0  0  0  0
 22 41  1  0  0  0  0
 23 24  1  0  0  0  0
M  END
> <s_m_source_file>
AV-unprocessed.smi

> <i_m_source_file_index>
1517

> <i_lp_mmshare_version>
43012

> <i_f3d_flags>
0

> <s_epik_input>
W09IXVtDSDJdW0NIMl1bTkhdYyhuMSluKGMoYzEyKVtjSF1bY0hdW2NIXVtjSF0yKVtDSDJdW0NASF0oW09IXSljM1tjSF1bY0hdYyhGKVtjSF1jM0Y=

> <s_epik_cmdline>
J2VwaWtfcHl0aG9uJywgJy1waCcsICc3LjAnLCAnLXRuJywgJzgnLCAnLW1hJywgJzIwMCcsICctbWV0YWxfYmluZGluZycsICctaW1hZScsICc8aW5maWxlLm1hZT4nLCAnLW9tYWUnLCAnPG91dGZpbGUubWFlPic=

> <r_epik_Ionization_Penalty>
1.30972

> <r_epik_Ionization_Penalty_Charging>
0

> <r_epik_Ionization_Penalty_Neutral>
1.30972

> <r_epik_State_Penalty>
1.38438

> <r_epik_Charging_Adjusted_Penalty>
1.38438

> <i_epik_Tot_Q>
0

> <i_epik_Tot_abs_Q>
0

> <r_epik_Metal_State_Penalty>
0.00551145

> <b_epik_Metal_Only>
0

> <s_lp_Force_Field>
OPLS_2005

> <r_lp_Energy>
6.47828

> <b_lp_Chiralities_Consistent>
1

> <s_lp_Variant>
AV-unprocessed.smi:1517-4

> <Gold.Version>
5.8.1

> <Gold.Id.Protein>
6NUR|6NUR_protein|mol2

> <Gold.PLP.Fitness>
61.9591

> <Gold.PLP.PLP>
-54.7917

> <Gold.PLP.part.hbond>
-3.5016

> <Gold.PLP.part.metal>
0.0000

> <Gold.PLP.part.buried>
-3.9488

> <Gold.PLP.part.nonpolar>
-47.4726

> <Gold.PLP.part.repulsive>
0.2624

> <Gold.PLP.ligand.clash>
0.0000

> <Gold.PLP.ligand.torsion>
0.7789

> <Gold.PLP.Chemscore.Hbond>
2.8850

> <Gold.PLP.Chemscore.CHOScore>
0.0000

> <Gold.PLP.Chemscore.Metal>
0.0000

> <Gold.Chemscore.Hbonds>
donor molecule, donor type, donor heavy atom, donor atom, acceptor molecule, acceptor atom, score
      L1  H     1    25       P1  7949  0.98
      L1  H    16    38       P1  8028  0.98
      P1  H  7989  7998       L1     6  0.06
      P1  H 10752 10765       L1     1  0.85

> <Gold.PLP.Chemscore.Internal.Correction>
0.0700

> <Gold.Rescore>
     Score         DG    S(hbond)    S(metal)    S(lipo)     H(rot)  DE(clash)    DE(int)     intcor
     18.43     -20.62       2.58        0.00     126.37       3.22       1.87       0.33       ----

> <Gold.Chemscore.Fitness>
18.4292

> <Gold.Chemscore.DG>
-20.6248

> <Gold.Chemscore.ZeroCoef>
-5.4800

> <Gold.Chemscore.Hbond>
2.5752

> <Gold.Chemscore.Metal>
0.0000

> <Gold.Chemscore.Lipo>
126.3706

> <Gold.Chemscore.Internal_Hbond>
0.0000

> <Gold.Chemscore.DEClash>
1.8680

> <Gold.Chemscore.DEInternal>
0.3276

> <Gold.Chemscore.Rot>
3.2194

> <Gold.Chemscore.Internal.Correction>
   9.000000E+99

> <Gold.Chemscore.Hbonds>
donor molecule, donor type, donor heavy atom, donor atom, acceptor molecule, acceptor atom, score
      L1  H     1    25       P1  7949  0.88
      L1  H    16    38       P1  8028  0.87
      P1  H 10752 10765       L1     1  0.24

> <Gold.Chemscore.Hbond.Weighted>
-8.6011

> <Gold.Chemscore.Metal.Weighted>
-0.0000

> <Gold.Chemscore.Lipo.Weighted>
-14.7854

> <Gold.Chemscore.Internal_Hbond.Weighted>
0.0000

> <Gold.Chemscore.DEClash.Weighted>
1.8680

> <Gold.Chemscore.DEInternal.Weighted>
0.3276

> <Gold.Chemscore.Rot.Weighted>
8.2416

> <Gold.Chemscore.Internal.Correction.Weighted>
   9.000000E+99

> <Gold.Protein.RotatedTorsions>
[ 6907 6896 6895 6894 ] final  -90.97 input  -60.11 | X-H torsion
[ 7974 7965 7964 7962 ] final   52.28 input  175.53 | X-H torsion
[ 8008 7997 7996 7995 ] final -170.27 input   59.86 | X-H torsion
[ 10167 10162 10161 10158 ] final  178.93 input  -65.29 | X-H torsion
[ 10718 10713 10712 10709 ] final   58.24 input   66.30 | X-H torsion
[ 10763 10752 10751 10750 ] final  143.98 input  -60.55 | X-H torsion
[ 11005 11000 10999 10996 ] final   90.07 input  -57.11 | X-H torsion

> <Gold.Protein.ActiveResidues>
 VAL166  LYS551  ARG553  GLY616  TRP617  ASP618  TYR619  PRO620  LYS621  CYS622 
 ASP623  PHE694  ASN695  SER759  ASP760  ASP761  ALA762  ILE779  LEU786  VAL792 
 PHE793  MET794  SER795  GLU796  ALA797  LYS798  CYS799  TRP800  GLU811  SER814 

> <Gold.Protein.RotatedAtoms>
  150.6887  134.2350  159.4449 H   0  0  0  0  0  0  0  0  0  0  0  0  # atno 6907 bound_to 6896
  152.0298  134.9772  160.0581 H   0  0  0  0  0  0  0  0  0  0  0  0  # atno 6908 bound_to 6896
  152.1316  133.4376  159.4760 H   0  0  0  0  0  0  0  0  0  0  0  0  # atno 6909 bound_to 6896
  145.9829  139.4260  143.0121 H   0  0  0  0  0  0  0  0  0  0  0  0  # atno 7974 bound_to 7965
  155.9161  140.1066  157.1242 H   0  0  0  0  0  0  0  0  0  0  0  0  # atno 8008 bound_to 7997
  154.4047  140.1265  156.4685 H   0  0  0  0  0  0  0  0  0  0  0  0  # atno 8009 bound_to 7997
  155.7252  140.3469  155.5036 H   0  0  0  0  0  0  0  0  0  0  0  0  # atno 8010 bound_to 7997
  139.5315  144.2621  152.0698 H   0  0  0  0  0  0  0  0  0  0  0  0  # atno 10167 bound_to 10162
  157.5580  130.8814  149.9066 H   0  0  0  0  0  0  0  0  0  0  0  0  # atno 10718 bound_to 10713
  153.9813  135.2941  155.3420 H   0  0  0  0  0  0  0  0  0  0  0  0  # atno 10763 bound_to 10752
  154.7267  135.5085  153.8901 H   0  0  0  0  0  0  0  0  0  0  0  0  # atno 10764 bound_to 10752
  153.0853  135.6691  154.0076 H   0  0  0  0  0  0  0  0  0  0  0  0  # atno 10765 bound_to 10752
  139.8863  134.8591  156.3233 H   0  0  0  0  0  0  0  0  0  0  0  0  # atno 11005 bound_to 11000
  145.7744  140.9883  143.1132 LP  0  0  0  0  0  0  0  0  0  0  0  0  # atno 17320 bound_to 7965
  144.6866  139.9486  143.7477 LP  0  0  0  0  0  0  0  0  0  0  0  0  # atno 17321 bound_to 7965
  140.2085  144.4587  150.6397 LP  0  0  0  0  0  0  0  0  0  0  0  0  # atno 17342 bound_to 10162
  140.6496  143.2221  151.6108 LP  0  0  0  0  0  0  0  0  0  0  0  0  # atno 17343 bound_to 10162
  156.0636  130.3696  150.0927 LP  0  0  0  0  0  0  0  0  0  0  0  0  # atno 17370 bound_to 10713
  156.9094  130.9647  151.3565 LP  0  0  0  0  0  0  0  0  0  0  0  0  # atno 17371 bound_to 10713
  140.9772  133.7290  156.0619 LP  0  0  0  0  0  0  0  0  0  0  0  0  # atno 17394 bound_to 11000
  140.7795  134.3741  157.5490 LP  0  0  0  0  0  0  0  0  0  0  0  0  # atno 17395 bound_to 11000

$$$$
