AV-unprocessed.smi:1741|AV-procd|sdf|7017|dock5
  -GOLD-   22720 8233D 1   1.00000     0.00000
 Structure written by MMmdl.
 38 39  0  0  0  0  0  0  0  0  1 V2000
  152.8674  142.8528  162.2050 C   0  0  0  0  0  0  0  0  0  0  0  0
  153.3272  142.1599  160.9172 C   0  0  0  0  0  0  0  0  0  0  0  0
  152.6848  142.7264  159.7476 N   0  0  0  0  0  0  0  0  0  0  0  0
  151.9120  142.0805  158.8032 C   0  0  0  0  0  0  0  0  0  0  0  0
  151.5501  143.0418  157.9024 C   0  0  0  0  0  0  0  0  0  0  0  0
  150.7553  142.9266  156.7341 N   0  0  0  0  0  0  0  0  0  0  0  0
  150.1449  141.8249  156.2680 C   0  0  0  0  0  0  0  0  0  0  0  0
  150.1897  140.7151  156.7991 O   0  0  0  0  0  0  0  0  0  0  0  0
  149.4754  142.0857  155.1362 N   0  0  0  0  0  0  0  0  0  0  0  0
  148.7254  141.1157  154.3413 C   0  0  1  0  0  0  0  0  0  0  0  0
  149.5147  139.7980  154.2957 C   0  0  0  0  0  0  0  0  0  0  0  0
  147.3178  140.9427  154.9454 C   0  0  2  0  0  0  0  0  0  0  0  0
  146.4086  142.1647  154.8069 C   0  0  0  0  0  0  0  0  0  0  0  0
  145.4358  141.9534  155.9437 C   0  0  0  0  0  0  0  0  0  0  0  0
  146.3468  141.3944  157.0317 C   0  0  0  0  0  0  0  0  0  0  0  0
  147.4029  140.7201  156.3523 O   0  0  0  0  0  0  0  0  0  0  0  0
  152.1388  144.2471  158.3650 C   0  0  0  0  0  0  0  0  0  0  0  0
  152.8259  144.0481  159.4797 N   0  0  0  0  0  0  0  0  0  0  0  0
  153.3621  142.4209  163.0750 H   0  0  0  0  0  0  0  0  0  0  0  0
  151.7914  142.7471  162.3467 H   0  0  0  0  0  0  0  0  0  0  0  0
  153.1002  143.9179  162.1843 H   0  0  0  0  0  0  0  0  0  0  0  0
  154.4074  142.2568  160.8013 H   0  0  0  0  0  0  0  0  0  0  0  0
  153.1083  141.0920  160.9608 H   0  0  0  0  0  0  0  0  0  0  0  0
  151.7003  141.0230  158.8610 H   0  0  0  0  0  0  0  0  0  0  0  0
  150.6449  143.7714  156.1925 H   0  0  0  0  0  0  0  0  0  0  0  0
  149.5047  143.0297  154.7801 H   0  0  0  0  0  0  0  0  0  0  0  0
  148.6152  141.4719  153.3154 H   0  0  0  0  0  0  0  0  0  0  0  0
  149.0193  139.0592  153.6657 H   0  0  0  0  0  0  0  0  0  0  0  0
  149.6265  139.3663  155.2909 H   0  0  0  0  0  0  0  0  0  0  0  0
  150.5132  139.9539  153.8857 H   0  0  0  0  0  0  0  0  0  0  0  0
  146.8201  140.0774  154.5037 H   0  0  0  0  0  0  0  0  0  0  0  0
  146.9717  143.0857  154.9649 H   0  0  0  0  0  0  0  0  0  0  0  0
  145.9195  142.2241  153.8342 H   0  0  0  0  0  0  0  0  0  0  0  0
  144.9205  142.8656  156.2453 H   0  0  0  0  0  0  0  0  0  0  0  0
  144.6865  141.2126  155.6614 H   0  0  0  0  0  0  0  0  0  0  0  0
  146.7783  142.2040  157.6216 H   0  0  0  0  0  0  0  0  0  0  0  0
  145.8188  140.7247  157.7108 H   0  0  0  0  0  0  0  0  0  0  0  0
  152.0940  145.2379  157.9374 H   0  0  0  0  0  0  0  0  0  0  0  0
  1  2  1  0  0  0  0
  1 19  1  0  0  0  0
  1 20  1  0  0  0  0
  1 21  1  0  0  0  0
  2  3  1  0  0  0  0
  2 22  1  0  0  0  0
  2 23  1  0  0  0  0
  3 18  1  0  0  0  0
  3  4  1  0  0  0  0
  4  5  2  0  0  0  0
  4 24  1  0  0  0  0
  5  6  1  0  0  0  0
  5 17  1  0  0  0  0
  6  7  1  0  0  0  0
  6 25  1  0  0  0  0
  7  8  2  0  0  0  0
  7  9  1  0  0  0  0
  9 10  1  0  0  0  0
  9 26  1  0  0  0  0
 10 11  1  0  0  0  0
 10 12  1  0  0  0  0
 10 27  1  0  0  0  0
 11 28  1  0  0  0  0
 11 29  1  0  0  0  0
 11 30  1  0  0  0  0
 12 16  1  0  0  0  0
 12 13  1  0  0  0  0
 12 31  1  0  0  0  0
 13 14  1  0  0  0  0
 13 32  1  0  0  0  0
 13 33  1  0  0  0  0
 14 15  1  0  0  0  0
 14 34  1  0  0  0  0
 14 35  1  0  0  0  0
 15 16  1  0  0  0  0
 15 36  1  0  0  0  0
 15 37  1  0  0  0  0
 17 18  2  0  0  0  0
 17 38  1  0  0  0  0
M  END
> <s_m_source_file>
AV-unprocessed.smi

> <i_m_source_file_index>
1741

> <i_lp_mmshare_version>
43012

> <i_f3d_flags>
0

> <s_epik_input>
W0NIM11bQ0gyXW4xW2NIXWMoW2NIXW4xKVtOSF1DKD1PKVtOSF1bQ0BIXShbQ0gzXSlbQ0BASF0yW0NIMl1bQ0gyXVtDSDJdTzI=

> <s_epik_cmdline>
J2VwaWtfcHl0aG9uJywgJy1waCcsICc3LjAnLCAnLXRuJywgJzgnLCAnLW1hJywgJzIwMCcsICctbWV0YWxfYmluZGluZycsICctaW1hZScsICc8aW5maWxlLm1hZT4nLCAnLW9tYWUnLCAnPG91dGZpbGUubWFlPic=

> <r_lp_tautomer_probability>
1

> <r_epik_Ionization_Penalty>
0.000179292

> <r_epik_Ionization_Penalty_Charging>
0

> <r_epik_Ionization_Penalty_Neutral>
0.000179292

> <r_epik_State_Penalty>
-0

> <r_epik_Charging_Adjusted_Penalty>
0

> <i_epik_Tot_Q>
0

> <i_epik_Tot_abs_Q>
0

> <r_epik_Metal_State_Penalty>
-0

> <b_epik_Metal_Only>
0

> <s_lp_Force_Field>
OPLS_2005

> <r_lp_Energy>
22.1754

> <b_lp_Chiralities_Consistent>
1

> <s_lp_Variant>
AV-unprocessed.smi:1741-2

> <Gold.Version>
5.8.1

> <Gold.Id.Protein>
6NUR|6NUR_protein|mol2

> <Gold.PLP.Fitness>
41.7413

> <Gold.PLP.PLP>
-38.8562

> <Gold.PLP.part.hbond>
-2.0000

> <Gold.PLP.part.metal>
0.0000

> <Gold.PLP.part.buried>
-5.1562

> <Gold.PLP.part.nonpolar>
-32.8531

> <Gold.PLP.part.repulsive>
0.3267

> <Gold.PLP.ligand.clash>
0.0000

> <Gold.PLP.ligand.torsion>
0.4143

> <Gold.PLP.Chemscore.Hbond>
1.2320

> <Gold.PLP.Chemscore.CHOScore>
0.0000

> <Gold.PLP.Chemscore.Metal>
0.0000

> <Gold.Chemscore.Hbonds>
donor molecule, donor type, donor heavy atom, donor atom, acceptor molecule, acceptor atom, score
      L1  H     6    25       P1  8028  0.54
      L1  H     9    26       P1  8028  0.59

> <Gold.PLP.Chemscore.Internal.Correction>
0.0177

> <Gold.Rescore>
     Score         DG    S(hbond)    S(metal)    S(lipo)     H(rot)  DE(clash)    DE(int)     intcor
     14.60     -17.83       1.81        0.00      84.00       1.38       0.01       3.22       ----

> <Gold.Chemscore.Fitness>
14.6031

> <Gold.Chemscore.DG>
-17.8278

> <Gold.Chemscore.ZeroCoef>
-5.4800

> <Gold.Chemscore.Hbond>
1.8114

> <Gold.Chemscore.Metal>
0.0000

> <Gold.Chemscore.Lipo>
83.9992

> <Gold.Chemscore.Internal_Hbond>
0.0000

> <Gold.Chemscore.DEClash>
0.0073

> <Gold.Chemscore.DEInternal>
3.2174

> <Gold.Chemscore.Rot>
1.3790

> <Gold.Chemscore.Internal.Correction>
   9.000000E+99

> <Gold.Chemscore.Hbonds>
donor molecule, donor type, donor heavy atom, donor atom, acceptor molecule, acceptor atom, score
      L1  H     6    25       P1  8028  0.52
      L1  H     9    26       P1  8028  0.58

> <Gold.Chemscore.Hbond.Weighted>
-6.0500

> <Gold.Chemscore.Metal.Weighted>
-0.0000

> <Gold.Chemscore.Lipo.Weighted>
-9.8279

> <Gold.Chemscore.Internal_Hbond.Weighted>
0.0000

> <Gold.Chemscore.DEClash.Weighted>
0.0073

> <Gold.Chemscore.DEInternal.Weighted>
3.2174

> <Gold.Chemscore.Rot.Weighted>
3.5302

> <Gold.Chemscore.Internal.Correction.Weighted>
   9.000000E+99

> <Gold.Protein.RotatedTorsions>
[ 6907 6896 6895 6894 ] final -129.96 input  -60.11 | X-H torsion
[ 7974 7965 7964 7962 ] final  -74.65 input  175.53 | X-H torsion
[ 8008 7997 7996 7995 ] final   52.77 input   59.86 | X-H torsion
[ 10167 10162 10161 10158 ] final  -78.93 input  -65.29 | X-H torsion
[ 10718 10713 10712 10709 ] final  -18.76 input   66.30 | X-H torsion
[ 10763 10752 10751 10750 ] final  154.35 input  -60.55 | X-H torsion
[ 11005 11000 10999 10996 ] final   56.17 input  -57.11 | X-H torsion

> <Gold.Protein.ActiveResidues>
 VAL166  LYS551  ARG553  GLY616  TRP617  ASP618  TYR619  PRO620  LYS621  CYS622 
 ASP623  PHE694  ASN695  SER759  ASP760  ASP761  ALA762  ILE779  LEU786  VAL792 
 PHE793  MET794  SER795  GLU796  ALA797  LYS798  CYS799  TRP800  GLU811  SER814 

> <Gold.Protein.RotatedAtoms>
  150.9344  133.6729  159.2803 H   0  0  0  0  0  0  0  0  0  0  0  0  # atno 6907 bound_to 6896
  151.4140  135.0987  159.9603 H   0  0  0  0  0  0  0  0  0  0  0  0  # atno 6908 bound_to 6896
  152.5041  133.8811  159.7401 H   0  0  0  0  0  0  0  0  0  0  0  0  # atno 6909 bound_to 6896
  145.6363  140.9324  143.1060 H   0  0  0  0  0  0  0  0  0  0  0  0  # atno 7974 bound_to 7965
  155.4573  140.3460  155.4308 H   0  0  0  0  0  0  0  0  0  0  0  0  # atno 8008 bound_to 7997
  156.1183  140.1480  156.9271 H   0  0  0  0  0  0  0  0  0  0  0  0  # atno 8009 bound_to 7997
  154.4805  140.0871  156.7344 H   0  0  0  0  0  0  0  0  0  0  0  0  # atno 8010 bound_to 7997
  140.4639  143.2446  151.8307 H   0  0  0  0  0  0  0  0  0  0  0  0  # atno 10167 bound_to 10162
  156.5551  130.4711  149.6433 H   0  0  0  0  0  0  0  0  0  0  0  0  # atno 10718 bound_to 10713
  154.1508  135.2815  155.3136 H   0  0  0  0  0  0  0  0  0  0  0  0  # atno 10763 bound_to 10752
  154.6218  135.5464  153.7587 H   0  0  0  0  0  0  0  0  0  0  0  0  # atno 10764 bound_to 10752
  153.0221  135.6441  154.1653 H   0  0  0  0  0  0  0  0  0  0  0  0  # atno 10765 bound_to 10752
  140.0550  134.5683  155.9218 H   0  0  0  0  0  0  0  0  0  0  0  0  # atno 11005 bound_to 11000
  144.7174  139.8147  143.7394 LP  0  0  0  0  0  0  0  0  0  0  0  0  # atno 17320 bound_to 7965
  146.1317  139.4353  143.0165 LP  0  0  0  0  0  0  0  0  0  0  0  0  # atno 17321 bound_to 7965
  139.4809  144.4974  151.9105 LP  0  0  0  0  0  0  0  0  0  0  0  0  # atno 17342 bound_to 10162
  140.4060  144.2431  150.5890 LP  0  0  0  0  0  0  0  0  0  0  0  0  # atno 17343 bound_to 10162
  156.2849  130.7092  151.1926 LP  0  0  0  0  0  0  0  0  0  0  0  0  # atno 17370 bound_to 10713
  157.7380  131.0546  150.5323 LP  0  0  0  0  0  0  0  0  0  0  0  0  # atno 17371 bound_to 10713
  141.1948  133.6584  156.5611 LP  0  0  0  0  0  0  0  0  0  0  0  0  # atno 17394 bound_to 11000
  140.3858  134.7483  157.4690 LP  0  0  0  0  0  0  0  0  0  0  0  0  # atno 17395 bound_to 11000

$$$$
