AV-unprocessed.smi:3156|AV-procd|sdf|12032|dock1
  -GOLD-   2272017453D 1   1.00000     0.00000
 Structure written by MMmdl.
 41 42  0  0  0  0  0  0  0  0  2 V2000
  147.6909  141.9777  156.4337 C   0  0  0  0  0  0  0  0  0  0  0  0
  148.9151  141.5876  155.5860 C   0  0  1  0  0  0  0  0  0  0  0  0
  150.1330  142.1080  156.2465 N   0  3  0  0  0  0  0  0  0  0  0  0
  150.2226  141.8347  157.6963 C   0  0  0  0  0  0  0  0  0  0  0  0
  151.2854  142.7164  158.3685 C   0  0  1  0  0  0  0  0  0  0  0  0
  151.0622  144.2196  158.1006 C   0  0  0  0  0  0  0  0  0  0  0  0
  152.0830  145.0636  158.8725 C   0  0  0  0  0  0  0  0  0  0  0  0
  152.0554  144.6794  160.3554 C   0  0  0  0  0  0  0  0  0  0  0  0
  152.2214  143.1601  160.5159 C   0  0  0  0  0  0  0  0  0  0  0  0
  151.2140  142.4800  159.7725 O   0  0  0  0  0  0  0  0  0  0  0  0
  149.0309  140.0550  155.3601 C   0  0  2  0  0  0  0  0  0  0  0  0
  150.3697  139.6374  154.7220 C   0  0  0  0  0  0  0  0  0  0  0  0
  147.9225  139.5328  154.5710 N   0  0  0  0  0  0  0  0  0  0  0  0
  147.9756  138.7815  153.4146 C   0  0  0  0  0  0  0  0  0  0  0  0
  146.6894  138.5319  153.0303 C   0  0  0  0  0  0  0  0  0  0  0  0
  145.9069  139.1815  154.0249 C   0  0  0  0  0  0  0  0  0  0  0  0
  146.6464  139.7803  154.9441 N   0  0  0  0  0  0  0  0  0  0  0  0
  146.7545  141.7114  155.9432 H   0  0  0  0  0  0  0  0  0  0  0  0
  147.6637  143.0539  156.6070 H   0  0  0  0  0  0  0  0  0  0  0  0
  147.7094  141.4848  157.4064 H   0  0  0  0  0  0  0  0  0  0  0  0
  148.8004  142.0771  154.6169 H   0  0  0  0  0  0  0  0  0  0  0  0
  150.9364  141.6867  155.8025 H   0  0  0  0  0  0  0  0  0  0  0  0
  149.2533  141.9854  158.1725 H   0  0  0  0  0  0  0  0  0  0  0  0
  150.4809  140.7833  157.8287 H   0  0  0  0  0  0  0  0  0  0  0  0
  152.2729  142.4151  158.0138 H   0  0  0  0  0  0  0  0  0  0  0  0
  151.1368  144.4351  157.0343 H   0  0  0  0  0  0  0  0  0  0  0  0
  150.0535  144.5019  158.4055 H   0  0  0  0  0  0  0  0  0  0  0  0
  153.0818  144.8944  158.4678 H   0  0  0  0  0  0  0  0  0  0  0  0
  151.8700  146.1261  158.7502 H   0  0  0  0  0  0  0  0  0  0  0  0
  152.8424  145.2052  160.8967 H   0  0  0  0  0  0  0  0  0  0  0  0
  151.1090  144.9915  160.7984 H   0  0  0  0  0  0  0  0  0  0  0  0
  153.2110  142.8396  160.1866 H   0  0  0  0  0  0  0  0  0  0  0  0
  152.1315  142.8827  161.5664 H   0  0  0  0  0  0  0  0  0  0  0  0
  148.9711  139.5695  156.3356 H   0  0  0  0  0  0  0  0  0  0  0  0
  151.2138  139.8727  155.3702 H   0  0  0  0  0  0  0  0  0  0  0  0
  150.5321  140.1396  153.7677 H   0  0  0  0  0  0  0  0  0  0  0  0
  150.3962  138.5626  154.5389 H   0  0  0  0  0  0  0  0  0  0  0  0
  148.9138  138.4901  152.9655 H   0  0  0  0  0  0  0  0  0  0  0  0
  146.3576  137.9724  152.1681 H   0  0  0  0  0  0  0  0  0  0  0  0
  144.8313  139.2370  154.1053 H   0  0  0  0  0  0  0  0  0  0  0  0
  150.1720  143.1064  156.0987 H   0  0  0  0  0  0  0  0  0  0  0  0
  1  2  1  0  0  0  0
  1 18  1  0  0  0  0
  1 19  1  0  0  0  0
  1 20  1  0  0  0  0
  2  3  1  0  0  0  0
  2 11  1  0  0  0  0
  2 21  1  0  0  0  0
  3  4  1  0  0  0  0
  3 22  1  0  0  0  0
  3 41  1  0  0  0  0
  4  5  1  0  0  0  0
  4 23  1  0  0  0  0
  4 24  1  0  0  0  0
  5 10  1  0  0  0  0
  5  6  1  0  0  0  0
  5 25  1  0  0  0  0
  6  7  1  0  0  0  0
  6 26  1  0  0  0  0
  6 27  1  0  0  0  0
  7  8  1  0  0  0  0
  7 28  1  0  0  0  0
  7 29  1  0  0  0  0
  8  9  1  0  0  0  0
  8 30  1  0  0  0  0
  8 31  1  0  0  0  0
  9 10  1  0  0  0  0
  9 32  1  0  0  0  0
  9 33  1  0  0  0  0
 11 12  1  0  0  0  0
 11 13  1  0  0  0  0
 11 34  1  0  0  0  0
 12 35  1  0  0  0  0
 12 36  1  0  0  0  0
 12 37  1  0  0  0  0
 13 17  1  0  0  0  0
 13 14  1  0  0  0  0
 14 15  2  0  0  0  0
 14 38  1  0  0  0  0
 15 16  1  0  0  0  0
 15 39  1  0  0  0  0
 16 17  2  0  0  0  0
 16 40  1  0  0  0  0
M  CHG  1   3   1
M  END
> <s_m_source_file>
AV-unprocessed.smi

> <i_m_source_file_index>
3156

> <i_lp_mmshare_version>
43012

> <i_f3d_flags>
0

> <s_epik_input>
bjFbY0hdW2NIXVtjSF1uMVtDQEBIXShbQ0gzXSlbQ0BIXShbQ0gzXSlbTkhdW0NIMl1bQ0BASF0yW0NIMl1bQ0gyXVtDSDJdW0NIMl1PMg==

> <s_epik_cmdline>
J2VwaWtfcHl0aG9uJywgJy1waCcsICc3LjAnLCAnLXRuJywgJzgnLCAnLW1hJywgJzIwMCcsICctbWV0YWxfYmluZGluZycsICctaW1hZScsICc8aW5maWxlLm1hZT4nLCAnLW9tYWUnLCAnPG91dGZpbGUubWFlPic=

> <r_lp_tautomer_probability>
1

> <r_epik_Ionization_Penalty>
0.00658015

> <r_epik_Ionization_Penalty_Charging>
0.00656881

> <r_epik_Ionization_Penalty_Neutral>
1.13431e-05

> <r_epik_State_Penalty>
0.0048654

> <r_epik_Charging_Adjusted_Penalty>
0.0114342

> <i_epik_Tot_Q>
1

> <i_epik_Tot_abs_Q>
1

> <r_epik_Metal_State_Penalty>
-0

> <b_epik_Metal_Only>
0

> <s_lp_Force_Field>
OPLS_2005

> <r_lp_Energy>
19.0125

> <b_lp_Chiralities_Consistent>
1

> <s_lp_Variant>
AV-unprocessed.smi:3156-4

> <Gold.Version>
5.8.1

> <Gold.Id.Protein>
6NUR|6NUR_protein|mol2

> <Gold.PLP.Fitness>
39.8417

> <Gold.PLP.PLP>
-28.4890

> <Gold.PLP.part.hbond>
-1.9271

> <Gold.PLP.part.metal>
0.0000

> <Gold.PLP.part.buried>
0.3181

> <Gold.PLP.part.nonpolar>
-27.0087

> <Gold.PLP.part.repulsive>
0.1414

> <Gold.PLP.ligand.clash>
0.0000

> <Gold.PLP.ligand.torsion>
0.2983

> <Gold.PLP.Chemscore.Hbond>
1.7763

> <Gold.PLP.Chemscore.CHOScore>
2.1566

> <Gold.PLP.Chemscore.Metal>
0.0000

> <Gold.Chemscore.Hbonds>
donor molecule, donor type, donor heavy atom, donor atom, acceptor molecule, acceptor atom, score
      L1  H     3    41       P1  8028  1.30
      L1  C    14    38       P1  7948  0.74
      L1  C    14    38       P1  7957  0.65
      L1  C    16    40       P1 10175  0.77

> <Gold.PLP.Chemscore.Internal.Correction>
0.1504

> <Gold.Rescore>
     Score         DG    S(hbond)    S(metal)    S(lipo)     H(rot)  DE(clash)    DE(int)     intcor
     13.84     -15.46       0.85        0.00      95.91       1.59       0.05       1.57       ----

> <Gold.Chemscore.Fitness>
13.8400

> <Gold.Chemscore.DG>
-15.4602

> <Gold.Chemscore.ZeroCoef>
-5.4800

> <Gold.Chemscore.Hbond>
0.8499

> <Gold.Chemscore.Metal>
0.0000

> <Gold.Chemscore.Lipo>
95.9141

> <Gold.Chemscore.Internal_Hbond>
0.0000

> <Gold.Chemscore.DEClash>
0.0530

> <Gold.Chemscore.DEInternal>
1.5672

> <Gold.Chemscore.Rot>
1.5938

> <Gold.Chemscore.Internal.Correction>
   9.000000E+99

> <Gold.Chemscore.Hbonds>
donor molecule, donor type, donor heavy atom, donor atom, acceptor molecule, acceptor atom, score
      L1  H     3    41       P1  8028  0.64

> <Gold.Chemscore.Hbond.Weighted>
-2.8385

> <Gold.Chemscore.Metal.Weighted>
-0.0000

> <Gold.Chemscore.Lipo.Weighted>
-11.2219

> <Gold.Chemscore.Internal_Hbond.Weighted>
0.0000

> <Gold.Chemscore.DEClash.Weighted>
0.0530

> <Gold.Chemscore.DEInternal.Weighted>
1.5672

> <Gold.Chemscore.Rot.Weighted>
4.0802

> <Gold.Chemscore.Internal.Correction.Weighted>
   9.000000E+99

> <Gold.Protein.RotatedTorsions>
[ 6907 6896 6895 6894 ] final   20.35 input  -60.11 | X-H torsion
[ 7974 7965 7964 7962 ] final   73.34 input  175.53 | X-H torsion
[ 8008 7997 7996 7995 ] final   10.74 input   59.86 | X-H torsion
[ 10167 10162 10161 10158 ] final   16.46 input  -65.29 | X-H torsion
[ 10718 10713 10712 10709 ] final  -53.50 input   66.30 | X-H torsion
[ 10763 10752 10751 10750 ] final  -83.32 input  -60.55 | X-H torsion
[ 11005 11000 10999 10996 ] final  121.46 input  -57.11 | X-H torsion

> <Gold.Protein.ActiveResidues>
 VAL166  LYS551  ARG553  GLY616  TRP617  ASP618  TYR619  PRO620  LYS621  CYS622 
 ASP623  PHE694  ASN695  SER759  ASP760  ASP761  ALA762  ILE779  LEU786  VAL792 
 PHE793  MET794  SER795  GLU796  ALA797  LYS798  CYS799  TRP800  GLU811  SER814 

> <Gold.Protein.RotatedAtoms>
  151.8950  135.0401  160.0500 H   0  0  0  0  0  0  0  0  0  0  0  0  # atno 6907 bound_to 6896
  152.2405  133.5127  159.5275 H   0  0  0  0  0  0  0  0  0  0  0  0  # atno 6908 bound_to 6896
  150.7052  134.1012  159.4009 H   0  0  0  0  0  0  0  0  0  0  0  0  # atno 6909 bound_to 6896
  145.7421  139.2725  143.1480 H   0  0  0  0  0  0  0  0  0  0  0  0  # atno 7974 bound_to 7965
  154.7975  140.2846  155.5946 H   0  0  0  0  0  0  0  0  0  0  0  0  # atno 8008 bound_to 7997
  156.2973  140.2593  156.2764 H   0  0  0  0  0  0  0  0  0  0  0  0  # atno 8009 bound_to 7997
  154.9598  140.0378  157.2174 H   0  0  0  0  0  0  0  0  0  0  0  0  # atno 8010 bound_to 7997
  140.5795  143.9007  150.6778 H   0  0  0  0  0  0  0  0  0  0  0  0  # atno 10167 bound_to 10162
  156.1530  130.4151  149.9914 H   0  0  0  0  0  0  0  0  0  0  0  0  # atno 10718 bound_to 10713
  154.5864  135.5560  153.7235 H   0  0  0  0  0  0  0  0  0  0  0  0  # atno 10763 bound_to 10752
  153.0100  135.6332  154.1911 H   0  0  0  0  0  0  0  0  0  0  0  0  # atno 10764 bound_to 10752
  154.1852  135.2885  155.3019 H   0  0  0  0  0  0  0  0  0  0  0  0  # atno 10765 bound_to 10752
  139.9227  134.9639  156.7962 H   0  0  0  0  0  0  0  0  0  0  0  0  # atno 11005 bound_to 11000
  146.0438  140.8139  142.9816 LP  0  0  0  0  0  0  0  0  0  0  0  0  # atno 17320 bound_to 7965
  144.6868  140.2949  143.7272 LP  0  0  0  0  0  0  0  0  0  0  0  0  # atno 17321 bound_to 7965
  140.2503  143.3598  152.1411 LP  0  0  0  0  0  0  0  0  0  0  0  0  # atno 17342 bound_to 10162
  139.5162  144.6974  151.5593 LP  0  0  0  0  0  0  0  0  0  0  0  0  # atno 17343 bound_to 10162
  156.7766  130.9206  151.3645 LP  0  0  0  0  0  0  0  0  0  0  0  0  # atno 17370 bound_to 10713
  157.6672  130.9018  149.9959 LP  0  0  0  0  0  0  0  0  0  0  0  0  # atno 17371 bound_to 10713
  140.6427  133.9803  155.7715 LP  0  0  0  0  0  0  0  0  0  0  0  0  # atno 17394 bound_to 11000
  141.0760  134.0133  157.3456 LP  0  0  0  0  0  0  0  0  0  0  0  0  # atno 17395 bound_to 11000

$$$$
