AV-unprocessed.smi:264|AV-procd|sdf|2009|dock9
  -GOLD-   2262021203D 1   1.00000     0.00000
 Structure written by MMmdl.
 52 56  0  0  0  0  0  0  0  0  1 V2000
  147.8189  138.5306  156.1453 C   0  0  0  0  0  0  0  0  0  0  0  0
  147.1995  139.0066  154.8210 C   0  0  2  0  0  0  0  0  0  0  0  0
  146.0396  138.2380  154.5026 O   0  0  0  0  0  0  0  0  0  0  0  0
  146.1857  137.6405  153.2220 C   0  0  0  0  0  0  0  0  0  0  0  0
  147.1424  138.5657  152.4824 C   0  0  0  0  0  0  0  0  0  0  0  0
  148.1175  138.9754  153.5769 C   0  0  2  0  0  0  0  0  0  0  0  0
  149.1032  137.9611  153.6995 O   0  0  0  0  0  0  0  0  0  0  0  0
  148.8272  140.3260  153.3175 C   0  0  0  0  0  0  0  0  0  0  0  0
  149.5536  140.8295  154.4731 N   0  0  0  0  0  0  0  0  0  0  0  0
  149.2550  141.9600  155.2000 C   0  0  0  0  0  0  0  0  0  0  0  0
  150.0484  142.1995  156.2078 N   0  0  0  0  0  0  0  0  0  0  0  0
  150.9734  141.1629  156.1654 C   0  0  0  0  0  0  0  0  0  0  0  0
  152.0947  140.8031  156.9645 C   0  0  0  0  0  0  0  0  0  0  0  0
  152.4916  141.5346  158.0353 N   0  0  0  0  0  0  0  0  0  0  0  0
  153.4557  140.8764  158.9072 C   0  0  0  0  0  0  0  0  0  0  0  0
  154.0946  141.9072  159.8488 C   0  0  0  0  0  0  0  0  0  0  0  0
  153.0833  142.6157  160.5650 O   0  0  0  0  0  0  0  0  0  0  0  0
  152.1374  143.2972  159.7349 C   0  0  1  0  0  0  0  0  0  0  0  0
  151.0980  143.9449  160.6437 C   0  0  0  0  0  0  0  0  0  0  0  0
  150.7532  145.2337  159.9130 C   0  0  0  0  0  0  0  0  0  0  0  0
  152.0175  145.6635  159.4441 O   0  0  0  0  0  0  0  0  0  0  0  0
  152.7440  144.5205  159.0072 C   0  0  0  0  0  0  0  0  0  0  0  0
  151.4775  142.2838  158.7708 C   0  0  0  0  0  0  0  0  0  0  0  0
  152.7719  139.6748  156.6207 N   0  0  0  0  0  0  0  0  0  0  0  0
  152.3887  138.9536  155.5631 C   0  0  0  0  0  0  0  0  0  0  0  0
  151.3700  139.1718  154.7294 N   0  0  0  0  0  0  0  0  0  0  0  0
  150.6787  140.2947  155.0763 C   0  0  0  0  0  0  0  0  0  0  0  0
  148.7157  139.1013  156.3870 H   0  0  0  0  0  0  0  0  0  0  0  0
  148.0891  137.4749  156.1066 H   0  0  0  0  0  0  0  0  0  0  0  0
  147.1142  138.6567  156.9675 H   0  0  0  0  0  0  0  0  0  0  0  0
  146.8399  140.0266  154.9636 H   0  0  0  0  0  0  0  0  0  0  0  0
  146.6219  136.6474  153.3384 H   0  0  0  0  0  0  0  0  0  0  0  0
  145.2253  137.5345  152.7172 H   0  0  0  0  0  0  0  0  0  0  0  0
  147.6175  138.0953  151.6202 H   0  0  0  0  0  0  0  0  0  0  0  0
  146.5876  139.4347  152.1266 H   0  0  0  0  0  0  0  0  0  0  0  0
  149.0235  137.3758  152.9620 H   0  0  0  0  0  0  0  0  0  0  0  0
  149.5272  140.2354  152.4857 H   0  0  0  0  0  0  0  0  0  0  0  0
  148.0966  141.0795  153.0200 H   0  0  0  0  0  0  0  0  0  0  0  0
  148.4170  142.6001  154.9636 H   0  0  0  0  0  0  0  0  0  0  0  0
  152.9410  140.1092  159.4874 H   0  0  0  0  0  0  0  0  0  0  0  0
  154.2346  140.3721  158.3363 H   0  0  0  0  0  0  0  0  0  0  0  0
  154.7438  141.4046  160.5658 H   0  0  0  0  0  0  0  0  0  0  0  0
  154.7256  142.5962  159.2873 H   0  0  0  0  0  0  0  0  0  0  0  0
  150.2273  143.3165  160.8343 H   0  0  0  0  0  0  0  0  0  0  0  0
  151.5436  144.1932  161.6084 H   0  0  0  0  0  0  0  0  0  0  0  0
  150.0890  145.0439  159.0685 H   0  0  0  0  0  0  0  0  0  0  0  0
  150.2893  145.9776  160.5609 H   0  0  0  0  0  0  0  0  0  0  0  0
  153.7983  144.6713  159.2380 H   0  0  0  0  0  0  0  0  0  0  0  0
  152.6529  144.4276  157.9243 H   0  0  0  0  0  0  0  0  0  0  0  0
  150.8126  142.8024  158.0783 H   0  0  0  0  0  0  0  0  0  0  0  0
  150.8663  141.5787  159.3362 H   0  0  0  0  0  0  0  0  0  0  0  0
  152.9826  138.0756  155.3559 H   0  0  0  0  0  0  0  0  0  0  0  0
  1  2  1  0  0  0  0
  1 28  1  0  0  0  0
  1 29  1  0  0  0  0
  1 30  1  0  0  0  0
  2  6  1  0  0  0  0
  2  3  1  0  0  0  0
  2 31  1  0  0  0  0
  3  4  1  0  0  0  0
  4  5  1  0  0  0  0
  4 32  1  0  0  0  0
  4 33  1  0  0  0  0
  5  6  1  0  0  0  0
  5 34  1  0  0  0  0
  5 35  1  0  0  0  0
  6  7  1  0  0  0  0
  6  8  1  0  0  0  0
  7 36  1  0  0  0  0
  8  9  1  0  0  0  0
  8 37  1  0  0  0  0
  8 38  1  0  0  0  0
  9 27  1  0  0  0  0
  9 10  1  0  0  0  0
 10 11  2  0  0  0  0
 10 39  1  0  0  0  0
 11 12  1  0  0  0  0
 12 27  2  0  0  0  0
 12 13  1  0  0  0  0
 13 14  1  0  0  0  0
 13 24  2  0  0  0  0
 14 23  1  0  0  0  0
 14 15  1  0  0  0  0
 15 16  1  0  0  0  0
 15 40  1  0  0  0  0
 15 41  1  0  0  0  0
 16 17  1  0  0  0  0
 16 42  1  0  0  0  0
 16 43  1  0  0  0  0
 17 18  1  0  0  0  0
 18 22  1  0  0  0  0
 18 19  1  0  0  0  0
 18 23  1  0  0  0  0
 19 20  1  0  0  0  0
 19 44  1  0  0  0  0
 19 45  1  0  0  0  0
 20 21  1  0  0  0  0
 20 46  1  0  0  0  0
 20 47  1  0  0  0  0
 21 22  1  0  0  0  0
 22 48  1  0  0  0  0
 22 49  1  0  0  0  0
 23 50  1  0  0  0  0
 23 51  1  0  0  0  0
 24 25  1  0  0  0  0
 25 26  2  0  0  0  0
 25 52  1  0  0  0  0
 26 27  1  0  0  0  0
M  END
> <s_m_source_file>
AV-unprocessed.smi

> <i_m_source_file_index>
264

> <i_lp_mmshare_version>
43012

> <i_f3d_flags>
0

> <s_epik_input>
W0NIMl0xW0NIMl1PW0NAQEhdKFtDSDNdKVtDQEBdMShbT0hdKVtDSDJdbihbY0hdbjIpYyhjMjMpbltjSF1uYzNOKFtDSDJdNClbQ0gyXVtDSDJdT1tDQF00NVtDSDJdW0NIMl1PW0NIMl01

> <s_epik_cmdline>
J2VwaWtfcHl0aG9uJywgJy1waCcsICc3LjAnLCAnLXRuJywgJzgnLCAnLW1hJywgJzIwMCcsICctbWV0YWxfYmluZGluZycsICctaW1hZScsICc8aW5maWxlLm1hZT4nLCAnLW9tYWUnLCAnPG91dGZpbGUubWFlPic=

> <r_lp_tautomer_probability>
1

> <r_epik_Ionization_Penalty>
0.00539389

> <r_epik_Ionization_Penalty_Charging>
0

> <r_epik_Ionization_Penalty_Neutral>
0.00539389

> <r_epik_State_Penalty>
0.00375441

> <r_epik_Charging_Adjusted_Penalty>
0.00375441

> <i_epik_Tot_Q>
0

> <i_epik_Tot_abs_Q>
0

> <r_epik_Metal_State_Penalty>
-0

> <b_epik_Metal_Only>
0

> <s_lp_Force_Field>
OPLS_2005

> <r_lp_Energy>
53.6529

> <b_lp_Chiralities_Consistent>
1

> <s_lp_Variant>
AV-unprocessed.smi:264-3

> <Gold.Version>
5.8.1

> <Gold.Id.Protein>
6NUR|6NUR_protein|mol2

> <Gold.PLP.Fitness>
46.8609

> <Gold.PLP.PLP>
-40.0260

> <Gold.PLP.part.hbond>
-2.4490

> <Gold.PLP.part.metal>
0.0000

> <Gold.PLP.part.buried>
3.3545

> <Gold.PLP.part.nonpolar>
-41.4177

> <Gold.PLP.part.repulsive>
2.3207

> <Gold.PLP.ligand.clash>
0.0000

> <Gold.PLP.ligand.torsion>
0.6363

> <Gold.PLP.Chemscore.Hbond>
1.9750

> <Gold.PLP.Chemscore.CHOScore>
0.6273

> <Gold.PLP.Chemscore.Metal>
0.0000

> <Gold.Chemscore.Hbonds>
donor molecule, donor type, donor heavy atom, donor atom, acceptor molecule, acceptor atom, score
      L1  H     7    36       P1  7948  1.00
      P1  H  7997  8009       L1    24  0.93
      L1  C    10    39       P1  8028  0.60

> <Gold.PLP.Chemscore.Internal.Correction>
0.3006

> <Gold.Rescore>
     Score         DG    S(hbond)    S(metal)    S(lipo)     H(rot)  DE(clash)    DE(int)     intcor
     11.69     -16.63       1.45        0.00     100.07       2.11       1.78       3.16       ----

> <Gold.Chemscore.Fitness>
11.6860

> <Gold.Chemscore.DG>
-16.6306

> <Gold.Chemscore.ZeroCoef>
-5.4800

> <Gold.Chemscore.Hbond>
1.4474

> <Gold.Chemscore.Metal>
0.0000

> <Gold.Chemscore.Lipo>
100.0708

> <Gold.Chemscore.Internal_Hbond>
0.0000

> <Gold.Chemscore.DEClash>
1.7843

> <Gold.Chemscore.DEInternal>
3.1602

> <Gold.Chemscore.Rot>
2.1063

> <Gold.Chemscore.Internal.Correction>
   9.000000E+99

> <Gold.Chemscore.Hbonds>
donor molecule, donor type, donor heavy atom, donor atom, acceptor molecule, acceptor atom, score
      L1  H     7    36       P1  7948  0.97
      P1  H  7997  8009       L1    24  0.48

> <Gold.Chemscore.Hbond.Weighted>
-4.8344

> <Gold.Chemscore.Metal.Weighted>
-0.0000

> <Gold.Chemscore.Lipo.Weighted>
-11.7083

> <Gold.Chemscore.Internal_Hbond.Weighted>
0.0000

> <Gold.Chemscore.DEClash.Weighted>
1.7843

> <Gold.Chemscore.DEInternal.Weighted>
3.1602

> <Gold.Chemscore.Rot.Weighted>
5.3921

> <Gold.Chemscore.Internal.Correction.Weighted>
   9.000000E+99

> <Gold.Protein.RotatedTorsions>
[ 6907 6896 6895 6894 ] final   61.82 input  -60.11 | X-H torsion
[ 7974 7965 7964 7962 ] final -132.63 input  175.53 | X-H torsion
[ 8008 7997 7996 7995 ] final  167.20 input   59.86 | X-H torsion
[ 10167 10162 10161 10158 ] final  -19.91 input  -65.29 | X-H torsion
[ 10718 10713 10712 10709 ] final -121.82 input   66.30 | X-H torsion
[ 10763 10752 10751 10750 ] final   38.05 input  -60.55 | X-H torsion
[ 11005 11000 10999 10996 ] final   57.13 input  -57.11 | X-H torsion

> <Gold.Protein.ActiveResidues>
 VAL166  LYS551  ARG553  GLY616  TRP617  ASP618  TYR619  PRO620  LYS621  CYS622 
 ASP623  PHE694  ASN695  SER759  ASP760  ASP761  ALA762  ILE779  LEU786  VAL792 
 PHE793  MET794  SER795  GLU796  ALA797  LYS798  CYS799  TRP800  GLU811  SER814 

> <Gold.Protein.RotatedAtoms>
  152.4120  134.6107  160.0024 H   0  0  0  0  0  0  0  0  0  0  0  0  # atno 6907 bound_to 6896
  151.6281  133.3328  159.3111 H   0  0  0  0  0  0  0  0  0  0  0  0  # atno 6908 bound_to 6896
  150.8011  134.7145  159.6667 H   0  0  0  0  0  0  0  0  0  0  0  0  # atno 6909 bound_to 6896
  144.9267  140.7080  143.4931 H   0  0  0  0  0  0  0  0  0  0  0  0  # atno 7974 bound_to 7965
  156.1654  140.1623  156.8540 H   0  0  0  0  0  0  0  0  0  0  0  0  # atno 8008 bound_to 7997
  154.5202  140.0780  156.8193 H   0  0  0  0  0  0  0  0  0  0  0  0  # atno 8009 bound_to 7997
  155.3622  140.3396  155.4243 H   0  0  0  0  0  0  0  0  0  0  0  0  # atno 8010 bound_to 7997
  140.7272  143.4773  151.0165 H   0  0  0  0  0  0  0  0  0  0  0  0  # atno 10167 bound_to 10162
  156.1368  130.6436  150.9708 H   0  0  0  0  0  0  0  0  0  0  0  0  # atno 10718 bound_to 10713
  153.0015  135.6260  154.2242 H   0  0  0  0  0  0  0  0  0  0  0  0  # atno 10763 bound_to 10752
  154.1985  135.2805  155.3000 H   0  0  0  0  0  0  0  0  0  0  0  0  # atno 10764 bound_to 10752
  154.5703  135.5678  153.7148 H   0  0  0  0  0  0  0  0  0  0  0  0  # atno 10765 bound_to 10752
  140.0476  134.5783  155.9303 H   0  0  0  0  0  0  0  0  0  0  0  0  # atno 11005 bound_to 11000
  145.3207  139.1789  143.4589 LP  0  0  0  0  0  0  0  0  0  0  0  0  # atno 17320 bound_to 7965
  146.3229  140.3224  142.8634 LP  0  0  0  0  0  0  0  0  0  0  0  0  # atno 17321 bound_to 7965
  139.8469  143.7490  152.3179 LP  0  0  0  0  0  0  0  0  0  0  0  0  # atno 17342 bound_to 10162
  139.7658  144.7492  151.0297 LP  0  0  0  0  0  0  0  0  0  0  0  0  # atno 17343 bound_to 10162
  157.6539  131.0892  150.7990 LP  0  0  0  0  0  0  0  0  0  0  0  0  # atno 17370 bound_to 10713
  156.8069  130.4939  149.5361 LP  0  0  0  0  0  0  0  0  0  0  0  0  # atno 17371 bound_to 10713
  141.1915  133.6572  156.5458 LP  0  0  0  0  0  0  0  0  0  0  0  0  # atno 17394 bound_to 11000
  140.3968  134.7392  157.4755 LP  0  0  0  0  0  0  0  0  0  0  0  0  # atno 17395 bound_to 11000

$$$$
