AV-unprocessed.smi:910|AV-procd|sdf|4125|dock7
  -GOLD-   22720 2 23D 1   1.00000     0.00000
 Structure written by MMmdl.
 46 47  0  0  0  0  0  0  0  0  1 V2000
  151.1464  144.6607  158.5361 C   0  0  0  0  0  0  0  0  0  0  0  0
  151.0489  143.2024  158.1463 C   0  0  0  0  0  0  0  0  0  0  0  0
  150.3608  142.7920  157.0389 N   0  0  0  0  0  0  0  0  0  0  0  0
  150.4622  141.4055  156.9515 C   0  0  0  0  0  0  0  0  0  0  0  0
  149.9901  140.5425  156.1049 N   0  0  0  0  0  0  0  0  0  0  0  0
  149.2404  141.0169  155.0420 C   0  0  0  0  0  0  0  0  0  0  0  0
  149.6378  141.2559  153.8971 O   0  0  0  0  0  0  0  0  0  0  0  0
  147.9811  141.2755  155.4273 N   0  0  0  0  0  0  0  0  0  0  0  0
  146.9577  141.9049  154.5983 C   0  0  0  0  0  0  0  0  0  0  0  0
  145.5806  141.8298  155.2723 C   0  0  0  0  0  0  0  0  0  0  0  0
  144.9540  143.1004  155.1756 O   0  0  0  0  0  0  0  0  0  0  0  0
  143.5533  143.1167  155.4229 C   0  0  1  0  0  0  0  0  0  0  0  0
  143.2297  142.5684  156.8308 C   0  0  0  0  0  0  0  0  0  0  0  0
  143.8355  143.4495  157.9351 C   0  0  0  0  0  0  0  0  0  0  0  0
  143.3633  144.9045  157.7997 C   0  0  0  0  0  0  0  0  0  0  0  0
  143.6710  145.4645  156.4016 C   0  0  0  0  0  0  0  0  0  0  0  0
  143.0685  144.5786  155.2911 C   0  0  1  0  0  0  0  0  0  0  0  0
  143.3408  145.1543  153.8927 C   0  0  0  0  0  0  0  0  0  0  0  0
  151.2184  141.0081  158.0252 O   0  0  0  0  0  0  0  0  0  0  0  0
  151.5599  142.1222  158.7313 C   0  0  0  0  0  0  0  0  0  0  0  0
  152.4053  141.9657  159.9749 C   0  0  0  0  0  0  0  0  0  0  0  0
  152.1902  144.9725  158.5731 H   0  0  0  0  0  0  0  0  0  0  0  0
  150.7035  144.8183  159.5197 H   0  0  0  0  0  0  0  0  0  0  0  0
  150.6241  145.2934  157.8177 H   0  0  0  0  0  0  0  0  0  0  0  0
  149.8771  143.4224  156.4153 H   0  0  0  0  0  0  0  0  0  0  0  0
  147.7282  141.0654  156.3821 H   0  0  0  0  0  0  0  0  0  0  0  0
  147.2169  142.9396  154.3681 H   0  0  0  0  0  0  0  0  0  0  0  0
  146.9264  141.3763  153.6454 H   0  0  0  0  0  0  0  0  0  0  0  0
  144.9647  141.0787  154.7762 H   0  0  0  0  0  0  0  0  0  0  0  0
  145.6998  141.5208  156.3103 H   0  0  0  0  0  0  0  0  0  0  0  0
  143.0465  142.5104  154.6699 H   0  0  0  0  0  0  0  0  0  0  0  0
  142.1470  142.5327  156.9583 H   0  0  0  0  0  0  0  0  0  0  0  0
  143.5711  141.5406  156.9449 H   0  0  0  0  0  0  0  0  0  0  0  0
  143.5602  143.0597  158.9153 H   0  0  0  0  0  0  0  0  0  0  0  0
  144.9241  143.4081  157.8821 H   0  0  0  0  0  0  0  0  0  0  0  0
  142.2900  144.9576  157.9854 H   0  0  0  0  0  0  0  0  0  0  0  0
  143.8376  145.5208  158.5629 H   0  0  0  0  0  0  0  0  0  0  0  0
  143.2801  146.4794  156.3229 H   0  0  0  0  0  0  0  0  0  0  0  0
  144.7507  145.5415  156.2688 H   0  0  0  0  0  0  0  0  0  0  0  0
  141.9858  144.5768  155.4266 H   0  0  0  0  0  0  0  0  0  0  0  0
  144.4099  145.2164  153.6872 H   0  0  0  0  0  0  0  0  0  0  0  0
  142.9269  146.1582  153.7953 H   0  0  0  0  0  0  0  0  0  0  0  0
  142.8881  144.5348  153.1182 H   0  0  0  0  0  0  0  0  0  0  0  0
  153.2574  142.6447  159.9414 H   0  0  0  0  0  0  0  0  0  0  0  0
  152.7795  140.9453  160.0575 H   0  0  0  0  0  0  0  0  0  0  0  0
  151.8155  142.1919  160.8632 H   0  0  0  0  0  0  0  0  0  0  0  0
  1 22  1  0  0  0  0
  1 23  1  0  0  0  0
  1 24  1  0  0  0  0
  1  2  1  0  0  0  0
  2  3  1  0  0  0  0
  2 20  2  0  0  0  0
  3 25  1  0  0  0  0
  3  4  1  0  0  0  0
  4 19  1  0  0  0  0
  4  5  2  0  0  0  0
  5  6  1  0  0  0  0
  6  8  1  0  0  0  0
  6  7  2  0  0  0  0
  8  9  1  0  0  0  0
  8 26  1  0  0  0  0
  9 10  1  0  0  0  0
  9 27  1  0  0  0  0
  9 28  1  0  0  0  0
 10 11  1  0  0  0  0
 10 29  1  0  0  0  0
 10 30  1  0  0  0  0
 11 12  1  0  0  0  0
 12 17  1  0  0  0  0
 12 13  1  0  0  0  0
 12 31  1  0  0  0  0
 13 14  1  0  0  0  0
 13 32  1  0  0  0  0
 13 33  1  0  0  0  0
 14 15  1  0  0  0  0
 14 34  1  0  0  0  0
 14 35  1  0  0  0  0
 15 16  1  0  0  0  0
 15 36  1  0  0  0  0
 15 37  1  0  0  0  0
 16 17  1  0  0  0  0
 16 38  1  0  0  0  0
 16 39  1  0  0  0  0
 17 18  1  0  0  0  0
 17 40  1  0  0  0  0
 18 41  1  0  0  0  0
 18 42  1  0  0  0  0
 18 43  1  0  0  0  0
 19 20  1  0  0  0  0
 20 21  1  0  0  0  0
 21 44  1  0  0  0  0
 21 45  1  0  0  0  0
 21 46  1  0  0  0  0
M  END
> <s_m_source_file>
AV-unprocessed.smi

> <i_m_source_file_index>
910

> <i_lp_mmshare_version>
43012

> <i_f3d_flags>
0

> <s_epik_input>
W0NIM11jMW5jKG9jMVtDSDNdKVtOSF1DKD1PKVtOSF1bQ0gyXVtDSDJdT1tDQEBIXTJbQ0gyXVtDSDJdW0NIMl1bQ0gyXVtDQEhdMltDSDNd

> <s_epik_cmdline>
J2VwaWtfcHl0aG9uJywgJy1waCcsICc3LjAnLCAnLXRuJywgJzgnLCAnLW1hJywgJzIwMCcsICctbWV0YWxfYmluZGluZycsICctaW1hZScsICc8aW5maWxlLm1hZT4nLCAnLW9tYWUnLCAnPG91dGZpbGUubWFlPic=

> <r_lp_tautomer_probability>
0.107061

> <r_epik_Ionization_Penalty>
0.727192

> <r_epik_Ionization_Penalty_Charging>
0.726719

> <r_epik_Ionization_Penalty_Neutral>
0.000473387

> <r_epik_State_Penalty>
2.53712

> <r_epik_Charging_Adjusted_Penalty>
3.26383

> <i_epik_Tot_Q>
0

> <i_epik_Tot_abs_Q>
0

> <r_epik_Metal_State_Penalty>
3.71015

> <b_epik_Metal_Only>
0

> <s_lp_Force_Field>
OPLS_2005

> <r_lp_Energy>
28.9635

> <b_lp_Chiralities_Consistent>
1

> <s_lp_Variant>
AV-unprocessed.smi:910-10

> <Gold.Version>
5.8.1

> <Gold.Id.Protein>
6NUR|6NUR_protein|mol2

> <Gold.PLP.Fitness>
39.5715

> <Gold.PLP.PLP>
-35.2202

> <Gold.PLP.part.hbond>
-3.0000

> <Gold.PLP.part.metal>
0.0000

> <Gold.PLP.part.buried>
-5.8220

> <Gold.PLP.part.nonpolar>
-27.8134

> <Gold.PLP.part.repulsive>
2.2237

> <Gold.PLP.ligand.clash>
0.0000

> <Gold.PLP.ligand.torsion>
1.1666

> <Gold.PLP.Chemscore.Hbond>
2.2178

> <Gold.PLP.Chemscore.CHOScore>
0.0000

> <Gold.PLP.Chemscore.Metal>
0.0000

> <Gold.Chemscore.Hbonds>
donor molecule, donor type, donor heavy atom, donor atom, acceptor molecule, acceptor atom, score
      L1  H     3    25       P1  8028  1.00
      P1  H  7989  7998       L1     7  0.29
      P1  H  8011  8017       L1     7  0.80

> <Gold.PLP.Chemscore.Internal.Correction>
0.0314

> <Gold.Rescore>
     Score         DG    S(hbond)    S(metal)    S(lipo)     H(rot)  DE(clash)    DE(int)     intcor
     16.44     -18.08       2.10        0.00      83.93       1.66       0.49       1.15       ----

> <Gold.Chemscore.Fitness>
16.4449

> <Gold.Chemscore.DG>
-18.0770

> <Gold.Chemscore.ZeroCoef>
-5.4800

> <Gold.Chemscore.Hbond>
2.1019

> <Gold.Chemscore.Metal>
0.0000

> <Gold.Chemscore.Lipo>
83.9325

> <Gold.Chemscore.Internal_Hbond>
0.0000

> <Gold.Chemscore.DEClash>
0.4868

> <Gold.Chemscore.DEInternal>
1.1453

> <Gold.Chemscore.Rot>
1.6576

> <Gold.Chemscore.Internal.Correction>
   9.000000E+99

> <Gold.Chemscore.Hbonds>
donor molecule, donor type, donor heavy atom, donor atom, acceptor molecule, acceptor atom, score
      L1  H     3    25       P1  8028  1.00
      P1  H  7989  7998       L1     7  0.27
      P1  H  8011  8017       L1     7  0.79

> <Gold.Chemscore.Hbond.Weighted>
-7.0204

> <Gold.Chemscore.Metal.Weighted>
-0.0000

> <Gold.Chemscore.Lipo.Weighted>
-9.8201

> <Gold.Chemscore.Internal_Hbond.Weighted>
0.0000

> <Gold.Chemscore.DEClash.Weighted>
0.4868

> <Gold.Chemscore.DEInternal.Weighted>
1.1453

> <Gold.Chemscore.Rot.Weighted>
4.2436

> <Gold.Chemscore.Internal.Correction.Weighted>
   9.000000E+99

> <Gold.Protein.RotatedTorsions>
[ 6907 6896 6895 6894 ] final   81.56 input  -60.11 | X-H torsion
[ 7974 7965 7964 7962 ] final  -44.78 input  175.53 | X-H torsion
[ 8008 7997 7996 7995 ] final   71.07 input   59.86 | X-H torsion
[ 10167 10162 10161 10158 ] final   20.11 input  -65.29 | X-H torsion
[ 10718 10713 10712 10709 ] final  -32.35 input   66.30 | X-H torsion
[ 10763 10752 10751 10750 ] final  160.19 input  -60.55 | X-H torsion
[ 11005 11000 10999 10996 ] final   63.96 input  -57.11 | X-H torsion

> <Gold.Protein.ActiveResidues>
 VAL166  LYS551  ARG553  GLY616  TRP617  ASP618  TYR619  PRO620  LYS621  CYS622 
 ASP623  PHE694  ASN695  SER759  ASP760  ASP761  ALA762  ILE779  LEU786  VAL792 
 PHE793  MET794  SER795  GLU796  ALA797  LYS798  CYS799  TRP800  GLU811  SER814 

> <Gold.Protein.RotatedAtoms>
  152.5272  134.3185  159.9139 H   0  0  0  0  0  0  0  0  0  0  0  0  # atno 6907 bound_to 6896
  151.3134  133.4064  159.2656 H   0  0  0  0  0  0  0  0  0  0  0  0  # atno 6908 bound_to 6896
  151.0019  134.9346  159.8016 H   0  0  0  0  0  0  0  0  0  0  0  0  # atno 6909 bound_to 6896
  145.9886  140.7205  142.9328 H   0  0  0  0  0  0  0  0  0  0  0  0  # atno 7974 bound_to 7965
  155.7483  140.3489  155.5138 H   0  0  0  0  0  0  0  0  0  0  0  0  # atno 8008 bound_to 7997
  155.9028  140.1037  157.1358 H   0  0  0  0  0  0  0  0  0  0  0  0  # atno 8009 bound_to 7997
  154.4046  140.1283  156.4445 H   0  0  0  0  0  0  0  0  0  0  0  0  # atno 8010 bound_to 7997
  140.5529  143.9477  150.6590 H   0  0  0  0  0  0  0  0  0  0  0  0  # atno 10167 bound_to 10162
  156.3759  130.4347  149.7507 H   0  0  0  0  0  0  0  0  0  0  0  0  # atno 10718 bound_to 10713
  154.2435  135.2774  155.2844 H   0  0  0  0  0  0  0  0  0  0  0  0  # atno 10763 bound_to 10752
  154.5525  135.5671  153.6938 H   0  0  0  0  0  0  0  0  0  0  0  0  # atno 10764 bound_to 10752
  152.9995  135.6278  154.2580 H   0  0  0  0  0  0  0  0  0  0  0  0  # atno 10765 bound_to 10752
  139.9990  134.6472  155.9962 H   0  0  0  0  0  0  0  0  0  0  0  0  # atno 11005 bound_to 11000
  144.6882  140.3031  143.7260 LP  0  0  0  0  0  0  0  0  0  0  0  0  # atno 17320 bound_to 7965
  145.7663  139.1842  143.2238 LP  0  0  0  0  0  0  0  0  0  0  0  0  # atno 17321 bound_to 7965
  140.2908  143.3326  152.1064 LP  0  0  0  0  0  0  0  0  0  0  0  0  # atno 17342 bound_to 10162
  139.5035  144.6756  151.6135 LP  0  0  0  0  0  0  0  0  0  0  0  0  # atno 17343 bound_to 10162
  156.4617  130.7955  151.2975 LP  0  0  0  0  0  0  0  0  0  0  0  0  # atno 17370 bound_to 10713
  157.7488  131.0064  150.3149 LP  0  0  0  0  0  0  0  0  0  0  0  0  # atno 17371 bound_to 10713
  141.1627  133.6538  156.4374 LP  0  0  0  0  0  0  0  0  0  0  0  0  # atno 17394 bound_to 11000
  140.4763  134.6706  157.5151 LP  0  0  0  0  0  0  0  0  0  0  0  0  # atno 17395 bound_to 11000

$$$$
