AV-unprocessed.smi:3280|AV-procd|sdf|12555|dock5
  -GOLD-   2272018473D 1   1.00000     0.00000
 Structure written by MMmdl.
 38 39  0  0  0  0  0  0  0  0  1 V2000
  151.6623  137.8651  159.0790 C   0  0  0  0  0  0  0  0  0  0  0  0
  152.0554  137.6766  157.6066 C   0  0  0  0  0  0  0  0  0  0  0  0
  153.5299  137.2867  157.4252 C   0  0  0  0  0  0  0  0  0  0  0  0
  151.6904  138.8701  156.7777 C   0  0  0  0  0  0  0  0  0  0  0  0
  151.7474  138.8298  155.4514 N   0  0  0  0  0  0  0  0  0  0  0  0
  151.3243  140.1104  155.0682 O   0  0  0  0  0  0  0  0  0  0  0  0
  151.0781  140.7784  156.2203 C   0  0  0  0  0  0  0  0  0  0  0  0
  150.5619  142.1765  156.1463 C   0  0  0  0  0  0  0  0  0  0  0  0
  150.6271  142.8934  157.5008 C   0  0  0  0  0  0  0  0  0  0  0  0
  151.8815  143.6264  157.6047 N   0  0  0  0  0  0  0  0  0  0  0  0
  152.4214  143.6005  158.9596 C   0  0  1  0  0  0  0  0  0  0  0  0
  151.5038  144.4703  159.8414 C   0  0  0  0  0  0  0  0  0  0  0  0
  152.0062  144.5795  161.2899 C   0  0  0  0  0  0  0  0  0  0  0  0
  152.0669  143.2156  161.9909 C   0  0  0  0  0  0  0  0  0  0  0  0
  153.2261  142.1008  161.1545 S   0  0  0  0  0  0  0  0  0  0  0  0
  152.5055  142.1533  159.4905 C   0  0  0  0  0  0  0  0  0  0  0  0
  151.2695  140.0492  157.3166 N   0  0  0  0  0  0  0  0  0  0  0  0
  150.5950  138.0662  159.1771 H   0  0  0  0  0  0  0  0  0  0  0  0
  152.2018  138.6980  159.5308 H   0  0  0  0  0  0  0  0  0  0  0  0
  151.8843  136.9708  159.6617 H   0  0  0  0  0  0  0  0  0  0  0  0
  151.4684  136.8339  157.2374 H   0  0  0  0  0  0  0  0  0  0  0  0
  153.7574  137.0896  156.3772 H   0  0  0  0  0  0  0  0  0  0  0  0
  153.7699  136.3856  157.9900 H   0  0  0  0  0  0  0  0  0  0  0  0
  154.1953  138.0799  157.7676 H   0  0  0  0  0  0  0  0  0  0  0  0
  151.1415  142.7221  155.4003 H   0  0  0  0  0  0  0  0  0  0  0  0
  149.5332  142.1457  155.7841 H   0  0  0  0  0  0  0  0  0  0  0  0
  149.7794  143.5709  157.5969 H   0  0  0  0  0  0  0  0  0  0  0  0
  150.5582  142.1640  158.3089 H   0  0  0  0  0  0  0  0  0  0  0  0
  152.5529  143.2074  156.9770 H   0  0  0  0  0  0  0  0  0  0  0  0
  153.4158  144.0496  158.9528 H   0  0  0  0  0  0  0  0  0  0  0  0
  151.4344  145.4742  159.4197 H   0  0  0  0  0  0  0  0  0  0  0  0
  150.4896  144.0677  159.8386 H   0  0  0  0  0  0  0  0  0  0  0  0
  152.9914  145.0472  161.3063 H   0  0  0  0  0  0  0  0  0  0  0  0
  151.3451  145.2412  161.8504 H   0  0  0  0  0  0  0  0  0  0  0  0
  152.3848  143.3366  163.0266 H   0  0  0  0  0  0  0  0  0  0  0  0
  151.0794  142.7531  162.0112 H   0  0  0  0  0  0  0  0  0  0  0  0
  151.5151  141.6969  159.5208 H   0  0  0  0  0  0  0  0  0  0  0  0
  153.1246  141.5270  158.8494 H   0  0  0  0  0  0  0  0  0  0  0  0
  1  2  1  0  0  0  0
  1 18  1  0  0  0  0
  1 19  1  0  0  0  0
  1 20  1  0  0  0  0
  2  3  1  0  0  0  0
  2  4  1  0  0  0  0
  2 21  1  0  0  0  0
  3 22  1  0  0  0  0
  3 23  1  0  0  0  0
  3 24  1  0  0  0  0
  4 17  1  0  0  0  0
  4  5  2  0  0  0  0
  5  6  1  0  0  0  0
  6  7  1  0  0  0  0
  7  8  1  0  0  0  0
  7 17  2  0  0  0  0
  8  9  1  0  0  0  0
  8 25  1  0  0  0  0
  8 26  1  0  0  0  0
  9 10  1  0  0  0  0
  9 27  1  0  0  0  0
  9 28  1  0  0  0  0
 10 11  1  0  0  0  0
 10 29  1  0  0  0  0
 11 16  1  0  0  0  0
 11 12  1  0  0  0  0
 11 30  1  0  0  0  0
 12 13  1  0  0  0  0
 12 31  1  0  0  0  0
 12 32  1  0  0  0  0
 13 14  1  0  0  0  0
 13 33  1  0  0  0  0
 13 34  1  0  0  0  0
 14 15  1  0  0  0  0
 14 35  1  0  0  0  0
 14 36  1  0  0  0  0
 15 16  1  0  0  0  0
 16 37  1  0  0  0  0
 16 38  1  0  0  0  0
M  END
> <s_m_source_file>
AV-unprocessed.smi

> <i_m_source_file_index>
3280

> <i_lp_mmshare_version>
43012

> <i_f3d_flags>
0

> <s_epik_input>
W0NIM11bQ0hdKFtDSDNdKWMxbm9jKG4xKVtDSDJdW0NIMl1bTkhdW0NAQEhdMltDSDJdW0NIMl1bQ0gyXVNbQ0gyXTI=

> <s_epik_cmdline>
J2VwaWtfcHl0aG9uJywgJy1waCcsICc3LjAnLCAnLXRuJywgJzgnLCAnLW1hJywgJzIwMCcsICctbWV0YWxfYmluZGluZycsICctaW1hZScsICc8aW5maWxlLm1hZT4nLCAnLW9tYWUnLCAnPG91dGZpbGUubWFlPic=

> <r_lp_tautomer_probability>
1

> <r_epik_Ionization_Penalty>
2.40576

> <r_epik_Ionization_Penalty_Charging>
0

> <r_epik_Ionization_Penalty_Neutral>
2.40576

> <r_epik_State_Penalty>
2.56401

> <r_epik_Charging_Adjusted_Penalty>
2.56401

> <i_epik_Tot_Q>
0

> <i_epik_Tot_abs_Q>
0

> <r_epik_Metal_State_Penalty>
2.56401

> <b_epik_Metal_Only>
0

> <s_lp_Force_Field>
OPLS_2005

> <r_lp_Energy>
1.02241

> <b_lp_Chiralities_Consistent>
1

> <s_lp_Variant>
AV-unprocessed.smi:3280-4

> <Gold.Version>
5.8.1

> <Gold.Id.Protein>
6NUR|6NUR_protein|mol2

> <Gold.PLP.Fitness>
38.1389

> <Gold.PLP.PLP>
-36.6511

> <Gold.PLP.part.hbond>
-1.0000

> <Gold.PLP.part.metal>
0.0000

> <Gold.PLP.part.buried>
-3.4257

> <Gold.PLP.part.nonpolar>
-31.6078

> <Gold.PLP.part.repulsive>
0.0772

> <Gold.PLP.ligand.clash>
0.0000

> <Gold.PLP.ligand.torsion>
0.7971

> <Gold.PLP.Chemscore.Hbond>
1.0000

> <Gold.PLP.Chemscore.CHOScore>
0.0000

> <Gold.PLP.Chemscore.Metal>
0.0000

> <Gold.Chemscore.Hbonds>
donor molecule, donor type, donor heavy atom, donor atom, acceptor molecule, acceptor atom, score
      P1  H  7989  7998       L1     6  1.00

> <Gold.PLP.Chemscore.Internal.Correction>
0.0821

> <Gold.Rescore>
     Score         DG    S(hbond)    S(metal)    S(lipo)     H(rot)  DE(clash)    DE(int)     intcor
     15.39     -16.16       0.96        0.00     100.85       1.68       0.12       0.65       ----

> <Gold.Chemscore.Fitness>
15.3927

> <Gold.Chemscore.DG>
-16.1630

> <Gold.Chemscore.ZeroCoef>
-5.4800

> <Gold.Chemscore.Hbond>
0.9560

> <Gold.Chemscore.Metal>
0.0000

> <Gold.Chemscore.Lipo>
100.8461

> <Gold.Chemscore.Internal_Hbond>
0.0000

> <Gold.Chemscore.DEClash>
0.1249

> <Gold.Chemscore.DEInternal>
0.6454

> <Gold.Chemscore.Rot>
1.6833

> <Gold.Chemscore.Internal.Correction>
   9.000000E+99

> <Gold.Chemscore.Hbonds>
donor molecule, donor type, donor heavy atom, donor atom, acceptor molecule, acceptor atom, score
      P1  H  7989  7998       L1     6  0.98

> <Gold.Chemscore.Hbond.Weighted>
-3.1932

> <Gold.Chemscore.Metal.Weighted>
-0.0000

> <Gold.Chemscore.Lipo.Weighted>
-11.7990

> <Gold.Chemscore.Internal_Hbond.Weighted>
0.0000

> <Gold.Chemscore.DEClash.Weighted>
0.1249

> <Gold.Chemscore.DEInternal.Weighted>
0.6454

> <Gold.Chemscore.Rot.Weighted>
4.3092

> <Gold.Chemscore.Internal.Correction.Weighted>
   9.000000E+99

> <Gold.Protein.RotatedTorsions>
[ 6907 6896 6895 6894 ] final   95.93 input  -60.11 | X-H torsion
[ 7974 7965 7964 7962 ] final   96.95 input  175.53 | X-H torsion
[ 8008 7997 7996 7995 ] final  -81.39 input   59.86 | X-H torsion
[ 10167 10162 10161 10158 ] final -160.39 input  -65.29 | X-H torsion
[ 10718 10713 10712 10709 ] final   97.72 input   66.30 | X-H torsion
[ 10763 10752 10751 10750 ] final   31.19 input  -60.55 | X-H torsion
[ 11005 11000 10999 10996 ] final -166.94 input  -57.11 | X-H torsion

> <Gold.Protein.ActiveResidues>
 VAL166  LYS551  ARG553  GLY616  TRP617  ASP618  TYR619  PRO620  LYS621  CYS622 
 ASP623  PHE694  ASN695  SER759  ASP760  ASP761  ALA762  ILE779  LEU786  VAL792 
 PHE793  MET794  SER795  GLU796  ALA797  LYS798  CYS799  TRP800  GLU811  SER814 

> <Gold.Protein.RotatedAtoms>
  152.5439  134.0965  159.8299 H   0  0  0  0  0  0  0  0  0  0  0  0  # atno 6907 bound_to 6896
  151.1048  133.5209  159.2615 H   0  0  0  0  0  0  0  0  0  0  0  0  # atno 6908 bound_to 6896
  151.1950  135.0428  159.8903 H   0  0  0  0  0  0  0  0  0  0  0  0  # atno 6909 bound_to 6896
  145.4320  139.2309  143.3139 H   0  0  0  0  0  0  0  0  0  0  0  0  # atno 7974 bound_to 7965
  154.5979  140.0648  156.9328 H   0  0  0  0  0  0  0  0  0  0  0  0  # atno 8008 bound_to 7997
  155.2183  140.3328  155.4301 H   0  0  0  0  0  0  0  0  0  0  0  0  # atno 8009 bound_to 7997
  156.2299  140.1836  156.7253 H   0  0  0  0  0  0  0  0  0  0  0  0  # atno 8010 bound_to 7997
  139.6543  144.0027  152.2183 H   0  0  0  0  0  0  0  0  0  0  0  0  # atno 10167 bound_to 10162
  157.6908  131.0618  150.4687 H   0  0  0  0  0  0  0  0  0  0  0  0  # atno 10718 bound_to 10713
  153.0329  135.6445  154.1162 H   0  0  0  0  0  0  0  0  0  0  0  0  # atno 10763 bound_to 10752
  154.0881  135.2868  155.3278 H   0  0  0  0  0  0  0  0  0  0  0  0  # atno 10764 bound_to 10752
  154.6484  135.5435  153.7935 H   0  0  0  0  0  0  0  0  0  0  0  0  # atno 10765 bound_to 10752
  140.5589  134.5354  157.5139 H   0  0  0  0  0  0  0  0  0  0  0  0  # atno 11005 bound_to 11000
  146.2602  140.5058  142.8857 LP  0  0  0  0  0  0  0  0  0  0  0  0  # atno 17320 bound_to 7965
  144.8176  140.6495  143.6374 LP  0  0  0  0  0  0  0  0  0  0  0  0  # atno 17321 bound_to 7965
  139.9749  144.6468  150.7954 LP  0  0  0  0  0  0  0  0  0  0  0  0  # atno 17342 bound_to 10162
  140.7552  143.3042  151.3004 LP  0  0  0  0  0  0  0  0  0  0  0  0  # atno 17343 bound_to 10162
  156.5026  130.4121  149.6344 LP  0  0  0  0  0  0  0  0  0  0  0  0  # atno 17370 bound_to 10713
  156.3314  130.7333  151.2263 LP  0  0  0  0  0  0  0  0  0  0  0  0  # atno 17371 bound_to 10713
  139.9418  134.7774  156.0660 LP  0  0  0  0  0  0  0  0  0  0  0  0  # atno 17394 bound_to 11000
  141.1127  133.6638  156.3017 LP  0  0  0  0  0  0  0  0  0  0  0  0  # atno 17395 bound_to 11000

$$$$
