AV-unprocessed.smi:3255|AV-procd|sdf|12461|dock3
  -GOLD-   2272018353D 1   1.00000     0.00000
 Structure written by MMmdl.
 38 39  0  0  0  0  0  0  0  0  1 V2000
  148.3688  138.4883  156.0575 C   0  0  0  0  0  0  0  0  0  0  0  0
  148.6650  139.0374  154.6535 C   0  0  2  0  0  0  0  0  0  0  0  0
  148.0685  138.1397  153.6674 N   0  0  0  0  0  0  0  0  0  0  0  0
  146.7591  138.0473  153.3967 C   0  0  0  0  0  0  0  0  0  0  0  0
  145.8829  138.6730  153.9937 O   0  0  0  0  0  0  0  0  0  0  0  0
  146.5223  137.2146  152.3734 N   0  0  0  0  0  0  0  0  0  0  0  0
  145.2138  136.9771  151.7707 C   0  0  0  0  0  0  0  0  0  0  0  0
  144.6223  135.6195  152.1951 C   0  0  0  0  0  0  0  0  0  0  0  0
  145.1023  134.5188  151.3799 N   0  0  0  0  0  0  0  0  0  0  0  0
  146.4031  134.0379  151.3004 C   0  0  0  0  0  0  0  0  0  0  0  0
  146.3833  132.9992  150.3976 C   0  0  0  0  0  0  0  0  0  0  0  0
  145.0884  132.8196  149.9171 N   0  0  0  0  0  0  0  0  0  0  0  0
  144.3862  133.7549  150.5436 C   0  0  0  0  0  0  0  0  0  0  0  0
  150.1794  139.1755  154.3871 C   0  0  2  0  0  0  0  0  0  0  0  0
  150.9505  137.8550  154.3765 C   0  0  0  0  0  0  0  0  0  0  0  0
  152.3731  138.2672  154.7217 C   0  0  0  0  0  0  0  0  0  0  0  0
  152.2234  139.6765  155.3010 C   0  0  0  0  0  0  0  0  0  0  0  0
  150.8241  139.8729  155.4424 O   0  0  0  0  0  0  0  0  0  0  0  0
  148.7385  139.1599  156.8326 H   0  0  0  0  0  0  0  0  0  0  0  0
  148.8355  137.5145  156.2103 H   0  0  0  0  0  0  0  0  0  0  0  0
  147.2959  138.3721  156.2145 H   0  0  0  0  0  0  0  0  0  0  0  0
  148.2005  140.0224  154.5785 H   0  0  0  0  0  0  0  0  0  0  0  0
  148.7064  137.5823  153.1184 H   0  0  0  0  0  0  0  0  0  0  0  0
  147.3100  136.7458  151.9507 H   0  0  0  0  0  0  0  0  0  0  0  0
  144.5509  137.7759  152.1038 H   0  0  0  0  0  0  0  0  0  0  0  0
  145.2594  137.0556  150.6830 H   0  0  0  0  0  0  0  0  0  0  0  0
  144.8519  135.4114  153.2410 H   0  0  0  0  0  0  0  0  0  0  0  0
  143.5351  135.6492  152.1143 H   0  0  0  0  0  0  0  0  0  0  0  0
  147.2144  134.4685  151.8684 H   0  0  0  0  0  0  0  0  0  0  0  0
  147.1957  132.3734  150.0591 H   0  0  0  0  0  0  0  0  0  0  0  0
  143.3261  133.8906  150.3876 H   0  0  0  0  0  0  0  0  0  0  0  0
  150.3543  139.7140  153.4534 H   0  0  0  0  0  0  0  0  0  0  0  0
  150.5665  137.1893  155.1507 H   0  0  0  0  0  0  0  0  0  0  0  0
  150.8825  137.3345  153.4209 H   0  0  0  0  0  0  0  0  0  0  0  0
  152.8159  137.5775  155.4411 H   0  0  0  0  0  0  0  0  0  0  0  0
  153.0090  138.2832  153.8359 H   0  0  0  0  0  0  0  0  0  0  0  0
  152.7318  139.7931  156.2583 H   0  0  0  0  0  0  0  0  0  0  0  0
  152.6224  140.4212  154.6108 H   0  0  0  0  0  0  0  0  0  0  0  0
  1  2  1  0  0  0  0
  1 19  1  0  0  0  0
  1 20  1  0  0  0  0
  1 21  1  0  0  0  0
  2  3  1  0  0  0  0
  2 14  1  0  0  0  0
  2 22  1  0  0  0  0
  3  4  1  0  0  0  0
  3 23  1  0  0  0  0
  4  5  2  0  0  0  0
  4  6  1  0  0  0  0
  6  7  1  0  0  0  0
  6 24  1  0  0  0  0
  7  8  1  0  0  0  0
  7 25  1  0  0  0  0
  7 26  1  0  0  0  0
  8  9  1  0  0  0  0
  8 27  1  0  0  0  0
  8 28  1  0  0  0  0
  9 13  1  0  0  0  0
  9 10  1  0  0  0  0
 10 11  2  0  0  0  0
 10 29  1  0  0  0  0
 11 12  1  0  0  0  0
 11 30  1  0  0  0  0
 12 13  2  0  0  0  0
 13 31  1  0  0  0  0
 14 18  1  0  0  0  0
 14 15  1  0  0  0  0
 14 32  1  0  0  0  0
 15 16  1  0  0  0  0
 15 33  1  0  0  0  0
 15 34  1  0  0  0  0
 16 17  1  0  0  0  0
 16 35  1  0  0  0  0
 16 36  1  0  0  0  0
 17 18  1  0  0  0  0
 17 37  1  0  0  0  0
 17 38  1  0  0  0  0
M  END
> <s_m_source_file>
AV-unprocessed.smi

> <i_m_source_file_index>
3255

> <i_lp_mmshare_version>
43012

> <i_f3d_flags>
0

> <s_epik_input>
TzFbQ0gyXVtDSDJdW0NIMl1bQ0BIXTFbQ0BIXShbQ0gzXSlbTkhdQyg9TylbTkhdW0NIMl1bQ0gyXW4yW2NIXVtjSF1uW2NIXTI=

> <s_epik_cmdline>
J2VwaWtfcHl0aG9uJywgJy1waCcsICc3LjAnLCAnLXRuJywgJzgnLCAnLW1hJywgJzIwMCcsICctbWV0YWxfYmluZGluZycsICctaW1hZScsICc8aW5maWxlLm1hZT4nLCAnLW9tYWUnLCAnPG91dGZpbGUubWFlPic=

> <r_lp_tautomer_probability>
1

> <r_epik_Ionization_Penalty>
0.620274

> <r_epik_Ionization_Penalty_Charging>
0.620225

> <r_epik_Ionization_Penalty_Neutral>
4.91362e-05

> <r_epik_State_Penalty>
0.636186

> <r_epik_Charging_Adjusted_Penalty>
1.25641

> <i_epik_Tot_Q>
0

> <i_epik_Tot_abs_Q>
0

> <r_epik_Metal_State_Penalty>
0.306491

> <b_epik_Metal_Only>
0

> <s_lp_Force_Field>
OPLS_2005

> <r_lp_Energy>
16.7313

> <b_lp_Chiralities_Consistent>
1

> <s_lp_Variant>
AV-unprocessed.smi:3255-5

> <Gold.Version>
5.8.1

> <Gold.Id.Protein>
6NUR|6NUR_protein|mol2

> <Gold.PLP.Fitness>
42.7090

> <Gold.PLP.PLP>
-28.7338

> <Gold.PLP.part.hbond>
-2.0464

> <Gold.PLP.part.metal>
0.0000

> <Gold.PLP.part.buried>
-2.0342

> <Gold.PLP.part.nonpolar>
-25.7776

> <Gold.PLP.part.repulsive>
0.3923

> <Gold.PLP.ligand.clash>
0.0000

> <Gold.PLP.ligand.torsion>
0.5150

> <Gold.PLP.Chemscore.Hbond>
1.9920

> <Gold.PLP.Chemscore.CHOScore>
3.0000

> <Gold.PLP.Chemscore.Metal>
0.0000

> <Gold.Chemscore.Hbonds>
donor molecule, donor type, donor heavy atom, donor atom, acceptor molecule, acceptor atom, score
      L1  H     3    23       P1  7948  0.99
      L1  H     6    24       P1  7948  1.00
      L1  C    10    29       P1  7948  1.00
      L1  C    11    30       P1 10747  1.00
      L1  C    13    31       P1 10186  1.00

> <Gold.PLP.Chemscore.Internal.Correction>
0.0292

> <Gold.Rescore>
     Score         DG    S(hbond)    S(metal)    S(lipo)     H(rot)  DE(clash)    DE(int)     intcor
     12.87     -13.49       1.94        0.00      60.93       2.18       0.13       0.49       ----

> <Gold.Chemscore.Fitness>
12.8727

> <Gold.Chemscore.DG>
-13.4916

> <Gold.Chemscore.ZeroCoef>
-5.4800

> <Gold.Chemscore.Hbond>
1.9375

> <Gold.Chemscore.Metal>
0.0000

> <Gold.Chemscore.Lipo>
60.9255

> <Gold.Chemscore.Internal_Hbond>
0.0000

> <Gold.Chemscore.DEClash>
0.1309

> <Gold.Chemscore.DEInternal>
0.4880

> <Gold.Chemscore.Rot>
2.1828

> <Gold.Chemscore.Internal.Correction>
   9.000000E+99

> <Gold.Chemscore.Hbonds>
donor molecule, donor type, donor heavy atom, donor atom, acceptor molecule, acceptor atom, score
      L1  H     3    23       P1  7948  0.93
      L1  H     6    24       P1  7948  0.98

> <Gold.Chemscore.Hbond.Weighted>
-6.4714

> <Gold.Chemscore.Metal.Weighted>
-0.0000

> <Gold.Chemscore.Lipo.Weighted>
-7.1283

> <Gold.Chemscore.Internal_Hbond.Weighted>
0.0000

> <Gold.Chemscore.DEClash.Weighted>
0.1309

> <Gold.Chemscore.DEInternal.Weighted>
0.4880

> <Gold.Chemscore.Rot.Weighted>
5.5881

> <Gold.Chemscore.Internal.Correction.Weighted>
   9.000000E+99

> <Gold.Protein.RotatedTorsions>
[ 6907 6896 6895 6894 ] final  133.39 input  -60.11 | X-H torsion
[ 7974 7965 7964 7962 ] final  -50.63 input  175.53 | X-H torsion
[ 8008 7997 7996 7995 ] final  144.24 input   59.86 | X-H torsion
[ 10167 10162 10161 10158 ] final   52.57 input  -65.29 | X-H torsion
[ 10718 10713 10712 10709 ] final -112.62 input   66.30 | X-H torsion
[ 10763 10752 10751 10750 ] final   46.21 input  -60.55 | X-H torsion
[ 11005 11000 10999 10996 ] final  132.11 input  -57.11 | X-H torsion

> <Gold.Protein.ActiveResidues>
 VAL166  LYS551  ARG553  GLY616  TRP617  ASP618  TYR619  PRO620  LYS621  CYS622 
 ASP623  PHE694  ASN695  SER759  ASP760  ASP761  ALA762  ILE779  LEU786  VAL792 
 PHE793  MET794  SER795  GLU796  ALA797  LYS798  CYS799  TRP800  GLU811  SER814 

> <Gold.Protein.RotatedAtoms>
  152.3225  133.5869  159.5753 H   0  0  0  0  0  0  0  0  0  0  0  0  # atno 6907 bound_to 6896
  150.7379  133.9990  159.3641 H   0  0  0  0  0  0  0  0  0  0  0  0  # atno 6908 bound_to 6896
  151.7873  135.0746  160.0433 H   0  0  0  0  0  0  0  0  0  0  0  0  # atno 6909 bound_to 6896
  145.9277  140.7777  142.9615 H   0  0  0  0  0  0  0  0  0  0  0  0  # atno 7974 bound_to 7965
  156.2912  140.2241  156.5021 H   0  0  0  0  0  0  0  0  0  0  0  0  # atno 8008 bound_to 7997
  154.7681  140.0468  157.1050 H   0  0  0  0  0  0  0  0  0  0  0  0  # atno 8009 bound_to 7997
  154.9908  140.3090  155.4910 H   0  0  0  0  0  0  0  0  0  0  0  0  # atno 8010 bound_to 7997
  140.2499  144.3490  150.6351 H   0  0  0  0  0  0  0  0  0  0  0  0  # atno 10167 bound_to 10162
  156.0717  130.5930  150.8533 H   0  0  0  0  0  0  0  0  0  0  0  0  # atno 10718 bound_to 10713
  152.9814  135.6015  154.3563 H   0  0  0  0  0  0  0  0  0  0  0  0  # atno 10763 bound_to 10752
  154.3248  135.2769  155.2503 H   0  0  0  0  0  0  0  0  0  0  0  0  # atno 10764 bound_to 10752
  154.4653  135.5955  153.6340 H   0  0  0  0  0  0  0  0  0  0  0  0  # atno 10765 bound_to 10752
  139.9770  134.9560  156.9535 H   0  0  0  0  0  0  0  0  0  0  0  0  # atno 11005 bound_to 11000
  144.6761  140.2077  143.7380 LP  0  0  0  0  0  0  0  0  0  0  0  0  # atno 17320 bound_to 7965
  145.8467  139.2155  143.1796 LP  0  0  0  0  0  0  0  0  0  0  0  0  # atno 17321 bound_to 7965
  140.6048  143.2167  151.7002 LP  0  0  0  0  0  0  0  0  0  0  0  0  # atno 17342 bound_to 10162
  139.5049  144.3735  152.0446 LP  0  0  0  0  0  0  0  0  0  0  0  0  # atno 17343 bound_to 10162
  157.5791  131.0946  150.9299 LP  0  0  0  0  0  0  0  0  0  0  0  0  # atno 17370 bound_to 10713
  156.9499  130.5416  149.5282 LP  0  0  0  0  0  0  0  0  0  0  0  0  # atno 17371 bound_to 10713
  140.5174  134.0942  155.7284 LP  0  0  0  0  0  0  0  0  0  0  0  0  # atno 17394 bound_to 11000
  141.1446  133.9077  157.2245 LP  0  0  0  0  0  0  0  0  0  0  0  0  # atno 17395 bound_to 11000

$$$$
