AV-unprocessed.smi:239|AV-procd|sdf|1821|dock6
  -GOLD-   2262020413D 1   1.00000     0.00000
 Structure written by MMmdl.
 54 58  0  0  0  0  0  0  0  0  1 V2000
  143.7402  132.7042  149.5224 C   0  0  0  0  0  0  0  0  0  0  0  0
  145.0024  132.5304  150.3736 C   0  0  1  0  0  0  0  0  0  0  0  0
  145.0726  133.5568  151.5187 C   0  0  0  0  0  0  0  0  0  0  0  0
  146.2287  133.2859  152.3693 N   0  0  0  0  0  0  0  0  0  0  0  0
  146.5877  134.2289  153.2780 C   0  0  0  0  0  0  0  0  0  0  0  0
  147.2791  133.8682  154.3927 N   0  0  0  0  0  0  0  0  0  0  0  0
  147.6448  134.7883  155.2898 C   0  0  0  0  0  0  0  0  0  0  0  0
  147.4228  136.1034  155.2737 N   0  0  0  0  0  0  0  0  0  0  0  0
  146.7197  136.4724  154.1652 C   0  0  0  0  0  0  0  0  0  0  0  0
  146.2697  135.6090  153.1260 C   0  0  0  0  0  0  0  0  0  0  0  0
  145.5831  136.3452  152.1671 N   0  0  0  0  0  0  0  0  0  0  0  0
  145.6357  137.5725  152.6073 C   0  0  0  0  0  0  0  0  0  0  0  0
  146.2898  137.7384  153.8071 N   0  0  0  0  0  0  0  0  0  0  0  0
  146.4888  138.9876  154.5271 C   0  0  0  0  0  0  0  0  0  0  0  0
  147.8833  139.6273  154.3101 C   0  0  0  0  0  0  0  0  0  0  0  0
  147.9301  140.1262  152.9847 O   0  0  0  0  0  0  0  0  0  0  0  0
  148.0886  140.8079  155.2808 C   0  0  0  0  0  0  0  0  0  0  0  0
  149.5215  141.3667  155.2219 C   0  0  0  0  0  0  0  0  0  0  0  0
  150.4589  140.3260  155.4693 O   0  0  0  0  0  0  0  0  0  0  0  0
  150.4152  139.3015  154.4838 C   0  0  0  0  0  0  0  0  0  0  0  0
  149.0369  138.6165  154.4911 C   0  0  0  0  0  0  0  0  0  0  0  0
  146.2698  131.9107  152.8557 C   0  0  0  0  0  0  0  0  0  0  0  0
  146.1693  130.9247  151.6775 C   0  0  1  0  0  0  0  0  0  0  0  0
  146.1518  129.4832  152.1579 C   0  0  0  0  0  0  0  0  0  0  0  0
  147.4083  128.8081  152.6654 C   0  0  0  0  0  0  0  0  0  0  0  0
  146.8032  128.3786  151.3537 C   0  0  0  0  0  0  0  0  0  0  0  0
  144.9912  131.2176  150.9268 O   0  0  0  0  0  0  0  0  0  0  0  0
  143.7066  133.6945  149.0681 H   0  0  0  0  0  0  0  0  0  0  0  0
  142.8388  132.5811  150.1237 H   0  0  0  0  0  0  0  0  0  0  0  0
  143.7078  131.9682  148.7186 H   0  0  0  0  0  0  0  0  0  0  0  0
  145.8755  132.6395  149.7279 H   0  0  0  0  0  0  0  0  0  0  0  0
  145.1408  134.5638  151.1043 H   0  0  0  0  0  0  0  0  0  0  0  0
  144.1628  133.5110  152.1192 H   0  0  0  0  0  0  0  0  0  0  0  0
  148.1943  134.4175  156.1423 H   0  0  0  0  0  0  0  0  0  0  0  0
  145.1867  138.3954  152.0704 H   0  0  0  0  0  0  0  0  0  0  0  0
  145.7033  139.6834  154.2288 H   0  0  0  0  0  0  0  0  0  0  0  0
  146.3299  138.7910  155.5882 H   0  0  0  0  0  0  0  0  0  0  0  0
  148.7674  139.9022  152.6084 H   0  0  0  0  0  0  0  0  0  0  0  0
  147.3689  141.6018  155.0769 H   0  0  0  0  0  0  0  0  0  0  0  0
  147.8923  140.4743  156.3007 H   0  0  0  0  0  0  0  0  0  0  0  0
  149.7246  141.8341  154.2572 H   0  0  0  0  0  0  0  0  0  0  0  0
  149.6500  142.1404  155.9788 H   0  0  0  0  0  0  0  0  0  0  0  0
  150.6427  139.7165  153.5007 H   0  0  0  0  0  0  0  0  0  0  0  0
  151.1941  138.5712  154.7036 H   0  0  0  0  0  0  0  0  0  0  0  0
  148.9132  138.0976  155.4424 H   0  0  0  0  0  0  0  0  0  0  0  0
  149.0089  137.8494  153.7166 H   0  0  0  0  0  0  0  0  0  0  0  0
  147.1827  131.7130  153.4160 H   0  0  0  0  0  0  0  0  0  0  0  0
  145.4379  131.7564  153.5445 H   0  0  0  0  0  0  0  0  0  0  0  0
  147.0396  131.0405  151.0290 H   0  0  0  0  0  0  0  0  0  0  0  0
  145.2324  129.2112  152.6734 H   0  0  0  0  0  0  0  0  0  0  0  0
  148.3421  129.3656  152.6282 H   0  0  0  0  0  0  0  0  0  0  0  0
  147.3056  128.1319  153.5116 H   0  0  0  0  0  0  0  0  0  0  0  0
  146.2963  127.4163  151.3243 H   0  0  0  0  0  0  0  0  0  0  0  0
  147.3319  128.6521  150.4427 H   0  0  0  0  0  0  0  0  0  0  0  0
  1  2  1  0  0  0  0
  1 28  1  0  0  0  0
  1 29  1  0  0  0  0
  1 30  1  0  0  0  0
  2 27  1  0  0  0  0
  2  3  1  0  0  0  0
  2 31  1  0  0  0  0
  3  4  1  0  0  0  0
  3 32  1  0  0  0  0
  3 33  1  0  0  0  0
  4  5  1  0  0  0  0
  4 22  1  0  0  0  0
  5 10  1  0  0  0  0
  5  6  2  0  0  0  0
  6  7  1  0  0  0  0
  7  8  2  0  0  0  0
  7 34  1  0  0  0  0
  8  9  1  0  0  0  0
  9 13  1  0  0  0  0
  9 10  2  0  0  0  0
 10 11  1  0  0  0  0
 11 12  2  0  0  0  0
 12 13  1  0  0  0  0
 12 35  1  0  0  0  0
 13 14  1  0  0  0  0
 14 15  1  0  0  0  0
 14 36  1  0  0  0  0
 14 37  1  0  0  0  0
 15 21  1  0  0  0  0
 15 16  1  0  0  0  0
 15 17  1  0  0  0  0
 16 38  1  0  0  0  0
 17 18  1  0  0  0  0
 17 39  1  0  0  0  0
 17 40  1  0  0  0  0
 18 19  1  0  0  0  0
 18 41  1  0  0  0  0
 18 42  1  0  0  0  0
 19 20  1  0  0  0  0
 20 21  1  0  0  0  0
 20 43  1  0  0  0  0
 20 44  1  0  0  0  0
 21 45  1  0  0  0  0
 21 46  1  0  0  0  0
 22 23  1  0  0  0  0
 22 47  1  0  0  0  0
 22 48  1  0  0  0  0
 23 24  1  0  0  0  0
 23 27  1  0  0  0  0
 23 49  1  0  0  0  0
 24 26  1  0  0  0  0
 24 25  1  0  0  0  0
 24 50  1  0  0  0  0
 25 26  1  0  0  0  0
 25 51  1  0  0  0  0
 25 52  1  0  0  0  0
 26 53  1  0  0  0  0
 26 54  1  0  0  0  0
M  END
> <s_m_source_file>
AV-unprocessed.smi

> <i_m_source_file_index>
239

> <i_lp_mmshare_version>
43012

> <i_f3d_flags>
0

> <s_epik_input>
W0NIMl0xW0NIMl1bQ0hdMVtDQEBIXShPMilbQ0gyXU4oW0NIMl1bQ0BIXTJbQ0gzXSljKG5bY0hdbjMpYyhjMzQpbltjSF1uNFtDSDJdQzUoW09IXSlbQ0gyXVtDSDJdT1tDSDJdW0NIMl01

> <s_epik_cmdline>
J2VwaWtfcHl0aG9uJywgJy1waCcsICc3LjAnLCAnLXRuJywgJzgnLCAnLW1hJywgJzIwMCcsICctbWV0YWxfYmluZGluZycsICctaW1hZScsICc8aW5maWxlLm1hZT4nLCAnLW9tYWUnLCAnPG91dGZpbGUubWFlPic=

> <r_lp_tautomer_probability>
1

> <r_epik_Ionization_Penalty>
9.13091e-05

> <r_epik_Ionization_Penalty_Charging>
0

> <r_epik_Ionization_Penalty_Neutral>
9.13091e-05

> <r_epik_State_Penalty>
-0

> <r_epik_Charging_Adjusted_Penalty>
0

> <i_epik_Tot_Q>
0

> <i_epik_Tot_abs_Q>
0

> <r_epik_Metal_State_Penalty>
-0

> <b_epik_Metal_Only>
0

> <s_lp_Force_Field>
OPLS_2005

> <r_lp_Energy>
35.8814

> <b_lp_Chiralities_Consistent>
1

> <s_lp_Variant>
AV-unprocessed.smi:239-2

> <Gold.Version>
5.8.1

> <Gold.Id.Protein>
6NUR|6NUR_protein|mol2

> <Gold.PLP.Fitness>
43.3974

> <Gold.PLP.PLP>
-36.5022

> <Gold.PLP.part.hbond>
-0.9348

> <Gold.PLP.part.metal>
0.0000

> <Gold.PLP.part.buried>
-4.1814

> <Gold.PLP.part.nonpolar>
-32.2198

> <Gold.PLP.part.repulsive>
0.6339

> <Gold.PLP.ligand.clash>
0.0000

> <Gold.PLP.ligand.torsion>
1.5267

> <Gold.PLP.Chemscore.Hbond>
0.8640

> <Gold.PLP.Chemscore.CHOScore>
1.9902

> <Gold.PLP.Chemscore.Metal>
0.0000

> <Gold.Chemscore.Hbonds>
donor molecule, donor type, donor heavy atom, donor atom, acceptor molecule, acceptor atom, score
      L1  H    16    38       P1  7957  0.78
      L1  C    12    35       P1 10171  0.79
      L1  C    12    35       P1 10175  0.88

> <Gold.PLP.Chemscore.Internal.Correction>
1.3858

> <Gold.Rescore>
     Score         DG    S(hbond)    S(metal)    S(lipo)     H(rot)  DE(clash)    DE(int)     intcor
     11.97     -15.37       0.99        0.00     105.22       2.24       0.43       2.97       ----

> <Gold.Chemscore.Fitness>
11.9685

> <Gold.Chemscore.DG>
-15.3709

> <Gold.Chemscore.ZeroCoef>
-5.4800

> <Gold.Chemscore.Hbond>
0.9915

> <Gold.Chemscore.Metal>
0.0000

> <Gold.Chemscore.Lipo>
105.2178

> <Gold.Chemscore.Internal_Hbond>
0.0000

> <Gold.Chemscore.DEClash>
0.4329

> <Gold.Chemscore.DEInternal>
2.9695

> <Gold.Chemscore.Rot>
2.2387

> <Gold.Chemscore.Internal.Correction>
   9.000000E+99

> <Gold.Chemscore.Hbonds>
donor molecule, donor type, donor heavy atom, donor atom, acceptor molecule, acceptor atom, score
      L1  H    16    38       P1  7957  0.79

> <Gold.Chemscore.Hbond.Weighted>
-3.3115

> <Gold.Chemscore.Metal.Weighted>
-0.0000

> <Gold.Chemscore.Lipo.Weighted>
-12.3105

> <Gold.Chemscore.Internal_Hbond.Weighted>
0.0000

> <Gold.Chemscore.DEClash.Weighted>
0.4329

> <Gold.Chemscore.DEInternal.Weighted>
2.9695

> <Gold.Chemscore.Rot.Weighted>
5.7311

> <Gold.Chemscore.Internal.Correction.Weighted>
   9.000000E+99

> <Gold.Protein.RotatedTorsions>
[ 6907 6896 6895 6894 ] final  -77.49 input  -60.11 | X-H torsion
[ 7974 7965 7964 7962 ] final   71.33 input  175.53 | X-H torsion
[ 8008 7997 7996 7995 ] final  -86.86 input   59.86 | X-H torsion
[ 10167 10162 10161 10158 ] final  153.09 input  -65.29 | X-H torsion
[ 10718 10713 10712 10709 ] final -131.30 input   66.30 | X-H torsion
[ 10763 10752 10751 10750 ] final  -80.36 input  -60.55 | X-H torsion
[ 11005 11000 10999 10996 ] final  137.24 input  -57.11 | X-H torsion

> <Gold.Protein.ActiveResidues>
 VAL166  LYS551  ARG553  GLY616  TRP617  ASP618  TYR619  PRO620  LYS621  CYS622 
 ASP623  PHE694  ASN695  SER759  ASP760  ASP761  ALA762  ILE779  LEU786  VAL792 
 PHE793  MET794  SER795  GLU796  ALA797  LYS798  CYS799  TRP800  GLU811  SER814 

> <Gold.Protein.RotatedAtoms>
  150.6997  134.4414  159.5293 H   0  0  0  0  0  0  0  0  0  0  0  0  # atno 6907 bound_to 6896
  152.2123  134.8487  160.0505 H   0  0  0  0  0  0  0  0  0  0  0  0  # atno 6908 bound_to 6896
  151.9368  133.3591  159.3987 H   0  0  0  0  0  0  0  0  0  0  0  0  # atno 6909 bound_to 6896
  145.7671  139.2826  143.1342 H   0  0  0  0  0  0  0  0  0  0  0  0  # atno 7974 bound_to 7965
  154.6566  140.0573  157.0016 H   0  0  0  0  0  0  0  0  0  0  0  0  # atno 8008 bound_to 7997
  155.1291  140.3255  155.4460 H   0  0  0  0  0  0  0  0  0  0  0  0  # atno 8009 bound_to 7997
  156.2600  140.1984  156.6410 H   0  0  0  0  0  0  0  0  0  0  0  0  # atno 8010 bound_to 7997
  139.4829  144.5303  151.7734 H   0  0  0  0  0  0  0  0  0  0  0  0  # atno 10167 bound_to 10162
  156.2230  130.6990  151.0777 H   0  0  0  0  0  0  0  0  0  0  0  0  # atno 10718 bound_to 10713
  154.5503  135.5663  153.6916 H   0  0  0  0  0  0  0  0  0  0  0  0  # atno 10763 bound_to 10752
  152.9987  135.6249  154.2383 H   0  0  0  0  0  0  0  0  0  0  0  0  # atno 10764 bound_to 10752
  154.2318  135.2865  155.2867 H   0  0  0  0  0  0  0  0  0  0  0  0  # atno 10765 bound_to 10752
  140.0100  134.9443  157.0258 H   0  0  0  0  0  0  0  0  0  0  0  0  # atno 11005 bound_to 11000
  146.0207  140.8351  142.9925 LP  0  0  0  0  0  0  0  0  0  0  0  0  # atno 17320 bound_to 7965
  144.6819  140.2624  143.7317 LP  0  0  0  0  0  0  0  0  0  0  0  0  # atno 17321 bound_to 7965
  140.4828  144.1425  150.5935 LP  0  0  0  0  0  0  0  0  0  0  0  0  # atno 17342 bound_to 10162
  140.4259  143.2590  151.9657 LP  0  0  0  0  0  0  0  0  0  0  0  0  # atno 17343 bound_to 10162
  157.7097  131.0740  150.6545 LP  0  0  0  0  0  0  0  0  0  0  0  0  # atno 17370 bound_to 10713
  156.6609  130.4512  149.5688 LP  0  0  0  0  0  0  0  0  0  0  0  0  # atno 17371 bound_to 10713
  140.4571  134.1522  155.7187 LP  0  0  0  0  0  0  0  0  0  0  0  0  # atno 17394 bound_to 11000
  141.1704  133.8619  157.1587 LP  0  0  0  0  0  0  0  0  0  0  0  0  # atno 17395 bound_to 11000

$$$$
