AV-unprocessed.smi:52|AV-procd|sdf|509|dock9
  -GOLD-   2262016383D 1   1.00000     0.00000
 Structure written by MMmdl.
 27 28  0  0  0  0  0  0  0  0  3 V2000
  152.7855  139.8053  157.0643 O   0  0  0  0  0  0  0  0  0  0  0  0
  152.2965  139.7955  155.9131 C   0  0  0  0  0  0  0  0  0  0  0  0
  152.9147  139.3195  154.9356 O   0  5  0  0  0  0  0  0  0  0  0  0
  150.9431  140.3697  155.7001 C   0  0  0  0  0  0  0  0  0  0  0  0
  150.1413  140.9581  156.6452 C   0  0  0  0  0  0  0  0  0  0  0  0
  148.9765  141.3685  156.0550 O   0  0  0  0  0  0  0  0  0  0  0  0
  149.1168  141.0054  154.7514 C   0  0  0  0  0  0  0  0  0  0  0  0
  148.0218  141.3248  153.7881 C   0  0  0  0  0  0  0  0  0  0  0  0
  147.8930  140.0992  152.9649 N   0  3  2  0  0  0  0  0  0  0  0  0
  146.8454  140.1819  151.9267 C   0  0  0  0  0  0  0  0  0  0  0  0
  146.4716  138.7343  151.6260 C   0  0  0  0  0  0  0  0  0  0  0  0
  146.5455  138.0849  153.0045 C   0  0  1  0  0  0  0  0  0  0  0  0
  146.7892  136.6969  152.9172 O   0  0  0  0  0  0  0  0  0  0  0  0
  147.6781  138.8371  153.7189 C   0  0  0  0  0  0  0  0  0  0  0  0
  150.2724  140.4031  154.4840 N   0  0  0  0  0  0  0  0  0  0  0  0
  145.6063  138.2534  153.5336 H   0  0  0  0  0  0  0  0  0  0  0  0
  150.2491  141.1503  157.7028 H   0  0  0  0  0  0  0  0  0  0  0  0
  147.0958  141.5689  154.3105 H   0  0  0  0  0  0  0  0  0  0  0  0
  148.3180  142.1777  153.1763 H   0  0  0  0  0  0  0  0  0  0  0  0
  145.9757  140.7097  152.3220 H   0  0  0  0  0  0  0  0  0  0  0  0
  147.1950  140.7184  151.0441 H   0  0  0  0  0  0  0  0  0  0  0  0
  145.4910  138.6343  151.1594 H   0  0  0  0  0  0  0  0  0  0  0  0
  147.2129  138.2962  150.9550 H   0  0  0  0  0  0  0  0  0  0  0  0
  147.6802  136.5623  152.6310 H   0  0  0  0  0  0  0  0  0  0  0  0
  148.6110  138.2717  153.7022 H   0  0  0  0  0  0  0  0  0  0  0  0
  147.4199  139.0127  154.7646 H   0  0  0  0  0  0  0  0  0  0  0  0
  148.7666  139.9842  152.4709 H   0  0  0  0  0  0  0  0  0  0  0  0
  1  2  2  0  0  0  0
  2  3  1  0  0  0  0
  2  4  1  0  0  0  0
  4 15  1  0  0  0  0
  4  5  2  0  0  0  0
  5  6  1  0  0  0  0
  5 17  1  0  0  0  0
  6  7  1  0  0  0  0
  7  8  1  0  0  0  0
  7 15  2  0  0  0  0
  8  9  1  0  0  0  0
  8 18  1  0  0  0  0
  8 19  1  0  0  0  0
  9 14  1  0  0  0  0
  9 10  1  0  0  0  0
  9 27  1  0  0  0  0
 10 11  1  0  0  0  0
 10 20  1  0  0  0  0
 10 21  1  0  0  0  0
 11 12  1  0  0  0  0
 11 22  1  0  0  0  0
 11 23  1  0  0  0  0
 12 16  1  0  0  0  0
 12 13  1  0  0  0  0
 12 14  1  0  0  0  0
 13 24  1  0  0  0  0
 14 25  1  0  0  0  0
 14 26  1  0  0  0  0
M  CHG  1   3  -1
M  CHG  1   9   1
M  END
> <s_m_source_file>
AV-unprocessed.smi

> <i_m_source_file_index>
52

> <i_lp_mmshare_version>
43012

> <i_f3d_flags>
0

> <s_epik_input>
Tz1DKFtPSF0pYzFbY0hdb2MobjEpW0NIMl1OMltDSDJdW0NIMl1bQ0BIXShbT0hdKVtDSDJdMg==

> <s_epik_cmdline>
J2VwaWtfcHl0aG9uJywgJy1waCcsICc3LjAnLCAnLXRuJywgJzgnLCAnLW1hJywgJzIwMCcsICctbWV0YWxfYmluZGluZycsICctaW1hZScsICc8aW5maWxlLm1hZT4nLCAnLW9tYWUnLCAnPG91dGZpbGUubWFlPic=

> <r_epik_Ionization_Penalty>
0.0376014

> <r_epik_Ionization_Penalty_Charging>
0.0376013

> <r_epik_Ionization_Penalty_Neutral>
1.78687e-08

> <r_epik_State_Penalty>
0.0314164

> <r_epik_Charging_Adjusted_Penalty>
0.0690177

> <i_epik_Tot_Q>
0

> <i_epik_Tot_abs_Q>
2

> <r_epik_Metal_State_Penalty>
0.0314164

> <b_epik_Metal_Only>
0

> <s_lp_Force_Field>
OPLS_2005

> <r_lp_Energy>
21.0877

> <b_lp_Chiralities_Consistent>
1

> <s_lp_Variant>
AV-unprocessed.smi:52-3

> <Gold.Version>
5.8.1

> <Gold.Id.Protein>
6NUR|6NUR_protein|mol2

> <Gold.PLP.Fitness>
41.2569

> <Gold.PLP.PLP>
-26.8351

> <Gold.PLP.part.hbond>
-4.9162

> <Gold.PLP.part.metal>
0.0000

> <Gold.PLP.part.buried>
0.5615

> <Gold.PLP.part.nonpolar>
-23.6959

> <Gold.PLP.part.repulsive>
0.3111

> <Gold.PLP.ligand.clash>
0.0000

> <Gold.PLP.ligand.torsion>
0.2339

> <Gold.PLP.Chemscore.Hbond>
4.9600

> <Gold.PLP.Chemscore.CHOScore>
0.0000

> <Gold.PLP.Chemscore.Metal>
0.0000

> <Gold.Chemscore.Hbonds>
donor molecule, donor type, donor heavy atom, donor atom, acceptor molecule, acceptor atom, score
      L1  H     9    27       P1  7957  1.00
      L1  H    13    24       P1  7948  0.98
      P1  H  7989  7998       L1    15  0.89
      P1  H  7997  8008       L1     1  2.00

> <Gold.PLP.Chemscore.Internal.Correction>
0.0096

> <Gold.Rescore>
     Score         DG    S(hbond)    S(metal)    S(lipo)     H(rot)  DE(clash)    DE(int)     intcor
     16.68     -17.82       3.51        0.00      48.97       1.99       0.84       0.30       ----

> <Gold.Chemscore.Fitness>
16.6791

> <Gold.Chemscore.DG>
-17.8179

> <Gold.Chemscore.ZeroCoef>
-5.4800

> <Gold.Chemscore.Hbond>
3.5052

> <Gold.Chemscore.Metal>
0.0000

> <Gold.Chemscore.Lipo>
48.9701

> <Gold.Chemscore.Internal_Hbond>
0.0000

> <Gold.Chemscore.DEClash>
0.8432

> <Gold.Chemscore.DEInternal>
0.2956

> <Gold.Chemscore.Rot>
1.9919

> <Gold.Chemscore.Internal.Correction>
   9.000000E+99

> <Gold.Chemscore.Hbonds>
donor molecule, donor type, donor heavy atom, donor atom, acceptor molecule, acceptor atom, score
      L1  H     9    27       P1  7957  0.90
      L1  H    13    24       P1  7948  0.91
      P1  H  7989  7998       L1    15  0.17
      P1  H  7997  8008       L1     1  0.49

> <Gold.Chemscore.Hbond.Weighted>
-11.7075

> <Gold.Chemscore.Metal.Weighted>
-0.0000

> <Gold.Chemscore.Lipo.Weighted>
-5.7295

> <Gold.Chemscore.Internal_Hbond.Weighted>
0.0000

> <Gold.Chemscore.DEClash.Weighted>
0.8432

> <Gold.Chemscore.DEInternal.Weighted>
0.2956

> <Gold.Chemscore.Rot.Weighted>
5.0991

> <Gold.Chemscore.Internal.Correction.Weighted>
   9.000000E+99

> <Gold.Protein.RotatedTorsions>
[ 6907 6896 6895 6894 ] final   39.32 input  -60.11 | X-H torsion
[ 7974 7965 7964 7962 ] final  165.37 input  175.53 | X-H torsion
[ 8008 7997 7996 7995 ] final  -73.16 input   59.86 | X-H torsion
[ 10167 10162 10161 10158 ] final   12.01 input  -65.29 | X-H torsion
[ 10718 10713 10712 10709 ] final  111.85 input   66.30 | X-H torsion
[ 10763 10752 10751 10750 ] final -151.05 input  -60.55 | X-H torsion
[ 11005 11000 10999 10996 ] final -153.66 input  -57.11 | X-H torsion

> <Gold.Protein.ActiveResidues>
 VAL166  LYS551  ARG553  GLY616  TRP617  ASP618  TYR619  PRO620  LYS621  CYS622 
 ASP623  PHE694  ASN695  SER759  ASP760  ASP761  ALA762  ILE779  LEU786  VAL792 
 PHE793  MET794  SER795  GLU796  ALA797  LYS798  CYS799  TRP800  GLU811  SER814 

> <Gold.Protein.RotatedAtoms>
  152.1680  134.8858  160.0536 H   0  0  0  0  0  0  0  0  0  0  0  0  # atno 6907 bound_to 6896
  151.9828  133.3759  159.4122 H   0  0  0  0  0  0  0  0  0  0  0  0  # atno 6908 bound_to 6896
  150.6897  134.3943  159.5134 H   0  0  0  0  0  0  0  0  0  0  0  0  # atno 6909 bound_to 6896
  144.7505  139.8461  143.6367 H   0  0  0  0  0  0  0  0  0  0  0  0  # atno 7974 bound_to 7965
  154.5225  140.0784  156.8197 H   0  0  0  0  0  0  0  0  0  0  0  0  # atno 8008 bound_to 7997
  155.3546  140.3414  155.4221 H   0  0  0  0  0  0  0  0  0  0  0  0  # atno 8009 bound_to 7997
  156.1696  140.1615  156.8458 H   0  0  0  0  0  0  0  0  0  0  0  0  # atno 8010 bound_to 7997
  140.6095  143.8438  150.7050 H   0  0  0  0  0  0  0  0  0  0  0  0  # atno 10167 bound_to 10162
  157.6423  131.0958  150.6809 H   0  0  0  0  0  0  0  0  0  0  0  0  # atno 10718 bound_to 10713
  154.8081  135.3269  154.7377 H   0  0  0  0  0  0  0  0  0  0  0  0  # atno 10763 bound_to 10752
  153.8031  135.6902  153.4857 H   0  0  0  0  0  0  0  0  0  0  0  0  # atno 10764 bound_to 10752
  153.1841  135.4575  155.0011 H   0  0  0  0  0  0  0  0  0  0  0  0  # atno 10765 bound_to 10752
  140.7057  134.3888  157.5204 H   0  0  0  0  0  0  0  0  0  0  0  0  # atno 11005 bound_to 11000
  146.1449  139.4515  143.0085 LP  0  0  0  0  0  0  0  0  0  0  0  0  # atno 17320 bound_to 7965
  145.6961  141.0150  143.1529 LP  0  0  0  0  0  0  0  0  0  0  0  0  # atno 17321 bound_to 7965
  140.2003  143.3965  152.1797 LP  0  0  0  0  0  0  0  0  0  0  0  0  # atno 17342 bound_to 10162
  139.5350  144.7200  151.4924 LP  0  0  0  0  0  0  0  0  0  0  0  0  # atno 17343 bound_to 10162
  156.7131  130.4658  149.5542 LP  0  0  0  0  0  0  0  0  0  0  0  0  # atno 17370 bound_to 10713
  156.1716  130.6441  151.0844 LP  0  0  0  0  0  0  0  0  0  0  0  0  # atno 17371 bound_to 10713
  139.8885  134.8855  156.2472 LP  0  0  0  0  0  0  0  0  0  0  0  0  # atno 17394 bound_to 11000
  141.0126  133.7086  156.1137 LP  0  0  0  0  0  0  0  0  0  0  0  0  # atno 17395 bound_to 11000

$$$$
