AV-unprocessed.smi:40|AV-procd|sdf|375|dock5
  -GOLD-   2262016223D 1   1.00000     0.00000
 Structure written by MMmdl.
 47 48  0  0  0  0  0  0  0  0  1 V2000
  152.6052  144.5009  158.3545 C   0  0  0  0  0  0  0  0  0  0  0  0
  153.3593  143.3542  159.0368 C   0  0  0  0  0  0  0  0  0  0  0  0
  152.6828  141.9930  158.8218 C   0  0  0  0  0  0  0  0  0  0  0  0
  153.4388  140.8434  159.5058 C   0  0  0  0  0  0  0  0  0  0  0  0
  152.5878  139.5709  159.6506 C   0  0  0  0  0  0  0  0  0  0  0  0
  152.5461  138.8395  158.4322 O   0  0  0  0  0  0  0  0  0  0  0  0
  151.6931  137.8036  158.2716 C   0  0  0  0  0  0  0  0  0  0  0  0
  150.9591  137.3638  159.1561 O   0  0  0  0  0  0  0  0  0  0  0  0
  151.7944  137.2540  156.9351 N   0  0  0  0  0  0  0  0  0  0  0  0
  151.0879  136.2157  156.4388 C   0  0  0  0  0  0  0  0  0  0  0  0
  150.9313  135.1587  157.2146 N   0  0  0  0  0  0  0  0  0  0  0  0
  150.2457  134.0342  156.8382 C   0  0  0  0  0  0  0  0  0  0  0  0
  150.1299  133.0825  157.6087 O   0  0  0  0  0  0  0  0  0  0  0  0
  149.6762  134.0244  155.5429 N   0  0  0  0  0  0  0  0  0  0  0  0
  148.9268  132.8026  155.0591 C   0  0  2  0  0  0  0  0  0  0  0  0
  148.7175  132.9480  153.6886 O   0  0  0  0  0  0  0  0  0  0  0  0
  147.4328  132.4445  153.3611 C   0  0  2  0  0  0  0  0  0  0  0  0
  146.9436  133.0656  152.0481 C   0  0  0  0  0  0  0  0  0  0  0  0
  146.5791  132.8004  154.5802 C   0  0  1  0  0  0  0  0  0  0  0  0
  145.4839  131.9131  154.6876 O   0  0  0  0  0  0  0  0  0  0  0  0
  147.5504  132.6151  155.7411 C   0  0  2  0  0  0  0  0  0  0  0  0
  147.2770  133.5356  156.7827 O   0  0  0  0  0  0  0  0  0  0  0  0
  149.8126  135.1332  154.7217 C   0  0  0  0  0  0  0  0  0  0  0  0
  150.4942  136.2304  155.1137 C   0  0  0  0  0  0  0  0  0  0  0  0
  150.5941  137.2960  154.3003 F   0  0  0  0  0  0  0  0  0  0  0  0
  149.5802  131.9419  155.2051 H   0  0  0  0  0  0  0  0  0  0  0  0
  147.5161  131.3606  153.2591 H   0  0  0  0  0  0  0  0  0  0  0  0
  146.2369  133.8349  154.5162 H   0  0  0  0  0  0  0  0  0  0  0  0
  147.5105  131.5969  156.1313 H   0  0  0  0  0  0  0  0  0  0  0  0
  153.1068  145.4532  158.5284 H   0  0  0  0  0  0  0  0  0  0  0  0
  151.5879  144.5860  158.7372 H   0  0  0  0  0  0  0  0  0  0  0  0
  152.5468  144.3477  157.2765 H   0  0  0  0  0  0  0  0  0  0  0  0
  154.3805  143.3198  158.6555 H   0  0  0  0  0  0  0  0  0  0  0  0
  153.4350  143.5606  160.1050 H   0  0  0  0  0  0  0  0  0  0  0  0
  151.6611  142.0311  159.2017 H   0  0  0  0  0  0  0  0  0  0  0  0
  152.6064  141.7946  157.7519 H   0  0  0  0  0  0  0  0  0  0  0  0
  154.3525  140.6190  158.9540 H   0  0  0  0  0  0  0  0  0  0  0  0
  153.7555  141.1655  160.4982 H   0  0  0  0  0  0  0  0  0  0  0  0
  152.9675  138.9467  160.4608 H   0  0  0  0  0  0  0  0  0  0  0  0
  151.5673  139.8407  159.9232 H   0  0  0  0  0  0  0  0  0  0  0  0
  152.4051  137.7605  156.3111 H   0  0  0  0  0  0  0  0  0  0  0  0
  145.9494  132.7001  151.7895 H   0  0  0  0  0  0  0  0  0  0  0  0
  147.6149  132.8165  151.2260 H   0  0  0  0  0  0  0  0  0  0  0  0
  146.8933  134.1525  152.1190 H   0  0  0  0  0  0  0  0  0  0  0  0
  144.6896  132.3912  154.5041 H   0  0  0  0  0  0  0  0  0  0  0  0
  146.7181  133.1127  157.4162 H   0  0  0  0  0  0  0  0  0  0  0  0
  149.3568  135.1318  153.7417 H   0  0  0  0  0  0  0  0  0  0  0  0
  1  2  1  0  0  0  0
  1 30  1  0  0  0  0
  1 31  1  0  0  0  0
  1 32  1  0  0  0  0
  2  3  1  0  0  0  0
  2 33  1  0  0  0  0
  2 34  1  0  0  0  0
  3  4  1  0  0  0  0
  3 35  1  0  0  0  0
  3 36  1  0  0  0  0
  4  5  1  0  0  0  0
  4 37  1  0  0  0  0
  4 38  1  0  0  0  0
  5  6  1  0  0  0  0
  5 39  1  0  0  0  0
  5 40  1  0  0  0  0
  6  7  1  0  0  0  0
  7  8  2  0  0  0  0
  7  9  1  0  0  0  0
  9 10  1  0  0  0  0
  9 41  1  0  0  0  0
 10 24  1  0  0  0  0
 10 11  2  0  0  0  0
 11 12  1  0  0  0  0
 12 13  2  0  0  0  0
 12 14  1  0  0  0  0
 14 15  1  0  0  0  0
 14 23  1  0  0  0  0
 15 26  1  0  0  0  0
 15 21  1  0  0  0  0
 15 16  1  0  0  0  0
 16 17  1  0  0  0  0
 17 27  1  0  0  0  0
 17 18  1  0  0  0  0
 17 19  1  0  0  0  0
 18 42  1  0  0  0  0
 18 43  1  0  0  0  0
 18 44  1  0  0  0  0
 19 28  1  0  0  0  0
 19 20  1  0  0  0  0
 19 21  1  0  0  0  0
 20 45  1  0  0  0  0
 21 29  1  0  0  0  0
 21 22  1  0  0  0  0
 22 46  1  0  0  0  0
 23 24  2  0  0  0  0
 23 47  1  0  0  0  0
 24 25  1  0  0  0  0
M  END
> <s_m_source_file>
AV-unprocessed.smi

> <i_m_source_file_index>
40

> <i_lp_mmshare_version>
43012

> <i_f3d_flags>
0

> <s_epik_input>
W0NIM11bQ0gyXVtDSDJdW0NIMl1bQ0gyXU9DKD1PKVtOSF1jMW5jKD1PKW4oW2NIXWMxRilbQ0BASF0yT1tDQEhdKFtDSDNdKVtDQEBIXShbT0hdKVtDQEhdMltPSF0=

> <s_epik_cmdline>
J2VwaWtfcHl0aG9uJywgJy1waCcsICc3LjAnLCAnLXRuJywgJzgnLCAnLW1hJywgJzIwMCcsICctbWV0YWxfYmluZGluZycsICctaW1hZScsICc8aW5maWxlLm1hZT4nLCAnLW9tYWUnLCAnPG91dGZpbGUubWFlPic=

> <r_lp_tautomer_probability>
1

> <r_epik_Ionization_Penalty>
2.29506e-06

> <r_epik_Ionization_Penalty_Charging>
8.26867e-09

> <r_epik_Ionization_Penalty_Neutral>
2.2868e-06

> <r_epik_State_Penalty>
-0

> <r_epik_Charging_Adjusted_Penalty>
8.26867e-09

> <i_epik_Tot_Q>
0

> <i_epik_Tot_abs_Q>
0

> <r_epik_Metal_State_Penalty>
-0

> <b_epik_Metal_Only>
0

> <s_epik_Chemistry_Notes>
This compound has an ester and may undergo hydrolysis at high or low pH. This compound contains an acetal/aminal-like group ( X-CH(R)-Y where X, Y are N, S, or O) that may be acid/base labile, releasing an aldehyde.

> <s_lp_Force_Field>
OPLS_2005

> <r_lp_Energy>
38.1616

> <b_lp_Chiralities_Consistent>
1

> <s_lp_Variant>
AV-unprocessed.smi:40-9

> <Gold.Version>
5.8.1

> <Gold.Id.Protein>
6NUR|6NUR_protein|mol2

> <Gold.PLP.Fitness>
45.9010

> <Gold.PLP.PLP>
-37.9697

> <Gold.PLP.part.hbond>
-3.5946

> <Gold.PLP.part.metal>
0.0000

> <Gold.PLP.part.buried>
-4.6345

> <Gold.PLP.part.nonpolar>
-31.3251

> <Gold.PLP.part.repulsive>
0.2904

> <Gold.PLP.ligand.clash>
0.0000

> <Gold.PLP.ligand.torsion>
0.8103

> <Gold.PLP.Chemscore.Hbond>
2.1573

> <Gold.PLP.Chemscore.CHOScore>
0.9451

> <Gold.PLP.Chemscore.Metal>
0.0000

> <Gold.Chemscore.Hbonds>
donor molecule, donor type, donor heavy atom, donor atom, acceptor molecule, acceptor atom, score
      L1  H    20    45       P1 10957  0.42
      P1  H  6896  6907       L1    13  1.00
      P1  H  6896  6908       L1     8  0.15
      L1  C    23    47       P1  7948  0.92

> <Gold.PLP.Chemscore.Internal.Correction>
0.2445

> <Gold.Rescore>
     Score         DG    S(hbond)    S(metal)    S(lipo)     H(rot)  DE(clash)    DE(int)     intcor
      8.62     -10.96       1.83        0.00      75.39       3.70       0.01       2.32       ----

> <Gold.Chemscore.Fitness>
8.6205

> <Gold.Chemscore.DG>
-10.9562

> <Gold.Chemscore.ZeroCoef>
-5.4800

> <Gold.Chemscore.Hbond>
1.8312

> <Gold.Chemscore.Metal>
0.0000

> <Gold.Chemscore.Lipo>
75.3913

> <Gold.Chemscore.Internal_Hbond>
0.0000

> <Gold.Chemscore.DEClash>
0.0139

> <Gold.Chemscore.DEInternal>
2.3217

> <Gold.Chemscore.Rot>
3.6957

> <Gold.Chemscore.Internal.Correction>
   9.000000E+99

> <Gold.Chemscore.Hbonds>
donor molecule, donor type, donor heavy atom, donor atom, acceptor molecule, acceptor atom, score
      L1  H    20    45       P1 10957  0.27
      P1  H  6896  6907       L1    13  0.60
      P1  H  6896  6908       L1     8  0.17

> <Gold.Chemscore.Hbond.Weighted>
-6.1164

> <Gold.Chemscore.Metal.Weighted>
-0.0000

> <Gold.Chemscore.Lipo.Weighted>
-8.8208

> <Gold.Chemscore.Internal_Hbond.Weighted>
0.0000

> <Gold.Chemscore.DEClash.Weighted>
0.0139

> <Gold.Chemscore.DEInternal.Weighted>
2.3217

> <Gold.Chemscore.Rot.Weighted>
9.4610

> <Gold.Chemscore.Internal.Correction.Weighted>
   9.000000E+99

> <Gold.Protein.RotatedTorsions>
[ 6907 6896 6895 6894 ] final -140.88 input  -60.11 | X-H torsion
[ 7974 7965 7964 7962 ] final   49.23 input  175.53 | X-H torsion
[ 8008 7997 7996 7995 ] final -173.35 input   59.86 | X-H torsion
[ 10167 10162 10161 10158 ] final -171.82 input  -65.29 | X-H torsion
[ 10718 10713 10712 10709 ] final   70.31 input   66.30 | X-H torsion
[ 10763 10752 10751 10750 ] final  -31.52 input  -60.55 | X-H torsion
[ 11005 11000 10999 10996 ] final    5.60 input  -57.11 | X-H torsion

> <Gold.Protein.ActiveResidues>
 VAL166  LYS551  ARG553  GLY616  TRP617  ASP618  TYR619  PRO620  LYS621  CYS622 
 ASP623  PHE694  ASN695  SER759  ASP760  ASP761  ALA762  ILE779  LEU786  VAL792 
 PHE793  MET794  SER795  GLU796  ALA797  LYS798  CYS799  TRP800  GLU811  SER814 

> <Gold.Protein.RotatedAtoms>
  151.0665  133.5501  159.2630 H   0  0  0  0  0  0  0  0  0  0  0  0  # atno 6907 bound_to 6896
  151.2456  135.0604  159.9052 H   0  0  0  0  0  0  0  0  0  0  0  0  # atno 6908 bound_to 6896
  152.5405  134.0433  159.8131 H   0  0  0  0  0  0  0  0  0  0  0  0  # atno 6909 bound_to 6896
  146.0129  139.4563  142.9945 H   0  0  0  0  0  0  0  0  0  0  0  0  # atno 7974 bound_to 7965
  155.9563  140.1136  157.0934 H   0  0  0  0  0  0  0  0  0  0  0  0  # atno 8008 bound_to 7997
  154.4121  140.1190  156.5186 H   0  0  0  0  0  0  0  0  0  0  0  0  # atno 8009 bound_to 7997
  155.6777  140.3473  155.4845 H   0  0  0  0  0  0  0  0  0  0  0  0  # atno 8010 bound_to 7997
  139.5780  144.1488  152.1477 H   0  0  0  0  0  0  0  0  0  0  0  0  # atno 10167 bound_to 10162
  157.6393  130.9470  150.0633 H   0  0  0  0  0  0  0  0  0  0  0  0  # atno 10718 bound_to 10713
  153.7987  135.6892  153.4859 H   0  0  0  0  0  0  0  0  0  0  0  0  # atno 10763 bound_to 10752
  153.1702  135.4545  154.9891 H   0  0  0  0  0  0  0  0  0  0  0  0  # atno 10764 bound_to 10752
  154.8015  135.3339  154.7478 H   0  0  0  0  0  0  0  0  0  0  0  0  # atno 10765 bound_to 10752
  140.5689  134.0121  155.8001 H   0  0  0  0  0  0  0  0  0  0  0  0  # atno 11005 bound_to 11000
  145.7314  141.0041  143.1349 LP  0  0  0  0  0  0  0  0  0  0  0  0  # atno 17320 bound_to 7965
  144.6960  139.8989  143.7457 LP  0  0  0  0  0  0  0  0  0  0  0  0  # atno 17321 bound_to 7965
  140.1035  144.5519  150.6973 LP  0  0  0  0  0  0  0  0  0  0  0  0  # atno 17342 bound_to 10162
  140.7061  143.2469  151.4722 LP  0  0  0  0  0  0  0  0  0  0  0  0  # atno 17343 bound_to 10162
  156.1659  130.3645  149.9233 LP  0  0  0  0  0  0  0  0  0  0  0  0  # atno 17370 bound_to 10713
  156.7220  130.9010  151.3619 LP  0  0  0  0  0  0  0  0  0  0  0  0  # atno 17371 bound_to 10713
  141.1068  133.9680  157.2982 LP  0  0  0  0  0  0  0  0  0  0  0  0  # atno 17394 bound_to 11000
  139.9371  135.0195  156.8591 LP  0  0  0  0  0  0  0  0  0  0  0  0  # atno 17395 bound_to 11000

$$$$
