AV-unprocessed.smi:1328|AV-procd|sdf|5481|dock1
  -GOLD-   22720 5 53D 1   1.00000     0.00000
 Structure written by MMmdl.
 38 39  0  0  0  0  0  0  0  0  1 V2000
  148.2113  134.1114  155.6121 C   0  0  0  0  0  0  0  0  0  0  0  0
  149.0022  132.9647  156.1736 C   0  0  0  0  0  0  0  0  0  0  0  0
  149.4198  133.0080  157.4278 N   0  0  0  0  0  0  0  0  0  0  0  0
  150.1167  131.8146  157.6405 O   0  0  0  0  0  0  0  0  0  0  0  0
  150.0911  131.0917  156.4921 C   0  0  0  0  0  0  0  0  0  0  0  0
  150.7934  129.7763  156.5134 C   0  0  0  0  0  0  0  0  0  0  0  0
  149.3961  131.7610  155.5225 C   0  0  0  0  0  0  0  0  0  0  0  0
  149.1131  131.3381  154.1023 C   0  0  0  0  0  0  0  0  0  0  0  0
  147.6079  131.1839  153.8558 C   0  0  0  0  0  0  0  0  0  0  0  0
  146.8061  131.2367  154.7896 O   0  0  0  0  0  0  0  0  0  0  0  0
  147.2387  131.0071  152.5774 N   0  0  0  0  0  0  0  0  0  0  0  0
  145.8658  130.8616  152.0985 C   0  0  2  0  0  0  0  0  0  0  0  0
  145.7043  129.4528  151.5074 C   0  0  0  0  0  0  0  0  0  0  0  0
  145.5453  131.9678  151.0704 C   0  0  1  0  0  0  0  0  0  0  0  0
  144.2264  131.7839  150.3219 C   0  0  0  0  0  0  0  0  0  0  0  0
  143.9308  133.1845  149.8207 C   0  0  0  0  0  0  0  0  0  0  0  0
  144.6485  134.0885  150.8267 C   0  0  0  0  0  0  0  0  0  0  0  0
  145.3382  133.2167  151.7151 O   0  0  0  0  0  0  0  0  0  0  0  0
  147.1915  133.8039  155.3812 H   0  0  0  0  0  0  0  0  0  0  0  0
  148.6629  134.4818  154.6917 H   0  0  0  0  0  0  0  0  0  0  0  0
  148.1551  134.9464  156.3116 H   0  0  0  0  0  0  0  0  0  0  0  0
  151.1283  129.4982  155.5139 H   0  0  0  0  0  0  0  0  0  0  0  0
  150.1310  128.9921  156.8797 H   0  0  0  0  0  0  0  0  0  0  0  0
  151.6689  129.8123  157.1619 H   0  0  0  0  0  0  0  0  0  0  0  0
  149.4999  132.0673  153.3897 H   0  0  0  0  0  0  0  0  0  0  0  0
  149.6135  130.3963  153.8728 H   0  0  0  0  0  0  0  0  0  0  0  0
  147.9660  130.9827  151.8776 H   0  0  0  0  0  0  0  0  0  0  0  0
  145.1747  130.9481  152.9390 H   0  0  0  0  0  0  0  0  0  0  0  0
  144.6755  129.2660  151.1994 H   0  0  0  0  0  0  0  0  0  0  0  0
  145.9660  128.6879  152.2394 H   0  0  0  0  0  0  0  0  0  0  0  0
  146.3438  129.3118  150.6354 H   0  0  0  0  0  0  0  0  0  0  0  0
  146.3635  132.0740  150.3553 H   0  0  0  0  0  0  0  0  0  0  0  0
  144.2903  131.0530  149.5154 H   0  0  0  0  0  0  0  0  0  0  0  0
  143.4426  131.4646  151.0102 H   0  0  0  0  0  0  0  0  0  0  0  0
  144.3515  133.3273  148.8246 H   0  0  0  0  0  0  0  0  0  0  0  0
  142.8602  133.3841  149.7664 H   0  0  0  0  0  0  0  0  0  0  0  0
  145.3609  134.7422  150.3223 H   0  0  0  0  0  0  0  0  0  0  0  0
  143.9521  134.7129  151.3871 H   0  0  0  0  0  0  0  0  0  0  0  0
  1  2  1  0  0  0  0
  1 19  1  0  0  0  0
  1 20  1  0  0  0  0
  1 21  1  0  0  0  0
  2  7  1  0  0  0  0
  2  3  2  0  0  0  0
  3  4  1  0  0  0  0
  4  5  1  0  0  0  0
  5  6  1  0  0  0  0
  5  7  2  0  0  0  0
  6 22  1  0  0  0  0
  6 23  1  0  0  0  0
  6 24  1  0  0  0  0
  7  8  1  0  0  0  0
  8  9  1  0  0  0  0
  8 25  1  0  0  0  0
  8 26  1  0  0  0  0
  9 10  2  0  0  0  0
  9 11  1  0  0  0  0
 11 12  1  0  0  0  0
 11 27  1  0  0  0  0
 12 13  1  0  0  0  0
 12 14  1  0  0  0  0
 12 28  1  0  0  0  0
 13 29  1  0  0  0  0
 13 30  1  0  0  0  0
 13 31  1  0  0  0  0
 14 18  1  0  0  0  0
 14 15  1  0  0  0  0
 14 32  1  0  0  0  0
 15 16  1  0  0  0  0
 15 33  1  0  0  0  0
 15 34  1  0  0  0  0
 16 17  1  0  0  0  0
 16 35  1  0  0  0  0
 16 36  1  0  0  0  0
 17 18  1  0  0  0  0
 17 37  1  0  0  0  0
 17 38  1  0  0  0  0
M  END
> <s_m_source_file>
AV-unprocessed.smi

> <i_m_source_file_index>
1328

> <i_lp_mmshare_version>
43012

> <i_f3d_flags>
0

> <s_epik_input>
W0NIM11jMW5vYyhbQ0gzXSljMVtDSDJdQyg9TylbTkhdW0NASF0oW0NIM10pW0NAQEhdMltDSDJdW0NIMl1bQ0gyXU8y

> <s_epik_cmdline>
J2VwaWtfcHl0aG9uJywgJy1waCcsICc3LjAnLCAnLXRuJywgJzgnLCAnLW1hJywgJzIwMCcsICctbWV0YWxfYmluZGluZycsICctaW1hZScsICc8aW5maWxlLm1hZT4nLCAnLW9tYWUnLCAnPG91dGZpbGUubWFlPic=

> <r_lp_tautomer_probability>
1

> <r_epik_Ionization_Penalty>
2.66156e-08

> <r_epik_Ionization_Penalty_Charging>
0

> <r_epik_Ionization_Penalty_Neutral>
2.66156e-08

> <r_epik_State_Penalty>
-0

> <r_epik_Charging_Adjusted_Penalty>
0

> <i_epik_Tot_Q>
0

> <i_epik_Tot_abs_Q>
0

> <r_epik_Metal_State_Penalty>
-0

> <b_epik_Metal_Only>
0

> <s_lp_Force_Field>
OPLS_2005

> <r_lp_Energy>
12.7116

> <b_lp_Chiralities_Consistent>
1

> <s_lp_Variant>
AV-unprocessed.smi:1328-3

> <Gold.Version>
5.8.1

> <Gold.Id.Protein>
6NUR|6NUR_protein|mol2

> <Gold.PLP.Fitness>
36.8279

> <Gold.PLP.PLP>
-31.2653

> <Gold.PLP.part.hbond>
-2.0000

> <Gold.PLP.part.metal>
0.0000

> <Gold.PLP.part.buried>
-4.7983

> <Gold.PLP.part.nonpolar>
-24.8140

> <Gold.PLP.part.repulsive>
0.1570

> <Gold.PLP.ligand.clash>
0.0000

> <Gold.PLP.ligand.torsion>
0.2746

> <Gold.PLP.Chemscore.Hbond>
2.0000

> <Gold.PLP.Chemscore.CHOScore>
0.0000

> <Gold.PLP.Chemscore.Metal>
0.0000

> <Gold.Chemscore.Hbonds>
donor molecule, donor type, donor heavy atom, donor atom, acceptor molecule, acceptor atom, score
      L1  H    11    27       P1 10747  1.00

> <Gold.PLP.Chemscore.Internal.Correction>
0.1118

> <Gold.Rescore>
     Score         DG    S(hbond)    S(metal)    S(lipo)     H(rot)  DE(clash)    DE(int)     intcor
     16.40     -17.06       1.77        0.00      81.55       1.52       0.03       0.63       ----

> <Gold.Chemscore.Fitness>
16.3969

> <Gold.Chemscore.DG>
-17.0568

> <Gold.Chemscore.ZeroCoef>
-5.4800

> <Gold.Chemscore.Hbond>
1.7712

> <Gold.Chemscore.Metal>
0.0000

> <Gold.Chemscore.Lipo>
81.5535

> <Gold.Chemscore.Internal_Hbond>
0.0000

> <Gold.Chemscore.DEClash>
0.0275

> <Gold.Chemscore.DEInternal>
0.6324

> <Gold.Chemscore.Rot>
1.5159

> <Gold.Chemscore.Internal.Correction>
   9.000000E+99

> <Gold.Chemscore.Hbonds>
donor molecule, donor type, donor heavy atom, donor atom, acceptor molecule, acceptor atom, score
      L1  H    11    27       P1 10747  1.00

> <Gold.Chemscore.Hbond.Weighted>
-5.9157

> <Gold.Chemscore.Metal.Weighted>
-0.0000

> <Gold.Chemscore.Lipo.Weighted>
-9.5418

> <Gold.Chemscore.Internal_Hbond.Weighted>
0.0000

> <Gold.Chemscore.DEClash.Weighted>
0.0275

> <Gold.Chemscore.DEInternal.Weighted>
0.6324

> <Gold.Chemscore.Rot.Weighted>
3.8807

> <Gold.Chemscore.Internal.Correction.Weighted>
   9.000000E+99

> <Gold.Protein.RotatedTorsions>
[ 6907 6896 6895 6894 ] final -154.71 input  -60.11 | X-H torsion
[ 7974 7965 7964 7962 ] final   62.85 input  175.53 | X-H torsion
[ 8008 7997 7996 7995 ] final -138.53 input   59.86 | X-H torsion
[ 10167 10162 10161 10158 ] final   56.66 input  -65.29 | X-H torsion
[ 10718 10713 10712 10709 ] final  -36.99 input   66.30 | X-H torsion
[ 10763 10752 10751 10750 ] final    8.67 input  -60.55 | X-H torsion
[ 11005 11000 10999 10996 ] final  -23.57 input  -57.11 | X-H torsion

> <Gold.Protein.ActiveResidues>
 VAL166  LYS551  ARG553  GLY616  TRP617  ASP618  TYR619  PRO620  LYS621  CYS622 
 ASP623  PHE694  ASN695  SER759  ASP760  ASP761  ALA762  ILE779  LEU786  VAL792 
 PHE793  MET794  SER795  GLU796  ALA797  LYS798  CYS799  TRP800  GLU811  SER814 

> <Gold.Protein.RotatedAtoms>
  151.2615  133.4299  159.2616 H   0  0  0  0  0  0  0  0  0  0  0  0  # atno 6907 bound_to 6896
  151.0526  134.9683  159.8229 H   0  0  0  0  0  0  0  0  0  0  0  0  # atno 6908 bound_to 6896
  152.5385  134.2569  159.8973 H   0  0  0  0  0  0  0  0  0  0  0  0  # atno 6909 bound_to 6896
  145.8686  139.3363  143.0776 H   0  0  0  0  0  0  0  0  0  0  0  0  # atno 7974 bound_to 7965
  155.4299  140.0524  157.3019 H   0  0  0  0  0  0  0  0  0  0  0  0  # atno 8008 bound_to 7997
  154.4864  140.2102  155.9603 H   0  0  0  0  0  0  0  0  0  0  0  0  # atno 8009 bound_to 7997
  156.1281  140.3176  155.8313 H   0  0  0  0  0  0  0  0  0  0  0  0  # atno 8010 bound_to 7997
  140.2063  144.3935  150.6507 H   0  0  0  0  0  0  0  0  0  0  0  0  # atno 10167 bound_to 10162
  156.3204  130.4265  149.7965 H   0  0  0  0  0  0  0  0  0  0  0  0  # atno 10718 bound_to 10713
  153.2224  135.6883  153.7984 H   0  0  0  0  0  0  0  0  0  0  0  0  # atno 10763 bound_to 10752
  153.7178  135.3272  155.3261 H   0  0  0  0  0  0  0  0  0  0  0  0  # atno 10764 bound_to 10752
  154.8276  135.4606  154.1077 H   0  0  0  0  0  0  0  0  0  0  0  0  # atno 10765 bound_to 10752
  140.8764  133.7684  156.0249 H   0  0  0  0  0  0  0  0  0  0  0  0  # atno 11005 bound_to 11000
  145.9163  140.9146  143.0428 LP  0  0  0  0  0  0  0  0  0  0  0  0  # atno 17320 bound_to 7965
  144.6726  140.1228  143.7448 LP  0  0  0  0  0  0  0  0  0  0  0  0  # atno 17321 bound_to 7965
  140.6355  143.2194  151.6404 LP  0  0  0  0  0  0  0  0  0  0  0  0  # atno 17342 bound_to 10162
  139.5197  144.3245  152.0881 LP  0  0  0  0  0  0  0  0  0  0  0  0  # atno 17343 bound_to 10162
  156.5275  130.8243  151.3225 LP  0  0  0  0  0  0  0  0  0  0  0  0  # atno 17370 bound_to 10713
  157.7410  130.9862  150.2419 LP  0  0  0  0  0  0  0  0  0  0  0  0  # atno 17371 bound_to 10713
  140.8513  134.2951  157.5274 LP  0  0  0  0  0  0  0  0  0  0  0  0  # atno 17394 bound_to 11000
  139.8716  134.9469  156.3952 LP  0  0  0  0  0  0  0  0  0  0  0  0  # atno 17395 bound_to 11000

$$$$
