AV-unprocessed.smi:1703|AV-procd|sdf|6878|dock8
  -GOLD-   22720 8 83D 1   1.00000     0.00000
 Structure written by MMmdl.
 50 52  0  0  0  0  0  0  0  0  3 V2000
  146.3621  135.6621  159.3601 C   0  0  0  0  0  0  0  0  0  0  0  0
  147.6657  134.9267  159.7202 C   0  0  1  0  0  0  0  0  0  0  0  0
  148.8961  135.4437  158.9490 C   0  0  0  0  0  0  0  0  0  0  0  0
  149.3250  136.7675  159.4583 N   0  3  2  0  0  0  0  0  0  0  0  0
  150.4539  137.3418  158.6827 C   0  0  0  0  0  0  0  0  0  0  0  0
  150.3676  138.8765  158.5681 C   0  0  2  0  0  0  0  0  0  0  0  0
  149.0094  139.2655  158.6473 O   0  0  0  0  0  0  0  0  0  0  0  0
  150.9723  139.3903  157.2467 C   0  0  0  0  0  0  0  0  0  0  0  0
  150.8564  140.8513  157.1005 N   0  0  0  0  0  0  0  0  0  0  0  0
  150.0518  141.5862  156.2787 C   0  0  0  0  0  0  0  0  0  0  0  0
  149.0592  141.0551  155.2935 C   0  0  0  0  0  0  0  0  0  0  0  0
  148.4031  142.0692  154.5624 O   0  0  0  0  0  0  0  0  0  0  0  0
  150.3333  142.9004  156.5100 N   0  3  0  0  0  0  0  0  0  0  0  0
  151.3201  143.0091  157.4895 C   0  0  0  0  0  0  0  0  0  0  0  0
  151.9247  144.1299  158.0502 C   0  0  0  0  0  0  0  0  0  0  0  0
  152.9069  143.8936  159.0337 C   0  0  0  0  0  0  0  0  0  0  0  0
  153.2548  142.5840  159.4230 C   0  0  0  0  0  0  0  0  0  0  0  0
  152.6354  141.4552  158.8464 C   0  0  0  0  0  0  0  0  0  0  0  0
  151.6624  141.6965  157.8755 C   0  0  0  0  0  0  0  0  0  0  0  0
  149.5749  136.6997  160.9181 C   0  0  0  0  0  0  0  0  0  0  0  0
  148.3145  136.2057  161.6515 C   0  0  2  0  0  0  0  0  0  0  0  0
  148.5528  136.0360  163.1558 C   0  0  0  0  0  0  0  0  0  0  0  0
  147.9244  134.9401  161.1245 O   0  0  0  0  0  0  0  0  0  0  0  0
  146.1158  135.5182  158.3077 H   0  0  0  0  0  0  0  0  0  0  0  0
  146.4305  136.7361  159.5315 H   0  0  0  0  0  0  0  0  0  0  0  0
  145.5260  135.2821  159.9472 H   0  0  0  0  0  0  0  0  0  0  0  0
  147.5210  133.8798  159.4507 H   0  0  0  0  0  0  0  0  0  0  0  0
  149.7215  134.7378  159.0543 H   0  0  0  0  0  0  0  0  0  0  0  0
  148.6662  135.5053  157.8844 H   0  0  0  0  0  0  0  0  0  0  0  0
  151.3967  137.0426  159.1436 H   0  0  0  0  0  0  0  0  0  0  0  0
  150.4616  136.9203  157.6761 H   0  0  0  0  0  0  0  0  0  0  0  0
  150.8998  139.3450  159.3954 H   0  0  0  0  0  0  0  0  0  0  0  0
  148.7947  139.4362  159.5518 H   0  0  0  0  0  0  0  0  0  0  0  0
  152.0336  139.1444  157.2040 H   0  0  0  0  0  0  0  0  0  0  0  0
  150.5189  138.8995  156.3855 H   0  0  0  0  0  0  0  0  0  0  0  0
  149.5730  140.3929  154.5963 H   0  0  0  0  0  0  0  0  0  0  0  0
  148.3082  140.4605  155.8134 H   0  0  0  0  0  0  0  0  0  0  0  0
  148.6658  142.9089  154.9086 H   0  0  0  0  0  0  0  0  0  0  0  0
  151.6610  145.1341  157.7516 H   0  0  0  0  0  0  0  0  0  0  0  0
  153.4037  144.7337  159.4976 H   0  0  0  0  0  0  0  0  0  0  0  0
  154.0133  142.4419  160.1794 H   0  0  0  0  0  0  0  0  0  0  0  0
  152.9160  140.4593  159.1537 H   0  0  0  0  0  0  0  0  0  0  0  0
  150.4139  136.0297  161.1141 H   0  0  0  0  0  0  0  0  0  0  0  0
  149.8548  137.6797  161.3034 H   0  0  0  0  0  0  0  0  0  0  0  0
  147.5070  136.9261  161.5182 H   0  0  0  0  0  0  0  0  0  0  0  0
  148.8467  136.9795  163.6164 H   0  0  0  0  0  0  0  0  0  0  0  0
  149.3402  135.3076  163.3521 H   0  0  0  0  0  0  0  0  0  0  0  0
  147.6478  135.6907  163.6566 H   0  0  0  0  0  0  0  0  0  0  0  0
  148.5411  137.3898  159.3194 H   0  0  0  0  0  0  0  0  0  0  0  0
  149.8812  143.6657  156.0254 H   0  0  0  0  0  0  0  0  0  0  0  0
  1  2  1  0  0  0  0
  1 24  1  0  0  0  0
  1 25  1  0  0  0  0
  1 26  1  0  0  0  0
  2 23  1  0  0  0  0
  2  3  1  0  0  0  0
  2 27  1  0  0  0  0
  3  4  1  0  0  0  0
  3 28  1  0  0  0  0
  3 29  1  0  0  0  0
  4  5  1  0  0  0  0
  4 20  1  0  0  0  0
  4 49  1  0  0  0  0
  5  6  1  0  0  0  0
  5 30  1  0  0  0  0
  5 31  1  0  0  0  0
  6  7  1  0  0  0  0
  6  8  1  0  0  0  0
  6 32  1  0  0  0  0
  7 33  1  0  0  0  0
  8  9  1  0  0  0  0
  8 34  1  0  0  0  0
  8 35  1  0  0  0  0
  9 19  1  0  0  0  0
  9 10  1  0  0  0  0
 10 11  1  0  0  0  0
 10 13  2  0  0  0  0
 11 12  1  0  0  0  0
 11 36  1  0  0  0  0
 11 37  1  0  0  0  0
 12 38  1  0  0  0  0
 13 14  1  0  0  0  0
 13 50  1  0  0  0  0
 14 19  2  0  0  0  0
 14 15  1  0  0  0  0
 15 16  2  0  0  0  0
 15 39  1  0  0  0  0
 16 17  1  0  0  0  0
 16 40  1  0  0  0  0
 17 18  2  0  0  0  0
 17 41  1  0  0  0  0
 18 19  1  0  0  0  0
 18 42  1  0  0  0  0
 20 21  1  0  0  0  0
 20 43  1  0  0  0  0
 20 44  1  0  0  0  0
 21 22  1  0  0  0  0
 21 23  1  0  0  0  0
 21 45  1  0  0  0  0
 22 46  1  0  0  0  0
 22 47  1  0  0  0  0
 22 48  1  0  0  0  0
M  CHG  1   4   1
M  CHG  1  13   1
M  END
> <s_m_source_file>
AV-unprocessed.smi

> <i_m_source_file_index>
1703

> <i_lp_mmshare_version>
43012

> <i_f3d_flags>
0

> <s_epik_input>
W0NIM11bQ0BASF0xW0NIMl1OKFtDSDJdW0NASF0oTzEpW0NIM10pW0NIMl1bQ0BIXShbT0hdKVtDSDJdbihjKG4yKVtDSDJdW09IXSljKGMyMylbY0hdW2NIXVtjSF1bY0hdMw==

> <s_epik_cmdline>
J2VwaWtfcHl0aG9uJywgJy1waCcsICc3LjAnLCAnLXRuJywgJzgnLCAnLW1hJywgJzIwMCcsICctbWV0YWxfYmluZGluZycsICctaW1hZScsICc8aW5maWxlLm1hZT4nLCAnLW9tYWUnLCAnPG91dGZpbGUubWFlPic=

> <r_epik_Ionization_Penalty>
2.22579

> <r_epik_Ionization_Penalty_Charging>
2.22492

> <r_epik_Ionization_Penalty_Neutral>
0.000870007

> <r_epik_State_Penalty>
2.3141

> <r_epik_Charging_Adjusted_Penalty>
4.53902

> <i_epik_Tot_Q>
2

> <i_epik_Tot_abs_Q>
2

> <r_epik_Metal_State_Penalty>
6.36517

> <b_epik_Metal_Only>
0

> <s_lp_Force_Field>
OPLS_2005

> <r_lp_Energy>
31.039

> <b_lp_Chiralities_Consistent>
1

> <s_lp_Variant>
AV-unprocessed.smi:1703-26

> <Gold.Version>
5.8.1

> <Gold.Id.Protein>
6NUR|6NUR_protein|mol2

> <Gold.PLP.Fitness>
52.1034

> <Gold.PLP.PLP>
-44.2620

> <Gold.PLP.part.hbond>
-3.7587

> <Gold.PLP.part.metal>
0.0000

> <Gold.PLP.part.buried>
-5.3805

> <Gold.PLP.part.nonpolar>
-36.6388

> <Gold.PLP.part.repulsive>
0.2498

> <Gold.PLP.ligand.clash>
0.0000

> <Gold.PLP.ligand.torsion>
0.9552

> <Gold.PLP.Chemscore.Hbond>
3.2310

> <Gold.PLP.Chemscore.CHOScore>
0.0000

> <Gold.PLP.Chemscore.Metal>
0.0000

> <Gold.Chemscore.Hbonds>
donor molecule, donor type, donor heavy atom, donor atom, acceptor molecule, acceptor atom, score
      L1  H    12    38       P1  8028  1.00
      L1  H    13    50       P1  8028  1.79

> <Gold.PLP.Chemscore.Internal.Correction>
0.0587

> <Gold.Rescore>
     Score         DG    S(hbond)    S(metal)    S(lipo)     H(rot)  DE(clash)    DE(int)     intcor
     16.12     -17.42       1.99        0.00     111.56       3.04       0.07       1.22       ----

> <Gold.Chemscore.Fitness>
16.1250

> <Gold.Chemscore.DG>
-17.4181

> <Gold.Chemscore.ZeroCoef>
-5.4800

> <Gold.Chemscore.Hbond>
1.9948

> <Gold.Chemscore.Metal>
0.0000

> <Gold.Chemscore.Lipo>
111.5570

> <Gold.Chemscore.Internal_Hbond>
0.0000

> <Gold.Chemscore.DEClash>
0.0733

> <Gold.Chemscore.DEInternal>
1.2198

> <Gold.Chemscore.Rot>
3.0378

> <Gold.Chemscore.Internal.Correction>
   9.000000E+99

> <Gold.Chemscore.Hbonds>
donor molecule, donor type, donor heavy atom, donor atom, acceptor molecule, acceptor atom, score
      L1  H    12    38       P1  8028  0.99
      L1  H    13    50       P1  8028  0.87

> <Gold.Chemscore.Hbond.Weighted>
-6.6626

> <Gold.Chemscore.Metal.Weighted>
-0.0000

> <Gold.Chemscore.Lipo.Weighted>
-13.0522

> <Gold.Chemscore.Internal_Hbond.Weighted>
0.0000

> <Gold.Chemscore.DEClash.Weighted>
0.0733

> <Gold.Chemscore.DEInternal.Weighted>
1.2198

> <Gold.Chemscore.Rot.Weighted>
7.7767

> <Gold.Chemscore.Internal.Correction.Weighted>
   9.000000E+99

> <Gold.Protein.RotatedTorsions>
[ 6907 6896 6895 6894 ] final  -26.54 input  -60.11 | X-H torsion
[ 7974 7965 7964 7962 ] final -142.44 input  175.53 | X-H torsion
[ 8008 7997 7996 7995 ] final   98.08 input   59.86 | X-H torsion
[ 10167 10162 10161 10158 ] final  -19.00 input  -65.29 | X-H torsion
[ 10718 10713 10712 10709 ] final -103.12 input   66.30 | X-H torsion
[ 10763 10752 10751 10750 ] final -107.20 input  -60.55 | X-H torsion
[ 11005 11000 10999 10996 ] final -124.31 input  -57.11 | X-H torsion

> <Gold.Protein.ActiveResidues>
 VAL166  LYS551  ARG553  GLY616  TRP617  ASP618  TYR619  PRO620  LYS621  CYS622 
 ASP623  PHE694  ASN695  SER759  ASP760  ASP761  ALA762  ILE779  LEU786  VAL792 
 PHE793  MET794  SER795  GLU796  ALA797  LYS798  CYS799  TRP800  GLU811  SER814 

> <Gold.Protein.RotatedAtoms>
  151.1596  135.0266  159.8703 H   0  0  0  0  0  0  0  0  0  0  0  0  # atno 6907 bound_to 6896
  152.5451  134.1295  159.8443 H   0  0  0  0  0  0  0  0  0  0  0  0  # atno 6908 bound_to 6896
  151.1389  133.4939  159.2630 H   0  0  0  0  0  0  0  0  0  0  0  0  # atno 6909 bound_to 6896
  144.8443  140.5957  143.5432 H   0  0  0  0  0  0  0  0  0  0  0  0  # atno 7974 bound_to 7965
  156.0968  140.3249  155.7888 H   0  0  0  0  0  0  0  0  0  0  0  0  # atno 8008 bound_to 7997
  155.4904  140.0561  157.2971 H   0  0  0  0  0  0  0  0  0  0  0  0  # atno 8009 bound_to 7997
  154.4671  140.1994  156.0104 H   0  0  0  0  0  0  0  0  0  0  0  0  # atno 8010 bound_to 7997
  140.7264  143.4861  151.0053 H   0  0  0  0  0  0  0  0  0  0  0  0  # atno 10167 bound_to 10162
  156.0253  130.5452  150.7206 H   0  0  0  0  0  0  0  0  0  0  0  0  # atno 10718 bound_to 10713
  154.8060  135.4683  154.0395 H   0  0  0  0  0  0  0  0  0  0  0  0  # atno 10763 bound_to 10752
  153.1863  135.6848  153.8418 H   0  0  0  0  0  0  0  0  0  0  0  0  # atno 10764 bound_to 10752
  153.7951  135.3237  155.3361 H   0  0  0  0  0  0  0  0  0  0  0  0  # atno 10765 bound_to 10752
  140.9851  134.0618  157.3720 H   0  0  0  0  0  0  0  0  0  0  0  0  # atno 11005 bound_to 11000
  145.4629  139.1511  143.3856 LP  0  0  0  0  0  0  0  0  0  0  0  0  # atno 17320 bound_to 7965
  146.2730  140.4760  142.8807 LP  0  0  0  0  0  0  0  0  0  0  0  0  # atno 17321 bound_to 7965
  139.8563  143.7373  152.3176 LP  0  0  0  0  0  0  0  0  0  0  0  0  # atno 17342 bound_to 10162
  139.7573  144.7517  151.0417 LP  0  0  0  0  0  0  0  0  0  0  0  0  # atno 17343 bound_to 10162
  157.4823  131.0903  151.0522 LP  0  0  0  0  0  0  0  0  0  0  0  0  # atno 17370 bound_to 10713
  157.0952  130.5959  149.5448 LP  0  0  0  0  0  0  0  0  0  0  0  0  # atno 17371 bound_to 10713
  139.8967  135.0147  156.7065 LP  0  0  0  0  0  0  0  0  0  0  0  0  # atno 17394 bound_to 11000
  140.7126  133.9210  155.8094 LP  0  0  0  0  0  0  0  0  0  0  0  0  # atno 17395 bound_to 11000

$$$$
