AV-unprocessed.smi:2134|AV-procd|sdf|8694|dock3
  -GOLD-   2272011453D 1   1.00000     0.00000
 Structure written by MMmdl.
 35 36  0  0  0  0  0  0  0  0  1 V2000
  152.9390  136.0864  163.7490 C   0  0  0  0  0  0  0  0  0  0  0  0
  153.6803  136.0183  162.4913 N   0  0  0  0  0  0  0  0  0  0  0  0
  153.8181  137.2236  161.8341 N   0  0  0  0  0  0  0  0  0  0  0  0
  154.2412  137.2963  160.6109 C   0  0  0  0  0  0  0  0  0  0  0  0
  154.3461  138.6175  159.9374 C   0  0  0  0  0  0  0  0  0  0  0  0
  154.5916  138.6973  158.7334 O   0  0  0  0  0  0  0  0  0  0  0  0
  154.1354  139.6941  160.7179 N   0  0  0  0  0  0  0  0  0  0  0  0
  154.0924  141.0816  160.2630 C   0  0  0  0  0  0  0  0  0  0  0  0
  153.0578  141.9119  161.0466 C   0  0  0  0  0  0  0  0  0  0  0  0
  152.5029  143.0880  160.2616 C   0  0  0  0  0  0  0  0  0  0  0  0
  152.9909  143.3979  158.9749 C   0  0  0  0  0  0  0  0  0  0  0  0
  152.4630  144.5150  158.3000 C   0  0  0  0  0  0  0  0  0  0  0  0
  151.4650  145.2755  158.9415 C   0  0  0  0  0  0  0  0  0  0  0  0
  150.9881  144.9869  160.1715 N   0  0  0  0  0  0  0  0  0  0  0  0
  151.5011  143.9150  160.8127 C   0  0  0  0  0  0  0  0  0  0  0  0
  154.5944  136.0392  159.8410 C   0  0  0  0  0  0  0  0  0  0  0  0
  155.0269  134.8905  160.7736 C   0  0  0  0  0  0  0  0  0  0  0  0
  154.1936  134.8401  162.0574 C   0  0  0  0  0  0  0  0  0  0  0  0
  154.0435  133.7700  162.6467 O   0  0  0  0  0  0  0  0  0  0  0  0
  153.5517  135.7286  164.5778 H   0  0  0  0  0  0  0  0  0  0  0  0
  152.0409  135.4691  163.6974 H   0  0  0  0  0  0  0  0  0  0  0  0
  152.6264  137.1047  163.9867 H   0  0  0  0  0  0  0  0  0  0  0  0
  153.9452  139.5318  161.6965 H   0  0  0  0  0  0  0  0  0  0  0  0
  155.0839  141.5157  160.3933 H   0  0  0  0  0  0  0  0  0  0  0  0
  153.8789  141.1319  159.1942 H   0  0  0  0  0  0  0  0  0  0  0  0
  152.2318  141.2696  161.3547 H   0  0  0  0  0  0  0  0  0  0  0  0
  153.5085  142.2865  161.9664 H   0  0  0  0  0  0  0  0  0  0  0  0
  153.7632  142.7981  158.5159 H   0  0  0  0  0  0  0  0  0  0  0  0
  152.8161  144.7844  157.3156 H   0  0  0  0  0  0  0  0  0  0  0  0
  151.0388  146.1393  158.4531 H   0  0  0  0  0  0  0  0  0  0  0  0
  151.1065  143.7161  161.7985 H   0  0  0  0  0  0  0  0  0  0  0  0
  153.7354  135.7307  159.2442 H   0  0  0  0  0  0  0  0  0  0  0  0
  155.4039  136.2343  159.1365 H   0  0  0  0  0  0  0  0  0  0  0  0
  154.9693  133.9354  160.2503 H   0  0  0  0  0  0  0  0  0  0  0  0
  156.0689  135.0275  161.0648 H   0  0  0  0  0  0  0  0  0  0  0  0
  1  2  1  0  0  0  0
  1 20  1  0  0  0  0
  1 21  1  0  0  0  0
  1 22  1  0  0  0  0
  2 18  1  0  0  0  0
  2  3  1  0  0  0  0
  3  4  2  0  0  0  0
  4  5  1  0  0  0  0
  4 16  1  0  0  0  0
  5  6  2  0  0  0  0
  5  7  1  0  0  0  0
  7  8  1  0  0  0  0
  7 23  1  0  0  0  0
  8  9  1  0  0  0  0
  8 24  1  0  0  0  0
  8 25  1  0  0  0  0
  9 10  1  0  0  0  0
  9 26  1  0  0  0  0
  9 27  1  0  0  0  0
 10 15  1  0  0  0  0
 10 11  2  0  0  0  0
 11 12  1  0  0  0  0
 11 28  1  0  0  0  0
 12 13  2  0  0  0  0
 12 29  1  0  0  0  0
 13 14  1  0  0  0  0
 13 30  1  0  0  0  0
 14 15  2  0  0  0  0
 15 31  1  0  0  0  0
 16 17  1  0  0  0  0
 16 32  1  0  0  0  0
 16 33  1  0  0  0  0
 17 18  1  0  0  0  0
 17 34  1  0  0  0  0
 17 35  1  0  0  0  0
 18 19  2  0  0  0  0
M  END
> <s_m_source_file>
AV-unprocessed.smi

> <i_m_source_file_index>
2134

> <i_lp_mmshare_version>
43012

> <i_f3d_flags>
0

> <s_epik_input>
Tz1DMVtDSDJdW0NIMl1DKD1OTjFbQ0gzXSlDKD1PKVtOSF1bQ0gyXVtDSDJdYzJbY0hdW2NIXVtjSF1uW2NIXTI=

> <s_epik_cmdline>
J2VwaWtfcHl0aG9uJywgJy1waCcsICc3LjAnLCAnLXRuJywgJzgnLCAnLW1hJywgJzIwMCcsICctbWV0YWxfYmluZGluZycsICctaW1hZScsICc8aW5maWxlLm1hZT4nLCAnLW9tYWUnLCAnPG91dGZpbGUubWFlPic=

> <r_epik_Ionization_Penalty>
0.00938916

> <r_epik_Ionization_Penalty_Charging>
0

> <r_epik_Ionization_Penalty_Neutral>
0.00938916

> <r_epik_State_Penalty>
0.00707201

> <r_epik_Charging_Adjusted_Penalty>
0.00707201

> <i_epik_Tot_Q>
0

> <i_epik_Tot_abs_Q>
0

> <r_epik_Metal_State_Penalty>
0.0638513

> <b_epik_Metal_Only>
0

> <s_epik_Chemistry_Notes>
This compound has an imine and may undergo hydrolysis.

> <s_lp_Force_Field>
OPLS_2005

> <r_lp_Energy>
16.2415

> <b_lp_Chiralities_Consistent>
1

> <s_lp_Variant>
AV-unprocessed.smi:2134-1

> <Gold.Version>
5.8.1

> <Gold.Id.Protein>
6NUR|6NUR_protein|mol2

> <Gold.PLP.Fitness>
46.3371

> <Gold.PLP.PLP>
-44.0576

> <Gold.PLP.part.hbond>
-1.0000

> <Gold.PLP.part.metal>
0.0000

> <Gold.PLP.part.buried>
-5.3947

> <Gold.PLP.part.nonpolar>
-37.9987

> <Gold.PLP.part.repulsive>
0.2297

> <Gold.PLP.ligand.clash>
0.0000

> <Gold.PLP.ligand.torsion>
0.3677

> <Gold.PLP.Chemscore.Hbond>
1.0000

> <Gold.PLP.Chemscore.CHOScore>
0.0000

> <Gold.PLP.Chemscore.Metal>
0.0000

> <Gold.Chemscore.Hbonds>
donor molecule, donor type, donor heavy atom, donor atom, acceptor molecule, acceptor atom, score
      P1  H  7997  8010       L1     6  1.00

> <Gold.PLP.Chemscore.Internal.Correction>
0.0150

> <Gold.Rescore>
     Score         DG    S(hbond)    S(metal)    S(lipo)     H(rot)  DE(clash)    DE(int)     intcor
     17.78     -18.15       1.00        0.00     111.48       1.45       0.02       0.35       ----

> <Gold.Chemscore.Fitness>
17.7753

> <Gold.Chemscore.DG>
-18.1450

> <Gold.Chemscore.ZeroCoef>
-5.4800

> <Gold.Chemscore.Hbond>
0.9966

> <Gold.Chemscore.Metal>
0.0000

> <Gold.Chemscore.Lipo>
111.4825

> <Gold.Chemscore.Internal_Hbond>
0.0000

> <Gold.Chemscore.DEClash>
0.0210

> <Gold.Chemscore.DEInternal>
0.3487

> <Gold.Chemscore.Rot>
1.4480

> <Gold.Chemscore.Internal.Correction>
   9.000000E+99

> <Gold.Chemscore.Hbonds>
donor molecule, donor type, donor heavy atom, donor atom, acceptor molecule, acceptor atom, score
      P1  H  7997  8010       L1     6  0.98

> <Gold.Chemscore.Hbond.Weighted>
-3.3286

> <Gold.Chemscore.Metal.Weighted>
-0.0000

> <Gold.Chemscore.Lipo.Weighted>
-13.0434

> <Gold.Chemscore.Internal_Hbond.Weighted>
0.0000

> <Gold.Chemscore.DEClash.Weighted>
0.0210

> <Gold.Chemscore.DEInternal.Weighted>
0.3487

> <Gold.Chemscore.Rot.Weighted>
3.7070

> <Gold.Chemscore.Internal.Correction.Weighted>
   9.000000E+99

> <Gold.Protein.RotatedTorsions>
[ 6907 6896 6895 6894 ] final   46.50 input  -60.11 | X-H torsion
[ 7974 7965 7964 7962 ] final    9.37 input  175.53 | X-H torsion
[ 8008 7997 7996 7995 ] final    1.73 input   59.86 | X-H torsion
[ 10167 10162 10161 10158 ] final  -17.91 input  -65.29 | X-H torsion
[ 10718 10713 10712 10709 ] final   96.37 input   66.30 | X-H torsion
[ 10763 10752 10751 10750 ] final -158.35 input  -60.55 | X-H torsion
[ 11005 11000 10999 10996 ] final   26.23 input  -57.11 | X-H torsion

> <Gold.Protein.ActiveResidues>
 VAL166  LYS551  ARG553  GLY616  TRP617  ASP618  TYR619  PRO620  LYS621  CYS622 
 ASP623  PHE694  ASN695  SER759  ASP760  ASP761  ALA762  ILE779  LEU786  VAL792 
 PHE793  MET794  SER795  GLU796  ALA797  LYS798  CYS799  TRP800  GLU811  SER814 

> <Gold.Protein.RotatedAtoms>
  152.2571  134.8073  160.0436 H   0  0  0  0  0  0  0  0  0  0  0  0  # atno 6907 bound_to 6896
  151.8732  133.3475  159.3750 H   0  0  0  0  0  0  0  0  0  0  0  0  # atno 6908 bound_to 6896
  150.7103  134.5019  159.5609 H   0  0  0  0  0  0  0  0  0  0  0  0  # atno 6909 bound_to 6896
  146.2404  139.9793  142.8438 H   0  0  0  0  0  0  0  0  0  0  0  0  # atno 7974 bound_to 7965
  154.6831  140.2637  155.6888 H   0  0  0  0  0  0  0  0  0  0  0  0  # atno 8008 bound_to 7997
  156.2704  140.2806  156.1306 H   0  0  0  0  0  0  0  0  0  0  0  0  # atno 8009 bound_to 7997
  155.1002  140.0374  157.2685 H   0  0  0  0  0  0  0  0  0  0  0  0  # atno 8010 bound_to 7997
  140.7253  143.4969  150.9919 H   0  0  0  0  0  0  0  0  0  0  0  0  # atno 10167 bound_to 10162
  157.6928  131.0576  150.4481 H   0  0  0  0  0  0  0  0  0  0  0  0  # atno 10718 bound_to 10713
  154.7563  135.3105  154.8463 H   0  0  0  0  0  0  0  0  0  0  0  0  # atno 10763 bound_to 10752
  153.9236  135.6793  153.4751 H   0  0  0  0  0  0  0  0  0  0  0  0  # atno 10764 bound_to 10752
  153.1161  135.4844  154.9047 H   0  0  0  0  0  0  0  0  0  0  0  0  # atno 10765 bound_to 10752
  140.3393  134.2351  155.7692 H   0  0  0  0  0  0  0  0  0  0  0  0  # atno 11005 bound_to 11000
  145.1606  140.9671  143.4379 LP  0  0  0  0  0  0  0  0  0  0  0  0  # atno 17320 bound_to 7965
  145.0119  139.3502  143.6115 LP  0  0  0  0  0  0  0  0  0  0  0  0  # atno 17321 bound_to 7965
  139.8676  143.7233  152.3169 LP  0  0  0  0  0  0  0  0  0  0  0  0  # atno 17342 bound_to 10162
  139.7471  144.7544  151.0563 LP  0  0  0  0  0  0  0  0  0  0  0  0  # atno 17343 bound_to 10162
  156.4834  130.4079  149.6448 LP  0  0  0  0  0  0  0  0  0  0  0  0  # atno 17370 bound_to 10713
  156.3485  130.7420  151.2376 LP  0  0  0  0  0  0  0  0  0  0  0  0  # atno 17371 bound_to 10713
  141.2043  133.7890  157.0295 LP  0  0  0  0  0  0  0  0  0  0  0  0  # atno 17394 bound_to 11000
  140.0795  134.9656  157.1600 LP  0  0  0  0  0  0  0  0  0  0  0  0  # atno 17395 bound_to 11000

$$$$
