AV-unprocessed.smi:613|AV-procd|sdf|3066|dock3
  -GOLD-   2262023593D 1   1.00000     0.00000
 Structure written by MMmdl.
 39 40  0  0  0  0  0  0  0  0  2 V2000
  148.9839  141.8622  157.4499 C   0  0  0  0  0  0  0  0  0  0  0  0
  150.4194  142.0914  157.3368 N   0  0  0  0  0  0  0  0  0  0  0  0
  151.1097  141.6277  156.1324 C   0  0  0  0  0  0  0  0  0  0  0  0
  150.7639  140.1709  155.7734 C   0  0  2  0  0  0  0  0  0  0  0  0
  150.8509  139.2443  157.0028 C   0  0  0  0  0  0  0  0  0  0  0  0
  150.5999  137.8434  156.6515 N   0  0  0  0  0  0  0  0  0  0  0  0
  150.6509  136.9208  157.7934 C   0  0  0  0  0  0  0  0  0  0  0  0
  149.4612  137.0315  158.7559 C   0  0  0  0  0  0  0  0  0  0  0  0
  148.5546  137.9775  158.4986 N   0  0  0  0  0  0  0  0  0  0  0  0
  149.3598  136.2698  159.7157 O   0  0  0  0  0  0  0  0  0  0  0  0
  151.5130  137.4326  155.5892 C   0  0  0  0  0  0  0  0  0  0  0  0
  151.4359  138.3709  154.3739 C   0  0  0  0  0  0  0  0  0  0  0  0
  151.6881  139.7075  154.7920 O   0  0  0  0  0  0  0  0  0  0  0  0
  151.0268  143.0425  158.1901 C   0  0  0  0  0  0  0  0  0  0  0  0
  151.9625  142.6884  159.1931 C   0  0  0  0  0  0  0  0  0  0  0  0
  152.5125  143.7017  159.9962 C   0  0  0  0  0  0  0  0  0  0  0  0
  152.0987  145.0217  159.7520 C   0  0  0  0  0  0  0  0  0  0  0  0
  151.2093  145.3504  158.7906 N   0  0  0  0  0  0  0  0  0  0  0  0
  150.7037  144.3566  158.0404 N   0  3  0  0  0  0  0  0  0  0  0  0
  148.7377  141.4369  158.4232 H   0  0  0  0  0  0  0  0  0  0  0  0
  148.6381  141.1643  156.6867 H   0  0  0  0  0  0  0  0  0  0  0  0
  148.4318  142.7941  157.3230 H   0  0  0  0  0  0  0  0  0  0  0  0
  150.9296  142.2884  155.2842 H   0  0  0  0  0  0  0  0  0  0  0  0
  152.1805  141.6990  156.3273 H   0  0  0  0  0  0  0  0  0  0  0  0
  149.7516  140.1254  155.3669 H   0  0  0  0  0  0  0  0  0  0  0  0
  151.8356  139.3384  157.4644 H   0  0  0  0  0  0  0  0  0  0  0  0
  150.1283  139.5914  157.7415 H   0  0  0  0  0  0  0  0  0  0  0  0
  150.6712  135.8920  157.4312 H   0  0  0  0  0  0  0  0  0  0  0  0
  151.5812  137.0675  158.3458 H   0  0  0  0  0  0  0  0  0  0  0  0
  147.7516  138.0858  159.1007 H   0  0  0  0  0  0  0  0  0  0  0  0
  148.6741  138.5796  157.6967 H   0  0  0  0  0  0  0  0  0  0  0  0
  152.5377  137.4143  155.9647 H   0  0  0  0  0  0  0  0  0  0  0  0
  151.2814  136.4158  155.2696 H   0  0  0  0  0  0  0  0  0  0  0  0
  152.1762  138.0858  153.6260 H   0  0  0  0  0  0  0  0  0  0  0  0
  150.4568  138.3092  153.8965 H   0  0  0  0  0  0  0  0  0  0  0  0
  152.2646  141.6654  159.3599 H   0  0  0  0  0  0  0  0  0  0  0  0
  153.2272  143.4748  160.7735 H   0  0  0  0  0  0  0  0  0  0  0  0
  152.4910  145.8373  160.3418 H   0  0  0  0  0  0  0  0  0  0  0  0
  150.0267  144.5997  157.3168 H   0  0  0  0  0  0  0  0  0  0  0  0
  1  2  1  0  0  0  0
  1 20  1  0  0  0  0
  1 21  1  0  0  0  0
  1 22  1  0  0  0  0
  2  3  1  0  0  0  0
  2 14  1  0  0  0  0
  3  4  1  0  0  0  0
  3 23  1  0  0  0  0
  3 24  1  0  0  0  0
  4 13  1  0  0  0  0
  4  5  1  0  0  0  0
  4 25  1  0  0  0  0
  5  6  1  0  0  0  0
  5 26  1  0  0  0  0
  5 27  1  0  0  0  0
  6  7  1  0  0  0  0
  6 11  1  0  0  0  0
  7  8  1  0  0  0  0
  7 28  1  0  0  0  0
  7 29  1  0  0  0  0
  8  9  1  0  0  0  0
  8 10  2  0  0  0  0
  9 30  1  0  0  0  0
  9 31  1  0  0  0  0
 11 12  1  0  0  0  0
 11 32  1  0  0  0  0
 11 33  1  0  0  0  0
 12 13  1  0  0  0  0
 12 34  1  0  0  0  0
 12 35  1  0  0  0  0
 14 19  1  0  0  0  0
 14 15  2  0  0  0  0
 15 16  1  0  0  0  0
 15 36  1  0  0  0  0
 16 17  2  0  0  0  0
 16 37  1  0  0  0  0
 17 18  1  0  0  0  0
 17 38  1  0  0  0  0
 18 19  2  0  0  0  0
 19 39  1  0  0  0  0
M  CHG  1  19   1
M  END
> <s_m_source_file>
AV-unprocessed.smi

> <i_m_source_file_index>
613

> <i_lp_mmshare_version>
43012

> <i_f3d_flags>
0

> <s_epik_input>
bjFuW2NIXVtjSF1bY0hdYzFOKFtDSDNdKVtDSDJdW0NAQEhdMltDSDJdTihbQ0gyXVtDSDJdTzIpW0NIMl1DKD1PKVtOSDJd

> <s_epik_cmdline>
J2VwaWtfcHl0aG9uJywgJy1waCcsICc3LjAnLCAnLXRuJywgJzgnLCAnLW1hJywgJzIwMCcsICctbWV0YWxfYmluZGluZycsICctaW1hZScsICc8aW5maWxlLm1hZT4nLCAnLW9tYWUnLCAnPG91dGZpbGUubWFlPic=

> <r_lp_tautomer_probability>
0.966961

> <r_epik_Ionization_Penalty>
1.86301

> <r_epik_Ionization_Penalty_Charging>
1.86058

> <r_epik_Ionization_Penalty_Neutral>
0.00243207

> <r_epik_State_Penalty>
1.48112

> <r_epik_Charging_Adjusted_Penalty>
3.3417

> <i_epik_Tot_Q>
1

> <i_epik_Tot_abs_Q>
1

> <r_epik_Metal_State_Penalty>
1.50193

> <b_epik_Metal_Only>
0

> <s_lp_Force_Field>
OPLS_2005

> <r_lp_Energy>
27.1625

> <b_lp_Chiralities_Consistent>
1

> <s_lp_Variant>
AV-unprocessed.smi:613-3

> <Gold.Version>
5.8.1

> <Gold.Id.Protein>
6NUR|6NUR_protein|mol2

> <Gold.PLP.Fitness>
42.5086

> <Gold.PLP.PLP>
-33.9071

> <Gold.PLP.part.hbond>
-4.0626

> <Gold.PLP.part.metal>
0.0000

> <Gold.PLP.part.buried>
-6.4911

> <Gold.PLP.part.nonpolar>
-24.6085

> <Gold.PLP.part.repulsive>
0.4413

> <Gold.PLP.ligand.clash>
0.0000

> <Gold.PLP.ligand.torsion>
1.8172

> <Gold.PLP.Chemscore.Hbond>
4.0000

> <Gold.PLP.Chemscore.CHOScore>
0.0000

> <Gold.PLP.Chemscore.Metal>
0.0000

> <Gold.Chemscore.Hbonds>
donor molecule, donor type, donor heavy atom, donor atom, acceptor molecule, acceptor atom, score
      L1  H    19    39       P1  8028  2.00
      P1  H  6896  6907       L1    10  0.99
      P1  H  7989  7998       L1    13  1.00

> <Gold.PLP.Chemscore.Internal.Correction>
0.2360

> <Gold.Rescore>
     Score         DG    S(hbond)    S(metal)    S(lipo)     H(rot)  DE(clash)    DE(int)     intcor
     14.86     -16.87       2.53        0.00      74.11       2.23       0.13       1.88       ----

> <Gold.Chemscore.Fitness>
14.8625

> <Gold.Chemscore.DG>
-16.8705

> <Gold.Chemscore.ZeroCoef>
-5.4800

> <Gold.Chemscore.Hbond>
2.5271

> <Gold.Chemscore.Metal>
0.0000

> <Gold.Chemscore.Lipo>
74.1117

> <Gold.Chemscore.Internal_Hbond>
0.0000

> <Gold.Chemscore.DEClash>
0.1298

> <Gold.Chemscore.DEInternal>
1.8781

> <Gold.Chemscore.Rot>
2.2348

> <Gold.Chemscore.Internal.Correction>
   9.000000E+99

> <Gold.Chemscore.Hbonds>
donor molecule, donor type, donor heavy atom, donor atom, acceptor molecule, acceptor atom, score
      L1  H    19    39       P1  8028  0.25
      P1  H  6896  6907       L1    10  0.76
      P1  H  7989  7998       L1    13  0.52

> <Gold.Chemscore.Hbond.Weighted>
-8.4405

> <Gold.Chemscore.Metal.Weighted>
-0.0000

> <Gold.Chemscore.Lipo.Weighted>
-8.6711

> <Gold.Chemscore.Internal_Hbond.Weighted>
0.0000

> <Gold.Chemscore.DEClash.Weighted>
0.1298

> <Gold.Chemscore.DEInternal.Weighted>
1.8781

> <Gold.Chemscore.Rot.Weighted>
5.7211

> <Gold.Chemscore.Internal.Correction.Weighted>
   9.000000E+99

> <Gold.Protein.RotatedTorsions>
[ 6907 6896 6895 6894 ] final  -52.14 input  -60.11 | X-H torsion
[ 7974 7965 7964 7962 ] final -151.87 input  175.53 | X-H torsion
[ 8008 7997 7996 7995 ] final -118.94 input   59.86 | X-H torsion
[ 10167 10162 10161 10158 ] final -151.41 input  -65.29 | X-H torsion
[ 10718 10713 10712 10709 ] final   57.96 input   66.30 | X-H torsion
[ 10763 10752 10751 10750 ] final   66.55 input  -60.55 | X-H torsion
[ 11005 11000 10999 10996 ] final  -70.86 input  -57.11 | X-H torsion

> <Gold.Protein.ActiveResidues>
 VAL166  LYS551  ARG553  GLY616  TRP617  ASP618  TYR619  PRO620  LYS621  CYS622 
 ASP623  PHE694  ASN695  SER759  ASP760  ASP761  ALA762  ILE779  LEU786  VAL792 
 PHE793  MET794  SER795  GLU796  ALA797  LYS798  CYS799  TRP800  GLU811  SER814 

> <Gold.Protein.RotatedAtoms>
  150.8546  134.7881  159.7035 H   0  0  0  0  0  0  0  0  0  0  0  0  # atno 6907 bound_to 6896
  152.4601  134.5200  159.9789 H   0  0  0  0  0  0  0  0  0  0  0  0  # atno 6908 bound_to 6896
  151.5315  133.3410  159.2954 H   0  0  0  0  0  0  0  0  0  0  0  0  # atno 6909 bound_to 6896
  144.7826  140.4739  143.5829 H   0  0  0  0  0  0  0  0  0  0  0  0  # atno 7974 bound_to 7965
  155.1077  140.0397  157.2715 H   0  0  0  0  0  0  0  0  0  0  0  0  # atno 8008 bound_to 7997
  154.6709  140.2612  155.6982 H   0  0  0  0  0  0  0  0  0  0  0  0  # atno 8009 bound_to 7997
  156.2658  140.2798  156.1218 H   0  0  0  0  0  0  0  0  0  0  0  0  # atno 8010 bound_to 7997
  139.7269  143.8869  152.2522 H   0  0  0  0  0  0  0  0  0  0  0  0  # atno 10167 bound_to 10162
  157.5557  130.8798  149.9032 H   0  0  0  0  0  0  0  0  0  0  0  0  # atno 10718 bound_to 10713
  153.0145  135.5316  154.6842 H   0  0  0  0  0  0  0  0  0  0  0  0  # atno 10763 bound_to 10752
  154.5994  135.2866  155.0554 H   0  0  0  0  0  0  0  0  0  0  0  0  # atno 10764 bound_to 10752
  154.1617  135.6546  153.5040 H   0  0  0  0  0  0  0  0  0  0  0  0  # atno 10765 bound_to 10752
  141.1582  133.6801  156.6818 H   0  0  0  0  0  0  0  0  0  0  0  0  # atno 11005 bound_to 11000
  145.6009  139.1504  143.3129 LP  0  0  0  0  0  0  0  0  0  0  0  0  # atno 17320 bound_to 7965
  146.2041  140.6131  142.9089 LP  0  0  0  0  0  0  0  0  0  0  0  0  # atno 17321 bound_to 7965
  139.8781  144.7032  150.8910 LP  0  0  0  0  0  0  0  0  0  0  0  0  # atno 17342 bound_to 10162
  140.7764  143.3684  151.1696 LP  0  0  0  0  0  0  0  0  0  0  0  0  # atno 17343 bound_to 10162
  156.0616  130.3699  150.0968 LP  0  0  0  0  0  0  0  0  0  0  0  0  # atno 17370 bound_to 10713
  156.9137  130.9660  151.3559 LP  0  0  0  0  0  0  0  0  0  0  0  0  # atno 17371 bound_to 10713
  140.3097  134.8096  157.4166 LP  0  0  0  0  0  0  0  0  0  0  0  0  # atno 17394 bound_to 11000
  140.1189  134.5245  155.8200 LP  0  0  0  0  0  0  0  0  0  0  0  0  # atno 17395 bound_to 11000

$$$$
