AV-unprocessed.smi:1968|AV-procd|sdf|7956|dock5
  -GOLD-   2272010123D 1   1.00000     0.00000
 Structure written by MMmdl.
 42 43  0  0  0  0  0  0  0  0  1 V2000
  143.3490  145.3690  154.9077 C   0  0  0  0  0  0  0  0  0  0  0  0
  143.7758  144.7533  156.2423 C   0  0  0  0  0  0  0  0  0  0  0  0
  143.6031  145.4152  157.2659 O   0  0  0  0  0  0  0  0  0  0  0  0
  144.3266  143.5154  156.2549 N   0  0  0  0  0  0  0  0  0  0  0  0
  144.6360  142.7109  155.0666 C   0  0  0  0  0  0  0  0  0  0  0  0
  146.1632  142.6670  154.8827 C   0  0  0  0  0  0  0  0  0  0  0  0
  146.8677  142.1263  156.1495 C   0  0  0  0  0  0  0  0  0  0  0  0
  148.3150  142.2814  156.0409 N   0  0  0  0  0  0  0  0  0  0  0  0
  149.2060  141.2784  156.0378 C   0  0  0  0  0  0  0  0  0  0  0  0
  148.8854  140.0916  156.1170 O   0  0  0  0  0  0  0  0  0  0  0  0
  150.6790  141.6919  155.9051 C   0  0  0  0  0  0  0  0  0  0  0  0
  151.3812  141.7813  157.1965 N   0  0  0  0  0  0  0  0  0  0  0  0
  151.1992  142.9609  157.9452 C   0  0  0  0  0  0  0  0  0  0  0  0
  151.7780  143.1647  159.1443 C   0  0  0  0  0  0  0  0  0  0  0  0
  151.6136  144.4731  159.9022 C   0  0  0  0  0  0  0  0  0  0  0  0
  152.2780  144.4434  161.0577 F   0  0  0  0  0  0  0  0  0  0  0  0
  152.0618  145.5061  159.1877 F   0  0  0  0  0  0  0  0  0  0  0  0
  150.3254  144.6819  160.1699 F   0  0  0  0  0  0  0  0  0  0  0  0
  152.6427  142.1078  159.6309 C   0  0  0  0  0  0  0  0  0  0  0  0
  152.8374  140.9787  158.9219 C   0  0  0  0  0  0  0  0  0  0  0  0
  152.1861  140.7641  157.6276 C   0  0  0  0  0  0  0  0  0  0  0  0
  152.3544  139.7356  156.9718 O   0  0  0  0  0  0  0  0  0  0  0  0
  146.3670  142.8424  157.4228 C   0  0  0  0  0  0  0  0  0  0  0  0
  144.8291  142.8820  157.4794 C   0  0  0  0  0  0  0  0  0  0  0  0
  144.1965  145.4426  154.2256 H   0  0  0  0  0  0  0  0  0  0  0  0
  142.9550  146.3749  155.0567 H   0  0  0  0  0  0  0  0  0  0  0  0
  142.5666  144.7711  154.4400 H   0  0  0  0  0  0  0  0  0  0  0  0
  144.2505  141.7000  155.2079 H   0  0  0  0  0  0  0  0  0  0  0  0
  144.1625  143.0756  154.1563 H   0  0  0  0  0  0  0  0  0  0  0  0
  146.4123  142.0493  154.0191 H   0  0  0  0  0  0  0  0  0  0  0  0
  146.5246  143.6719  154.6581 H   0  0  0  0  0  0  0  0  0  0  0  0
  146.6295  141.0655  156.2509 H   0  0  0  0  0  0  0  0  0  0  0  0
  148.6658  143.2255  155.9679 H   0  0  0  0  0  0  0  0  0  0  0  0
  151.1756  140.9746  155.2500 H   0  0  0  0  0  0  0  0  0  0  0  0
  150.7389  142.6463  155.3780 H   0  0  0  0  0  0  0  0  0  0  0  0
  150.5637  143.6972  157.4744 H   0  0  0  0  0  0  0  0  0  0  0  0
  153.1412  142.2223  160.5823 H   0  0  0  0  0  0  0  0  0  0  0  0
  153.4880  140.2118  159.3161 H   0  0  0  0  0  0  0  0  0  0  0  0
  146.7587  142.3453  158.3111 H   0  0  0  0  0  0  0  0  0  0  0  0
  146.7486  143.8647  157.4476 H   0  0  0  0  0  0  0  0  0  0  0  0
  144.5035  143.3954  158.3851 H   0  0  0  0  0  0  0  0  0  0  0  0
  144.4299  141.8695  157.5537 H   0  0  0  0  0  0  0  0  0  0  0  0
  1  2  1  0  0  0  0
  1 25  1  0  0  0  0
  1 26  1  0  0  0  0
  1 27  1  0  0  0  0
  2  3  2  0  0  0  0
  2  4  1  0  0  0  0
  4 24  1  0  0  0  0
  4  5  1  0  0  0  0
  5  6  1  0  0  0  0
  5 28  1  0  0  0  0
  5 29  1  0  0  0  0
  6  7  1  0  0  0  0
  6 30  1  0  0  0  0
  6 31  1  0  0  0  0
  7  8  1  0  0  0  0
  7 23  1  0  0  0  0
  7 32  1  0  0  0  0
  8  9  1  0  0  0  0
  8 33  1  0  0  0  0
  9 10  2  0  0  0  0
  9 11  1  0  0  0  0
 11 12  1  0  0  0  0
 11 34  1  0  0  0  0
 11 35  1  0  0  0  0
 12 21  1  0  0  0  0
 12 13  1  0  0  0  0
 13 14  2  0  0  0  0
 13 36  1  0  0  0  0
 14 15  1  0  0  0  0
 14 19  1  0  0  0  0
 15 16  1  0  0  0  0
 15 17  1  0  0  0  0
 15 18  1  0  0  0  0
 19 20  2  0  0  0  0
 19 37  1  0  0  0  0
 20 21  1  0  0  0  0
 20 38  1  0  0  0  0
 21 22  2  0  0  0  0
 23 24  1  0  0  0  0
 23 39  1  0  0  0  0
 23 40  1  0  0  0  0
 24 41  1  0  0  0  0
 24 42  1  0  0  0  0
M  END
> <s_m_source_file>
AV-unprocessed.smi

> <i_m_source_file_index>
1968

> <i_lp_mmshare_version>
43012

> <i_f3d_flags>
0

> <s_epik_input>
W0NIM11DKD1PKU4xW0NIMl1bQ0gyXVtDSF0oW0NIMl1bQ0gyXTEpW05IXUMoPU8pW0NIMl1uMltjSF1jKEMoRikoRilGKVtjSF1bY0hdYzI9Tw==

> <s_epik_cmdline>
J2VwaWtfcHl0aG9uJywgJy1waCcsICc3LjAnLCAnLXRuJywgJzgnLCAnLW1hJywgJzIwMCcsICctbWV0YWxfYmluZGluZycsICctaW1hZScsICc8aW5maWxlLm1hZT4nLCAnLW9tYWUnLCAnPG91dGZpbGUubWFlPic=

> <r_lp_tautomer_probability>
1

> <r_epik_Ionization_Penalty>
1.143e-06

> <r_epik_Ionization_Penalty_Charging>
1.89481e-08

> <r_epik_Ionization_Penalty_Neutral>
1.12405e-06

> <r_epik_State_Penalty>
-0

> <r_epik_Charging_Adjusted_Penalty>
1.89481e-08

> <i_epik_Tot_Q>
0

> <i_epik_Tot_abs_Q>
0

> <r_epik_Metal_State_Penalty>
-0

> <b_epik_Metal_Only>
0

> <s_lp_Force_Field>
OPLS_2005

> <r_lp_Energy>
33.7668

> <b_lp_Chiralities_Consistent>
1

> <s_lp_Variant>
AV-unprocessed.smi:1968-1

> <Gold.Version>
5.8.1

> <Gold.Id.Protein>
6NUR|6NUR_protein|mol2

> <Gold.PLP.Fitness>
52.0959

> <Gold.PLP.PLP>
-44.9838

> <Gold.PLP.part.hbond>
-1.9725

> <Gold.PLP.part.metal>
0.0000

> <Gold.PLP.part.buried>
-6.8229

> <Gold.PLP.part.nonpolar>
-36.4995

> <Gold.PLP.part.repulsive>
0.1127

> <Gold.PLP.ligand.clash>
0.0000

> <Gold.PLP.ligand.torsion>
0.6639

> <Gold.PLP.Chemscore.Hbond>
2.0000

> <Gold.PLP.Chemscore.CHOScore>
0.7939

> <Gold.PLP.Chemscore.Metal>
0.0000

> <Gold.Chemscore.Hbonds>
donor molecule, donor type, donor heavy atom, donor atom, acceptor molecule, acceptor atom, score
      L1  H     8    33       P1  8028  1.00
      P1  H  7997  8010       L1    22  0.72
      L1  C    13    36       P1  8028  0.69

> <Gold.PLP.Chemscore.Internal.Correction>
0.0582

> <Gold.Rescore>
     Score         DG    S(hbond)    S(metal)    S(lipo)     H(rot)  DE(clash)    DE(int)     intcor
     14.56     -16.11       1.72        0.00      77.62       1.64       0.68       0.86       ----

> <Gold.Chemscore.Fitness>
14.5617

> <Gold.Chemscore.DG>
-16.1053

> <Gold.Chemscore.ZeroCoef>
-5.4800

> <Gold.Chemscore.Hbond>
1.7220

> <Gold.Chemscore.Metal>
0.0000

> <Gold.Chemscore.Lipo>
77.6176

> <Gold.Chemscore.Internal_Hbond>
0.0000

> <Gold.Chemscore.DEClash>
0.6814

> <Gold.Chemscore.DEInternal>
0.8622

> <Gold.Chemscore.Rot>
1.6435

> <Gold.Chemscore.Internal.Correction>
   9.000000E+99

> <Gold.Chemscore.Hbonds>
donor molecule, donor type, donor heavy atom, donor atom, acceptor molecule, acceptor atom, score
      L1  H     8    33       P1  8028  0.93
      P1  H  7997  8010       L1    22  0.10

> <Gold.Chemscore.Hbond.Weighted>
-5.7515

> <Gold.Chemscore.Metal.Weighted>
-0.0000

> <Gold.Chemscore.Lipo.Weighted>
-9.0813

> <Gold.Chemscore.Internal_Hbond.Weighted>
0.0000

> <Gold.Chemscore.DEClash.Weighted>
0.6814

> <Gold.Chemscore.DEInternal.Weighted>
0.8622

> <Gold.Chemscore.Rot.Weighted>
4.2074

> <Gold.Chemscore.Internal.Correction.Weighted>
   9.000000E+99

> <Gold.Protein.RotatedTorsions>
[ 6907 6896 6895 6894 ] final   56.24 input  -60.11 | X-H torsion
[ 7974 7965 7964 7962 ] final   44.26 input  175.53 | X-H torsion
[ 8008 7997 7996 7995 ] final   67.04 input   59.86 | X-H torsion
[ 10167 10162 10161 10158 ] final -107.13 input  -65.29 | X-H torsion
[ 10718 10713 10712 10709 ] final -160.60 input   66.30 | X-H torsion
[ 10763 10752 10751 10750 ] final  -99.94 input  -60.55 | X-H torsion
[ 11005 11000 10999 10996 ] final  -85.29 input  -57.11 | X-H torsion

> <Gold.Protein.ActiveResidues>
 VAL166  LYS551  ARG553  GLY616  TRP617  ASP618  TYR619  PRO620  LYS621  CYS622 
 ASP623  PHE694  ASN695  SER759  ASP760  ASP761  ALA762  ILE779  LEU786  VAL792 
 PHE793  MET794  SER795  GLU796  ALA797  LYS798  CYS799  TRP800  GLU811  SER814 

> <Gold.Protein.RotatedAtoms>
  152.3617  134.6863  160.0204 H   0  0  0  0  0  0  0  0  0  0  0  0  # atno 6907 bound_to 6896
  151.7184  133.3308  159.3317 H   0  0  0  0  0  0  0  0  0  0  0  0  # atno 6908 bound_to 6896
  150.7609  134.6404  159.6278 H   0  0  0  0  0  0  0  0  0  0  0  0  # atno 6909 bound_to 6896
  146.0584  139.5094  142.9674 H   0  0  0  0  0  0  0  0  0  0  0  0  # atno 7974 bound_to 7965
  155.6867  140.3496  155.4877 H   0  0  0  0  0  0  0  0  0  0  0  0  # atno 8008 bound_to 7997
  155.9559  140.1128  157.0959 H   0  0  0  0  0  0  0  0  0  0  0  0  # atno 8009 bound_to 7997
  154.4132  140.1185  156.5101 H   0  0  0  0  0  0  0  0  0  0  0  0  # atno 8010 bound_to 7997
  140.1803  143.3972  152.1286 H   0  0  0  0  0  0  0  0  0  0  0  0  # atno 10167 bound_to 10162
  156.5844  130.8743  151.2873 H   0  0  0  0  0  0  0  0  0  0  0  0  # atno 10718 bound_to 10713
  154.7539  135.4953  153.9339 H   0  0  0  0  0  0  0  0  0  0  0  0  # atno 10763 bound_to 10752
  153.1174  135.6724  153.9402 H   0  0  0  0  0  0  0  0  0  0  0  0  # atno 10764 bound_to 10752
  153.9144  135.3095  155.3427 H   0  0  0  0  0  0  0  0  0  0  0  0  # atno 10765 bound_to 10752
  141.1642  133.7391  156.8993 H   0  0  0  0  0  0  0  0  0  0  0  0  # atno 11005 bound_to 11000
  145.6604  141.0242  143.1712 LP  0  0  0  0  0  0  0  0  0  0  0  0  # atno 17320 bound_to 7965
  144.7161  139.8193  143.7398 LP  0  0  0  0  0  0  0  0  0  0  0  0  # atno 17321 bound_to 7965
  139.5299  144.7147  151.5094 LP  0  0  0  0  0  0  0  0  0  0  0  0  # atno 17342 bound_to 10162
  140.6524  143.8670  150.6799 LP  0  0  0  0  0  0  0  0  0  0  0  0  # atno 17343 bound_to 10162
  157.7319  130.9706  150.1901 LP  0  0  0  0  0  0  0  0  0  0  0  0  # atno 17370 bound_to 10713
  156.2603  130.3710  149.8137 LP  0  0  0  0  0  0  0  0  0  0  0  0  # atno 17371 bound_to 10713
  140.1593  134.9176  157.2695 LP  0  0  0  0  0  0  0  0  0  0  0  0  # atno 17394 bound_to 11000
  140.2629  134.3549  155.7400 LP  0  0  0  0  0  0  0  0  0  0  0  0  # atno 17395 bound_to 11000

$$$$
