AV-unprocessed.smi:6|AV-procd|sdf|42|dock8
  -GOLD-   2262015153D 1   1.00000     0.00000
 Structure written by MMmdl.
 37 38  0  0  0  0  0  0  0  0  3 V2000
  150.2955  143.9154  159.2590 C   0  0  0  0  0  0  0  0  0  0  0  0
  151.5666  143.4393  158.5395 C   0  0  0  0  0  0  0  0  0  0  0  0
  152.4013  144.5953  157.9675 C   0  0  0  0  0  0  0  0  0  0  0  0
  151.2645  142.3808  157.4883 C   0  0  0  0  0  0  0  0  0  0  0  0
  150.3606  142.6528  156.5329 N   0  3  0  0  0  0  0  0  0  0  0  0
  150.0774  141.7202  155.5909 C   0  0  0  0  0  0  0  0  0  0  0  0
  150.7238  140.4706  155.6091 C   0  0  0  0  0  0  0  0  0  0  0  0
  151.6613  140.2526  156.6333 C   0  0  0  0  0  0  0  0  0  0  0  0
  152.3332  139.0259  156.7038 N   0  0  0  0  0  0  0  0  0  0  0  0
  152.1850  138.0744  155.6090 C   0  0  0  0  0  0  0  0  0  0  0  0
  151.3736  136.8465  155.9941 C   0  0  0  0  0  0  0  0  0  0  0  0
  150.7853  136.0544  155.0734 C   0  0  0  0  0  0  0  0  0  0  0  0
  150.0175  134.9328  155.4267 N   0  0  0  0  0  0  0  0  0  0  0  0
  149.4254  134.1303  154.3536 C   0  0  0  0  0  0  0  0  0  0  0  0
  149.8388  134.6089  156.7387 C   0  0  0  0  0  0  0  0  0  0  0  0
  149.1665  133.6157  157.0189 O   0  0  0  0  0  0  0  0  0  0  0  0
  150.4139  135.4014  157.6940 N   0  5  0  0  0  0  0  0  0  0  0  0
  151.1641  136.5049  157.4062 C   0  0  0  0  0  0  0  0  0  0  0  0
  151.6625  137.2082  158.2848 O   0  0  0  0  0  0  0  0  0  0  0  0
  151.9123  141.2086  157.5554 N   0  0  0  0  0  0  0  0  0  0  0  0
  149.7626  143.0779  159.7100 H   0  0  0  0  0  0  0  0  0  0  0  0
  149.6116  144.4146  158.5717 H   0  0  0  0  0  0  0  0  0  0  0  0
  150.5364  144.6204  160.0552 H   0  0  0  0  0  0  0  0  0  0  0  0
  152.1866  142.9616  159.3001 H   0  0  0  0  0  0  0  0  0  0  0  0
  153.3306  144.2294  157.5300 H   0  0  0  0  0  0  0  0  0  0  0  0
  152.6633  145.3125  158.7457 H   0  0  0  0  0  0  0  0  0  0  0  0
  151.8570  145.1344  157.1912 H   0  0  0  0  0  0  0  0  0  0  0  0
  149.3417  142.0045  154.8529 H   0  0  0  0  0  0  0  0  0  0  0  0
  150.5099  139.7161  154.8659 H   0  0  0  0  0  0  0  0  0  0  0  0
  152.4699  138.6308  157.6237 H   0  0  0  0  0  0  0  0  0  0  0  0
  151.7045  138.5651  154.7614 H   0  0  0  0  0  0  0  0  0  0  0  0
  153.1727  137.7536  155.2750 H   0  0  0  0  0  0  0  0  0  0  0  0
  150.8689  136.2327  154.0114 H   0  0  0  0  0  0  0  0  0  0  0  0
  148.3443  134.0562  154.4800 H   0  0  0  0  0  0  0  0  0  0  0  0
  149.8391  133.1209  154.3625 H   0  0  0  0  0  0  0  0  0  0  0  0
  149.6086  134.5519  153.3648 H   0  0  0  0  0  0  0  0  0  0  0  0
  149.8837  143.5546  156.5087 H   0  0  0  0  0  0  0  0  0  0  0  0
  1  2  1  0  0  0  0
  1 21  1  0  0  0  0
  1 22  1  0  0  0  0
  1 23  1  0  0  0  0
  2  3  1  0  0  0  0
  2  4  1  0  0  0  0
  2 24  1  0  0  0  0
  3 25  1  0  0  0  0
  3 26  1  0  0  0  0
  3 27  1  0  0  0  0
  4 20  1  0  0  0  0
  4  5  2  0  0  0  0
  5  6  1  0  0  0  0
  5 37  1  0  0  0  0
  6  7  2  0  0  0  0
  6 28  1  0  0  0  0
  7  8  1  0  0  0  0
  7 29  1  0  0  0  0
  8  9  1  0  0  0  0
  8 20  2  0  0  0  0
  9 10  1  0  0  0  0
  9 30  1  0  0  0  0
 10 11  1  0  0  0  0
 10 31  1  0  0  0  0
 10 32  1  0  0  0  0
 11 18  1  0  0  0  0
 11 12  2  0  0  0  0
 12 13  1  0  0  0  0
 12 33  1  0  0  0  0
 13 14  1  0  0  0  0
 13 15  1  0  0  0  0
 14 34  1  0  0  0  0
 14 35  1  0  0  0  0
 14 36  1  0  0  0  0
 15 16  2  0  0  0  0
 15 17  1  0  0  0  0
 17 18  1  0  0  0  0
 18 19  2  0  0  0  0
M  CHG  1   5   1
M  CHG  1  17  -1
M  END
> <s_m_source_file>
AV-unprocessed.smi

> <i_m_source_file_index>
6

> <i_lp_mmshare_version>
43012

> <i_f3d_flags>
0

> <s_epik_input>
W0NIM11bQ0hdKFtDSDNdKWMxbltjSF1bY0hdYyhuMSlbTkhdW0NIMl1jMltjSF1uKFtDSDNdKWMoPU8pW25IXWMyPU8=

> <s_epik_cmdline>
J2VwaWtfcHl0aG9uJywgJy1waCcsICc3LjAnLCAnLXRuJywgJzgnLCAnLW1hJywgJzIwMCcsICctbWV0YWxfYmluZGluZycsICctaW1hZScsICc8aW5maWxlLm1hZT4nLCAnLW9tYWUnLCAnPG91dGZpbGUubWFlPic=

> <r_lp_tautomer_probability>
0.998874

> <r_epik_Ionization_Penalty>
4.8157

> <r_epik_Ionization_Penalty_Charging>
0.866709

> <r_epik_Ionization_Penalty_Neutral>
3.94899

> <r_epik_State_Penalty>
4.49389

> <r_epik_Charging_Adjusted_Penalty>
5.3606

> <i_epik_Tot_Q>
0

> <i_epik_Tot_abs_Q>
2

> <r_epik_Metal_State_Penalty>
1.28929

> <b_epik_Metal_Only>
1

> <s_lp_Force_Field>
OPLS_2005

> <r_lp_Energy>
16.1184

> <b_lp_Chiralities_Consistent>
1

> <s_lp_Variant>
AV-unprocessed.smi:6-4

> <Gold.Version>
5.8.1

> <Gold.Id.Protein>
6NUR|6NUR_protein|mol2

> <Gold.PLP.Fitness>
43.7988

> <Gold.PLP.PLP>
-32.3237

> <Gold.PLP.part.hbond>
-2.0000

> <Gold.PLP.part.metal>
0.0000

> <Gold.PLP.part.buried>
-2.9765

> <Gold.PLP.part.nonpolar>
-26.9473

> <Gold.PLP.part.repulsive>
0.1878

> <Gold.PLP.ligand.clash>
0.0000

> <Gold.PLP.ligand.torsion>
0.5069

> <Gold.PLP.Chemscore.Hbond>
3.2480

> <Gold.PLP.Chemscore.CHOScore>
0.8888

> <Gold.PLP.Chemscore.Metal>
0.0000

> <Gold.Chemscore.Hbonds>
donor molecule, donor type, donor heavy atom, donor atom, acceptor molecule, acceptor atom, score
      L1  H     5    37       P1  8028  2.00
      P1  H  6896  6907       L1    17  1.22
      L1  C    12    33       P1  7948  0.05
      L1  C    12    33       P1  7949  0.81

> <Gold.PLP.Chemscore.Internal.Correction>
0.0784

> <Gold.Rescore>
     Score         DG    S(hbond)    S(metal)    S(lipo)     H(rot)  DE(clash)    DE(int)     intcor
     12.51     -14.79       1.53        0.00      71.77       1.65       0.10       2.17       ----

> <Gold.Chemscore.Fitness>
12.5120

> <Gold.Chemscore.DG>
-14.7852

> <Gold.Chemscore.ZeroCoef>
-5.4800

> <Gold.Chemscore.Hbond>
1.5348

> <Gold.Chemscore.Metal>
0.0000

> <Gold.Chemscore.Lipo>
71.7693

> <Gold.Chemscore.Internal_Hbond>
0.0000

> <Gold.Chemscore.DEClash>
0.1025

> <Gold.Chemscore.DEInternal>
2.1707

> <Gold.Chemscore.Rot>
1.6477

> <Gold.Chemscore.Internal.Correction>
   9.000000E+99

> <Gold.Chemscore.Hbonds>
donor molecule, donor type, donor heavy atom, donor atom, acceptor molecule, acceptor atom, score
      L1  H     5    37       P1  8028  0.95
      P1  H  6896  6907       L1    17  0.51

> <Gold.Chemscore.Hbond.Weighted>
-5.1263

> <Gold.Chemscore.Metal.Weighted>
-0.0000

> <Gold.Chemscore.Lipo.Weighted>
-8.3970

> <Gold.Chemscore.Internal_Hbond.Weighted>
0.0000

> <Gold.Chemscore.DEClash.Weighted>
0.1025

> <Gold.Chemscore.DEInternal.Weighted>
2.1707

> <Gold.Chemscore.Rot.Weighted>
4.2180

> <Gold.Chemscore.Internal.Correction.Weighted>
   9.000000E+99

> <Gold.Protein.RotatedTorsions>
[ 6907 6896 6895 6894 ] final  -75.26 input  -60.11 | X-H torsion
[ 7974 7965 7964 7962 ] final  -91.06 input  175.53 | X-H torsion
[ 8008 7997 7996 7995 ] final   72.98 input   59.86 | X-H torsion
[ 10167 10162 10161 10158 ] final -155.54 input  -65.29 | X-H torsion
[ 10718 10713 10712 10709 ] final  -43.82 input   66.30 | X-H torsion
[ 10763 10752 10751 10750 ] final  113.47 input  -60.55 | X-H torsion
[ 11005 11000 10999 10996 ] final  -52.47 input  -57.11 | X-H torsion

> <Gold.Protein.ActiveResidues>
 VAL166  LYS551  ARG553  GLY616  TRP617  ASP618  TYR619  PRO620  LYS621  CYS622 
 ASP623  PHE694  ASN695  SER759  ASP760  ASP761  ALA762  ILE779  LEU786  VAL792 
 PHE793  MET794  SER795  GLU796  ALA797  LYS798  CYS799  TRP800  GLU811  SER814 

> <Gold.Protein.RotatedAtoms>
  150.7065  134.4748  159.5441 H   0  0  0  0  0  0  0  0  0  0  0  0  # atno 6907 bound_to 6896
  152.2397  134.8238  160.0471 H   0  0  0  0  0  0  0  0  0  0  0  0  # atno 6908 bound_to 6896
  151.9024  133.3506  159.3872 H   0  0  0  0  0  0  0  0  0  0  0  0  # atno 6909 bound_to 6896
  145.4182  140.9549  143.2196 H   0  0  0  0  0  0  0  0  0  0  0  0  # atno 7974 bound_to 7965
  155.7768  140.3483  155.5276 H   0  0  0  0  0  0  0  0  0  0  0  0  # atno 8008 bound_to 7997
  155.8768  140.0995  157.1534 H   0  0  0  0  0  0  0  0  0  0  0  0  # atno 8009 bound_to 7997
  154.4021  140.1330  156.4133 H   0  0  0  0  0  0  0  0  0  0  0  0  # atno 8010 bound_to 7997
  139.6923  143.9400  152.2391 H   0  0  0  0  0  0  0  0  0  0  0  0  # atno 10167 bound_to 10162
  156.2449  130.4183  149.8716 H   0  0  0  0  0  0  0  0  0  0  0  0  # atno 10718 bound_to 10713
  153.4930  135.3654  155.2501 H   0  0  0  0  0  0  0  0  0  0  0  0  # atno 10763 bound_to 10752
  154.8751  135.3982  154.3566 H   0  0  0  0  0  0  0  0  0  0  0  0  # atno 10764 bound_to 10752
  153.4189  135.7080  153.6373 H   0  0  0  0  0  0  0  0  0  0  0  0  # atno 10765 bound_to 10752
  141.0926  133.6630  156.4029 H   0  0  0  0  0  0  0  0  0  0  0  0  # atno 11005 bound_to 11000
  144.8263  139.5705  143.6964 LP  0  0  0  0  0  0  0  0  0  0  0  0  # atno 17320 bound_to 7965
  146.2670  139.6543  142.9322 LP  0  0  0  0  0  0  0  0  0  0  0  0  # atno 17321 bound_to 7965
  139.9219  144.6794  150.8452 LP  0  0  0  0  0  0  0  0  0  0  0  0  # atno 17342 bound_to 10162
  140.7686  143.3369  151.2291 LP  0  0  0  0  0  0  0  0  0  0  0  0  # atno 17343 bound_to 10162
  156.6285  130.8656  151.3490 LP  0  0  0  0  0  0  0  0  0  0  0  0  # atno 17370 bound_to 10713
  157.7191  130.9535  150.1368 LP  0  0  0  0  0  0  0  0  0  0  0  0  # atno 17371 bound_to 10713
  140.5216  134.6298  157.5320 LP  0  0  0  0  0  0  0  0  0  0  0  0  # atno 17394 bound_to 11000
  139.9755  134.7223  155.9958 LP  0  0  0  0  0  0  0  0  0  0  0  0  # atno 17395 bound_to 11000

$$$$
