AV-unprocessed.smi:50|AV-procd|sdf|498|dock8
  -GOLD-   2262016373D 1   1.00000     0.00000
 Structure written by MMmdl.
 42 43  0  0  0  0  0  0  0  0  2 V2000
  142.5417  132.8360  151.4599 C   0  0  0  0  0  0  0  0  0  0  0  0
  143.7768  132.5555  150.5788 C   0  0  0  0  0  0  0  0  0  0  0  0
  144.5510  131.3664  151.1771 C   0  0  0  0  0  0  0  0  0  0  0  0
  144.7175  133.7799  150.3660 C   0  0  1  0  0  0  0  0  0  0  0  0
  144.0316  134.8148  149.5907 N   0  0  0  0  0  0  0  0  0  0  0  0
  145.2726  134.3591  151.6804 C   0  0  0  0  0  0  0  0  0  0  0  0
  145.0580  135.5046  152.0820 O   0  0  0  0  0  0  0  0  0  0  0  0
  146.0071  133.4320  152.3209 O   0  0  0  0  0  0  0  0  0  0  0  0
  146.5157  133.6704  153.6255 C   0  0  0  0  0  0  0  0  0  0  0  0
  148.0307  133.4565  153.5882 C   0  0  0  0  0  0  0  0  0  0  0  0
  148.5845  133.8829  154.8256 O   0  0  0  0  0  0  0  0  0  0  0  0
  148.3495  135.2210  155.1272 C   0  0  0  0  0  0  0  0  0  0  0  0
  149.6222  135.8687  155.3978 N   0  0  0  0  0  0  0  0  0  0  0  0
  150.6986  135.3140  155.9883 C   0  0  0  0  0  0  0  0  0  0  0  0
  151.7497  136.1194  156.1343 N   0  0  0  0  0  0  0  0  0  0  0  0
  151.2860  137.3051  155.5755 C   0  0  0  0  0  0  0  0  0  0  0  0
  151.9213  138.6358  155.4193 C   0  0  0  0  0  0  0  0  0  0  0  0
  153.0719  138.8005  155.8204 O   0  0  0  0  0  0  0  0  0  0  0  0
  151.1429  139.5928  154.8285 N   0  5  0  0  0  0  0  0  0  0  0  0
  149.8398  139.2897  154.4094 C   0  0  0  0  0  0  0  0  0  0  0  0
  149.2018  140.3642  153.8290 N   0  0  0  0  0  0  0  0  0  0  0  0
  149.2170  138.1414  154.5147 N   0  0  0  0  0  0  0  0  0  0  0  0
  150.0019  137.1766  155.1187 C   0  0  0  0  0  0  0  0  0  0  0  0
  145.5694  133.4442  149.7732 H   0  0  0  0  0  0  0  0  0  0  0  0
  142.8369  133.2501  152.4235 H   0  0  0  0  0  0  0  0  0  0  0  0
  141.9763  131.9236  151.6524 H   0  0  0  0  0  0  0  0  0  0  0  0
  141.8505  133.5360  150.9905 H   0  0  0  0  0  0  0  0  0  0  0  0
  143.4014  132.2434  149.6029 H   0  0  0  0  0  0  0  0  0  0  0  0
  144.9514  131.6121  152.1615 H   0  0  0  0  0  0  0  0  0  0  0  0
  145.3861  131.0671  150.5437 H   0  0  0  0  0  0  0  0  0  0  0  0
  143.9066  130.4943  151.2913 H   0  0  0  0  0  0  0  0  0  0  0  0
  143.0289  134.7007  149.6286 H   0  0  0  0  0  0  0  0  0  0  0  0
  144.2339  135.7389  149.9439 H   0  0  0  0  0  0  0  0  0  0  0  0
  146.2677  134.6815  153.9494 H   0  0  0  0  0  0  0  0  0  0  0  0
  146.0824  132.9799  154.3503 H   0  0  0  0  0  0  0  0  0  0  0  0
  148.2576  132.3990  153.4491 H   0  0  0  0  0  0  0  0  0  0  0  0
  148.4543  133.9923  152.7380 H   0  0  0  0  0  0  0  0  0  0  0  0
  147.9052  135.7019  154.2553 H   0  0  0  0  0  0  0  0  0  0  0  0
  147.6727  135.3396  155.9750 H   0  0  0  0  0  0  0  0  0  0  0  0
  150.7078  134.2888  156.3274 H   0  0  0  0  0  0  0  0  0  0  0  0
  149.6270  141.2726  153.7173 H   0  0  0  0  0  0  0  0  0  0  0  0
  148.2565  140.3187  153.4780 H   0  0  0  0  0  0  0  0  0  0  0  0
  1  2  1  0  0  0  0
  1 25  1  0  0  0  0
  1 26  1  0  0  0  0
  1 27  1  0  0  0  0
  2  3  1  0  0  0  0
  2  4  1  0  0  0  0
  2 28  1  0  0  0  0
  3 29  1  0  0  0  0
  3 30  1  0  0  0  0
  3 31  1  0  0  0  0
  4 24  1  0  0  0  0
  4  5  1  0  0  0  0
  4  6  1  0  0  0  0
  5 32  1  0  0  0  0
  5 33  1  0  0  0  0
  6  7  2  0  0  0  0
  6  8  1  0  0  0  0
  8  9  1  0  0  0  0
  9 10  1  0  0  0  0
  9 34  1  0  0  0  0
  9 35  1  0  0  0  0
 10 11  1  0  0  0  0
 10 36  1  0  0  0  0
 10 37  1  0  0  0  0
 11 12  1  0  0  0  0
 12 13  1  0  0  0  0
 12 38  1  0  0  0  0
 12 39  1  0  0  0  0
 13 23  1  0  0  0  0
 13 14  1  0  0  0  0
 14 15  2  0  0  0  0
 14 40  1  0  0  0  0
 15 16  1  0  0  0  0
 16 23  2  0  0  0  0
 16 17  1  0  0  0  0
 17 18  2  0  0  0  0
 17 19  1  0  0  0  0
 19 20  1  0  0  0  0
 20 21  1  0  0  0  0
 20 22  2  0  0  0  0
 21 41  1  0  0  0  0
 21 42  1  0  0  0  0
 22 23  1  0  0  0  0
M  CHG  1  19  -1
M  END
> <s_m_source_file>
AV-unprocessed.smi

> <i_m_source_file_index>
50

> <i_lp_mmshare_version>
43012

> <i_f3d_flags>
0

> <s_epik_input>
W0NIM11bQ0hdKFtDSDNdKVtDQEhdKFtOSDJdKUMoPU8pT1tDSDJdW0NIMl1PW0NIMl1uKFtjSF1uMSljKGMxMiluYyhbTkgyXSlbbkhdYzI9Tw==

> <s_epik_cmdline>
J2VwaWtfcHl0aG9uJywgJy1waCcsICc3LjAnLCAnLXRuJywgJzgnLCAnLW1hJywgJzIwMCcsICctbWV0YWxfYmluZGluZycsICctaW1hZScsICc8aW5maWxlLm1hZT4nLCAnLW9tYWUnLCAnPG91dGZpbGUubWFlPic=

> <r_lp_tautomer_probability>
0.99994

> <r_epik_Ionization_Penalty>
4.26118

> <r_epik_Ionization_Penalty_Charging>
1.23364e-10

> <r_epik_Ionization_Penalty_Neutral>
4.26118

> <r_epik_State_Penalty>
4.27372

> <r_epik_Charging_Adjusted_Penalty>
4.27372

> <i_epik_Tot_Q>
-1

> <i_epik_Tot_abs_Q>
1

> <r_epik_Metal_State_Penalty>
1.24306

> <b_epik_Metal_Only>
1

> <s_epik_Chemistry_Notes>
This compound has an ester and may undergo hydrolysis at high or low pH. This compound contains an acetal/aminal-like group ( X-CH(R)-Y where X, Y are N, S, or O) that may be acid/base labile, releasing an aldehyde.

> <s_lp_Force_Field>
OPLS_2005

> <r_lp_Energy>
20.1027

> <b_lp_Chiralities_Consistent>
1

> <s_lp_Variant>
AV-unprocessed.smi:50-8

> <Gold.Version>
5.8.1

> <Gold.Id.Protein>
6NUR|6NUR_protein|mol2

> <Gold.PLP.Fitness>
44.9830

> <Gold.PLP.PLP>
-35.2410

> <Gold.PLP.part.hbond>
-5.9374

> <Gold.PLP.part.metal>
0.0000

> <Gold.PLP.part.buried>
-5.7046

> <Gold.PLP.part.nonpolar>
-25.6708

> <Gold.PLP.part.repulsive>
0.8305

> <Gold.PLP.ligand.clash>
0.0000

> <Gold.PLP.ligand.torsion>
1.2318

> <Gold.PLP.Chemscore.Hbond>
3.9750

> <Gold.PLP.Chemscore.CHOScore>
0.0000

> <Gold.PLP.Chemscore.Metal>
0.0000

> <Gold.Chemscore.Hbonds>
donor molecule, donor type, donor heavy atom, donor atom, acceptor molecule, acceptor atom, score
      L1  H     5    32       P1 10186  1.00
      P1  H  7989  7998       L1    19  1.00
      P1  H  7997  8010       L1    18  1.00
      P1  H 10752 10764       L1    15  1.00

> <Gold.PLP.Chemscore.Internal.Correction>
0.2806

> <Gold.Rescore>
     Score         DG    S(hbond)    S(metal)    S(lipo)     H(rot)  DE(clash)    DE(int)     intcor
      7.75     -10.59       3.35        0.00      51.28       4.72       0.16       2.68       ----

> <Gold.Chemscore.Fitness>
7.7455

> <Gold.Chemscore.DG>
-10.5875

> <Gold.Chemscore.ZeroCoef>
-5.4800

> <Gold.Chemscore.Hbond>
3.3536

> <Gold.Chemscore.Metal>
0.0000

> <Gold.Chemscore.Lipo>
51.2786

> <Gold.Chemscore.Internal_Hbond>
0.0000

> <Gold.Chemscore.DEClash>
0.1601

> <Gold.Chemscore.DEInternal>
2.6819

> <Gold.Chemscore.Rot>
4.7239

> <Gold.Chemscore.Internal.Correction>
   9.000000E+99

> <Gold.Chemscore.Hbonds>
donor molecule, donor type, donor heavy atom, donor atom, acceptor molecule, acceptor atom, score
      L1  H     5    32       P1 10186  0.85
      P1  H  7989  7998       L1    19  0.26
      P1  H  7997  8010       L1    18  0.96
      P1  H 10752 10764       L1    15  0.52

> <Gold.Chemscore.Hbond.Weighted>
-11.2012

> <Gold.Chemscore.Metal.Weighted>
-0.0000

> <Gold.Chemscore.Lipo.Weighted>
-5.9996

> <Gold.Chemscore.Internal_Hbond.Weighted>
0.0000

> <Gold.Chemscore.DEClash.Weighted>
0.1601

> <Gold.Chemscore.DEInternal.Weighted>
2.6819

> <Gold.Chemscore.Rot.Weighted>
12.0933

> <Gold.Chemscore.Internal.Correction.Weighted>
   9.000000E+99

> <Gold.Protein.RotatedTorsions>
[ 6907 6896 6895 6894 ] final  101.15 input  -60.11 | X-H torsion
[ 7974 7965 7964 7962 ] final   38.37 input  175.53 | X-H torsion
[ 8008 7997 7996 7995 ] final   95.68 input   59.86 | X-H torsion
[ 10167 10162 10161 10158 ] final  -10.91 input  -65.29 | X-H torsion
[ 10718 10713 10712 10709 ] final -106.05 input   66.30 | X-H torsion
[ 10763 10752 10751 10750 ] final  -24.79 input  -60.55 | X-H torsion
[ 11005 11000 10999 10996 ] final  -51.57 input  -57.11 | X-H torsion

> <Gold.Protein.ActiveResidues>
 VAL166  LYS551  ARG553  GLY616  TRP617  ASP618  TYR619  PRO620  LYS621  CYS622 
 ASP623  PHE694  ASN695  SER759  ASP760  ASP761  ALA762  ILE779  LEU786  VAL792 
 PHE793  MET794  SER795  GLU796  ALA797  LYS798  CYS799  TRP800  GLU811  SER814 

> <Gold.Protein.RotatedAtoms>
  152.5356  134.0170  159.7964 H   0  0  0  0  0  0  0  0  0  0  0  0  # atno 6907 bound_to 6896
  151.0363  133.5738  159.2663 H   0  0  0  0  0  0  0  0  0  0  0  0  # atno 6908 bound_to 6896
  151.2724  135.0696  159.9192 H   0  0  0  0  0  0  0  0  0  0  0  0  # atno 6909 bound_to 6896
  146.1067  139.5780  142.9379 H   0  0  0  0  0  0  0  0  0  0  0  0  # atno 7974 bound_to 7965
  156.0715  140.3283  155.7582 H   0  0  0  0  0  0  0  0  0  0  0  0  # atno 8008 bound_to 7997
  155.5297  140.0592  157.2908 H   0  0  0  0  0  0  0  0  0  0  0  0  # atno 8009 bound_to 7997
  154.4533  140.1929  156.0472 H   0  0  0  0  0  0  0  0  0  0  0  0  # atno 8010 bound_to 7997
  140.7125  143.5697  150.9106 H   0  0  0  0  0  0  0  0  0  0  0  0  # atno 10167 bound_to 10162
  156.0373  130.5594  150.7626 H   0  0  0  0  0  0  0  0  0  0  0  0  # atno 10718 bound_to 10713
  153.6894  135.6962  153.5094 H   0  0  0  0  0  0  0  0  0  0  0  0  # atno 10763 bound_to 10752
  153.2425  135.4301  155.0712 H   0  0  0  0  0  0  0  0  0  0  0  0  # atno 10764 bound_to 10752
  154.8377  135.3511  154.6436 H   0  0  0  0  0  0  0  0  0  0  0  0  # atno 10765 bound_to 10752
  141.0878  133.6639  156.3896 H   0  0  0  0  0  0  0  0  0  0  0  0  # atno 11005 bound_to 11000
  145.5747  141.0390  143.2155 LP  0  0  0  0  0  0  0  0  0  0  0  0  # atno 17320 bound_to 7965
  144.7477  139.7277  143.7286 LP  0  0  0  0  0  0  0  0  0  0  0  0  # atno 17321 bound_to 7965
  139.9422  143.6368  152.3050 LP  0  0  0  0  0  0  0  0  0  0  0  0  # atno 17342 bound_to 10162
  139.6857  144.7652  151.1528 LP  0  0  0  0  0  0  0  0  0  0  0  0  # atno 17343 bound_to 10162
  157.5141  131.0927  151.0161 LP  0  0  0  0  0  0  0  0  0  0  0  0  # atno 17370 bound_to 10713
  157.0509  130.5786  149.5370 LP  0  0  0  0  0  0  0  0  0  0  0  0  # atno 17371 bound_to 10713
  140.5323  134.6201  157.5354 LP  0  0  0  0  0  0  0  0  0  0  0  0  # atno 17394 bound_to 11000
  139.9699  134.7311  156.0063 LP  0  0  0  0  0  0  0  0  0  0  0  0  # atno 17395 bound_to 11000

$$$$
