AV-unprocessed.smi:2026|AV-procd|sdf|8206|dock4
  -GOLD-   2272010463D 1   1.00000     0.00000
 Structure written by MMmdl.
 45 47  0  0  0  0  0  0  0  0  2 V2000
  152.2289  144.0566  161.6777 C   0  0  0  0  0  0  0  0  0  0  0  0
  152.7948  142.7424  161.1689 C   0  0  0  0  0  0  0  0  0  0  0  0
  153.6072  141.9654  162.0254 C   0  0  0  0  0  0  0  0  0  0  0  0
  154.1529  140.7379  161.5898 C   0  0  0  0  0  0  0  0  0  0  0  0
  154.9624  139.8294  162.2507 N   0  0  0  0  0  0  0  0  0  0  0  0
  155.1302  138.8943  161.3198 C   0  0  0  0  0  0  0  0  0  0  0  0
  154.5274  139.0915  160.1317 N   0  0  0  0  0  0  0  0  0  0  0  0
  154.5721  138.2153  158.9744 C   0  0  0  0  0  0  0  0  0  0  0  0
  154.0344  136.8032  159.2778 C   0  0  1  0  0  0  0  0  0  0  0  0
  152.8807  136.9230  160.0882 O   0  0  0  0  0  0  0  0  0  0  0  0
  153.6577  136.0546  157.9829 C   0  0  0  0  0  0  0  0  0  0  0  0
  152.6936  136.8060  157.1717 N   0  0  0  0  0  0  0  0  0  0  0  0
  151.3756  136.5427  157.0912 C   0  0  0  0  0  0  0  0  0  0  0  0
  150.8487  135.6226  157.7157 O   0  0  0  0  0  0  0  0  0  0  0  0
  150.7570  137.4108  156.2560 N   0  5  0  0  0  0  0  0  0  0  0  0
  151.7420  138.3314  155.7242 C   0  0  0  0  0  0  0  0  0  0  0  0
  151.8253  138.1921  154.1925 C   0  0  0  0  0  0  0  0  0  0  0  0
  151.4026  139.7740  156.1447 C   0  0  0  0  0  0  0  0  0  0  0  0
  153.0146  137.8454  156.3942 C   0  0  0  0  0  0  0  0  0  0  0  0
  154.1294  138.3422  156.2256 O   0  0  0  0  0  0  0  0  0  0  0  0
  153.8628  140.3062  160.2626 C   0  0  0  0  0  0  0  0  0  0  0  0
  153.0550  141.0701  159.4014 C   0  0  0  0  0  0  0  0  0  0  0  0
  152.5173  142.2934  159.8527 C   0  0  0  0  0  0  0  0  0  0  0  0
  151.6442  143.1088  158.9155 C   0  0  0  0  0  0  0  0  0  0  0  0
  152.5068  144.2351  162.7168 H   0  0  0  0  0  0  0  0  0  0  0  0
  151.1403  144.0534  161.6189 H   0  0  0  0  0  0  0  0  0  0  0  0
  152.6059  144.8885  161.0824 H   0  0  0  0  0  0  0  0  0  0  0  0
  153.8182  142.3065  163.0282 H   0  0  0  0  0  0  0  0  0  0  0  0
  155.7259  138.0135  161.5110 H   0  0  0  0  0  0  0  0  0  0  0  0
  154.0054  138.6746  158.1635 H   0  0  0  0  0  0  0  0  0  0  0  0
  155.6070  138.1573  158.6350 H   0  0  0  0  0  0  0  0  0  0  0  0
  154.7938  136.2482  159.8303 H   0  0  0  0  0  0  0  0  0  0  0  0
  153.1502  137.1491  160.9649 H   0  0  0  0  0  0  0  0  0  0  0  0
  154.5493  135.7983  157.4080 H   0  0  0  0  0  0  0  0  0  0  0  0
  153.2013  135.0966  158.2381 H   0  0  0  0  0  0  0  0  0  0  0  0
  152.5741  138.8662  153.7746 H   0  0  0  0  0  0  0  0  0  0  0  0
  150.8709  138.4329  153.7229 H   0  0  0  0  0  0  0  0  0  0  0  0
  152.0918  137.1775  153.8920 H   0  0  0  0  0  0  0  0  0  0  0  0
  152.1357  140.4814  155.7553 H   0  0  0  0  0  0  0  0  0  0  0  0
  151.3822  139.8857  157.2301 H   0  0  0  0  0  0  0  0  0  0  0  0
  150.4252  140.0752  155.7662 H   0  0  0  0  0  0  0  0  0  0  0  0
  152.8491  140.7153  158.4024 H   0  0  0  0  0  0  0  0  0  0  0  0
  151.5684  142.6399  157.9341 H   0  0  0  0  0  0  0  0  0  0  0  0
  152.0578  144.1079  158.7768 H   0  0  0  0  0  0  0  0  0  0  0  0
  150.6363  143.2033  159.3201 H   0  0  0  0  0  0  0  0  0  0  0  0
  1  2  1  0  0  0  0
  1 25  1  0  0  0  0
  1 26  1  0  0  0  0
  1 27  1  0  0  0  0
  2 23  1  0  0  0  0
  2  3  2  0  0  0  0
  3  4  1  0  0  0  0
  3 28  1  0  0  0  0
  4 21  2  0  0  0  0
  4  5  1  0  0  0  0
  5  6  2  0  0  0  0
  6  7  1  0  0  0  0
  6 29  1  0  0  0  0
  7  8  1  0  0  0  0
  7 21  1  0  0  0  0
  8  9  1  0  0  0  0
  8 30  1  0  0  0  0
  8 31  1  0  0  0  0
  9 10  1  0  0  0  0
  9 11  1  0  0  0  0
  9 32  1  0  0  0  0
 10 33  1  0  0  0  0
 11 12  1  0  0  0  0
 11 34  1  0  0  0  0
 11 35  1  0  0  0  0
 12 19  1  0  0  0  0
 12 13  1  0  0  0  0
 13 14  2  0  0  0  0
 13 15  1  0  0  0  0
 15 16  1  0  0  0  0
 16 17  1  0  0  0  0
 16 18  1  0  0  0  0
 16 19  1  0  0  0  0
 17 36  1  0  0  0  0
 17 37  1  0  0  0  0
 17 38  1  0  0  0  0
 18 39  1  0  0  0  0
 18 40  1  0  0  0  0
 18 41  1  0  0  0  0
 19 20  2  0  0  0  0
 21 22  1  0  0  0  0
 22 23  2  0  0  0  0
 22 42  1  0  0  0  0
 23 24  1  0  0  0  0
 24 43  1  0  0  0  0
 24 44  1  0  0  0  0
 24 45  1  0  0  0  0
M  CHG  1  15  -1
M  END
> <s_m_source_file>
AV-unprocessed.smi

> <i_m_source_file_index>
2026

> <i_lp_mmshare_version>
43012

> <i_f3d_flags>
0

> <s_epik_input>
W0NIM11jKFtjSF0xKWMoW0NIM10pW2NIXWMoYzEyKW4oW2NIXW4yKVtDSDJdW0NASF0oW09IXSlbQ0gyXU4oQzM9TylDKD1PKVtOSF1DMyhbQ0gzXSlbQ0gzXQ==

> <s_epik_cmdline>
J2VwaWtfcHl0aG9uJywgJy1waCcsICc3LjAnLCAnLXRuJywgJzgnLCAnLW1hJywgJzIwMCcsICctbWV0YWxfYmluZGluZycsICctaW1hZScsICc8aW5maWxlLm1hZT4nLCAnLW9tYWUnLCAnPG91dGZpbGUubWFlPic=

> <r_lp_tautomer_probability>
1

> <r_epik_Ionization_Penalty>
5.78785

> <r_epik_Ionization_Penalty_Charging>
5.68049

> <r_epik_Ionization_Penalty_Neutral>
0.107354

> <r_epik_State_Penalty>
5.7743

> <r_epik_Charging_Adjusted_Penalty>
11.4548

> <i_epik_Tot_Q>
-1

> <i_epik_Tot_abs_Q>
1

> <r_epik_Metal_State_Penalty>
1.83778

> <b_epik_Metal_Only>
1

> <s_lp_Force_Field>
OPLS_2005

> <r_lp_Energy>
18.252

> <b_lp_Chiralities_Consistent>
1

> <s_lp_Variant>
AV-unprocessed.smi:2026-6

> <Gold.Version>
5.8.1

> <Gold.Id.Protein>
6NUR|6NUR_protein|mol2

> <Gold.PLP.Fitness>
46.4281

> <Gold.PLP.PLP>
-43.1349

> <Gold.PLP.part.hbond>
-2.6131

> <Gold.PLP.part.metal>
0.0000

> <Gold.PLP.part.buried>
-6.6362

> <Gold.PLP.part.nonpolar>
-34.6757

> <Gold.PLP.part.repulsive>
0.0057

> <Gold.PLP.ligand.clash>
0.0000

> <Gold.PLP.ligand.torsion>
0.4103

> <Gold.PLP.Chemscore.Hbond>
1.3705

> <Gold.PLP.Chemscore.CHOScore>
0.0000

> <Gold.PLP.Chemscore.Metal>
0.0000

> <Gold.Chemscore.Hbonds>
donor molecule, donor type, donor heavy atom, donor atom, acceptor molecule, acceptor atom, score
      P1  H  6896  6908       L1    14  0.20
      P1  H  6896  6909       L1    10  0.94
      P1  H  7997  8010       L1    20  0.22

> <Gold.PLP.Chemscore.Internal.Correction>
0.0025

> <Gold.Rescore>
     Score         DG    S(hbond)    S(metal)    S(lipo)     H(rot)  DE(clash)    DE(int)     intcor
     14.67     -16.26       1.20        0.00     110.02       2.38       0.00       1.59       ----

> <Gold.Chemscore.Fitness>
14.6706

> <Gold.Chemscore.DG>
-16.2602

> <Gold.Chemscore.ZeroCoef>
-5.4800

> <Gold.Chemscore.Hbond>
1.1965

> <Gold.Chemscore.Metal>
0.0000

> <Gold.Chemscore.Lipo>
110.0182

> <Gold.Chemscore.Internal_Hbond>
0.0000

> <Gold.Chemscore.DEClash>
0.0000

> <Gold.Chemscore.DEInternal>
1.5896

> <Gold.Chemscore.Rot>
2.3783

> <Gold.Chemscore.Internal.Correction>
   9.000000E+99

> <Gold.Chemscore.Hbonds>
donor molecule, donor type, donor heavy atom, donor atom, acceptor molecule, acceptor atom, score
      P1  H  6896  6908       L1    14  0.20
      P1  H  6896  6909       L1    10  0.33
      P1  H  7997  8010       L1    20  0.22

> <Gold.Chemscore.Hbond.Weighted>
-3.9964

> <Gold.Chemscore.Metal.Weighted>
-0.0000

> <Gold.Chemscore.Lipo.Weighted>
-12.8721

> <Gold.Chemscore.Internal_Hbond.Weighted>
0.0000

> <Gold.Chemscore.DEClash.Weighted>
0.0000

> <Gold.Chemscore.DEInternal.Weighted>
1.5896

> <Gold.Chemscore.Rot.Weighted>
6.0884

> <Gold.Chemscore.Internal.Correction.Weighted>
   9.000000E+99

> <Gold.Protein.RotatedTorsions>
[ 6907 6896 6895 6894 ] final  147.65 input  -60.11 | X-H torsion
[ 7974 7965 7964 7962 ] final   64.78 input  175.53 | X-H torsion
[ 8008 7997 7996 7995 ] final   33.83 input   59.86 | X-H torsion
[ 10167 10162 10161 10158 ] final  144.00 input  -65.29 | X-H torsion
[ 10718 10713 10712 10709 ] final   66.59 input   66.30 | X-H torsion
[ 10763 10752 10751 10750 ] final  171.48 input  -60.55 | X-H torsion
[ 11005 11000 10999 10996 ] final  145.33 input  -57.11 | X-H torsion

> <Gold.Protein.ActiveResidues>
 VAL166  LYS551  ARG553  GLY616  TRP617  ASP618  TYR619  PRO620  LYS621  CYS622 
 ASP623  PHE694  ASN695  SER759  ASP760  ASP761  ALA762  ILE779  LEU786  VAL792 
 PHE793  MET794  SER795  GLU796  ALA797  LYS798  CYS799  TRP800  GLU811  SER814 

> <Gold.Protein.RotatedAtoms>
  152.1520  133.4528  159.4817 H   0  0  0  0  0  0  0  0  0  0  0  0  # atno 6907 bound_to 6896
  150.6896  134.2177  159.4393 H   0  0  0  0  0  0  0  0  0  0  0  0  # atno 6908 bound_to 6896
  152.0074  134.9894  160.0617 H   0  0  0  0  0  0  0  0  0  0  0  0  # atno 6909 bound_to 6896
  145.8462  139.3226  143.0902 H   0  0  0  0  0  0  0  0  0  0  0  0  # atno 7974 bound_to 7965
  155.1450  140.3269  155.4444 H   0  0  0  0  0  0  0  0  0  0  0  0  # atno 8008 bound_to 7997
  156.2593  140.1987  156.6514 H   0  0  0  0  0  0  0  0  0  0  0  0  # atno 8009 bound_to 7997
  154.6515  140.0558  156.9947 H   0  0  0  0  0  0  0  0  0  0  0  0  # atno 8010 bound_to 7997
  139.4956  144.6002  151.6498 H   0  0  0  0  0  0  0  0  0  0  0  0  # atno 10167 bound_to 10162
  157.6178  130.9276  150.0129 H   0  0  0  0  0  0  0  0  0  0  0  0  # atno 10718 bound_to 10713
  154.4124  135.2756  155.2028 H   0  0  0  0  0  0  0  0  0  0  0  0  # atno 10763 bound_to 10752
  154.4008  135.6045  153.5899 H   0  0  0  0  0  0  0  0  0  0  0  0  # atno 10764 bound_to 10752
  152.9831  135.5926  154.4408 H   0  0  0  0  0  0  0  0  0  0  0  0  # atno 10765 bound_to 10752
  140.0703  134.9155  157.1334 H   0  0  0  0  0  0  0  0  0  0  0  0  # atno 11005 bound_to 11000
  145.9409  140.8980  143.0308 LP  0  0  0  0  0  0  0  0  0  0  0  0  # atno 17320 bound_to 7965
  144.6731  140.1547  143.7427 LP  0  0  0  0  0  0  0  0  0  0  0  0  # atno 17321 bound_to 7965
  140.5649  144.0206  150.6188 LP  0  0  0  0  0  0  0  0  0  0  0  0  # atno 17342 bound_to 10162
  140.3304  143.3081  152.0693 LP  0  0  0  0  0  0  0  0  0  0  0  0  # atno 17343 bound_to 10162
  156.1309  130.3643  149.9733 LP  0  0  0  0  0  0  0  0  0  0  0  0  # atno 17370 bound_to 10713
  156.7794  130.9216  151.3646 LP  0  0  0  0  0  0  0  0  0  0  0  0  # atno 17371 bound_to 10713
  140.3637  134.2466  155.7184 LP  0  0  0  0  0  0  0  0  0  0  0  0  # atno 17394 bound_to 11000
  141.2009  133.7975  157.0466 LP  0  0  0  0  0  0  0  0  0  0  0  0  # atno 17395 bound_to 11000

$$$$
