AV-unprocessed.smi:1442|AV-procd|sdf|5876|dock6
  -GOLD-   22720 5553D 1   1.00000     0.00000
 Structure written by MMmdl.
 44 45  0  0  0  0  0  0  0  0  1 V2000
  151.2394  143.1277  157.6001 C   0  0  0  0  0  0  0  0  0  0  0  0
  150.5049  142.6482  156.4392 N   0  0  0  0  0  0  0  0  0  0  0  0
  150.4352  141.3617  156.0679 C   0  0  0  0  0  0  0  0  0  0  0  0
  150.9924  140.4526  156.6839 O   0  0  0  0  0  0  0  0  0  0  0  0
  149.6102  141.0546  154.8108 C   0  0  0  0  0  0  0  0  0  0  0  0
  148.1267  141.4480  155.0083 C   0  0  0  0  0  0  0  0  0  0  0  0
  147.2743  141.0153  153.8017 C   0  0  0  0  0  0  0  0  0  0  0  0
  147.4268  139.5622  153.6147 N   0  0  0  0  0  0  0  0  0  0  0  0
  146.5185  138.6103  153.9483 C   0  0  0  0  0  0  0  0  0  0  0  0
  145.5575  138.8245  154.6886 O   0  0  0  0  0  0  0  0  0  0  0  0
  146.7552  137.3973  153.4204 N   0  0  0  0  0  0  0  0  0  0  0  0
  145.9181  136.2186  153.6071 C   0  0  0  0  0  0  0  0  0  0  0  0
  144.6610  136.2750  152.7239 C   0  0  0  0  0  0  0  0  0  0  0  0
  144.3771  134.9463  152.0820 C   0  0  0  0  0  0  0  0  0  0  0  0
  143.9268  133.7506  152.7112 C   0  0  0  0  0  0  0  0  0  0  0  0
  143.7746  132.7477  151.8616 N   0  0  0  0  0  0  0  0  0  0  0  0
  144.1170  133.2670  150.6647 N   0  0  0  0  0  0  0  0  0  0  0  0
  144.0667  132.4319  149.4837 C   0  0  0  0  0  0  0  0  0  0  0  0
  144.4851  134.5912  150.7670 C   0  0  0  0  0  0  0  0  0  0  0  0
  148.8040  139.2215  153.2375 C   0  0  0  0  0  0  0  0  0  0  0  0
  149.7382  139.5650  154.4124 C   0  0  0  0  0  0  0  0  0  0  0  0
  151.1621  144.2130  157.6667 H   0  0  0  0  0  0  0  0  0  0  0  0
  152.2955  142.8650  157.5283 H   0  0  0  0  0  0  0  0  0  0  0  0
  150.8351  142.7001  158.5186 H   0  0  0  0  0  0  0  0  0  0  0  0
  150.0199  143.3366  155.8818 H   0  0  0  0  0  0  0  0  0  0  0  0
  150.0028  141.6517  153.9856 H   0  0  0  0  0  0  0  0  0  0  0  0
  147.7254  140.9852  155.9115 H   0  0  0  0  0  0  0  0  0  0  0  0
  148.0418  142.5262  155.1498 H   0  0  0  0  0  0  0  0  0  0  0  0
  146.2430  141.3386  153.9420 H   0  0  0  0  0  0  0  0  0  0  0  0
  147.6158  141.5302  152.9025 H   0  0  0  0  0  0  0  0  0  0  0  0
  147.5687  137.2897  152.8323 H   0  0  0  0  0  0  0  0  0  0  0  0
  146.5121  135.3404  153.3519 H   0  0  0  0  0  0  0  0  0  0  0  0
  145.6465  136.1155  154.6594 H   0  0  0  0  0  0  0  0  0  0  0  0
  143.8069  136.5919  153.3233 H   0  0  0  0  0  0  0  0  0  0  0  0
  144.7908  137.0467  151.9639 H   0  0  0  0  0  0  0  0  0  0  0  0
  143.7104  133.5833  153.7562 H   0  0  0  0  0  0  0  0  0  0  0  0
  144.2072  133.0402  148.5899 H   0  0  0  0  0  0  0  0  0  0  0  0
  143.0993  131.9321  149.4227 H   0  0  0  0  0  0  0  0  0  0  0  0
  144.8559  131.6812  149.5307 H   0  0  0  0  0  0  0  0  0  0  0  0
  144.7908  135.1663  149.9052 H   0  0  0  0  0  0  0  0  0  0  0  0
  148.9185  138.1716  152.9643 H   0  0  0  0  0  0  0  0  0  0  0  0
  149.0897  139.7890  152.3506 H   0  0  0  0  0  0  0  0  0  0  0  0
  150.7695  139.3380  154.1391 H   0  0  0  0  0  0  0  0  0  0  0  0
  149.4954  138.9220  155.2603 H   0  0  0  0  0  0  0  0  0  0  0  0
  1  2  1  0  0  0  0
  1 22  1  0  0  0  0
  1 23  1  0  0  0  0
  1 24  1  0  0  0  0
  2  3  1  0  0  0  0
  2 25  1  0  0  0  0
  3  4  2  0  0  0  0
  3  5  1  0  0  0  0
  5 21  1  0  0  0  0
  5  6  1  0  0  0  0
  5 26  1  0  0  0  0
  6  7  1  0  0  0  0
  6 27  1  0  0  0  0
  6 28  1  0  0  0  0
  7  8  1  0  0  0  0
  7 29  1  0  0  0  0
  7 30  1  0  0  0  0
  8  9  1  0  0  0  0
  8 20  1  0  0  0  0
  9 10  2  0  0  0  0
  9 11  1  0  0  0  0
 11 12  1  0  0  0  0
 11 31  1  0  0  0  0
 12 13  1  0  0  0  0
 12 32  1  0  0  0  0
 12 33  1  0  0  0  0
 13 14  1  0  0  0  0
 13 34  1  0  0  0  0
 13 35  1  0  0  0  0
 14 19  2  0  0  0  0
 14 15  1  0  0  0  0
 15 16  2  0  0  0  0
 15 36  1  0  0  0  0
 16 17  1  0  0  0  0
 17 18  1  0  0  0  0
 17 19  1  0  0  0  0
 18 37  1  0  0  0  0
 18 38  1  0  0  0  0
 18 39  1  0  0  0  0
 19 40  1  0  0  0  0
 20 21  1  0  0  0  0
 20 41  1  0  0  0  0
 20 42  1  0  0  0  0
 21 43  1  0  0  0  0
 21 44  1  0  0  0  0
M  END
> <s_m_source_file>
AV-unprocessed.smi

> <i_m_source_file_index>
1442

> <i_lp_mmshare_version>
43012

> <i_f3d_flags>
0

> <s_epik_input>
W0NIM11bTkhdQyg9TylbQ0hdMVtDSDJdW0NIMl1OKFtDSDJdW0NIMl0xKUMoPU8pW05IXVtDSDJdW0NIMl1jMltjSF1ubihbQ0gzXSlbY0hdMg==

> <s_epik_cmdline>
J2VwaWtfcHl0aG9uJywgJy1waCcsICc3LjAnLCAnLXRuJywgJzgnLCAnLW1hJywgJzIwMCcsICctbWV0YWxfYmluZGluZycsICctaW1hZScsICc8aW5maWxlLm1hZT4nLCAnLW9tYWUnLCAnPG91dGZpbGUubWFlPic=

> <r_lp_tautomer_probability>
1

> <r_epik_Ionization_Penalty>
0.000562975

> <r_epik_Ionization_Penalty_Charging>
0

> <r_epik_Ionization_Penalty_Neutral>
0.000562975

> <r_epik_State_Penalty>
-0

> <r_epik_Charging_Adjusted_Penalty>
0

> <i_epik_Tot_Q>
0

> <i_epik_Tot_abs_Q>
0

> <r_epik_Metal_State_Penalty>
-0

> <b_epik_Metal_Only>
0

> <s_lp_Force_Field>
OPLS_2005

> <r_lp_Energy>
25.7174

> <b_lp_Chiralities_Consistent>
1

> <s_lp_Variant>
AV-unprocessed.smi:1442-1

> <Gold.Version>
5.8.1

> <Gold.Id.Protein>
6NUR|6NUR_protein|mol2

> <Gold.PLP.Fitness>
44.3632

> <Gold.PLP.PLP>
-34.0221

> <Gold.PLP.part.hbond>
-2.0000

> <Gold.PLP.part.metal>
0.0000

> <Gold.PLP.part.buried>
-0.6885

> <Gold.PLP.part.nonpolar>
-33.5466

> <Gold.PLP.part.repulsive>
0.3701

> <Gold.PLP.ligand.clash>
0.0261

> <Gold.PLP.ligand.torsion>
0.7448

> <Gold.PLP.Chemscore.Hbond>
1.9920

> <Gold.PLP.Chemscore.CHOScore>
1.9363

> <Gold.PLP.Chemscore.Metal>
0.0000

> <Gold.Chemscore.Hbonds>
donor molecule, donor type, donor heavy atom, donor atom, acceptor molecule, acceptor atom, score
      L1  H     2    25       P1  8028  1.00
      L1  H    11    31       P1  7948  1.00
      L1  C    15    36       P1 10957  0.98
      L1  C    19    40       P1  7921  0.68

> <Gold.PLP.Chemscore.Internal.Correction>
0.0718

> <Gold.Rescore>
     Score         DG    S(hbond)    S(metal)    S(lipo)     H(rot)  DE(clash)    DE(int)     intcor
     13.88     -16.55       1.89        0.00      79.43       1.77       2.04       0.63       ----

> <Gold.Chemscore.Fitness>
13.8831

> <Gold.Chemscore.DG>
-16.5540

> <Gold.Chemscore.ZeroCoef>
-5.4800

> <Gold.Chemscore.Hbond>
1.8866

> <Gold.Chemscore.Metal>
0.0000

> <Gold.Chemscore.Lipo>
79.4338

> <Gold.Chemscore.Internal_Hbond>
0.0000

> <Gold.Chemscore.DEClash>
2.0427

> <Gold.Chemscore.DEInternal>
0.6282

> <Gold.Chemscore.Rot>
1.7661

> <Gold.Chemscore.Internal.Correction>
   9.000000E+99

> <Gold.Chemscore.Hbonds>
donor molecule, donor type, donor heavy atom, donor atom, acceptor molecule, acceptor atom, score
      L1  H     2    25       P1  8028  0.98
      L1  H    11    31       P1  7948  0.95

> <Gold.Chemscore.Hbond.Weighted>
-6.3013

> <Gold.Chemscore.Metal.Weighted>
-0.0000

> <Gold.Chemscore.Lipo.Weighted>
-9.2938

> <Gold.Chemscore.Internal_Hbond.Weighted>
0.0000

> <Gold.Chemscore.DEClash.Weighted>
2.0427

> <Gold.Chemscore.DEInternal.Weighted>
0.6282

> <Gold.Chemscore.Rot.Weighted>
4.5211

> <Gold.Chemscore.Internal.Correction.Weighted>
   9.000000E+99

> <Gold.Protein.RotatedTorsions>
[ 6907 6896 6895 6894 ] final  141.98 input  -60.11 | X-H torsion
[ 7974 7965 7964 7962 ] final -173.20 input  175.53 | X-H torsion
[ 8008 7997 7996 7995 ] final -134.34 input   59.86 | X-H torsion
[ 10167 10162 10161 10158 ] final   -5.11 input  -65.29 | X-H torsion
[ 10718 10713 10712 10709 ] final   91.54 input   66.30 | X-H torsion
[ 10763 10752 10751 10750 ] final  -99.76 input  -60.55 | X-H torsion
[ 11005 11000 10999 10996 ] final   54.75 input  -57.11 | X-H torsion

> <Gold.Protein.ActiveResidues>
 VAL166  LYS551  ARG553  GLY616  TRP617  ASP618  TYR619  PRO620  LYS621  CYS622 
 ASP623  PHE694  ASN695  SER759  ASP760  ASP761  ALA762  ILE779  LEU786  VAL792 
 PHE793  MET794  SER795  GLU796  ALA797  LYS798  CYS799  TRP800  GLU811  SER814 

> <Gold.Protein.RotatedAtoms>
  152.2243  133.5008  159.5179 H   0  0  0  0  0  0  0  0  0  0  0  0  # atno 6907 bound_to 6896
  150.7020  134.1301  159.4075 H   0  0  0  0  0  0  0  0  0  0  0  0  # atno 6908 bound_to 6896
  151.9222  135.0293  160.0573 H   0  0  0  0  0  0  0  0  0  0  0  0  # atno 6909 bound_to 6896
  144.7140  140.1657  143.6372 H   0  0  0  0  0  0  0  0  0  0  0  0  # atno 7974 bound_to 7965
  155.3605  140.0482  157.3046 H   0  0  0  0  0  0  0  0  0  0  0  0  # atno 8008 bound_to 7997
  154.5180  140.2215  155.8992 H   0  0  0  0  0  0  0  0  0  0  0  0  # atno 8009 bound_to 7997
  156.1658  140.3106  155.8892 H   0  0  0  0  0  0  0  0  0  0  0  0  # atno 8010 bound_to 7997
  140.6951  143.6346  150.8491 H   0  0  0  0  0  0  0  0  0  0  0  0  # atno 10167 bound_to 10162
  157.6960  131.0411  150.3745 H   0  0  0  0  0  0  0  0  0  0  0  0  # atno 10718 bound_to 10713
  154.7524  135.4960  153.9314 H   0  0  0  0  0  0  0  0  0  0  0  0  # atno 10763 bound_to 10752
  153.1158  135.6720  153.9428 H   0  0  0  0  0  0  0  0  0  0  0  0  # atno 10764 bound_to 10752
  153.9174  135.3092  155.3427 H   0  0  0  0  0  0  0  0  0  0  0  0  # atno 10765 bound_to 10752
  140.0661  134.5534  155.9097 H   0  0  0  0  0  0  0  0  0  0  0  0  # atno 11005 bound_to 11000
  145.8989  139.2419  143.1505 LP  0  0  0  0  0  0  0  0  0  0  0  0  # atno 17320 bound_to 7965
  145.9830  140.8667  143.0105 LP  0  0  0  0  0  0  0  0  0  0  0  0  # atno 17321 bound_to 7965
  140.0063  143.5690  152.2856 LP  0  0  0  0  0  0  0  0  0  0  0  0  # atno 17342 bound_to 10162
  139.6398  144.7653  151.2363 LP  0  0  0  0  0  0  0  0  0  0  0  0  # atno 17343 bound_to 10162
  156.4166  130.3944  149.6854 LP  0  0  0  0  0  0  0  0  0  0  0  0  # atno 17370 bound_to 10713
  156.4120  130.7726  151.2740 LP  0  0  0  0  0  0  0  0  0  0  0  0  # atno 17371 bound_to 10713
  141.1993  133.6606  156.5838 LP  0  0  0  0  0  0  0  0  0  0  0  0  # atno 17394 bound_to 11000
  140.3696  134.7617  157.4590 LP  0  0  0  0  0  0  0  0  0  0  0  0  # atno 17395 bound_to 11000

$$$$
