AV-unprocessed.smi:3237|AV-procd|sdf|12367|dock2
  -GOLD-   2272018223D 1   1.00000     0.00000
 Structure written by MMmdl.
 36 38  0  0  0  0  0  0  0  0  3 V2000
  152.6687  140.9472  159.3347 C   0  0  0  0  0  0  0  0  0  0  0  0
  152.2115  140.6296  157.9519 C   0  0  0  0  0  0  0  0  0  0  0  0
  151.2760  141.1938  157.1321 C   0  0  0  0  0  0  0  0  0  0  0  0
  151.3565  140.4022  155.9541 C   0  0  0  0  0  0  0  0  0  0  0  0
  150.6148  140.5609  154.8469 N   0  5  0  0  0  0  0  0  0  0  0  0
  149.3459  141.0188  154.9396 C   0  0  0  0  0  0  0  0  0  0  0  0
  148.8380  141.5787  155.9138 O   0  0  0  0  0  0  0  0  0  0  0  0
  148.6163  140.8119  153.8345 N   0  0  0  0  0  0  0  0  0  0  0  0
  147.2202  141.1962  153.6601 C   0  0  2  0  0  0  0  0  0  0  0  0
  146.9473  142.6914  153.8433 C   0  0  0  0  0  0  0  0  0  0  0  0
  145.5024  142.7572  154.3641 C   0  0  0  0  0  0  0  0  0  0  0  0
  145.0911  141.3662  154.6664 N   0  3  2  0  0  0  0  0  0  0  0  0
  144.2290  141.2324  155.8593 C   0  0  0  0  0  0  0  0  0  0  0  0
  143.1857  140.1481  155.7327 C   0  0  0  0  0  0  0  0  0  0  0  0
  142.7873  141.6028  155.6058 C   0  0  0  0  0  0  0  0  0  0  0  0
  146.3243  140.5623  154.7187 C   0  0  0  0  0  0  0  0  0  0  0  0
  152.2503  139.4327  156.0561 N   0  0  0  0  0  0  0  0  0  0  0  0
  152.8091  139.5766  157.3317 O   0  0  0  0  0  0  0  0  0  0  0  0
  151.8165  141.1153  159.9933 H   0  0  0  0  0  0  0  0  0  0  0  0
  153.2827  141.8477  159.3397 H   0  0  0  0  0  0  0  0  0  0  0  0
  153.2601  140.1315  159.7506 H   0  0  0  0  0  0  0  0  0  0  0  0
  150.6381  142.0399  157.3392 H   0  0  0  0  0  0  0  0  0  0  0  0
  149.0704  140.3515  153.0591 H   0  0  0  0  0  0  0  0  0  0  0  0
  146.8737  140.8817  152.6735 H   0  0  0  0  0  0  0  0  0  0  0  0
  147.6233  143.1127  154.5893 H   0  0  0  0  0  0  0  0  0  0  0  0
  147.0848  143.2528  152.9186 H   0  0  0  0  0  0  0  0  0  0  0  0
  145.4523  143.3895  155.2519 H   0  0  0  0  0  0  0  0  0  0  0  0
  144.8265  143.1774  153.6188 H   0  0  0  0  0  0  0  0  0  0  0  0
  144.6922  141.4467  156.8210 H   0  0  0  0  0  0  0  0  0  0  0  0
  143.1783  139.5436  154.8274 H   0  0  0  0  0  0  0  0  0  0  0  0
  142.8895  139.6279  156.6414 H   0  0  0  0  0  0  0  0  0  0  0  0
  142.2295  142.0412  156.4309 H   0  0  0  0  0  0  0  0  0  0  0  0
  142.5146  141.9653  154.6161 H   0  0  0  0  0  0  0  0  0  0  0  0
  146.1254  139.5080  154.5234 H   0  0  0  0  0  0  0  0  0  0  0  0
  146.7795  140.6472  155.7076 H   0  0  0  0  0  0  0  0  0  0  0  0
  144.5702  141.0393  153.8652 H   0  0  0  0  0  0  0  0  0  0  0  0
  1  2  1  0  0  0  0
  1 19  1  0  0  0  0
  1 20  1  0  0  0  0
  1 21  1  0  0  0  0
  2 18  1  0  0  0  0
  2  3  2  0  0  0  0
  3  4  1  0  0  0  0
  3 22  1  0  0  0  0
  4  5  1  0  0  0  0
  4 17  2  0  0  0  0
  5  6  1  0  0  0  0
  6  7  2  0  0  0  0
  6  8  1  0  0  0  0
  8  9  1  0  0  0  0
  8 23  1  0  0  0  0
  9 16  1  0  0  0  0
  9 10  1  0  0  0  0
  9 24  1  0  0  0  0
 10 11  1  0  0  0  0
 10 25  1  0  0  0  0
 10 26  1  0  0  0  0
 11 12  1  0  0  0  0
 11 27  1  0  0  0  0
 11 28  1  0  0  0  0
 12 13  1  0  0  0  0
 12 16  1  0  0  0  0
 12 36  1  0  0  0  0
 13 15  1  0  0  0  0
 13 14  1  0  0  0  0
 13 29  1  0  0  0  0
 14 15  1  0  0  0  0
 14 30  1  0  0  0  0
 14 31  1  0  0  0  0
 15 32  1  0  0  0  0
 15 33  1  0  0  0  0
 16 34  1  0  0  0  0
 16 35  1  0  0  0  0
 17 18  1  0  0  0  0
M  CHG  1   5  -1
M  CHG  1  12   1
M  END
> <s_m_source_file>
AV-unprocessed.smi

> <i_m_source_file_index>
3237

> <i_lp_mmshare_version>
43012

> <i_f3d_flags>
0

> <s_epik_input>
W0NIM11jMVtjSF1jKG5vMSlbTkhdQyg9TylbTkhdW0NAQEhdMltDSDJdW0NIMl1OKFtDSDJdMilbQ0hdM1tDSDJdW0NIMl0z

> <s_epik_cmdline>
J2VwaWtfcHl0aG9uJywgJy1waCcsICc3LjAnLCAnLXRuJywgJzgnLCAnLW1hJywgJzIwMCcsICctbWV0YWxfYmluZGluZycsICctaW1hZScsICc8aW5maWxlLm1hZT4nLCAnLW9tYWUnLCAnPG91dGZpbGUubWFlPic=

> <r_epik_Ionization_Penalty>
6.08472

> <r_epik_Ionization_Penalty_Charging>
6.08464

> <r_epik_Ionization_Penalty_Neutral>
8.41751e-05

> <r_epik_State_Penalty>
6.08438

> <r_epik_Charging_Adjusted_Penalty>
12.169

> <i_epik_Tot_Q>
0

> <i_epik_Tot_abs_Q>
2

> <r_epik_Metal_State_Penalty>
2.0369

> <b_epik_Metal_Only>
1

> <s_lp_Force_Field>
OPLS_2005

> <r_lp_Energy>
23.7168

> <b_lp_Chiralities_Consistent>
1

> <s_lp_Variant>
AV-unprocessed.smi:3237-5

> <Gold.Version>
5.8.1

> <Gold.Id.Protein>
6NUR|6NUR_protein|mol2

> <Gold.PLP.Fitness>
42.8284

> <Gold.PLP.PLP>
-28.4122

> <Gold.PLP.part.hbond>
-4.4413

> <Gold.PLP.part.metal>
0.0000

> <Gold.PLP.part.buried>
-5.5094

> <Gold.PLP.part.nonpolar>
-19.4729

> <Gold.PLP.part.repulsive>
0.3648

> <Gold.PLP.ligand.clash>
0.0000

> <Gold.PLP.ligand.torsion>
0.9151

> <Gold.PLP.Chemscore.Hbond>
4.9920

> <Gold.PLP.Chemscore.CHOScore>
0.0000

> <Gold.PLP.Chemscore.Metal>
0.0000

> <Gold.Chemscore.Hbonds>
donor molecule, donor type, donor heavy atom, donor atom, acceptor molecule, acceptor atom, score
      L1  H     8    23       P1  7957  1.00
      L1  H    12    36       P1 10175  2.00
      P1  H  7989  7998       L1     5  0.99
      P1  H  7997  8010       L1    18  1.00

> <Gold.PLP.Chemscore.Internal.Correction>
1.2703

> <Gold.Rescore>
     Score         DG    S(hbond)    S(metal)    S(lipo)     H(rot)  DE(clash)    DE(int)     intcor
     13.29     -17.96       3.02        0.00      47.66       1.25       0.14       4.54       ----

> <Gold.Chemscore.Fitness>
13.2850

> <Gold.Chemscore.DG>
-17.9577

> <Gold.Chemscore.ZeroCoef>
-5.4800

> <Gold.Chemscore.Hbond>
3.0216

> <Gold.Chemscore.Metal>
0.0000

> <Gold.Chemscore.Lipo>
47.6627

> <Gold.Chemscore.Internal_Hbond>
0.0000

> <Gold.Chemscore.DEClash>
0.1374

> <Gold.Chemscore.DEInternal>
4.5353

> <Gold.Chemscore.Rot>
1.2464

> <Gold.Chemscore.Internal.Correction>
   9.000000E+99

> <Gold.Chemscore.Hbonds>
donor molecule, donor type, donor heavy atom, donor atom, acceptor molecule, acceptor atom, score
      L1  H     8    23       P1  7957  0.96
      L1  H    12    36       P1 10175  0.78
      P1  H  7989  7998       L1     5  0.70
      P1  H  7997  8010       L1    18  0.22

> <Gold.Chemscore.Hbond.Weighted>
-10.0920

> <Gold.Chemscore.Metal.Weighted>
-0.0000

> <Gold.Chemscore.Lipo.Weighted>
-5.5765

> <Gold.Chemscore.Internal_Hbond.Weighted>
0.0000

> <Gold.Chemscore.DEClash.Weighted>
0.1374

> <Gold.Chemscore.DEInternal.Weighted>
4.5353

> <Gold.Chemscore.Rot.Weighted>
3.1909

> <Gold.Chemscore.Internal.Correction.Weighted>
   9.000000E+99

> <Gold.Protein.RotatedTorsions>
[ 6907 6896 6895 6894 ] final -161.36 input  -60.11 | X-H torsion
[ 7974 7965 7964 7962 ] final  -77.77 input  175.53 | X-H torsion
[ 8008 7997 7996 7995 ] final   38.75 input   59.86 | X-H torsion
[ 10167 10162 10161 10158 ] final -150.10 input  -65.29 | X-H torsion
[ 10718 10713 10712 10709 ] final -138.65 input   66.30 | X-H torsion
[ 10763 10752 10751 10750 ] final -159.36 input  -60.55 | X-H torsion
[ 11005 11000 10999 10996 ] final  144.69 input  -57.11 | X-H torsion

> <Gold.Protein.ActiveResidues>
 VAL166  LYS551  ARG553  GLY616  TRP617  ASP618  TYR619  PRO620  LYS621  CYS622 
 ASP623  PHE694  ASN695  SER759  ASP760  ASP761  ALA762  ILE779  LEU786  VAL792 
 PHE793  MET794  SER795  GLU796  ALA797  LYS798  CYS799  TRP800  GLU811  SER814 

> <Gold.Protein.RotatedAtoms>
  151.3634  133.3881  159.2691 H   0  0  0  0  0  0  0  0  0  0  0  0  # atno 6907 bound_to 6896
  150.9708  134.9082  159.7797 H   0  0  0  0  0  0  0  0  0  0  0  0  # atno 6908 bound_to 6896
  152.5183  134.3595  159.9332 H   0  0  0  0  0  0  0  0  0  0  0  0  # atno 6909 bound_to 6896
  145.5953  140.9421  143.1270 H   0  0  0  0  0  0  0  0  0  0  0  0  # atno 7974 bound_to 7965
  155.2253  140.3334  155.4310 H   0  0  0  0  0  0  0  0  0  0  0  0  # atno 8008 bound_to 7997
  156.2317  140.1853  156.7273 H   0  0  0  0  0  0  0  0  0  0  0  0  # atno 8009 bound_to 7997
  154.5989  140.0626  156.9326 H   0  0  0  0  0  0  0  0  0  0  0  0  # atno 8010 bound_to 7997
  139.7384  143.8700  152.2555 H   0  0  0  0  0  0  0  0  0  0  0  0  # atno 10167 bound_to 10162
  156.3018  130.7433  151.1486 H   0  0  0  0  0  0  0  0  0  0  0  0  # atno 10718 bound_to 10713
  154.7481  135.3085  154.8607 H   0  0  0  0  0  0  0  0  0  0  0  0  # atno 10763 bound_to 10752
  153.9402  135.6775  153.4748 H   0  0  0  0  0  0  0  0  0  0  0  0  # atno 10764 bound_to 10752
  153.1077  135.4881  154.8908 H   0  0  0  0  0  0  0  0  0  0  0  0  # atno 10765 bound_to 10752
  140.0653  134.9182  157.1253 H   0  0  0  0  0  0  0  0  0  0  0  0  # atno 11005 bound_to 11000
  144.7333  139.7659  143.7339 LP  0  0  0  0  0  0  0  0  0  0  0  0  # atno 17320 bound_to 7965
  146.1617  139.4733  142.9984 LP  0  0  0  0  0  0  0  0  0  0  0  0  # atno 17321 bound_to 7965
  139.8644  144.7101  150.9062 LP  0  0  0  0  0  0  0  0  0  0  0  0  # atno 17342 bound_to 10162
  140.7782  143.3791  151.1510 LP  0  0  0  0  0  0  0  0  0  0  0  0  # atno 17343 bound_to 10162
  157.7370  131.0557  150.5382 LP  0  0  0  0  0  0  0  0  0  0  0  0  # atno 17370 bound_to 10713
  156.5511  130.4232  149.6107 LP  0  0  0  0  0  0  0  0  0  0  0  0  # atno 17371 bound_to 10713
  140.3709  134.2391  155.7178 LP  0  0  0  0  0  0  0  0  0  0  0  0  # atno 17394 bound_to 11000
  141.1990  133.8022  157.0557 LP  0  0  0  0  0  0  0  0  0  0  0  0  # atno 17395 bound_to 11000

$$$$
