AV-unprocessed.smi:1562|AV-procd|sdf|6287|dock2
  -GOLD-   22720 6483D 1   1.00000     0.00000
 Structure written by MMmdl.
 40 41  0  0  0  0  0  0  0  0  1 V2000
  145.6314  137.7971  152.6384 N   0  0  0  0  0  0  0  0  0  0  0  0
  146.7260  138.2005  153.2885 C   0  0  0  0  0  0  0  0  0  0  0  0
  147.5194  137.4041  153.7868 O   0  0  0  0  0  0  0  0  0  0  0  0
  146.9611  139.7135  153.3922 C   0  0  0  0  0  0  0  0  0  0  0  0
  148.2692  140.1249  152.6746 C   0  0  0  0  0  0  0  0  0  0  0  0
  148.5785  141.6166  152.8958 C   0  0  0  0  0  0  0  0  0  0  0  0
  148.6541  141.8730  154.3442 N   0  0  0  0  0  0  0  0  0  0  0  0
  149.7868  142.0639  155.0675 C   0  0  0  0  0  0  0  0  0  0  0  0
  150.9099  141.7737  154.6524 O   0  0  0  0  0  0  0  0  0  0  0  0
  149.5918  142.5679  156.2969 N   0  0  0  0  0  0  0  0  0  0  0  0
  150.6530  142.8429  157.2558 C   0  0  0  0  0  0  0  0  0  0  0  0
  151.2907  141.5370  157.7502 C   0  0  0  0  0  0  0  0  0  0  0  0
  151.8389  141.6637  159.1596 C   0  0  0  0  0  0  0  0  0  0  0  0
  153.1930  141.3772  159.4359 C   0  0  0  0  0  0  0  0  0  0  0  0
  153.6479  141.5019  160.7632 C   0  0  0  0  0  0  0  0  0  0  0  0
  152.7362  141.9055  161.7579 C   0  0  0  0  0  0  0  0  0  0  0  0
  151.4044  142.1678  161.3792 C   0  0  0  0  0  0  0  0  0  0  0  0
  150.9583  142.0521  160.1097 N   0  0  0  0  0  0  0  0  0  0  0  0
  147.3509  141.6607  154.9862 C   0  0  0  0  0  0  0  0  0  0  0  0
  146.9753  140.1720  154.8696 C   0  0  0  0  0  0  0  0  0  0  0  0
  145.4379  136.8101  152.5497 H   0  0  0  0  0  0  0  0  0  0  0  0
  145.0004  138.4775  152.2405 H   0  0  0  0  0  0  0  0  0  0  0  0
  146.1360  140.2265  152.8945 H   0  0  0  0  0  0  0  0  0  0  0  0
  149.1080  139.5295  153.0396 H   0  0  0  0  0  0  0  0  0  0  0  0
  148.1889  139.9222  151.6058 H   0  0  0  0  0  0  0  0  0  0  0  0
  149.4806  141.8918  152.3494 H   0  0  0  0  0  0  0  0  0  0  0  0
  147.7845  142.2283  152.4650 H   0  0  0  0  0  0  0  0  0  0  0  0
  148.6460  142.7756  156.5827 H   0  0  0  0  0  0  0  0  0  0  0  0
  151.4110  143.4749  156.7895 H   0  0  0  0  0  0  0  0  0  0  0  0
  150.2390  143.4011  158.0968 H   0  0  0  0  0  0  0  0  0  0  0  0
  150.5580  140.7294  157.7209 H   0  0  0  0  0  0  0  0  0  0  0  0
  152.1006  141.2402  157.0819 H   0  0  0  0  0  0  0  0  0  0  0  0
  153.8678  141.0668  158.6518 H   0  0  0  0  0  0  0  0  0  0  0  0
  154.6772  141.2908  161.0138 H   0  0  0  0  0  0  0  0  0  0  0  0
  153.0490  142.0109  162.7863 H   0  0  0  0  0  0  0  0  0  0  0  0
  150.6780  142.4780  162.1157 H   0  0  0  0  0  0  0  0  0  0  0  0
  147.3429  141.9673  156.0332 H   0  0  0  0  0  0  0  0  0  0  0  0
  146.5985  142.2784  154.4938 H   0  0  0  0  0  0  0  0  0  0  0  0
  145.9973  140.0047  155.3226 H   0  0  0  0  0  0  0  0  0  0  0  0
  147.6873  139.5784  155.4459 H   0  0  0  0  0  0  0  0  0  0  0  0
  1  2  1  0  0  0  0
  1 21  1  0  0  0  0
  1 22  1  0  0  0  0
  2  3  2  0  0  0  0
  2  4  1  0  0  0  0
  4 20  1  0  0  0  0
  4  5  1  0  0  0  0
  4 23  1  0  0  0  0
  5  6  1  0  0  0  0
  5 24  1  0  0  0  0
  5 25  1  0  0  0  0
  6  7  1  0  0  0  0
  6 26  1  0  0  0  0
  6 27  1  0  0  0  0
  7  8  1  0  0  0  0
  7 19  1  0  0  0  0
  8  9  2  0  0  0  0
  8 10  1  0  0  0  0
 10 11  1  0  0  0  0
 10 28  1  0  0  0  0
 11 12  1  0  0  0  0
 11 29  1  0  0  0  0
 11 30  1  0  0  0  0
 12 13  1  0  0  0  0
 12 31  1  0  0  0  0
 12 32  1  0  0  0  0
 13 18  1  0  0  0  0
 13 14  2  0  0  0  0
 14 15  1  0  0  0  0
 14 33  1  0  0  0  0
 15 16  2  0  0  0  0
 15 34  1  0  0  0  0
 16 17  1  0  0  0  0
 16 35  1  0  0  0  0
 17 18  2  0  0  0  0
 17 36  1  0  0  0  0
 19 20  1  0  0  0  0
 19 37  1  0  0  0  0
 19 38  1  0  0  0  0
 20 39  1  0  0  0  0
 20 40  1  0  0  0  0
M  END
> <s_m_source_file>
AV-unprocessed.smi

> <i_m_source_file_index>
1562

> <i_lp_mmshare_version>
43012

> <i_f3d_flags>
0

> <s_epik_input>
W05IMl1DKD1PKVtDSF0xW0NIMl1bQ0gyXU4oW0NIMl1bQ0gyXTEpQyg9TylbTkhdW0NIMl1bQ0gyXWMyW2NIXVtjSF1bY0hdW2NIXW4y

> <s_epik_cmdline>
J2VwaWtfcHl0aG9uJywgJy1waCcsICc3LjAnLCAnLXRuJywgJzgnLCAnLW1hJywgJzIwMCcsICctbWV0YWxfYmluZGluZycsICctaW1hZScsICc8aW5maWxlLm1hZT4nLCAnLW9tYWUnLCAnPG91dGZpbGUubWFlPic=

> <r_epik_Ionization_Penalty>
0.0445602

> <r_epik_Ionization_Penalty_Charging>
0

> <r_epik_Ionization_Penalty_Neutral>
0.0445602

> <r_epik_State_Penalty>
0.0377204

> <r_epik_Charging_Adjusted_Penalty>
0.0377204

> <i_epik_Tot_Q>
0

> <i_epik_Tot_abs_Q>
0

> <r_epik_Metal_State_Penalty>
0.0350723

> <b_epik_Metal_Only>
0

> <s_lp_Force_Field>
OPLS_2005

> <r_lp_Energy>
26.805

> <b_lp_Chiralities_Consistent>
1

> <s_lp_Variant>
AV-unprocessed.smi:1562-1

> <Gold.Version>
5.8.1

> <Gold.Id.Protein>
6NUR|6NUR_protein|mol2

> <Gold.PLP.Fitness>
43.2182

> <Gold.PLP.PLP>
-35.6923

> <Gold.PLP.part.hbond>
-3.2536

> <Gold.PLP.part.metal>
0.0000

> <Gold.PLP.part.buried>
0.6315

> <Gold.PLP.part.nonpolar>
-32.2185

> <Gold.PLP.part.repulsive>
0.2179

> <Gold.PLP.ligand.clash>
0.0005

> <Gold.PLP.ligand.torsion>
0.4261

> <Gold.PLP.Chemscore.Hbond>
2.7680

> <Gold.PLP.Chemscore.CHOScore>
0.0000

> <Gold.PLP.Chemscore.Metal>
0.0000

> <Gold.Chemscore.Hbonds>
donor molecule, donor type, donor heavy atom, donor atom, acceptor molecule, acceptor atom, score
      L1  H     1    22       P1 10175  0.11
      P1  H  7989  7998       L1     9  0.14

> <Gold.PLP.Chemscore.Internal.Correction>
0.0746

> <Gold.Rescore>
     Score         DG    S(hbond)    S(metal)    S(lipo)     H(rot)  DE(clash)    DE(int)     intcor
     16.60     -19.65       2.56        0.00      90.78       1.95       1.28       1.76       ----

> <Gold.Chemscore.Fitness>
16.5995

> <Gold.Chemscore.DG>
-19.6473

> <Gold.Chemscore.ZeroCoef>
-5.4800

> <Gold.Chemscore.Hbond>
2.5556

> <Gold.Chemscore.Metal>
0.0000

> <Gold.Chemscore.Lipo>
90.7818

> <Gold.Chemscore.Internal_Hbond>
0.0000

> <Gold.Chemscore.DEClash>
1.2838

> <Gold.Chemscore.DEInternal>
1.7640

> <Gold.Chemscore.Rot>
1.9492

> <Gold.Chemscore.Internal.Correction>
   9.000000E+99

> <Gold.Chemscore.Hbonds>
donor molecule, donor type, donor heavy atom, donor atom, acceptor molecule, acceptor atom, score
      L1  H     1    22       P1 10175  0.14
      P1  H  7989  7998       L1     9  0.15

> <Gold.Chemscore.Hbond.Weighted>
-8.5358

> <Gold.Chemscore.Metal.Weighted>
-0.0000

> <Gold.Chemscore.Lipo.Weighted>
-10.6215

> <Gold.Chemscore.Internal_Hbond.Weighted>
0.0000

> <Gold.Chemscore.DEClash.Weighted>
1.2838

> <Gold.Chemscore.DEInternal.Weighted>
1.7640

> <Gold.Chemscore.Rot.Weighted>
4.9900

> <Gold.Chemscore.Internal.Correction.Weighted>
   9.000000E+99

> <Gold.Protein.RotatedTorsions>
[ 6907 6896 6895 6894 ] final -131.85 input  -60.11 | X-H torsion
[ 7974 7965 7964 7962 ] final  -73.84 input  175.53 | X-H torsion
[ 8008 7997 7996 7995 ] final   -2.27 input   59.86 | X-H torsion
[ 10167 10162 10161 10158 ] final  -93.56 input  -65.29 | X-H torsion
[ 10718 10713 10712 10709 ] final   96.00 input   66.30 | X-H torsion
[ 10763 10752 10751 10750 ] final   39.11 input  -60.55 | X-H torsion
[ 11005 11000 10999 10996 ] final   26.93 input  -57.11 | X-H torsion

> <Gold.Protein.ActiveResidues>
 VAL166  LYS551  ARG553  GLY616  TRP617  ASP618  TYR619  PRO620  LYS621  CYS622 
 ASP623  PHE694  ASN695  SER759  ASP760  ASP761  ALA762  ILE779  LEU786  VAL792 
 PHE793  MET794  SER795  GLU796  ALA797  LYS798  CYS799  TRP800  GLU811  SER814 

> <Gold.Protein.RotatedAtoms>
  150.9556  133.6501  159.2763 H   0  0  0  0  0  0  0  0  0  0  0  0  # atno 6907 bound_to 6896
  151.3841  135.0944  159.9515 H   0  0  0  0  0  0  0  0  0  0  0  0  # atno 6908 bound_to 6896
  152.5127  133.9085  159.7530 H   0  0  0  0  0  0  0  0  0  0  0  0  # atno 6909 bound_to 6896
  145.6468  140.9294  143.1006 H   0  0  0  0  0  0  0  0  0  0  0  0  # atno 7974 bound_to 7965
  154.6376  140.2539  155.7359 H   0  0  0  0  0  0  0  0  0  0  0  0  # atno 8008 bound_to 7997
  156.2512  140.2894  156.0676 H   0  0  0  0  0  0  0  0  0  0  0  0  # atno 8009 bound_to 7997
  155.1646  140.0385  157.2840 H   0  0  0  0  0  0  0  0  0  0  0  0  # atno 8010 bound_to 7997
  140.3234  143.3036  152.0022 H   0  0  0  0  0  0  0  0  0  0  0  0  # atno 10167 bound_to 10162
  157.6932  131.0564  150.4424 H   0  0  0  0  0  0  0  0  0  0  0  0  # atno 10718 bound_to 10713
  152.9978  135.6230  154.2412 H   0  0  0  0  0  0  0  0  0  0  0  0  # atno 10763 bound_to 10752
  154.2153  135.2798  155.2946 H   0  0  0  0  0  0  0  0  0  0  0  0  # atno 10764 bound_to 10752
  154.5573  135.5715  153.7034 H   0  0  0  0  0  0  0  0  0  0  0  0  # atno 10765 bound_to 10752
  140.3317  134.2430  155.7701 H   0  0  0  0  0  0  0  0  0  0  0  0  # atno 11005 bound_to 11000
  144.7137  139.8276  143.7406 LP  0  0  0  0  0  0  0  0  0  0  0  0  # atno 17320 bound_to 7965
  146.1236  139.4258  143.0213 LP  0  0  0  0  0  0  0  0  0  0  0  0  # atno 17321 bound_to 7965
  139.4870  144.6293  151.7102 LP  0  0  0  0  0  0  0  0  0  0  0  0  # atno 17342 bound_to 10162
  140.5463  144.0498  150.6108 LP  0  0  0  0  0  0  0  0  0  0  0  0  # atno 17343 bound_to 10162
  156.4782  130.4068  149.6477 LP  0  0  0  0  0  0  0  0  0  0  0  0  # atno 17370 bound_to 10713
  156.3533  130.7443  151.2406 LP  0  0  0  0  0  0  0  0  0  0  0  0  # atno 17371 bound_to 10713
  141.2061  133.7841  157.0193 LP  0  0  0  0  0  0  0  0  0  0  0  0  # atno 17394 bound_to 11000
  140.0855  134.9623  157.1693 LP  0  0  0  0  0  0  0  0  0  0  0  0  # atno 17395 bound_to 11000

$$$$
