AV-unprocessed.smi:1177|AV-procd|sdf|4955|dock6
  -GOLD-   22720 3543D 1   1.00000     0.00000
 Structure written by MMmdl.
 31 32  0  0  0  0  0  0  0  0  2 V2000
  146.8812  141.1508  155.5910 O   0  0  0  0  0  0  0  0  0  0  0  0
  147.5468  142.1711  155.4102 C   0  0  0  0  0  0  0  0  0  0  0  0
  148.7447  142.3904  155.9706 N   0  0  0  0  0  0  0  0  0  0  0  0
  149.4253  141.4627  156.8663 C   0  0  0  0  0  0  0  0  0  0  0  0
  150.9421  141.7160  156.8974 C   0  0  0  0  0  0  0  0  0  0  0  0
  151.3370  142.7006  157.9802 C   0  0  0  0  0  0  0  0  0  0  0  0
  152.1565  142.3331  159.0696 C   0  0  0  0  0  0  0  0  0  0  0  0
  152.4816  143.3004  160.0435 C   0  0  0  0  0  0  0  0  0  0  0  0
  151.9794  144.6114  159.9090 C   0  0  0  0  0  0  0  0  0  0  0  0
  151.1637  144.9231  158.8021 C   0  0  0  0  0  0  0  0  0  0  0  0
  150.8757  143.9691  157.8896 N   0  3  0  0  0  0  0  0  0  0  0  0
  147.1636  143.1964  154.6380 N   0  0  0  0  0  0  0  0  0  0  0  0
  145.9376  143.2702  153.9111 C   0  0  0  0  0  0  0  0  0  0  0  0
  145.6581  144.5372  153.1320 C   0  0  0  0  0  0  0  0  0  0  0  0
  144.8918  144.2518  154.3940 C   0  0  0  0  0  0  0  0  0  0  0  0
  149.2185  143.2574  155.7624 H   0  0  0  0  0  0  0  0  0  0  0  0
  149.0009  141.5389  157.8690 H   0  0  0  0  0  0  0  0  0  0  0  0
  149.2250  140.4482  156.5208 H   0  0  0  0  0  0  0  0  0  0  0  0
  151.4736  140.7765  157.0559 H   0  0  0  0  0  0  0  0  0  0  0  0
  151.2837  142.1024  155.9360 H   0  0  0  0  0  0  0  0  0  0  0  0
  152.5315  141.3239  159.1605 H   0  0  0  0  0  0  0  0  0  0  0  0
  153.1077  143.0393  160.8841 H   0  0  0  0  0  0  0  0  0  0  0  0
  152.2164  145.3666  160.6443 H   0  0  0  0  0  0  0  0  0  0  0  0
  150.7361  145.8983  158.6205 H   0  0  0  0  0  0  0  0  0  0  0  0
  147.7856  143.9873  154.5562 H   0  0  0  0  0  0  0  0  0  0  0  0
  145.5603  142.3476  153.4716 H   0  0  0  0  0  0  0  0  0  0  0  0
  146.4018  145.3313  153.1655 H   0  0  0  0  0  0  0  0  0  0  0  0
  145.1260  144.4379  152.1881 H   0  0  0  0  0  0  0  0  0  0  0  0
  143.8478  143.9616  154.2931 H   0  0  0  0  0  0  0  0  0  0  0  0
  145.1241  144.8558  155.2691 H   0  0  0  0  0  0  0  0  0  0  0  0
  150.2832  144.2164  157.0962 H   0  0  0  0  0  0  0  0  0  0  0  0
  1  2  2  0  0  0  0
  2  3  1  0  0  0  0
  2 12  1  0  0  0  0
  3  4  1  0  0  0  0
  3 16  1  0  0  0  0
  4  5  1  0  0  0  0
  4 17  1  0  0  0  0
  4 18  1  0  0  0  0
  5  6  1  0  0  0  0
  5 19  1  0  0  0  0
  5 20  1  0  0  0  0
  6 11  1  0  0  0  0
  6  7  2  0  0  0  0
  7  8  1  0  0  0  0
  7 21  1  0  0  0  0
  8  9  2  0  0  0  0
  8 22  1  0  0  0  0
  9 10  1  0  0  0  0
  9 23  1  0  0  0  0
 10 11  2  0  0  0  0
 10 24  1  0  0  0  0
 11 31  1  0  0  0  0
 12 13  1  0  0  0  0
 12 25  1  0  0  0  0
 13 15  1  0  0  0  0
 13 14  1  0  0  0  0
 13 26  1  0  0  0  0
 14 15  1  0  0  0  0
 14 27  1  0  0  0  0
 14 28  1  0  0  0  0
 15 29  1  0  0  0  0
 15 30  1  0  0  0  0
M  CHG  1  11   1
M  END
> <s_m_source_file>
AV-unprocessed.smi

> <i_m_source_file_index>
1177

> <i_lp_mmshare_version>
43012

> <i_f3d_flags>
0

> <s_epik_input>
W0NIMl0xW0NIMl1bQ0hdMVtOSF1DKD1PKVtOSF1bQ0gyXVtDSDJdYzJbY0hdW2NIXVtjSF1bY0hdbjI=

> <s_epik_cmdline>
J2VwaWtfcHl0aG9uJywgJy1waCcsICc3LjAnLCAnLXRuJywgJzgnLCAnLW1hJywgJzIwMCcsICctbWV0YWxfYmluZGluZycsICctaW1hZScsICc8aW5maWxlLm1hZT4nLCAnLW9tYWUnLCAnPG91dGZpbGUubWFlPic=

> <r_epik_Ionization_Penalty>
1.56288

> <r_epik_Ionization_Penalty_Charging>
1.56282

> <r_epik_Ionization_Penalty_Neutral>
5.89877e-05

> <r_epik_State_Penalty>
1.65797

> <r_epik_Charging_Adjusted_Penalty>
3.22079

> <i_epik_Tot_Q>
1

> <i_epik_Tot_abs_Q>
1

> <r_epik_Metal_State_Penalty>
1.69932

> <b_epik_Metal_Only>
0

> <s_lp_Force_Field>
OPLS_2005

> <r_lp_Energy>
17.5296

> <b_lp_Chiralities_Consistent>
1

> <s_lp_Variant>
AV-unprocessed.smi:1177-2

> <Gold.Version>
5.8.1

> <Gold.Id.Protein>
6NUR|6NUR_protein|mol2

> <Gold.PLP.Fitness>
44.1028

> <Gold.PLP.PLP>
-34.1795

> <Gold.PLP.part.hbond>
-2.9331

> <Gold.PLP.part.metal>
0.0000

> <Gold.PLP.part.buried>
-3.9720

> <Gold.PLP.part.nonpolar>
-29.3688

> <Gold.PLP.part.repulsive>
0.2775

> <Gold.PLP.ligand.clash>
0.0000

> <Gold.PLP.ligand.torsion>
0.4194

> <Gold.PLP.Chemscore.Hbond>
3.5744

> <Gold.PLP.Chemscore.CHOScore>
0.0000

> <Gold.PLP.Chemscore.Metal>
0.0000

> <Gold.Chemscore.Hbonds>
donor molecule, donor type, donor heavy atom, donor atom, acceptor molecule, acceptor atom, score
      L1  H     3    16       P1  8028  0.71
      L1  H    11    31       P1  8028  1.95
      L1  H    12    25       P1  8028  0.58

> <Gold.PLP.Chemscore.Internal.Correction>
0.0389

> <Gold.Rescore>
     Score         DG    S(hbond)    S(metal)    S(lipo)     H(rot)  DE(clash)    DE(int)     intcor
     17.86     -18.41       2.02        0.00      90.25       1.70       0.02       0.54       ----

> <Gold.Chemscore.Fitness>
17.8575

> <Gold.Chemscore.DG>
-18.4144

> <Gold.Chemscore.ZeroCoef>
-5.4800

> <Gold.Chemscore.Hbond>
2.0155

> <Gold.Chemscore.Metal>
0.0000

> <Gold.Chemscore.Lipo>
90.2520

> <Gold.Chemscore.Internal_Hbond>
0.0000

> <Gold.Chemscore.DEClash>
0.0163

> <Gold.Chemscore.DEInternal>
0.5406

> <Gold.Chemscore.Rot>
1.7019

> <Gold.Chemscore.Internal.Correction>
   9.000000E+99

> <Gold.Chemscore.Hbonds>
donor molecule, donor type, donor heavy atom, donor atom, acceptor molecule, acceptor atom, score
      L1  H     3    16       P1  8028  0.67
      L1  H    11    31       P1  8028  0.80
      L1  H    12    25       P1  8028  0.10

> <Gold.Chemscore.Hbond.Weighted>
-6.7317

> <Gold.Chemscore.Metal.Weighted>
-0.0000

> <Gold.Chemscore.Lipo.Weighted>
-10.5595

> <Gold.Chemscore.Internal_Hbond.Weighted>
0.0000

> <Gold.Chemscore.DEClash.Weighted>
0.0163

> <Gold.Chemscore.DEInternal.Weighted>
0.5406

> <Gold.Chemscore.Rot.Weighted>
4.3568

> <Gold.Chemscore.Internal.Correction.Weighted>
   9.000000E+99

> <Gold.Protein.RotatedTorsions>
[ 6907 6896 6895 6894 ] final  126.90 input  -60.11 | X-H torsion
[ 7974 7965 7964 7962 ] final   56.23 input  175.53 | X-H torsion
[ 8008 7997 7996 7995 ] final  -79.24 input   59.86 | X-H torsion
[ 10167 10162 10161 10158 ] final   92.01 input  -65.29 | X-H torsion
[ 10718 10713 10712 10709 ] final -173.48 input   66.30 | X-H torsion
[ 10763 10752 10751 10750 ] final    7.66 input  -60.55 | X-H torsion
[ 11005 11000 10999 10996 ] final  123.54 input  -57.11 | X-H torsion

> <Gold.Protein.ActiveResidues>
 VAL166  LYS551  ARG553  GLY616  TRP617  ASP618  TYR619  PRO620  LYS621  CYS622 
 ASP623  PHE694  ASN695  SER759  ASP760  ASP761  ALA762  ILE779  LEU786  VAL792 
 PHE793  MET794  SER795  GLU796  ALA797  LYS798  CYS799  TRP800  GLU811  SER814 

> <Gold.Protein.RotatedAtoms>
  152.3861  133.6613  159.6199 H   0  0  0  0  0  0  0  0  0  0  0  0  # atno 6907 bound_to 6896
  150.7780  133.9032  159.3356 H   0  0  0  0  0  0  0  0  0  0  0  0  # atno 6908 bound_to 6896
  151.6828  135.0960  160.0270 H   0  0  0  0  0  0  0  0  0  0  0  0  # atno 6909 bound_to 6896
  145.9420  139.3897  143.0357 H   0  0  0  0  0  0  0  0  0  0  0  0  # atno 7974 bound_to 7965
  154.5766  140.0681  156.9043 H   0  0  0  0  0  0  0  0  0  0  0  0  # atno 8008 bound_to 7997
  155.2537  140.3353  155.4261 H   0  0  0  0  0  0  0  0  0  0  0  0  # atno 8009 bound_to 7997
  156.2158  140.1778  156.7576 H   0  0  0  0  0  0  0  0  0  0  0  0  # atno 8010 bound_to 7997
  139.8318  144.6683  150.9390 H   0  0  0  0  0  0  0  0  0  0  0  0  # atno 10167 bound_to 10162
  156.7710  130.9448  151.3120 H   0  0  0  0  0  0  0  0  0  0  0  0  # atno 10718 bound_to 10713
  153.2338  135.6895  153.7860 H   0  0  0  0  0  0  0  0  0  0  0  0  # atno 10763 bound_to 10752
  153.7014  135.3297  155.3226 H   0  0  0  0  0  0  0  0  0  0  0  0  # atno 10764 bound_to 10752
  154.8326  135.4569  154.1234 H   0  0  0  0  0  0  0  0  0  0  0  0  # atno 10765 bound_to 10752
  139.9317  134.9641  156.8275 H   0  0  0  0  0  0  0  0  0  0  0  0  # atno 11005 bound_to 11000
  145.8286  140.9642  143.0861 LP  0  0  0  0  0  0  0  0  0  0  0  0  # atno 17320 bound_to 7965
  144.6781  140.0134  143.7484 LP  0  0  0  0  0  0  0  0  0  0  0  0  # atno 17321 bound_to 7965
  140.7806  143.3993  151.1176 LP  0  0  0  0  0  0  0  0  0  0  0  0  # atno 17342 bound_to 10162
  139.7646  143.8584  152.3108 LP  0  0  0  0  0  0  0  0  0  0  0  0  # atno 17343 bound_to 10162
  157.6691  130.9035  149.9999 LP  0  0  0  0  0  0  0  0  0  0  0  0  # atno 17370 bound_to 10713
  156.1278  130.3644  149.9781 LP  0  0  0  0  0  0  0  0  0  0  0  0  # atno 17371 bound_to 10713
  140.6184  134.0017  155.7607 LP  0  0  0  0  0  0  0  0  0  0  0  0  # atno 17394 bound_to 11000
  141.0910  133.9917  157.3238 LP  0  0  0  0  0  0  0  0  0  0  0  0  # atno 17395 bound_to 11000

$$$$
