#       Name:                AV-unprocessed.smi:3077
#       Creating user name   scv26
#       Creation time:       Fri Mar 27 17:12:53 2020


#       File generated by GOLD software.
#

@<TRIPOS>MOLECULE
AV-unprocessed.smi:3077
    29    30     1
SMALL
NO_CHARGES


@<TRIPOS>ATOM
      1 ****        -3.6493  -1.0295  -1.5819 C.2            1 S1                 0.0000
      2 ****        -3.5056   0.3854  -1.6270 C.2            1 S1                 0.0000
      3 ****        -2.2393   0.7699  -1.6133 N.2            1 S1                 0.0000
      4 ****        -1.5364  -0.3815  -1.5519 N.pl3          1 S1                 0.0000
      5 ****        -0.0854  -0.3390  -1.5353 C.3            1 S1                 0.0000
      6 ****         0.4871   0.3322  -0.2699 C.3            1 S1                 0.0000
      7 ****         0.0139  -0.3398   1.0398 C.3            1 S1                 0.0000
      8 ****         0.6519   0.3208   2.2718 C.3            1 S1                 0.0000
      9 ****         2.1810   0.3365   2.1388 C.3            1 S1                 0.0000
     10 ****         2.6046   1.0078   0.8227 C.3            1 S1                 0.0000
     11 ****         1.9674   0.3407  -0.3337 N.4            1 S1                 1.0000
     12 ****        -2.3631  -1.4854  -1.5387 C.2            1 S1                 0.0000
     13 ****        -4.5551  -1.6176  -1.5847 H              1 S1                 0.0000
     14 ****        -4.2779   1.1390  -1.6715 H              1 S1                 0.0000
     15 ****         0.2877  -1.3606  -1.6205 H              1 S1                 0.0000
     16 ****         0.2480   0.1902  -2.4293 H              1 S1                 0.0000
     17 ****         0.1610   1.3737  -0.2597 H              1 S1                 0.0000
     18 ****        -1.0716  -0.2837   1.1274 H              1 S1                 0.0000
     19 ****         0.2669  -1.4008   1.0229 H              1 S1                 0.0000
     20 ****         0.2814   1.3417   2.3745 H              1 S1                 0.0000
     21 ****         0.3580  -0.2094   3.1782 H              1 S1                 0.0000
     22 ****         2.6255   0.8600   2.9860 H              1 S1                 0.0000
     23 ****         2.5628  -0.6849   2.1707 H              1 S1                 0.0000
     24 ****         2.3274   2.0628   0.8272 H              1 S1                 0.0000
     25 ****         3.6877   0.9630   0.7068 H              1 S1                 0.0000
     26 ****         2.2919  -0.6149  -0.3715 H              1 S1                 0.0000
     27 ****        -1.9732  -2.4920  -1.4998 H              1 S1                 0.0000
     28 ****         2.2529   0.8147  -1.1789 H              1 S1                 0.0000
     29 ****        -1.8829   1.7038  -1.6420 LP             1 S1                 0.0000
@<TRIPOS>BOND
    1    1   12 2     
    2    1    2 1     
    3    1   13 1     
    4    2    3 2     
    5    2   14 1     
    6    3    4 1     
    7    4    5 1     
    8    4   12 1     
    9    5    6 1     
   10    5   15 1     
   11    5   16 1     
   12    6   11 1     
   13    6    7 1     
   14    6   17 1     
   15    7    8 1     
   16    7   18 1     
   17    7   19 1     
   18    8    9 1     
   19    8   20 1     
   20    8   21 1     
   21    9   10 1     
   22    9   22 1     
   23    9   23 1     
   24   10   11 1     
   25   10   24 1     
   26   10   25 1     
   27   11   26 1     
   28   11   28 1     
   29   12   27 1     
   30    3   29 1     
@<TRIPOS>SUBSTRUCTURE
      1 S1             1
@<TRIPOS>SET
LONE_PAIRS      STATIC     ATOMS    <user>   **** ""
1 29
DONOR_HYDROGENS      STATIC     ATOMS    <user>   **** ""
2 26 28
ATOM$BLUE        STATIC     ATOMS    COLORGROUP SYSTEM
1 29
ATOM$RED        STATIC     ATOMS    COLORGROUP SYSTEM
2 26 28
