#       Name:                AV-unprocessed.smi:3282
#       Creating user name   scv26
#       Creation time:       Fri Mar 27 18:48:09 2020


#       File generated by GOLD software.
#

@<TRIPOS>MOLECULE
AV-unprocessed.smi:3282
    41    42     1
SMALL
NO_CHARGES


@<TRIPOS>ATOM
      1 ****        -4.4572   4.1825  -0.3403 C.3            1 S1                 0.0000
      2 ****        -3.8440   2.7752  -0.2594 C.3            1 S1                 0.0000
      3 ****        -2.3080   2.7719  -0.1802 C.2            1 S1                 0.0000
      4 ****        -1.6857   3.8297  -0.2875 O.2            1 S1                 0.0000
      5 ****        -1.6822   1.5913   0.0081 N.am           1 S1                 0.0000
      6 ****        -2.3355   0.2899   0.1327 C.3            1 S1                 0.0000
      7 ****        -1.2123  -0.7471   0.1246 C.3            1 S1                 0.0000
      8 ****         0.0272   0.0197   0.5840 C.3            1 S1                 0.0000
      9 ****         1.2596  -0.5077   0.0074 N.am           1 S1                 0.0000
     10 ****         1.8944  -1.6080   0.4360 C.2            1 S1                 0.0000
     11 ****         1.4919  -2.3042   1.3688 O.2            1 S1                 0.0000
     12 ****         3.0071  -1.8410  -0.2803 N.am           1 S1                 0.0000
     13 ****         3.9400  -2.8943  -0.1067 C.2            1 S1                 0.0000
     14 ****         3.8880  -3.8588   0.8134 N.2            1 S1                 0.0000
     15 ****         5.0168  -4.6296   0.5758 C.2            1 S1                 0.0000
     16 ****         5.6930  -4.0827  -0.4844 C.2            1 S1                 0.0000
     17 ****         5.0193  -2.9768  -0.9289 O.3            1 S1                 0.0000
     18 ****        -0.2321   1.4585   0.1250 C.3            1 S1                 0.0000
     19 ****        -5.5448   4.1255  -0.3876 H              1 S1                 0.0000
     20 ****        -4.1179   4.7153  -1.2294 H              1 S1                 0.0000
     21 ****        -4.1975   4.7817   0.5331 H              1 S1                 0.0000
     22 ****        -4.2466   2.2650   0.6162 H              1 S1                 0.0000
     23 ****        -4.1516   2.2002  -1.1333 H              1 S1                 0.0000
     24 ****        -2.8778   0.2523   1.0785 H              1 S1                 0.0000
     25 ****        -3.0445   0.1038  -0.6750 H              1 S1                 0.0000
     26 ****        -1.4313  -1.6088   0.7559 H              1 S1                 0.0000
     27 ****        -1.0722  -1.1118  -0.8943 H              1 S1                 0.0000
     28 ****         0.0784   0.0036   1.6746 H              1 S1                 0.0000
     29 ****         1.6583   0.0056  -0.7651 H              1 S1                 0.0000
     30 ****         3.2148  -1.1915  -1.0245 H              1 S1                 0.0000
     31 ****         5.2494  -5.4980   1.1743 H              1 S1                 0.0000
     32 ****         6.6030  -4.3394  -1.0062 H              1 S1                 0.0000
     33 ****         0.2104   1.6493  -0.8544 H              1 S1                 0.0000
     34 ****         0.1884   2.1778   0.8297 H              1 S1                 0.0000
     35 ****        -2.1792   4.6884  -0.4258 LP             1 S1                 0.0000
     36 ****        -0.6870   3.8297  -0.2363 LP             1 S1                 0.0000
     37 ****         0.6500  -2.0584   1.8491 LP             1 S1                 0.0000
     38 ****         2.0071  -3.1152   1.6459 LP             1 S1                 0.0000
     39 ****         3.1910  -3.9956   1.5173 LP             1 S1                 0.0000
     40 ****         5.5889  -2.1586  -0.8504 LP             1 S1                 0.0000
     41 ****         4.7332  -3.0937  -1.8799 LP             1 S1                 0.0000
@<TRIPOS>BOND
    1    1    2 1     
    2    1   19 1     
    3    1   20 1     
    4    1   21 1     
    5    2    3 1     
    6    2   22 1     
    7    2   23 1     
    8    3    4 2     
    9    3    5 am    
   10    5   18 1     
   11    5    6 1     
   12    6    7 1     
   13    6   24 1     
   14    6   25 1     
   15    7    8 1     
   16    7   26 1     
   17    7   27 1     
   18    8    9 1     
   19    8   18 1     
   20    8   28 1     
   21    9   10 am    
   22    9   29 1     
   23   10   11 2     
   24   10   12 am    
   25   12   13 1     
   26   12   30 1     
   27   13   17 1     
   28   13   14 2     
   29   14   15 1     
   30   15   16 2     
   31   15   31 1     
   32   16   17 1     
   33   16   32 1     
   34   18   33 1     
   35   18   34 1     
   36    4   35 1     
   37    4   36 1     
   38   11   37 1     
   39   11   38 1     
   40   14   39 1     
   41   17   40 1     
   42   17   41 1     
@<TRIPOS>SUBSTRUCTURE
      1 S1             1
@<TRIPOS>SET
LONE_PAIRS      STATIC     ATOMS    <user>   **** ""
7 35 36 37 38 39 40 41
DONOR_HYDROGENS      STATIC     ATOMS    <user>   **** ""
2 29 30
ATOM$BLUE        STATIC     ATOMS    COLORGROUP SYSTEM
7 35 36 37 38 39 40 41
ATOM$RED        STATIC     ATOMS    COLORGROUP SYSTEM
2 29 30
