AV-unprocessed.smi:2597|AV-procd|sdf|10172|dock7
  -GOLD-   2272014183D 1   1.00000     0.00000
 Structure written by MMmdl.
 31 32  0  0  0  0  0  0  0  0  2 V2000
  151.3378  144.6469  157.0404 N   0  3  0  0  0  0  0  0  0  0  0  0
  151.9974  143.6212  157.8704 C   0  0  1  0  0  0  0  0  0  0  0  0
  152.5061  144.2501  159.1817 C   0  0  0  0  0  0  0  0  0  0  0  0
  153.1747  143.2041  160.0875 C   0  0  0  0  0  0  0  0  0  0  0  0
  152.2227  142.0353  160.3807 C   0  0  0  0  0  0  0  0  0  0  0  0
  151.7158  141.3946  159.0798 C   0  0  0  0  0  0  0  0  0  0  0  0
  151.0417  142.4347  158.1609 C   0  0  2  0  0  0  0  0  0  0  0  0
  150.5520  141.7985  156.9442 N   0  0  0  0  0  0  0  0  0  0  0  0
  149.2747  141.8292  156.4235 C   0  0  0  0  0  0  0  0  0  0  0  0
  149.3661  141.0519  155.3035 C   0  0  0  0  0  0  0  0  0  0  0  0
  148.3062  140.6945  154.3071 C   0  0  0  0  0  0  0  0  0  0  0  0
  148.7618  141.1483  153.0510 O   0  0  0  0  0  0  0  0  0  0  0  0
  150.6744  140.5851  155.1905 N   0  0  0  0  0  0  0  0  0  0  0  0
  151.3727  141.0275  156.1874 N   0  0  0  0  0  0  0  0  0  0  0  0
  152.8618  143.2616  157.3104 H   0  0  0  0  0  0  0  0  0  0  0  0
  150.1689  142.8255  158.6875 H   0  0  0  0  0  0  0  0  0  0  0  0
  151.9438  144.9043  156.2745 H   0  0  0  0  0  0  0  0  0  0  0  0
  151.1452  145.4622  157.6052 H   0  0  0  0  0  0  0  0  0  0  0  0
  153.2156  145.0492  158.9635 H   0  0  0  0  0  0  0  0  0  0  0  0
  151.6759  144.7119  159.7181 H   0  0  0  0  0  0  0  0  0  0  0  0
  154.0795  142.8279  159.6083 H   0  0  0  0  0  0  0  0  0  0  0  0
  153.4904  143.6684  161.0223 H   0  0  0  0  0  0  0  0  0  0  0  0
  152.7298  141.2866  160.9901 H   0  0  0  0  0  0  0  0  0  0  0  0
  151.3754  142.3906  160.9685 H   0  0  0  0  0  0  0  0  0  0  0  0
  152.5531  140.9247  158.5617 H   0  0  0  0  0  0  0  0  0  0  0  0
  151.0133  140.5944  159.3163 H   0  0  0  0  0  0  0  0  0  0  0  0
  148.4518  142.3653  156.8727 H   0  0  0  0  0  0  0  0  0  0  0  0
  148.1438  139.6173  154.2708 H   0  0  0  0  0  0  0  0  0  0  0  0
  147.3530  141.1688  154.5430 H   0  0  0  0  0  0  0  0  0  0  0  0
  148.9106  140.3977  152.4965 H   0  0  0  0  0  0  0  0  0  0  0  0
  150.4710  144.2793  156.6748 H   0  0  0  0  0  0  0  0  0  0  0  0
  1  2  1  0  0  0  0
  1 17  1  0  0  0  0
  1 18  1  0  0  0  0
  1 31  1  0  0  0  0
  2 15  1  0  0  0  0
  2  7  1  0  0  0  0
  2  3  1  0  0  0  0
  3  4  1  0  0  0  0
  3 19  1  0  0  0  0
  3 20  1  0  0  0  0
  4  5  1  0  0  0  0
  4 21  1  0  0  0  0
  4 22  1  0  0  0  0
  5  6  1  0  0  0  0
  5 23  1  0  0  0  0
  5 24  1  0  0  0  0
  6  7  1  0  0  0  0
  6 25  1  0  0  0  0
  6 26  1  0  0  0  0
  7 16  1  0  0  0  0
  7  8  1  0  0  0  0
  8 14  1  0  0  0  0
  8  9  1  0  0  0  0
  9 10  2  0  0  0  0
  9 27  1  0  0  0  0
 10 11  1  0  0  0  0
 10 13  1  0  0  0  0
 11 12  1  0  0  0  0
 11 28  1  0  0  0  0
 11 29  1  0  0  0  0
 12 30  1  0  0  0  0
 13 14  2  0  0  0  0
M  CHG  1   1   1
M  END
> <s_m_source_file>
AV-unprocessed.smi

> <i_m_source_file_index>
2597

> <i_lp_mmshare_version>
43012

> <i_f3d_flags>
0

> <s_epik_input>
W05IMl1bQ0BIXTFbQ0gyXVtDSDJdW0NIMl1bQ0gyXVtDQEhdMW4yW2NIXWMobm4yKVtDSDJdW09IXQ==

> <s_epik_cmdline>
J2VwaWtfcHl0aG9uJywgJy1waCcsICc3LjAnLCAnLXRuJywgJzgnLCAnLW1hJywgJzIwMCcsICctbWV0YWxfYmluZGluZycsICctaW1hZScsICc8aW5maWxlLm1hZT4nLCAnLW9tYWUnLCAnPG91dGZpbGUubWFlPic=

> <r_lp_tautomer_probability>
1

> <r_epik_Ionization_Penalty>
0.014346

> <r_epik_Ionization_Penalty_Charging>
0.014316

> <r_epik_Ionization_Penalty_Neutral>
3.00097e-05

> <r_epik_State_Penalty>
0.0111909

> <r_epik_Charging_Adjusted_Penalty>
0.0255069

> <i_epik_Tot_Q>
1

> <i_epik_Tot_abs_Q>
1

> <r_epik_Metal_State_Penalty>
0.011192

> <b_epik_Metal_Only>
0

> <s_lp_Force_Field>
OPLS_2005

> <r_lp_Energy>
13.7949

> <b_lp_Chiralities_Consistent>
1

> <s_lp_Variant>
AV-unprocessed.smi:2597-3

> <Gold.Version>
5.8.1

> <Gold.Id.Protein>
6NUR|6NUR_protein|mol2

> <Gold.PLP.Fitness>
41.6744

> <Gold.PLP.PLP>
-27.7951

> <Gold.PLP.part.hbond>
-3.5876

> <Gold.PLP.part.metal>
0.0000

> <Gold.PLP.part.buried>
0.7556

> <Gold.PLP.part.nonpolar>
-24.1908

> <Gold.PLP.part.repulsive>
0.1696

> <Gold.PLP.ligand.clash>
0.0000

> <Gold.PLP.ligand.torsion>
0.1627

> <Gold.PLP.Chemscore.Hbond>
4.5040

> <Gold.PLP.Chemscore.CHOScore>
0.2216

> <Gold.PLP.Chemscore.Metal>
0.0000

> <Gold.Chemscore.Hbonds>
donor molecule, donor type, donor heavy atom, donor atom, acceptor molecule, acceptor atom, score
      L1  H     1    31       P1  8028  1.70
      L1  H    12    30       P1  7957  0.78
      P1  H  7989  7998       L1    13  0.96
      P1  H  8011  8017       L1    12  1.00
      L1  C     9    27       P1  8028  0.23

> <Gold.PLP.Chemscore.Internal.Correction>
0.0279

> <Gold.Rescore>
     Score         DG    S(hbond)    S(metal)    S(lipo)     H(rot)  DE(clash)    DE(int)     intcor
     18.69     -19.76       2.85        0.00      81.18       1.86       0.86       0.21       ----

> <Gold.Chemscore.Fitness>
18.6875

> <Gold.Chemscore.DG>
-19.7632

> <Gold.Chemscore.ZeroCoef>
-5.4800

> <Gold.Chemscore.Hbond>
2.8545

> <Gold.Chemscore.Metal>
0.0000

> <Gold.Chemscore.Lipo>
81.1802

> <Gold.Chemscore.Internal_Hbond>
0.0000

> <Gold.Chemscore.DEClash>
0.8638

> <Gold.Chemscore.DEInternal>
0.2119

> <Gold.Chemscore.Rot>
1.8551

> <Gold.Chemscore.Internal.Correction>
   9.000000E+99

> <Gold.Chemscore.Hbonds>
donor molecule, donor type, donor heavy atom, donor atom, acceptor molecule, acceptor atom, score
      L1  H     1    31       P1  8028  0.84
      L1  H    12    30       P1  7957  0.73
      P1  H  7989  7998       L1    13  0.65
      P1  H  8011  8017       L1    12  0.38

> <Gold.Chemscore.Hbond.Weighted>
-9.5340

> <Gold.Chemscore.Metal.Weighted>
-0.0000

> <Gold.Chemscore.Lipo.Weighted>
-9.4981

> <Gold.Chemscore.Internal_Hbond.Weighted>
0.0000

> <Gold.Chemscore.DEClash.Weighted>
0.8638

> <Gold.Chemscore.DEInternal.Weighted>
0.2119

> <Gold.Chemscore.Rot.Weighted>
4.7489

> <Gold.Chemscore.Internal.Correction.Weighted>
   9.000000E+99

> <Gold.Protein.RotatedTorsions>
[ 6907 6896 6895 6894 ] final -122.83 input  -60.11 | X-H torsion
[ 7974 7965 7964 7962 ] final  178.99 input  175.53 | X-H torsion
[ 8008 7997 7996 7995 ] final -149.58 input   59.86 | X-H torsion
[ 10167 10162 10161 10158 ] final  -66.72 input  -65.29 | X-H torsion
[ 10718 10713 10712 10709 ] final   98.26 input   66.30 | X-H torsion
[ 10763 10752 10751 10750 ] final  -12.09 input  -60.55 | X-H torsion
[ 11005 11000 10999 10996 ] final -142.94 input  -57.11 | X-H torsion

> <Gold.Protein.ActiveResidues>
 VAL166  LYS551  ARG553  GLY616  TRP617  ASP618  TYR619  PRO620  LYS621  CYS622 
 ASP623  PHE694  ASN695  SER759  ASP760  ASP761  ALA762  ILE779  LEU786  VAL792 
 PHE793  MET794  SER795  GLU796  ALA797  LYS798  CYS799  TRP800  GLU811  SER814 

> <Gold.Protein.RotatedAtoms>
  150.8613  133.7640  159.2991 H   0  0  0  0  0  0  0  0  0  0  0  0  # atno 6907 bound_to 6896
  151.5281  135.1066  159.9905 H   0  0  0  0  0  0  0  0  0  0  0  0  # atno 6908 bound_to 6896
  152.4628  133.7814  159.6909 H   0  0  0  0  0  0  0  0  0  0  0  0  # atno 6909 bound_to 6896
  144.7150  140.0481  143.6436 H   0  0  0  0  0  0  0  0  0  0  0  0  # atno 7974 bound_to 7965
  155.6098  140.0670  157.2709 H   0  0  0  0  0  0  0  0  0  0  0  0  # atno 8008 bound_to 7997
  154.4256  140.1803  156.1308 H   0  0  0  0  0  0  0  0  0  0  0  0  # atno 8009 bound_to 7997
  156.0093  140.3328  155.6928 H   0  0  0  0  0  0  0  0  0  0  0  0  # atno 8010 bound_to 7997
  140.5636  143.2314  151.6679 H   0  0  0  0  0  0  0  0  0  0  0  0  # atno 10167 bound_to 10162
  157.6899  131.0634  150.4769 H   0  0  0  0  0  0  0  0  0  0  0  0  # atno 10718 bound_to 10713
  153.4934  135.7017  153.5872 H   0  0  0  0  0  0  0  0  0  0  0  0  # atno 10763 bound_to 10752
  153.4034  135.3866  155.2003 H   0  0  0  0  0  0  0  0  0  0  0  0  # atno 10764 bound_to 10752
  154.8715  135.3887  154.4397 H   0  0  0  0  0  0  0  0  0  0  0  0  # atno 10765 bound_to 10752
  140.8175  134.2671  157.4915 H   0  0  0  0  0  0  0  0  0  0  0  0  # atno 11005 bound_to 11000
  145.9967  139.3058  143.0952 LP  0  0  0  0  0  0  0  0  0  0  0  0  # atno 17320 bound_to 7965
  145.8841  140.9345  143.0586 LP  0  0  0  0  0  0  0  0  0  0  0  0  # atno 17321 bound_to 7965
  139.5082  144.3620  152.0553 LP  0  0  0  0  0  0  0  0  0  0  0  0  # atno 17342 bound_to 10162
  140.2749  144.3923  150.6138 LP  0  0  0  0  0  0  0  0  0  0  0  0  # atno 17343 bound_to 10162
  156.5103  130.4138  149.6305 LP  0  0  0  0  0  0  0  0  0  0  0  0  # atno 17370 bound_to 10713
  156.3247  130.7299  151.2217 LP  0  0  0  0  0  0  0  0  0  0  0  0  # atno 17371 bound_to 10713
  139.8710  134.9517  156.4093 LP  0  0  0  0  0  0  0  0  0  0  0  0  # atno 17394 bound_to 11000
  140.9134  133.7696  155.9819 LP  0  0  0  0  0  0  0  0  0  0  0  0  # atno 17395 bound_to 11000

$$$$
