AV-unprocessed.smi:1525|AV-procd|sdf|6145|dock2
  -GOLD-   22720 6293D 1   1.00000     0.00000
 Structure written by MMmdl.
 49 51  0  0  0  0  0  0  0  0  4 V2000
  151.0058  137.8957  158.8071 O   0  0  0  0  0  0  0  0  0  0  0  0
  150.0088  137.8278  158.0791 C   0  0  0  0  0  0  0  0  0  0  0  0
  149.2162  136.7470  157.8508 N   0  5  0  0  0  0  0  0  0  0  0  0
  149.5106  135.6821  156.8936 C   0  0  0  0  0  0  0  0  0  0  0  0
  149.2175  136.1660  155.4587 C   0  0  0  0  0  0  0  0  0  0  0  0
  148.3122  135.2383  154.7309 N   0  3  0  0  0  0  0  0  0  0  0  0
  148.7414  133.8157  154.7794 C   0  0  0  0  0  0  0  0  0  0  0  0
  147.7882  132.9399  153.9501 C   0  0  0  0  0  0  0  0  0  0  0  0
  146.4585  133.0928  154.4315 O   0  0  0  0  0  0  0  0  0  0  0  0
  146.0015  134.4346  154.3158 C   0  0  0  0  0  0  0  0  0  0  0  0
  146.8965  135.3612  155.1554 C   0  0  0  0  0  0  0  0  0  0  0  0
  149.5843  138.9106  157.4075 N   0  0  0  0  0  0  0  0  0  0  0  0
  150.1010  140.2348  157.4392 C   0  0  0  0  0  0  0  0  0  0  0  0
  151.3151  140.5427  158.1028 C   0  0  0  0  0  0  0  0  0  0  0  0
  151.8119  141.8605  158.0772 C   0  0  0  0  0  0  0  0  0  0  0  0
  151.0943  142.8478  157.3772 C   0  0  0  0  0  0  0  0  0  0  0  0
  149.9504  142.5196  156.7407 N   0  3  0  0  0  0  0  0  0  0  0  0
  149.4272  141.2727  156.7367 C   0  0  0  0  0  0  0  0  0  0  0  0
  148.2265  141.1193  156.0223 N   0  0  0  0  0  0  0  0  0  0  0  0
  148.3132  141.2274  154.5689 C   0  0  0  0  0  0  0  0  0  0  0  0
  147.2512  142.2460  154.1440 C   0  0  0  0  0  0  0  0  0  0  0  0
  146.2324  142.1842  155.2768 C   0  0  0  0  0  0  0  0  0  0  0  0
  147.1032  141.9142  156.5032 C   0  0  0  0  0  0  0  0  0  0  0  0
  150.5462  135.3438  156.9535 H   0  0  0  0  0  0  0  0  0  0  0  0
  148.9069  134.7980  157.0988 H   0  0  0  0  0  0  0  0  0  0  0  0
  148.7985  137.1737  155.4629 H   0  0  0  0  0  0  0  0  0  0  0  0
  150.1670  136.2388  154.9255 H   0  0  0  0  0  0  0  0  0  0  0  0
  149.7573  133.7123  154.3964 H   0  0  0  0  0  0  0  0  0  0  0  0
  148.7549  133.4721  155.8149 H   0  0  0  0  0  0  0  0  0  0  0  0
  147.8390  133.2024  152.8921 H   0  0  0  0  0  0  0  0  0  0  0  0
  148.0750  131.8915  154.0323 H   0  0  0  0  0  0  0  0  0  0  0  0
  145.9977  134.7415  153.2686 H   0  0  0  0  0  0  0  0  0  0  0  0
  144.9711  134.4887  154.6671 H   0  0  0  0  0  0  0  0  0  0  0  0
  146.8083  135.1121  156.2141 H   0  0  0  0  0  0  0  0  0  0  0  0
  146.5633  136.3932  155.0377 H   0  0  0  0  0  0  0  0  0  0  0  0
  148.7111  138.7942  156.9144 H   0  0  0  0  0  0  0  0  0  0  0  0
  151.8800  139.7811  158.6190 H   0  0  0  0  0  0  0  0  0  0  0  0
  152.7344  142.1073  158.5820 H   0  0  0  0  0  0  0  0  0  0  0  0
  151.4013  143.8807  157.3017 H   0  0  0  0  0  0  0  0  0  0  0  0
  149.3065  141.5103  154.2176 H   0  0  0  0  0  0  0  0  0  0  0  0
  148.0855  140.2488  154.1456 H   0  0  0  0  0  0  0  0  0  0  0  0
  147.6892  143.2438  154.0974 H   0  0  0  0  0  0  0  0  0  0  0  0
  146.8190  142.0254  153.1677 H   0  0  0  0  0  0  0  0  0  0  0  0
  145.6387  143.0942  155.3686 H   0  0  0  0  0  0  0  0  0  0  0  0
  145.5501  141.3485  155.1145 H   0  0  0  0  0  0  0  0  0  0  0  0
  146.5493  141.3772  157.2735 H   0  0  0  0  0  0  0  0  0  0  0  0
  147.4474  142.8534  156.9372 H   0  0  0  0  0  0  0  0  0  0  0  0
  148.3406  135.5256  153.7628 H   0  0  0  0  0  0  0  0  0  0  0  0
  149.4514  143.2525  156.2359 H   0  0  0  0  0  0  0  0  0  0  0  0
  1  2  2  0  0  0  0
  2  3  1  0  0  0  0
  2 12  1  0  0  0  0
  3  4  1  0  0  0  0
  4  5  1  0  0  0  0
  4 24  1  0  0  0  0
  4 25  1  0  0  0  0
  5  6  1  0  0  0  0
  5 26  1  0  0  0  0
  5 27  1  0  0  0  0
  6 11  1  0  0  0  0
  6  7  1  0  0  0  0
  6 48  1  0  0  0  0
  7  8  1  0  0  0  0
  7 28  1  0  0  0  0
  7 29  1  0  0  0  0
  8  9  1  0  0  0  0
  8 30  1  0  0  0  0
  8 31  1  0  0  0  0
  9 10  1  0  0  0  0
 10 11  1  0  0  0  0
 10 32  1  0  0  0  0
 10 33  1  0  0  0  0
 11 34  1  0  0  0  0
 11 35  1  0  0  0  0
 12 13  1  0  0  0  0
 12 36  1  0  0  0  0
 13 18  1  0  0  0  0
 13 14  2  0  0  0  0
 14 15  1  0  0  0  0
 14 37  1  0  0  0  0
 15 16  2  0  0  0  0
 15 38  1  0  0  0  0
 16 17  1  0  0  0  0
 16 39  1  0  0  0  0
 17 18  2  0  0  0  0
 17 49  1  0  0  0  0
 18 19  1  0  0  0  0
 19 23  1  0  0  0  0
 19 20  1  0  0  0  0
 20 21  1  0  0  0  0
 20 40  1  0  0  0  0
 20 41  1  0  0  0  0
 21 22  1  0  0  0  0
 21 42  1  0  0  0  0
 21 43  1  0  0  0  0
 22 23  1  0  0  0  0
 22 44  1  0  0  0  0
 22 45  1  0  0  0  0
 23 46  1  0  0  0  0
 23 47  1  0  0  0  0
M  CHG  1   3  -1
M  CHG  1   6   1
M  CHG  1  17   1
M  END
> <s_m_source_file>
AV-unprocessed.smi

> <i_m_source_file_index>
1525

> <i_lp_mmshare_version>
43012

> <i_f3d_flags>
0

> <s_epik_input>
W0NIMl0xW0NIMl1PW0NIMl1bQ0gyXU4xW0NIMl1bQ0gyXVtOSF1DKD1PKVtOSF1jMltjSF1bY0hdW2NIXW5jMk4zW0NIMl1bQ0gyXVtDSDJdW0NIMl0z

> <s_epik_cmdline>
J2VwaWtfcHl0aG9uJywgJy1waCcsICc3LjAnLCAnLXRuJywgJzgnLCAnLW1hJywgJzIwMCcsICctbWV0YWxfYmluZGluZycsICctaW1hZScsICc8aW5maWxlLm1hZT4nLCAnLW9tYWUnLCAnPG91dGZpbGUubWFlPic=

> <r_lp_tautomer_probability>
0.999994

> <r_epik_Ionization_Penalty>
8.59159

> <r_epik_Ionization_Penalty_Charging>
8.59159

> <r_epik_Ionization_Penalty_Neutral>
3.55275e-06

> <r_epik_State_Penalty>
8.58545

> <r_epik_Charging_Adjusted_Penalty>
17.177

> <i_epik_Tot_Q>
1

> <i_epik_Tot_abs_Q>
3

> <r_epik_Metal_State_Penalty>
4.58086

> <b_epik_Metal_Only>
1

> <s_lp_Force_Field>
OPLS_2005

> <r_lp_Energy>
45.7376

> <b_lp_Chiralities_Consistent>
1

> <s_lp_Variant>
AV-unprocessed.smi:1525-5

> <Gold.Version>
5.8.1

> <Gold.Id.Protein>
6NUR|6NUR_protein|mol2

> <Gold.PLP.Fitness>
41.4856

> <Gold.PLP.PLP>
-32.0164

> <Gold.PLP.part.hbond>
-2.0000

> <Gold.PLP.part.metal>
0.0000

> <Gold.PLP.part.buried>
-6.0010

> <Gold.PLP.part.nonpolar>
-24.2159

> <Gold.PLP.part.repulsive>
0.2272

> <Gold.PLP.ligand.clash>
0.0000

> <Gold.PLP.ligand.torsion>
1.3897

> <Gold.PLP.Chemscore.Hbond>
4.0000

> <Gold.PLP.Chemscore.CHOScore>
0.0000

> <Gold.PLP.Chemscore.Metal>
0.0000

> <Gold.Chemscore.Hbonds>
donor molecule, donor type, donor heavy atom, donor atom, acceptor molecule, acceptor atom, score
      L1  H     6    48       P1  7948  1.62
      L1  H    17    49       P1  8028  2.00

> <Gold.PLP.Chemscore.Internal.Correction>
0.2485

> <Gold.Rescore>
     Score         DG    S(hbond)    S(metal)    S(lipo)     H(rot)  DE(clash)    DE(int)     intcor
     13.49     -16.50       1.98        0.00      74.04       1.66       0.02       2.99       ----

> <Gold.Chemscore.Fitness>
13.4906

> <Gold.Chemscore.DG>
-16.4986

> <Gold.Chemscore.ZeroCoef>
-5.4800

> <Gold.Chemscore.Hbond>
1.9800

> <Gold.Chemscore.Metal>
0.0000

> <Gold.Chemscore.Lipo>
74.0427

> <Gold.Chemscore.Internal_Hbond>
0.0000

> <Gold.Chemscore.DEClash>
0.0202

> <Gold.Chemscore.DEInternal>
2.9878

> <Gold.Chemscore.Rot>
1.6632

> <Gold.Chemscore.Internal.Correction>
   9.000000E+99

> <Gold.Chemscore.Hbonds>
donor molecule, donor type, donor heavy atom, donor atom, acceptor molecule, acceptor atom, score
      L1  H     6    48       P1  7948  0.80
      L1  H    17    49       P1  8028  1.00

> <Gold.Chemscore.Hbond.Weighted>
-6.6133

> <Gold.Chemscore.Metal.Weighted>
-0.0000

> <Gold.Chemscore.Lipo.Weighted>
-8.6630

> <Gold.Chemscore.Internal_Hbond.Weighted>
0.0000

> <Gold.Chemscore.DEClash.Weighted>
0.0202

> <Gold.Chemscore.DEInternal.Weighted>
2.9878

> <Gold.Chemscore.Rot.Weighted>
4.2577

> <Gold.Chemscore.Internal.Correction.Weighted>
   9.000000E+99

> <Gold.Protein.RotatedTorsions>
[ 6907 6896 6895 6894 ] final    9.55 input  -60.11 | X-H torsion
[ 7974 7965 7964 7962 ] final -153.14 input  175.53 | X-H torsion
[ 8008 7997 7996 7995 ] final   61.18 input   59.86 | X-H torsion
[ 10167 10162 10161 10158 ] final -132.20 input  -65.29 | X-H torsion
[ 10718 10713 10712 10709 ] final  171.69 input   66.30 | X-H torsion
[ 10763 10752 10751 10750 ] final  167.73 input  -60.55 | X-H torsion
[ 11005 11000 10999 10996 ] final   48.62 input  -57.11 | X-H torsion

> <Gold.Protein.ActiveResidues>
 VAL166  LYS551  ARG553  GLY616  TRP617  ASP618  TYR619  PRO620  LYS621  CYS622 
 ASP623  PHE694  ASN695  SER759  ASP760  ASP761  ALA762  ILE779  LEU786  VAL792 
 PHE793  MET794  SER795  GLU796  ALA797  LYS798  CYS799  TRP800  GLU811  SER814 

> <Gold.Protein.RotatedAtoms>
  151.7239  135.0888  160.0288 H   0  0  0  0  0  0  0  0  0  0  0  0  # atno 6907 bound_to 6896
  152.3584  133.6262  159.6005 H   0  0  0  0  0  0  0  0  0  0  0  0  # atno 6908 bound_to 6896
  150.7587  133.9379  159.3488 H   0  0  0  0  0  0  0  0  0  0  0  0  # atno 6909 bound_to 6896
  144.7756  140.4566  143.5876 H   0  0  0  0  0  0  0  0  0  0  0  0  # atno 7974 bound_to 7965
  155.5942  140.3493  155.4575 H   0  0  0  0  0  0  0  0  0  0  0  0  # atno 8008 bound_to 7997
  156.0278  140.1268  157.0315 H   0  0  0  0  0  0  0  0  0  0  0  0  # atno 8009 bound_to 7997
  154.4340  140.1049  156.6042 H   0  0  0  0  0  0  0  0  0  0  0  0  # atno 8010 bound_to 7997
  139.9110  143.6494  152.2575 H   0  0  0  0  0  0  0  0  0  0  0  0  # atno 10167 bound_to 10162
  156.9898  131.0144  151.2859 H   0  0  0  0  0  0  0  0  0  0  0  0  # atno 10718 bound_to 10713
  154.3581  135.2753  155.2335 H   0  0  0  0  0  0  0  0  0  0  0  0  # atno 10763 bound_to 10752
  154.4535  135.5925  153.6211 H   0  0  0  0  0  0  0  0  0  0  0  0  # atno 10764 bound_to 10752
  152.9845  135.6047  154.3799 H   0  0  0  0  0  0  0  0  0  0  0  0  # atno 10765 bound_to 10752
  140.1174  134.4874  155.8626 H   0  0  0  0  0  0  0  0  0  0  0  0  # atno 11005 bound_to 11000
  145.6195  139.1522  143.3030 LP  0  0  0  0  0  0  0  0  0  0  0  0  # atno 17320 bound_to 7965
  146.1933  140.6306  142.9135 LP  0  0  0  0  0  0  0  0  0  0  0  0  # atno 17321 bound_to 7965
  139.6942  144.7643  151.1385 LP  0  0  0  0  0  0  0  0  0  0  0  0  # atno 17342 bound_to 10162
  140.7685  143.5546  150.9166 LP  0  0  0  0  0  0  0  0  0  0  0  0  # atno 17343 bound_to 10162
  157.5467  130.8155  149.8094 LP  0  0  0  0  0  0  0  0  0  0  0  0  # atno 17370 bound_to 10713
  156.0211  130.3795  150.1958 LP  0  0  0  0  0  0  0  0  0  0  0  0  # atno 17371 bound_to 10713
  141.2144  133.6748  156.6823 LP  0  0  0  0  0  0  0  0  0  0  0  0  # atno 17394 bound_to 11000
  140.3010  134.8164  157.4097 LP  0  0  0  0  0  0  0  0  0  0  0  0  # atno 17395 bound_to 11000

$$$$
