AV-unprocessed.smi:1641|AV-procd|sdf|6559|dock2
  -GOLD-   22720 7243D 1   1.00000     0.00000
 Structure written by MMmdl.
 42 43  0  0  0  0  0  0  0  0  2 V2000
  150.3913  142.3525  157.8307 C   0  0  0  0  0  0  0  0  0  0  0  0
  150.2477  141.5178  156.6043 C   0  0  0  0  0  0  0  0  0  0  0  0
  151.2827  140.8981  156.0242 N   0  0  0  0  0  0  0  0  0  0  0  0
  150.9033  140.1832  154.8966 N   0  0  0  0  0  0  0  0  0  0  0  0
  149.5887  140.2873  154.6582 C   0  0  0  0  0  0  0  0  0  0  0  0
  148.9325  139.6587  153.5668 N   0  0  0  0  0  0  0  0  0  0  0  0
  147.7148  139.0891  153.5444 C   0  0  0  0  0  0  0  0  0  0  0  0
  146.9375  139.0286  154.4973 O   0  0  0  0  0  0  0  0  0  0  0  0
  147.4368  138.5794  152.3356 N   0  0  0  0  0  0  0  0  0  0  0  0
  146.1950  137.8991  151.9861 C   0  0  0  0  0  0  0  0  0  0  0  0
  145.9701  136.6467  152.8558 C   0  0  0  0  0  0  0  0  0  0  0  0
  146.6042  135.4346  152.2802 N   0  3  1  0  0  0  0  0  0  0  0  0
  147.0974  134.5057  153.3246 C   0  0  0  0  0  0  0  0  0  0  0  0
  147.8000  133.2936  152.6837 C   0  0  1  0  0  0  0  0  0  0  0  0
  148.2560  132.2682  153.7273 C   0  0  0  0  0  0  0  0  0  0  0  0
  146.8938  132.6478  151.7968 O   0  0  0  0  0  0  0  0  0  0  0  0
  146.4735  133.4938  150.7325 C   0  0  1  0  0  0  0  0  0  0  0  0
  145.5820  132.6724  149.7951 C   0  0  0  0  0  0  0  0  0  0  0  0
  145.7350  134.7117  151.3189 C   0  0  0  0  0  0  0  0  0  0  0  0
  148.6999  141.2776  155.8031 S   0  0  0  0  0  0  0  0  0  0  0  0
  151.2821  142.0625  158.3886 H   0  0  0  0  0  0  0  0  0  0  0  0
  149.5212  142.2258  158.4749 H   0  0  0  0  0  0  0  0  0  0  0  0
  150.4752  143.4044  157.5567 H   0  0  0  0  0  0  0  0  0  0  0  0
  149.4548  139.6380  152.7033 H   0  0  0  0  0  0  0  0  0  0  0  0
  148.1277  138.6756  151.6054 H   0  0  0  0  0  0  0  0  0  0  0  0
  145.3683  138.6039  152.0777 H   0  0  0  0  0  0  0  0  0  0  0  0
  146.2471  137.6166  150.9343 H   0  0  0  0  0  0  0  0  0  0  0  0
  146.3966  136.8393  153.8415 H   0  0  0  0  0  0  0  0  0  0  0  0
  144.9064  136.4605  153.0125 H   0  0  0  0  0  0  0  0  0  0  0  0
  147.7943  135.0270  153.9822 H   0  0  0  0  0  0  0  0  0  0  0  0
  146.2599  134.1754  153.9413 H   0  0  0  0  0  0  0  0  0  0  0  0
  148.6741  133.6289  152.1225 H   0  0  0  0  0  0  0  0  0  0  0  0
  148.9658  132.7085  154.4279 H   0  0  0  0  0  0  0  0  0  0  0  0
  148.7458  131.4194  153.2494 H   0  0  0  0  0  0  0  0  0  0  0  0
  147.4117  131.8855  154.3014 H   0  0  0  0  0  0  0  0  0  0  0  0
  147.3487  133.8288  150.1726 H   0  0  0  0  0  0  0  0  0  0  0  0
  145.2363  133.2737  148.9540 H   0  0  0  0  0  0  0  0  0  0  0  0
  144.7042  132.2914  150.3179 H   0  0  0  0  0  0  0  0  0  0  0  0
  146.1252  131.8177  149.3910 H   0  0  0  0  0  0  0  0  0  0  0  0
  144.8224  134.3906  151.8239 H   0  0  0  0  0  0  0  0  0  0  0  0
  145.4338  135.3731  150.5071 H   0  0  0  0  0  0  0  0  0  0  0  0
  147.4185  135.7463  151.7704 H   0  0  0  0  0  0  0  0  0  0  0  0
  1  2  1  0  0  0  0
  1 21  1  0  0  0  0
  1 22  1  0  0  0  0
  1 23  1  0  0  0  0
  2 20  1  0  0  0  0
  2  3  2  0  0  0  0
  3  4  1  0  0  0  0
  4  5  2  0  0  0  0
  5  6  1  0  0  0  0
  5 20  1  0  0  0  0
  6  7  1  0  0  0  0
  6 24  1  0  0  0  0
  7  8  2  0  0  0  0
  7  9  1  0  0  0  0
  9 10  1  0  0  0  0
  9 25  1  0  0  0  0
 10 11  1  0  0  0  0
 10 26  1  0  0  0  0
 10 27  1  0  0  0  0
 11 12  1  0  0  0  0
 11 28  1  0  0  0  0
 11 29  1  0  0  0  0
 12 19  1  0  0  0  0
 12 13  1  0  0  0  0
 12 42  1  0  0  0  0
 13 14  1  0  0  0  0
 13 30  1  0  0  0  0
 13 31  1  0  0  0  0
 14 15  1  0  0  0  0
 14 16  1  0  0  0  0
 14 32  1  0  0  0  0
 15 33  1  0  0  0  0
 15 34  1  0  0  0  0
 15 35  1  0  0  0  0
 16 17  1  0  0  0  0
 17 18  1  0  0  0  0
 17 19  1  0  0  0  0
 17 36  1  0  0  0  0
 18 37  1  0  0  0  0
 18 38  1  0  0  0  0
 18 39  1  0  0  0  0
 19 40  1  0  0  0  0
 19 41  1  0  0  0  0
M  CHG  1  12   1
M  END
> <s_m_source_file>
AV-unprocessed.smi

> <i_m_source_file_index>
1641

> <i_lp_mmshare_version>
43012

> <i_f3d_flags>
0

> <s_epik_input>
W0NIM11jMW5uYyhzMSlbTkhdQyg9TylbTkhdW0NIMl1bQ0gyXU4yW0NIMl1bQ0BASF0oW0NIM10pT1tDQEBIXShbQ0gzXSlbQ0gyXTI=

> <s_epik_cmdline>
J2VwaWtfcHl0aG9uJywgJy1waCcsICc3LjAnLCAnLXRuJywgJzgnLCAnLW1hJywgJzIwMCcsICctbWV0YWxfYmluZGluZycsICctaW1hZScsICc8aW5maWxlLm1hZT4nLCAnLW9tYWUnLCAnPG91dGZpbGUubWFlPic=

> <r_lp_tautomer_probability>
1

> <r_epik_Ionization_Penalty>
0.700114

> <r_epik_Ionization_Penalty_Charging>
0.695697

> <r_epik_Ionization_Penalty_Neutral>
0.00441638

> <r_epik_State_Penalty>
0.717972

> <r_epik_Charging_Adjusted_Penalty>
1.41367

> <i_epik_Tot_Q>
1

> <i_epik_Tot_abs_Q>
1

> <r_epik_Metal_State_Penalty>
1.06958

> <b_epik_Metal_Only>
0

> <s_lp_Force_Field>
OPLS_2005

> <r_lp_Energy>
12.6792

> <b_lp_Chiralities_Consistent>
1

> <s_lp_Variant>
AV-unprocessed.smi:1641-4

> <Gold.Version>
5.8.1

> <Gold.Id.Protein>
6NUR|6NUR_protein|mol2

> <Gold.PLP.Fitness>
45.9372

> <Gold.PLP.PLP>
-33.5739

> <Gold.PLP.part.hbond>
-5.0577

> <Gold.PLP.part.metal>
0.0000

> <Gold.PLP.part.buried>
-1.6842

> <Gold.PLP.part.nonpolar>
-25.9854

> <Gold.PLP.part.repulsive>
0.5645

> <Gold.PLP.ligand.clash>
0.0000

> <Gold.PLP.ligand.torsion>
0.8364

> <Gold.PLP.Chemscore.Hbond>
4.6640

> <Gold.PLP.Chemscore.CHOScore>
0.0000

> <Gold.PLP.Chemscore.Metal>
0.0000

> <Gold.Chemscore.Hbonds>
donor molecule, donor type, donor heavy atom, donor atom, acceptor molecule, acceptor atom, score
      L1  H     6    24       P1  7957  1.00
      L1  H     9    25       P1  7957  0.74
      L1  H    12    42       P1  7948  1.92
      P1  H  7989  7998       L1     4  1.00

> <Gold.PLP.Chemscore.Internal.Correction>
0.0440

> <Gold.Rescore>
     Score         DG    S(hbond)    S(metal)    S(lipo)     H(rot)  DE(clash)    DE(int)     intcor
     17.71     -19.86       3.44        0.00      60.44       1.64       0.42       1.73       ----

> <Gold.Chemscore.Fitness>
17.7100

> <Gold.Chemscore.DG>
-19.8620

> <Gold.Chemscore.ZeroCoef>
-5.4800

> <Gold.Chemscore.Hbond>
3.4426

> <Gold.Chemscore.Metal>
0.0000

> <Gold.Chemscore.Lipo>
60.4399

> <Gold.Chemscore.Internal_Hbond>
0.0000

> <Gold.Chemscore.DEClash>
0.4232

> <Gold.Chemscore.DEInternal>
1.7288

> <Gold.Chemscore.Rot>
1.6358

> <Gold.Chemscore.Internal.Correction>
   9.000000E+99

> <Gold.Chemscore.Hbonds>
donor molecule, donor type, donor heavy atom, donor atom, acceptor molecule, acceptor atom, score
      L1  H     6    24       P1  7957  0.94
      L1  H     9    25       P1  7957  0.42
      L1  H    12    42       P1  7948  0.90
      P1  H  7989  7998       L1     4  0.33

> <Gold.Chemscore.Hbond.Weighted>
-11.4983

> <Gold.Chemscore.Metal.Weighted>
-0.0000

> <Gold.Chemscore.Lipo.Weighted>
-7.0715

> <Gold.Chemscore.Internal_Hbond.Weighted>
0.0000

> <Gold.Chemscore.DEClash.Weighted>
0.4232

> <Gold.Chemscore.DEInternal.Weighted>
1.7288

> <Gold.Chemscore.Rot.Weighted>
4.1878

> <Gold.Chemscore.Internal.Correction.Weighted>
   9.000000E+99

> <Gold.Protein.RotatedTorsions>
[ 6907 6896 6895 6894 ] final  -53.51 input  -60.11 | X-H torsion
[ 7974 7965 7964 7962 ] final -168.70 input  175.53 | X-H torsion
[ 8008 7997 7996 7995 ] final  -20.89 input   59.86 | X-H torsion
[ 10167 10162 10161 10158 ] final -157.17 input  -65.29 | X-H torsion
[ 10718 10713 10712 10709 ] final -150.99 input   66.30 | X-H torsion
[ 10763 10752 10751 10750 ] final   20.19 input  -60.55 | X-H torsion
[ 11005 11000 10999 10996 ] final  -53.88 input  -57.11 | X-H torsion

> <Gold.Protein.ActiveResidues>
 VAL166  LYS551  ARG553  GLY616  TRP617  ASP618  TYR619  PRO620  LYS621  CYS622 
 ASP623  PHE694  ASN695  SER759  ASP760  ASP761  ALA762  ILE779  LEU786  VAL792 
 PHE793  MET794  SER795  GLU796  ALA797  LYS798  CYS799  TRP800  GLU811  SER814 

> <Gold.Protein.RotatedAtoms>
  150.8420  134.7716  159.6939 H   0  0  0  0  0  0  0  0  0  0  0  0  # atno 6907 bound_to 6896
  152.4506  134.5399  159.9846 H   0  0  0  0  0  0  0  0  0  0  0  0  # atno 6908 bound_to 6896
  151.5537  133.3375  159.2993 H   0  0  0  0  0  0  0  0  0  0  0  0  # atno 6909 bound_to 6896
  144.7198  140.2331  143.6301 H   0  0  0  0  0  0  0  0  0  0  0  0  # atno 7974 bound_to 7965
  154.4740  140.2049  155.9923 H   0  0  0  0  0  0  0  0  0  0  0  0  # atno 8008 bound_to 7997
  156.1059  140.3236  155.7976 H   0  0  0  0  0  0  0  0  0  0  0  0  # atno 8009 bound_to 7997
  155.4718  140.0532  157.2969 H   0  0  0  0  0  0  0  0  0  0  0  0  # atno 8010 bound_to 7997
  139.6792  143.9611  152.2327 H   0  0  0  0  0  0  0  0  0  0  0  0  # atno 10167 bound_to 10162
  156.4533  130.8178  151.2409 H   0  0  0  0  0  0  0  0  0  0  0  0  # atno 10718 bound_to 10713
  153.1098  135.6694  153.9521 H   0  0  0  0  0  0  0  0  0  0  0  0  # atno 10763 bound_to 10752
  153.9068  135.3029  155.3450 H   0  0  0  0  0  0  0  0  0  0  0  0  # atno 10764 bound_to 10752
  154.7518  135.5031  153.9379 H   0  0  0  0  0  0  0  0  0  0  0  0  # atno 10765 bound_to 10752
  141.0998  133.6619  156.4238 H   0  0  0  0  0  0  0  0  0  0  0  0  # atno 11005 bound_to 11000
  145.8391  139.2121  143.1838 LP  0  0  0  0  0  0  0  0  0  0  0  0  # atno 17320 bound_to 7965
  146.0362  140.8210  142.9851 LP  0  0  0  0  0  0  0  0  0  0  0  0  # atno 17321 bound_to 7965
  139.9396  144.6690  150.8280 LP  0  0  0  0  0  0  0  0  0  0  0  0  # atno 17342 bound_to 10162
  140.7646  143.3253  151.2529 LP  0  0  0  0  0  0  0  0  0  0  0  0  # atno 17343 bound_to 10162
  157.7502  131.0131  150.3410 LP  0  0  0  0  0  0  0  0  0  0  0  0  # atno 17370 bound_to 10713
  156.3793  130.3877  149.7114 LP  0  0  0  0  0  0  0  0  0  0  0  0  # atno 17371 bound_to 10713
  140.5050  134.6449  157.5263 LP  0  0  0  0  0  0  0  0  0  0  0  0  # atno 17394 bound_to 11000
  139.9846  134.7082  155.9797 LP  0  0  0  0  0  0  0  0  0  0  0  0  # atno 17395 bound_to 11000

$$$$
