#       Name:                AV-unprocessed.smi:54
#       Creating user name   scv26
#       Creation time:       Thu Mar 26 16:43:35 2020


#       File generated by GOLD software.
#

@<TRIPOS>MOLECULE
AV-unprocessed.smi:54
    58    60     1
SMALL
NO_CHARGES


@<TRIPOS>ATOM
      1 ****        -1.0121   5.5247  -1.0015 C.3            1 S1                 0.0000
      2 ****        -1.2194   4.8326   0.3549 C.3            1 S1                 0.0000
      3 ****        -0.3374   5.4639   1.4446 C.3            1 S1                 0.0000
      4 ****        -0.9472   3.3285   0.2385 C.2            1 S1                 0.0000
      5 ****         0.1785   2.8830   0.0107 O.2            1 S1                 0.0000
      6 ****        -2.1073   2.4716   0.4043 N.am           1 S1                 0.0000
      7 ****        -2.1379   1.1201   0.3505 C.2            1 S1                 0.0000
      8 ****        -1.0519   0.3683   0.4634 N.2            1 S1                 0.0000
      9 ****        -1.2844  -0.9774   0.3957 C.2            1 S1                 0.0000
     10 ****        -2.5065  -1.5948   0.2319 C.2            1 S1                 0.0000
     11 ****        -2.3451  -2.9757   0.2058 N.2            1 S1                 0.0000
     12 ****        -1.0603  -3.1478   0.3500 C.2            1 S1                 0.0000
     13 ****        -0.3427  -1.9805   0.4712 N.pl3          1 S1                 0.0000
     14 ****         1.1277  -1.7802   0.6498 C.3            1 S1                 0.0000
     15 ****         1.6885  -3.0059   1.0269 O.3            1 S1                 0.0000
     16 ****         2.6199  -3.4450   0.0425 C.3            1 S1                 0.0000
     17 ****         2.6861  -4.9821  -0.0220 C.3            1 S1                 0.0000
     18 ****         1.5621  -5.5434  -0.6677 O.3            1 S1                 0.0000
     19 ****         2.2341  -2.7054  -1.2401 C.3            1 S1                 0.0000
     20 ****         3.3052  -2.5718  -2.1546 O.3            1 S1                 0.0000
     21 ****         1.7536  -1.3679  -0.6928 C.3            1 S1                 0.0000
     22 ****         2.7998  -0.4339  -0.4945 O.3            1 S1                 0.0000
     23 ****        -3.6920  -0.7949   0.1188 C.2            1 S1                 0.0000
     24 ****        -4.8537  -1.1692  -0.0268 O.2            1 S1                 0.0000
     25 ****        -3.4126   0.5762   0.1920 N.am           1 S1                 0.0000
     26 ****         1.2073  -1.0319   1.4397 H              1 S1                 0.0000
     27 ****         3.5911  -3.0770   0.3783 H              1 S1                 0.0000
     28 ****         1.3999  -3.2026  -1.7361 H              1 S1                 0.0000
     29 ****         1.0138  -0.9050  -1.3477 H              1 S1                 0.0000
     30 ****        -1.6433   5.0817  -1.7730 H              1 S1                 0.0000
     31 ****         0.0239   5.4515  -1.3353 H              1 S1                 0.0000
     32 ****        -1.2660   6.5833  -0.9414 H              1 S1                 0.0000
     33 ****        -2.2615   4.9675   0.6482 H              1 S1                 0.0000
     34 ****        -0.4685   4.9605   2.4033 H              1 S1                 0.0000
     35 ****        -0.5914   6.5142   1.5903 H              1 S1                 0.0000
     36 ****         0.7207   5.4142   1.1838 H              1 S1                 0.0000
     37 ****        -2.9906   2.9421   0.5353 H              1 S1                 0.0000
     38 ****        -0.6092  -4.1286   0.3730 H              1 S1                 0.0000
     39 ****         3.5717  -5.2851  -0.5808 H              1 S1                 0.0000
     40 ****         2.7817  -5.4042   0.9785 H              1 S1                 0.0000
     41 ****         1.6691  -6.4820  -0.6957 H              1 S1                 0.0000
     42 ****         3.9811  -2.0532  -1.7449 H              1 S1                 0.0000
     43 ****         2.4268   0.3613  -0.1447 H              1 S1                 0.0000
     44 ****        -4.2015   1.2011   0.1172 H              1 S1                 0.0000
     45 ****         0.9500   3.5087  -0.1045 LP             1 S1                 0.0000
     46 ****         0.3208   1.8956  -0.0590 LP             1 S1                 0.0000
     47 ****        -0.1376   0.7537   0.5879 LP             1 S1                 0.0000
     48 ****        -3.0515  -3.6757   0.1007 LP             1 S1                 0.0000
     49 ****         0.9619  -3.6865   1.1209 LP             1 S1                 0.0000
     50 ****         2.1595  -2.8981   1.9024 LP             1 S1                 0.0000
     51 ****         1.4936  -5.1840  -1.5983 LP             1 S1                 0.0000
     52 ****         0.7319  -5.3138  -0.1597 LP             1 S1                 0.0000
     53 ****         2.9859  -2.1161  -2.9855 LP             1 S1                 0.0000
     54 ****         3.6660  -3.4749  -2.3874 LP             1 S1                 0.0000
     55 ****         3.2502  -0.2409  -1.3662 LP             1 S1                 0.0000
     56 ****         3.4673  -0.8062   0.1503 LP             1 S1                 0.0000
     57 ****        -5.0613  -2.1460  -0.0801 LP             1 S1                 0.0000
     58 ****        -5.5912  -0.4970  -0.0919 LP             1 S1                 0.0000
@<TRIPOS>BOND
    1    1    2 1     
    2    1   30 1     
    3    1   31 1     
    4    1   32 1     
    5    2    3 1     
    6    2    4 1     
    7    2   33 1     
    8    3   34 1     
    9    3   35 1     
   10    3   36 1     
   11    4    5 2     
   12    4    6 am    
   13    6   37 1     
   14    6    7 1     
   15    7   25 1     
   16    7    8 2     
   17    8    9 1     
   18    9   13 1     
   19    9   10 2     
   20   10   11 1     
   21   10   23 1     
   22   11   12 2     
   23   12   13 1     
   24   12   38 1     
   25   13   14 1     
   26   14   26 1     
   27   14   21 1     
   28   14   15 1     
   29   15   16 1     
   30   16   27 1     
   31   16   17 1     
   32   16   19 1     
   33   17   18 1     
   34   17   39 1     
   35   17   40 1     
   36   18   41 1     
   37   19   28 1     
   38   19   20 1     
   39   19   21 1     
   40   20   42 1     
   41   21   29 1     
   42   21   22 1     
   43   22   43 1     
   44   23   24 2     
   45   23   25 am    
   46   25   44 1     
   47    5   45 1     
   48    5   46 1     
   49    8   47 1     
   50   11   48 1     
   51   15   49 1     
   52   15   50 1     
   53   18   51 1     
   54   18   52 1     
   55   20   53 1     
   56   20   54 1     
   57   22   55 1     
   58   22   56 1     
   59   24   57 1     
   60   24   58 1     
@<TRIPOS>SUBSTRUCTURE
      1 S1             1
@<TRIPOS>SET
LONE_PAIRS      STATIC     ATOMS    <user>   **** ""
14 45 46 47 48 49 50 51 52 53 54 55 56 57 58
DONOR_HYDROGENS      STATIC     ATOMS    <user>   **** ""
5 37 41 42 43 44
ATOM$BLUE        STATIC     ATOMS    COLORGROUP SYSTEM
14 45 46 47 48 49 50 51 52 53 54 55 56 57 58
ATOM$RED        STATIC     ATOMS    COLORGROUP SYSTEM
5 37 41 42 43 44
