AV-unprocessed.smi:3061|AV-procd|sdf|11682|dock1
  -GOLD-   2272017 83D 1   1.00000     0.00000
 Structure written by MMmdl.
 35 36  0  0  0  0  0  0  0  0  1 V2000
  147.8086  141.6120  155.6401 C   0  0  0  0  0  0  0  0  0  0  0  0
  149.0137  140.6690  155.7694 C   0  0  1  0  0  0  0  0  0  0  0  0
  149.3574  139.9943  154.4277 C   0  0  0  0  0  0  0  0  0  0  0  0
  150.5310  139.1452  154.5284 N   0  0  0  0  0  0  0  0  0  0  0  0
  150.6633  137.8271  154.3727 C   0  0  0  0  0  0  0  0  0  0  0  0
  151.8999  137.3877  154.5607 N   0  0  0  0  0  0  0  0  0  0  0  0
  152.5213  138.5703  154.8472 C   0  0  0  0  0  0  0  0  0  0  0  0
  151.7459  139.6545  154.8411 N   0  0  0  0  0  0  0  0  0  0  0  0
  150.1706  141.4104  156.2665 N   0  0  0  0  0  0  0  0  0  0  0  0
  150.6657  141.3430  157.5114 C   0  0  0  0  0  0  0  0  0  0  0  0
  150.1600  140.6641  158.4058 O   0  0  0  0  0  0  0  0  0  0  0  0
  151.9359  142.1630  157.7848 C   0  0  1  0  0  0  0  0  0  0  0  0
  151.6801  143.6760  157.6295 C   0  0  0  0  0  0  0  0  0  0  0  0
  151.8302  144.2215  159.0398 C   0  0  0  0  0  0  0  0  0  0  0  0
  151.6055  145.3955  159.3294 O   0  0  0  0  0  0  0  0  0  0  0  0
  152.2221  143.2634  159.8841 N   0  0  0  0  0  0  0  0  0  0  0  0
  152.4611  143.4323  161.3107 C   0  0  0  0  0  0  0  0  0  0  0  0
  152.4468  141.9851  159.2315 C   0  0  0  0  0  0  0  0  0  0  0  0
  146.9277  141.0753  155.2874 H   0  0  0  0  0  0  0  0  0  0  0  0
  148.0097  142.4205  154.9363 H   0  0  0  0  0  0  0  0  0  0  0  0
  147.5557  142.0615  156.6009 H   0  0  0  0  0  0  0  0  0  0  0  0
  148.7500  139.8825  156.4793 H   0  0  0  0  0  0  0  0  0  0  0  0
  148.5240  139.3747  154.0946 H   0  0  0  0  0  0  0  0  0  0  0  0
  149.5212  140.7415  153.6492 H   0  0  0  0  0  0  0  0  0  0  0  0
  149.8382  137.1760  154.1235 H   0  0  0  0  0  0  0  0  0  0  0  0
  153.5767  138.6340  155.0676 H   0  0  0  0  0  0  0  0  0  0  0  0
  150.6555  141.9923  155.5984 H   0  0  0  0  0  0  0  0  0  0  0  0
  152.7157  141.8521  157.0871 H   0  0  0  0  0  0  0  0  0  0  0  0
  152.4268  144.1359  156.9814 H   0  0  0  0  0  0  0  0  0  0  0  0
  150.6935  143.9173  157.2300 H   0  0  0  0  0  0  0  0  0  0  0  0
  153.2524  144.1628  161.4817 H   0  0  0  0  0  0  0  0  0  0  0  0
  152.7632  142.4920  161.7729 H   0  0  0  0  0  0  0  0  0  0  0  0
  151.5572  143.7805  161.8114 H   0  0  0  0  0  0  0  0  0  0  0  0
  151.9350  141.1857  159.7707 H   0  0  0  0  0  0  0  0  0  0  0  0
  153.5134  141.7569  159.2407 H   0  0  0  0  0  0  0  0  0  0  0  0
  1  2  1  0  0  0  0
  1 19  1  0  0  0  0
  1 20  1  0  0  0  0
  1 21  1  0  0  0  0
  2  3  1  0  0  0  0
  2  9  1  0  0  0  0
  2 22  1  0  0  0  0
  3  4  1  0  0  0  0
  3 23  1  0  0  0  0
  3 24  1  0  0  0  0
  4  8  1  0  0  0  0
  4  5  1  0  0  0  0
  5  6  2  0  0  0  0
  5 25  1  0  0  0  0
  6  7  1  0  0  0  0
  7  8  2  0  0  0  0
  7 26  1  0  0  0  0
  9 10  1  0  0  0  0
  9 27  1  0  0  0  0
 10 11  2  0  0  0  0
 10 12  1  0  0  0  0
 12 18  1  0  0  0  0
 12 13  1  0  0  0  0
 12 28  1  0  0  0  0
 13 14  1  0  0  0  0
 13 29  1  0  0  0  0
 13 30  1  0  0  0  0
 14 15  2  0  0  0  0
 14 16  1  0  0  0  0
 16 17  1  0  0  0  0
 16 18  1  0  0  0  0
 17 31  1  0  0  0  0
 17 32  1  0  0  0  0
 17 33  1  0  0  0  0
 18 34  1  0  0  0  0
 18 35  1  0  0  0  0
M  END
> <s_m_source_file>
AV-unprocessed.smi

> <i_m_source_file_index>
3061

> <i_lp_mmshare_version>
43012

> <i_f3d_flags>
0

> <s_epik_input>
bjFbY0hdbltjSF1uMVtDSDJdW0NAQEhdKFtDSDNdKVtOSF1DKD1PKVtDQEBIXTJbQ0gyXUMoPU8pTihbQ0gzXSlbQ0gyXTI=

> <s_epik_cmdline>
J2VwaWtfcHl0aG9uJywgJy1waCcsICc3LjAnLCAnLXRuJywgJzgnLCAnLW1hJywgJzIwMCcsICctbWV0YWxfYmluZGluZycsICctaW1hZScsICc8aW5maWxlLm1hZT4nLCAnLW9tYWUnLCAnPG91dGZpbGUubWFlPic=

> <r_lp_tautomer_probability>
1

> <r_epik_Ionization_Penalty>
4.97611e-05

> <r_epik_Ionization_Penalty_Charging>
0

> <r_epik_Ionization_Penalty_Neutral>
4.97611e-05

> <r_epik_State_Penalty>
-0

> <r_epik_Charging_Adjusted_Penalty>
0

> <i_epik_Tot_Q>
0

> <i_epik_Tot_abs_Q>
0

> <r_epik_Metal_State_Penalty>
-0

> <b_epik_Metal_Only>
0

> <s_lp_Force_Field>
OPLS_2005

> <r_lp_Energy>
11.8838

> <b_lp_Chiralities_Consistent>
1

> <s_lp_Variant>
AV-unprocessed.smi:3061-4

> <Gold.Version>
5.8.1

> <Gold.Id.Protein>
6NUR|6NUR_protein|mol2

> <Gold.PLP.Fitness>
46.2239

> <Gold.PLP.PLP>
-38.9636

> <Gold.PLP.part.hbond>
-2.0046

> <Gold.PLP.part.metal>
0.0000

> <Gold.PLP.part.buried>
-6.8821

> <Gold.PLP.part.nonpolar>
-31.1784

> <Gold.PLP.part.repulsive>
0.3971

> <Gold.PLP.ligand.clash>
0.0000

> <Gold.PLP.ligand.torsion>
0.1818

> <Gold.PLP.Chemscore.Hbond>
1.5246

> <Gold.PLP.Chemscore.CHOScore>
1.0000

> <Gold.PLP.Chemscore.Metal>
0.0000

> <Gold.Chemscore.Hbonds>
donor molecule, donor type, donor heavy atom, donor atom, acceptor molecule, acceptor atom, score
      P1  H  7989  7998       L1     8  0.60
      P1  H 10752 10765       L1     6  0.94
      L1  C     5    25       P1  7948  0.89

> <Gold.PLP.Chemscore.Internal.Correction>
0.0499

> <Gold.Rescore>
     Score         DG    S(hbond)    S(metal)    S(lipo)     H(rot)  DE(clash)    DE(int)     intcor
      9.18      -9.40       0.90        0.00      60.83       2.42       0.11       0.12       ----

> <Gold.Chemscore.Fitness>
9.1760

> <Gold.Chemscore.DG>
-9.4043

> <Gold.Chemscore.ZeroCoef>
-5.4800

> <Gold.Chemscore.Hbond>
0.8987

> <Gold.Chemscore.Metal>
0.0000

> <Gold.Chemscore.Lipo>
60.8297

> <Gold.Chemscore.Internal_Hbond>
0.0000

> <Gold.Chemscore.DEClash>
0.1132

> <Gold.Chemscore.DEInternal>
0.1151

> <Gold.Chemscore.Rot>
2.4197

> <Gold.Chemscore.Internal.Correction>
   9.000000E+99

> <Gold.Chemscore.Hbonds>
donor molecule, donor type, donor heavy atom, donor atom, acceptor molecule, acceptor atom, score
      P1  H  7989  7998       L1     8  0.04
      P1  H 10752 10765       L1     6  0.84

> <Gold.Chemscore.Hbond.Weighted>
-3.0017

> <Gold.Chemscore.Metal.Weighted>
-0.0000

> <Gold.Chemscore.Lipo.Weighted>
-7.1171

> <Gold.Chemscore.Internal_Hbond.Weighted>
0.0000

> <Gold.Chemscore.DEClash.Weighted>
0.1132

> <Gold.Chemscore.DEInternal.Weighted>
0.1151

> <Gold.Chemscore.Rot.Weighted>
6.1945

> <Gold.Chemscore.Internal.Correction.Weighted>
   9.000000E+99

> <Gold.Protein.RotatedTorsions>
[ 6907 6896 6895 6894 ] final  165.34 input  -60.11 | X-H torsion
[ 7974 7965 7964 7962 ] final  -57.33 input  175.53 | X-H torsion
[ 8008 7997 7996 7995 ] final  -88.37 input   59.86 | X-H torsion
[ 10167 10162 10161 10158 ] final   94.65 input  -65.29 | X-H torsion
[ 10718 10713 10712 10709 ] final  170.74 input   66.30 | X-H torsion
[ 10763 10752 10751 10750 ] final  166.53 input  -60.55 | X-H torsion
[ 11005 11000 10999 10996 ] final -158.95 input  -57.11 | X-H torsion

> <Gold.Protein.ActiveResidues>
 VAL166  LYS551  ARG553  GLY616  TRP617  ASP618  TYR619  PRO620  LYS621  CYS622 
 ASP623  PHE694  ASN695  SER759  ASP760  ASP761  ALA762  ILE779  LEU786  VAL792 
 PHE793  MET794  SER795  GLU796  ALA797  LYS798  CYS799  TRP800  GLU811  SER814 

> <Gold.Protein.RotatedAtoms>
  151.8959  133.3526  159.3813 H   0  0  0  0  0  0  0  0  0  0  0  0  # atno 6907 bound_to 6896
  150.7092  134.4877  159.5510 H   0  0  0  0  0  0  0  0  0  0  0  0  # atno 6908 bound_to 6896
  152.2456  134.8185  160.0504 H   0  0  0  0  0  0  0  0  0  0  0  0  # atno 6909 bound_to 6896
  145.8523  140.8343  142.9979 H   0  0  0  0  0  0  0  0  0  0  0  0  # atno 7974 bound_to 7965
  154.6740  140.0554  157.0196 H   0  0  0  0  0  0  0  0  0  0  0  0  # atno 8008 bound_to 7997
  155.1047  140.3232  155.4519 H   0  0  0  0  0  0  0  0  0  0  0  0  # atno 8009 bound_to 7997
  156.2669  140.2025  156.6172 H   0  0  0  0  0  0  0  0  0  0  0  0  # atno 8010 bound_to 7997
  139.8063  144.6792  150.9698 H   0  0  0  0  0  0  0  0  0  0  0  0  # atno 10167 bound_to 10162
  157.0037  131.0183  151.2823 H   0  0  0  0  0  0  0  0  0  0  0  0  # atno 10718 bound_to 10713
  154.3404  135.2754  155.2426 H   0  0  0  0  0  0  0  0  0  0  0  0  # atno 10763 bound_to 10752
  154.4699  135.5885  153.6318 H   0  0  0  0  0  0  0  0  0  0  0  0  # atno 10764 bound_to 10752
  152.9858  135.6085  154.3604 H   0  0  0  0  0  0  0  0  0  0  0  0  # atno 10765 bound_to 10752
  140.6479  134.4482  157.5234 H   0  0  0  0  0  0  0  0  0  0  0  0  # atno 11005 bound_to 11000
  144.6729  140.0972  143.7462 LP  0  0  0  0  0  0  0  0  0  0  0  0  # atno 17320 bound_to 7965
  145.9343  139.2627  143.1306 LP  0  0  0  0  0  0  0  0  0  0  0  0  # atno 17321 bound_to 7965
  140.7819  143.4230  151.0812 LP  0  0  0  0  0  0  0  0  0  0  0  0  # atno 17342 bound_to 10162
  139.7899  143.8234  152.3150 LP  0  0  0  0  0  0  0  0  0  0  0  0  # atno 17343 bound_to 10162
  157.5371  130.8096  149.7985 LP  0  0  0  0  0  0  0  0  0  0  0  0  # atno 17370 bound_to 10713
  156.0161  130.3813  150.2105 LP  0  0  0  0  0  0  0  0  0  0  0  0  # atno 17371 bound_to 10713
  139.9056  134.8456  156.1719 LP  0  0  0  0  0  0  0  0  0  0  0  0  # atno 17394 bound_to 11000
  141.0558  133.6866  156.1858 LP  0  0  0  0  0  0  0  0  0  0  0  0  # atno 17395 bound_to 11000

$$$$
