AV-unprocessed.smi:3258|AV-procd|sdf|12470|dock1
  -GOLD-   2272018363D 1   1.00000     0.00000
 Structure written by MMmdl.
 38 39  0  0  0  0  0  0  0  0  1 V2000
  148.5268  131.4597  153.5144 C   0  0  0  0  0  0  0  0  0  0  0  0
  147.6409  132.6788  153.2094 C   0  0  2  0  0  0  0  0  0  0  0  0
  147.0396  132.6554  151.7869 C   0  0  0  0  0  0  0  0  0  0  0  0
  145.9403  133.5901  151.6275 N   0  0  0  0  0  0  0  0  0  0  0  0
  145.9520  134.9581  151.7999 C   0  0  0  0  0  0  0  0  0  0  0  0
  144.6902  135.4110  151.5409 C   0  0  0  0  0  0  0  0  0  0  0  0
  143.9685  134.2297  151.2112 C   0  0  0  0  0  0  0  0  0  0  0  0
  144.7195  133.1414  151.2621 N   0  0  0  0  0  0  0  0  0  0  0  0
  148.4204  133.8978  153.4056 N   0  0  0  0  0  0  0  0  0  0  0  0
  149.1717  134.1699  154.4820 C   0  0  0  0  0  0  0  0  0  0  0  0
  149.2959  133.4136  155.4455 O   0  0  0  0  0  0  0  0  0  0  0  0
  149.7637  135.3686  154.3844 N   0  0  0  0  0  0  0  0  0  0  0  0
  150.6369  135.9639  155.3912 C   0  0  0  0  0  0  0  0  0  0  0  0
  150.4447  137.4890  155.4899 C   0  0  1  0  0  0  0  0  0  0  0  0
  151.4671  138.2177  156.3414 C   0  0  0  0  0  0  0  0  0  0  0  0
  151.3204  139.6562  155.8543 C   0  0  0  0  0  0  0  0  0  0  0  0
  150.9111  139.5692  154.4920 O   0  0  0  0  0  0  0  0  0  0  0  0
  150.6112  138.2179  154.1573 C   0  0  0  0  0  0  0  0  0  0  0  0
  147.9575  130.5310  153.4716 H   0  0  0  0  0  0  0  0  0  0  0  0
  148.9567  131.5276  154.5143 H   0  0  0  0  0  0  0  0  0  0  0  0
  149.3490  131.3790  152.8025 H   0  0  0  0  0  0  0  0  0  0  0  0
  146.8221  132.6728  153.9318 H   0  0  0  0  0  0  0  0  0  0  0  0
  147.8008  132.9081  151.0478 H   0  0  0  0  0  0  0  0  0  0  0  0
  146.6900  131.6515  151.5397 H   0  0  0  0  0  0  0  0  0  0  0  0
  146.8473  135.4878  152.0911 H   0  0  0  0  0  0  0  0  0  0  0  0
  144.3366  136.4305  151.5804 H   0  0  0  0  0  0  0  0  0  0  0  0
  142.9283  134.1315  150.9374 H   0  0  0  0  0  0  0  0  0  0  0  0
  148.3815  134.5850  152.6670 H   0  0  0  0  0  0  0  0  0  0  0  0
  149.5958  135.9135  153.5512 H   0  0  0  0  0  0  0  0  0  0  0  0
  150.4867  135.4921  156.3638 H   0  0  0  0  0  0  0  0  0  0  0  0
  151.6660  135.7465  155.1047 H   0  0  0  0  0  0  0  0  0  0  0  0
  149.4483  137.7050  155.8794 H   0  0  0  0  0  0  0  0  0  0  0  0
  151.2894  138.1148  157.4123 H   0  0  0  0  0  0  0  0  0  0  0  0
  152.4719  137.8516  156.1255 H   0  0  0  0  0  0  0  0  0  0  0  0
  150.5406  140.1710  156.4169 H   0  0  0  0  0  0  0  0  0  0  0  0
  152.2441  140.2257  155.9578 H   0  0  0  0  0  0  0  0  0  0  0  0
  151.4520  137.8087  153.5951 H   0  0  0  0  0  0  0  0  0  0  0  0
  149.7219  138.1515  153.5301 H   0  0  0  0  0  0  0  0  0  0  0  0
  1  2  1  0  0  0  0
  1 19  1  0  0  0  0
  1 20  1  0  0  0  0
  1 21  1  0  0  0  0
  2  3  1  0  0  0  0
  2  9  1  0  0  0  0
  2 22  1  0  0  0  0
  3  4  1  0  0  0  0
  3 23  1  0  0  0  0
  3 24  1  0  0  0  0
  4  8  1  0  0  0  0
  4  5  1  0  0  0  0
  5  6  2  0  0  0  0
  5 25  1  0  0  0  0
  6  7  1  0  0  0  0
  6 26  1  0  0  0  0
  7  8  2  0  0  0  0
  7 27  1  0  0  0  0
  9 10  1  0  0  0  0
  9 28  1  0  0  0  0
 10 11  2  0  0  0  0
 10 12  1  0  0  0  0
 12 13  1  0  0  0  0
 12 29  1  0  0  0  0
 13 14  1  0  0  0  0
 13 30  1  0  0  0  0
 13 31  1  0  0  0  0
 14 18  1  0  0  0  0
 14 15  1  0  0  0  0
 14 32  1  0  0  0  0
 15 16  1  0  0  0  0
 15 33  1  0  0  0  0
 15 34  1  0  0  0  0
 16 17  1  0  0  0  0
 16 35  1  0  0  0  0
 16 36  1  0  0  0  0
 17 18  1  0  0  0  0
 18 37  1  0  0  0  0
 18 38  1  0  0  0  0
M  END
> <s_m_source_file>
AV-unprocessed.smi

> <i_m_source_file_index>
3258

> <i_lp_mmshare_version>
43012

> <i_f3d_flags>
0

> <s_epik_input>
bjFbY0hdW2NIXVtjSF1uMVtDSDJdW0NAQEhdKFtDSDNdKVtOSF1DKD1PKVtOSF1bQ0gyXVtDQEBIXTJbQ0gyXVtDSDJdT1tDSDJdMg==

> <s_epik_cmdline>
J2VwaWtfcHl0aG9uJywgJy1waCcsICc3LjAnLCAnLXRuJywgJzgnLCAnLW1hJywgJzIwMCcsICctbWV0YWxfYmluZGluZycsICctaW1hZScsICc8aW5maWxlLm1hZT4nLCAnLW9tYWUnLCAnPG91dGZpbGUubWFlPic=

> <r_lp_tautomer_probability>
1

> <r_epik_Ionization_Penalty>
6.85079e-05

> <r_epik_Ionization_Penalty_Charging>
0

> <r_epik_Ionization_Penalty_Neutral>
6.85079e-05

> <r_epik_State_Penalty>
-0

> <r_epik_Charging_Adjusted_Penalty>
0

> <i_epik_Tot_Q>
0

> <i_epik_Tot_abs_Q>
0

> <r_epik_Metal_State_Penalty>
-0

> <b_epik_Metal_Only>
0

> <s_lp_Force_Field>
OPLS_2005

> <r_lp_Energy>
15.6708

> <b_lp_Chiralities_Consistent>
1

> <s_lp_Variant>
AV-unprocessed.smi:3258-3

> <Gold.Version>
5.8.1

> <Gold.Id.Protein>
6NUR|6NUR_protein|mol2

> <Gold.PLP.Fitness>
44.2951

> <Gold.PLP.PLP>
-30.0094

> <Gold.PLP.part.hbond>
-3.3489

> <Gold.PLP.part.metal>
0.0000

> <Gold.PLP.part.buried>
-3.0231

> <Gold.PLP.part.nonpolar>
-23.5437

> <Gold.PLP.part.repulsive>
0.3109

> <Gold.PLP.ligand.clash>
0.0000

> <Gold.PLP.ligand.torsion>
0.3820

> <Gold.PLP.Chemscore.Hbond>
3.0000

> <Gold.PLP.Chemscore.CHOScore>
1.9962

> <Gold.PLP.Chemscore.Metal>
0.0000

> <Gold.Chemscore.Hbonds>
donor molecule, donor type, donor heavy atom, donor atom, acceptor molecule, acceptor atom, score
      L1  H     9    28       P1  7948  1.00
      L1  H    12    29       P1  7948  1.00
      P1  H  7989  7998       L1    17  1.00
      L1  C     5    25       P1  7948  1.00
      L1  C     7    27       P1 10186  1.00

> <Gold.PLP.Chemscore.Internal.Correction>
0.0611

> <Gold.Rescore>
     Score         DG    S(hbond)    S(metal)    S(lipo)     H(rot)  DE(clash)    DE(int)     intcor
     14.29     -15.80       2.60        0.00      54.92       1.87       0.00       1.51       ----

> <Gold.Chemscore.Fitness>
14.2872

> <Gold.Chemscore.DG>
-15.7958

> <Gold.Chemscore.ZeroCoef>
-5.4800

> <Gold.Chemscore.Hbond>
2.5997

> <Gold.Chemscore.Metal>
0.0000

> <Gold.Chemscore.Lipo>
54.9232

> <Gold.Chemscore.Internal_Hbond>
0.0000

> <Gold.Chemscore.DEClash>
0.0009

> <Gold.Chemscore.DEInternal>
1.5077

> <Gold.Chemscore.Rot>
1.8724

> <Gold.Chemscore.Internal.Correction>
   9.000000E+99

> <Gold.Chemscore.Hbonds>
donor molecule, donor type, donor heavy atom, donor atom, acceptor molecule, acceptor atom, score
      L1  H     9    28       P1  7948  0.25
      L1  H    12    29       P1  7948  0.25
      P1  H  7989  7998       L1    17  0.82

> <Gold.Chemscore.Hbond.Weighted>
-8.6831

> <Gold.Chemscore.Metal.Weighted>
-0.0000

> <Gold.Chemscore.Lipo.Weighted>
-6.4260

> <Gold.Chemscore.Internal_Hbond.Weighted>
0.0000

> <Gold.Chemscore.DEClash.Weighted>
0.0009

> <Gold.Chemscore.DEInternal.Weighted>
1.5077

> <Gold.Chemscore.Rot.Weighted>
4.7933

> <Gold.Chemscore.Internal.Correction.Weighted>
   9.000000E+99

> <Gold.Protein.RotatedTorsions>
[ 6907 6896 6895 6894 ] final -173.70 input  -60.11 | X-H torsion
[ 7974 7965 7964 7962 ] final  -58.67 input  175.53 | X-H torsion
[ 8008 7997 7996 7995 ] final   48.18 input   59.86 | X-H torsion
[ 10167 10162 10161 10158 ] final  -36.01 input  -65.29 | X-H torsion
[ 10718 10713 10712 10709 ] final   58.18 input   66.30 | X-H torsion
[ 10763 10752 10751 10750 ] final   67.25 input  -60.55 | X-H torsion
[ 11005 11000 10999 10996 ] final   53.29 input  -57.11 | X-H torsion

> <Gold.Protein.ActiveResidues>
 VAL166  LYS551  ARG553  GLY616  TRP617  ASP618  TYR619  PRO620  LYS621  CYS622 
 ASP623  PHE694  ASN695  SER759  ASP760  ASP761  ALA762  ILE779  LEU786  VAL792 
 PHE793  MET794  SER795  GLU796  ALA797  LYS798  CYS799  TRP800  GLU811  SER814 

> <Gold.Protein.RotatedAtoms>
  151.5604  133.3404  159.2969 H   0  0  0  0  0  0  0  0  0  0  0  0  # atno 6907 bound_to 6896
  150.8426  134.7726  159.6955 H   0  0  0  0  0  0  0  0  0  0  0  0  # atno 6908 bound_to 6896
  152.4490  134.5441  159.9899 H   0  0  0  0  0  0  0  0  0  0  0  0  # atno 6909 bound_to 6896
  145.8365  140.8445  143.0056 H   0  0  0  0  0  0  0  0  0  0  0  0  # atno 7974 bound_to 7965
  155.3813  140.3429  155.4247 H   0  0  0  0  0  0  0  0  0  0  0  0  # atno 8008 bound_to 7997
  156.1609  140.1600  156.8647 H   0  0  0  0  0  0  0  0  0  0  0  0  # atno 8009 bound_to 7997
  154.5138  140.0783  156.8024 H   0  0  0  0  0  0  0  0  0  0  0  0  # atno 8010 bound_to 7997
  140.7152  143.3438  151.2300 H   0  0  0  0  0  0  0  0  0  0  0  0  # atno 10167 bound_to 10162
  157.5575  130.8811  149.9059 H   0  0  0  0  0  0  0  0  0  0  0  0  # atno 10718 bound_to 10713
  153.0177  135.5290  154.6951 H   0  0  0  0  0  0  0  0  0  0  0  0  # atno 10763 bound_to 10752
  154.6075  135.2874  155.0471 H   0  0  0  0  0  0  0  0  0  0  0  0  # atno 10764 bound_to 10752
  154.1505  135.6564  153.5015 H   0  0  0  0  0  0  0  0  0  0  0  0  # atno 10765 bound_to 10752
  140.0779  134.5379  155.8977 H   0  0  0  0  0  0  0  0  0  0  0  0  # atno 11005 bound_to 11000
  144.6736  140.0749  143.7471 LP  0  0  0  0  0  0  0  0  0  0  0  0  # atno 17320 bound_to 7965
  145.9513  139.2735  143.1211 LP  0  0  0  0  0  0  0  0  0  0  0  0  # atno 17321 bound_to 7965
  139.6952  143.9625  152.2879 LP  0  0  0  0  0  0  0  0  0  0  0  0  # atno 17342 bound_to 10162
  139.9299  144.6747  150.8373 LP  0  0  0  0  0  0  0  0  0  0  0  0  # atno 17343 bound_to 10162
  156.0632  130.3696  150.0936 LP  0  0  0  0  0  0  0  0  0  0  0  0  # atno 17370 bound_to 10713
  156.9103  130.9649  151.3564 LP  0  0  0  0  0  0  0  0  0  0  0  0  # atno 17371 bound_to 10713
  141.2036  133.6633  156.6073 LP  0  0  0  0  0  0  0  0  0  0  0  0  # atno 17394 bound_to 11000
  140.3530  134.7752  157.4481 LP  0  0  0  0  0  0  0  0  0  0  0  0  # atno 17395 bound_to 11000

$$$$
