AV-unprocessed.smi:864|AV-procd|sdf|3986|dock8
  -GOLD-   22720 1463D 1   1.00000     0.00000
 Structure written by MMmdl.
 44 46  0  0  0  0  0  0  0  0  1 V2000
  154.6825  140.8944  160.5087 C   0  0  0  0  0  0  0  0  0  0  0  0
  153.6493  141.9928  160.3695 C   0  0  0  0  0  0  0  0  0  0  0  0
  153.2363  142.4422  159.0974 C   0  0  0  0  0  0  0  0  0  0  0  0
  152.2755  143.4694  159.0280 C   0  0  0  0  0  0  0  0  0  0  0  0
  151.7653  144.0047  160.2280 C   0  0  0  0  0  0  0  0  0  0  0  0
  150.7387  145.1247  160.2072 C   0  0  0  0  0  0  0  0  0  0  0  0
  149.3291  144.6781  160.6487 C   0  0  0  0  0  0  0  0  0  0  0  0
  148.3581  144.6919  159.5584 N   0  0  0  0  0  0  0  0  0  0  0  0
  147.2851  143.8941  159.4757 C   0  0  0  0  0  0  0  0  0  0  0  0
  147.0201  143.0067  160.2869 O   0  0  0  0  0  0  0  0  0  0  0  0
  146.5130  144.2069  158.4265 N   0  0  0  0  0  0  0  0  0  0  0  0
  145.2126  143.6050  158.1472 C   0  0  2  0  0  0  0  0  0  0  0  0
  145.2369  142.7557  156.8697 C   0  0  0  0  0  0  0  0  0  0  0  0
  144.0380  143.2543  156.0806 C   0  0  0  0  0  0  0  0  0  0  0  0
  143.7077  142.7639  155.0014 O   0  0  0  0  0  0  0  0  0  0  0  0
  143.4269  144.2691  156.7033 N   0  0  0  0  0  0  0  0  0  0  0  0
  142.3552  145.0430  156.1451 C   0  0  0  0  0  0  0  0  0  0  0  0
  142.4464  145.6264  154.7473 C   0  0  0  0  0  0  0  0  0  0  0  0
  142.5770  146.5260  155.9509 C   0  0  0  0  0  0  0  0  0  0  0  0
  144.1369  144.6817  157.9054 C   0  0  0  0  0  0  0  0  0  0  0  0
  152.2404  143.4791  161.4490 C   0  0  0  0  0  0  0  0  0  0  0  0
  153.1646  142.4979  161.5252 N   0  0  0  0  0  0  0  0  0  0  0  0
  155.0614  140.5820  159.5353 H   0  0  0  0  0  0  0  0  0  0  0  0
  154.2460  140.0242  160.9999 H   0  0  0  0  0  0  0  0  0  0  0  0
  155.5262  141.2403  161.1067 H   0  0  0  0  0  0  0  0  0  0  0  0
  153.6454  142.0132  158.1944 H   0  0  0  0  0  0  0  0  0  0  0  0
  151.9403  143.8413  158.0710 H   0  0  0  0  0  0  0  0  0  0  0  0
  151.0844  145.9350  160.8498 H   0  0  0  0  0  0  0  0  0  0  0  0
  150.6953  145.5422  159.2005 H   0  0  0  0  0  0  0  0  0  0  0  0
  149.3764  143.6553  161.0236 H   0  0  0  0  0  0  0  0  0  0  0  0
  148.9748  145.2941  161.4766 H   0  0  0  0  0  0  0  0  0  0  0  0
  148.4861  145.3946  158.8450 H   0  0  0  0  0  0  0  0  0  0  0  0
  146.8149  144.9507  157.8142 H   0  0  0  0  0  0  0  0  0  0  0  0
  144.9134  142.9681  158.9822 H   0  0  0  0  0  0  0  0  0  0  0  0
  146.1436  142.9097  156.2829 H   0  0  0  0  0  0  0  0  0  0  0  0
  145.1423  141.6914  157.0873 H   0  0  0  0  0  0  0  0  0  0  0  0
  141.3526  144.7480  156.4515 H   0  0  0  0  0  0  0  0  0  0  0  0
  143.3419  145.4607  154.1527 H   0  0  0  0  0  0  0  0  0  0  0  0
  141.5235  145.6912  154.1749 H   0  0  0  0  0  0  0  0  0  0  0  0
  141.7454  147.1909  156.1748 H   0  0  0  0  0  0  0  0  0  0  0  0
  143.5650  146.9253  156.1722 H   0  0  0  0  0  0  0  0  0  0  0  0
  143.4615  144.7499  158.7589 H   0  0  0  0  0  0  0  0  0  0  0  0
  144.5744  145.6683  157.7395 H   0  0  0  0  0  0  0  0  0  0  0  0
  151.8798  143.8641  162.3917 H   0  0  0  0  0  0  0  0  0  0  0  0
  1  2  1  0  0  0  0
  1 23  1  0  0  0  0
  1 24  1  0  0  0  0
  1 25  1  0  0  0  0
  2 22  1  0  0  0  0
  2  3  2  0  0  0  0
  3  4  1  0  0  0  0
  3 26  1  0  0  0  0
  4  5  2  0  0  0  0
  4 27  1  0  0  0  0
  5  6  1  0  0  0  0
  5 21  1  0  0  0  0
  6  7  1  0  0  0  0
  6 28  1  0  0  0  0
  6 29  1  0  0  0  0
  7  8  1  0  0  0  0
  7 30  1  0  0  0  0
  7 31  1  0  0  0  0
  8  9  1  0  0  0  0
  8 32  1  0  0  0  0
  9 10  2  0  0  0  0
  9 11  1  0  0  0  0
 11 12  1  0  0  0  0
 11 33  1  0  0  0  0
 12 20  1  0  0  0  0
 12 13  1  0  0  0  0
 12 34  1  0  0  0  0
 13 14  1  0  0  0  0
 13 35  1  0  0  0  0
 13 36  1  0  0  0  0
 14 15  2  0  0  0  0
 14 16  1  0  0  0  0
 16 17  1  0  0  0  0
 16 20  1  0  0  0  0
 17 19  1  0  0  0  0
 17 18  1  0  0  0  0
 17 37  1  0  0  0  0
 18 19  1  0  0  0  0
 18 38  1  0  0  0  0
 18 39  1  0  0  0  0
 19 40  1  0  0  0  0
 19 41  1  0  0  0  0
 20 42  1  0  0  0  0
 20 43  1  0  0  0  0
 21 22  2  0  0  0  0
 21 44  1  0  0  0  0
M  END
> <s_m_source_file>
AV-unprocessed.smi

> <i_m_source_file_index>
864

> <i_lp_mmshare_version>
43012

> <i_f3d_flags>
0

> <s_epik_input>
W0NIM11jMVtjSF1bY0hdYyhbY0hdbjEpW0NIMl1bQ0gyXVtOSF1DKD1PKVtOSF1bQ0BASF0yW0NIMl1DKD1PKU4oW0NIMl0yKVtDSF0zW0NIMl1bQ0gyXTM=

> <s_epik_cmdline>
J2VwaWtfcHl0aG9uJywgJy1waCcsICc3LjAnLCAnLXRuJywgJzgnLCAnLW1hJywgJzIwMCcsICctbWV0YWxfYmluZGluZycsICctaW1hZScsICc8aW5maWxlLm1hZT4nLCAnLW9tYWUnLCAnPG91dGZpbGUubWFlPic=

> <r_epik_Ionization_Penalty>
0.0559435

> <r_epik_Ionization_Penalty_Charging>
0

> <r_epik_Ionization_Penalty_Neutral>
0.0559435

> <r_epik_State_Penalty>
0.0481757

> <r_epik_Charging_Adjusted_Penalty>
0.0481757

> <i_epik_Tot_Q>
0

> <i_epik_Tot_abs_Q>
0

> <r_epik_Metal_State_Penalty>
0.0439988

> <b_epik_Metal_Only>
0

> <s_lp_Force_Field>
OPLS_2005

> <r_lp_Energy>
33.3792

> <b_lp_Chiralities_Consistent>
1

> <s_lp_Variant>
AV-unprocessed.smi:864-1

> <Gold.Version>
5.8.1

> <Gold.Id.Protein>
6NUR|6NUR_protein|mol2

> <Gold.PLP.Fitness>
48.7120

> <Gold.PLP.PLP>
-39.9508

> <Gold.PLP.part.hbond>
-3.7484

> <Gold.PLP.part.metal>
0.0000

> <Gold.PLP.part.buried>
-4.3881

> <Gold.PLP.part.nonpolar>
-33.5866

> <Gold.PLP.part.repulsive>
0.6451

> <Gold.PLP.ligand.clash>
0.0000

> <Gold.PLP.ligand.torsion>
0.8292

> <Gold.PLP.Chemscore.Hbond>
3.3783

> <Gold.PLP.Chemscore.CHOScore>
0.0000

> <Gold.PLP.Chemscore.Metal>
0.0000

> <Gold.Chemscore.Hbonds>
donor molecule, donor type, donor heavy atom, donor atom, acceptor molecule, acceptor atom, score
      L1  H     8    32       P1  8029  0.88
      L1  H    11    33       P1  8029  0.99
      P1  H  6933  6944       L1    10  0.98
      P1  H  6934  6946       L1    10  0.51

> <Gold.PLP.Chemscore.Internal.Correction>
0.2846

> <Gold.Rescore>
     Score         DG    S(hbond)    S(metal)    S(lipo)     H(rot)  DE(clash)    DE(int)     intcor
     23.32     -24.10       3.17        0.00     106.86       1.75       0.05       0.73       ----

> <Gold.Chemscore.Fitness>
23.3233

> <Gold.Chemscore.DG>
-24.0992

> <Gold.Chemscore.ZeroCoef>
-5.4800

> <Gold.Chemscore.Hbond>
3.1741

> <Gold.Chemscore.Metal>
0.0000

> <Gold.Chemscore.Lipo>
106.8561

> <Gold.Chemscore.Internal_Hbond>
0.0000

> <Gold.Chemscore.DEClash>
0.0476

> <Gold.Chemscore.DEInternal>
0.7283

> <Gold.Chemscore.Rot>
1.7518

> <Gold.Chemscore.Internal.Correction>
   9.000000E+99

> <Gold.Chemscore.Hbonds>
donor molecule, donor type, donor heavy atom, donor atom, acceptor molecule, acceptor atom, score
      L1  H     8    32       P1  8029  0.87
      L1  H    11    33       P1  8029  0.50
      P1  H  6933  6944       L1    10  0.87
      P1  H  6934  6946       L1    10  0.52

> <Gold.Chemscore.Hbond.Weighted>
-10.6016

> <Gold.Chemscore.Metal.Weighted>
-0.0000

> <Gold.Chemscore.Lipo.Weighted>
-12.5022

> <Gold.Chemscore.Internal_Hbond.Weighted>
0.0000

> <Gold.Chemscore.DEClash.Weighted>
0.0476

> <Gold.Chemscore.DEInternal.Weighted>
0.7283

> <Gold.Chemscore.Rot.Weighted>
4.4846

> <Gold.Chemscore.Internal.Correction.Weighted>
   9.000000E+99

> <Gold.Protein.RotatedTorsions>
[ 6907 6896 6895 6894 ] final  108.54 input  -60.11 | X-H torsion
[ 7974 7965 7964 7962 ] final   -7.06 input  175.53 | X-H torsion
[ 8008 7997 7996 7995 ] final   71.32 input   59.86 | X-H torsion
[ 10167 10162 10161 10158 ] final   23.17 input  -65.29 | X-H torsion
[ 10718 10713 10712 10709 ] final   39.17 input   66.30 | X-H torsion
[ 10763 10752 10751 10750 ] final -175.34 input  -60.55 | X-H torsion
[ 11005 11000 10999 10996 ] final  109.46 input  -57.11 | X-H torsion

> <Gold.Protein.ActiveResidues>
 VAL166  LYS551  ARG553  GLY616  TRP617  ASP618  TYR619  PRO620  LYS621  CYS622 
 ASP623  PHE694  ASN695  SER759  ASP760  ASP761  ALA762  ILE779  LEU786  VAL792 
 PHE793  MET794  SER795  GLU796  ALA797  LYS798  CYS799  TRP800  GLU811  SER814 

> <Gold.Protein.RotatedAtoms>
  152.5107  133.9074  159.7470 H   0  0  0  0  0  0  0  0  0  0  0  0  # atno 6907 bound_to 6896
  150.9475  133.6578  159.2785 H   0  0  0  0  0  0  0  0  0  0  0  0  # atno 6908 bound_to 6896
  151.3868  135.0954  159.9566 H   0  0  0  0  0  0  0  0  0  0  0  0  # atno 6909 bound_to 6896
  146.2316  140.2263  142.8339 H   0  0  0  0  0  0  0  0  0  0  0  0  # atno 7974 bound_to 7965
  155.7521  140.3488  155.5155 H   0  0  0  0  0  0  0  0  0  0  0  0  # atno 8008 bound_to 7997
  155.8995  140.1031  157.1381 H   0  0  0  0  0  0  0  0  0  0  0  0  # atno 8009 bound_to 7997
  154.4042  140.1289  156.4405 H   0  0  0  0  0  0  0  0  0  0  0  0  # atno 8010 bound_to 7997
  140.5290  143.9874  150.6455 H   0  0  0  0  0  0  0  0  0  0  0  0  # atno 10167 bound_to 10162
  157.3674  130.7682  149.7093 H   0  0  0  0  0  0  0  0  0  0  0  0  # atno 10718 bound_to 10713
  154.5856  135.2840  155.0688 H   0  0  0  0  0  0  0  0  0  0  0  0  # atno 10763 bound_to 10752
  154.2008  135.6425  153.5090 H   0  0  0  0  0  0  0  0  0  0  0  0  # atno 10764 bound_to 10752
  153.0103  135.5468  154.6524 H   0  0  0  0  0  0  0  0  0  0  0  0  # atno 10765 bound_to 10752
  139.8862  134.9459  156.6130 H   0  0  0  0  0  0  0  0  0  0  0  0  # atno 11005 bound_to 11000
  144.9592  140.8258  143.5524 LP  0  0  0  0  0  0  0  0  0  0  0  0  # atno 17320 bound_to 7965
  145.2232  139.2149  143.5082 LP  0  0  0  0  0  0  0  0  0  0  0  0  # atno 17321 bound_to 7965
  140.3243  143.3117  152.0752 LP  0  0  0  0  0  0  0  0  0  0  0  0  # atno 17342 bound_to 10162
  139.4948  144.6552  151.6588 LP  0  0  0  0  0  0  0  0  0  0  0  0  # atno 17343 bound_to 10162
  155.9749  130.4097  150.3891 LP  0  0  0  0  0  0  0  0  0  0  0  0  # atno 17370 bound_to 10713
  157.1977  131.0430  151.2667 LP  0  0  0  0  0  0  0  0  0  0  0  0  # atno 17371 bound_to 10713
  140.7797  133.8670  155.8558 LP  0  0  0  0  0  0  0  0  0  0  0  0  # atno 17394 bound_to 11000
  140.9771  134.1455  157.4527 LP  0  0  0  0  0  0  0  0  0  0  0  0  # atno 17395 bound_to 11000

$$$$
