AV-unprocessed.smi:1796|AV-procd|sdf|7254|dock2
  -GOLD-   22720 8503D 1   1.00000     0.00000
 Structure written by MMmdl.
 42 43  0  0  0  0  0  0  0  0  1 V2000
  147.1648  135.9307  158.6309 C   0  0  0  0  0  0  0  0  0  0  0  0
  148.2142  136.8732  159.2248 C   0  0  0  0  0  0  0  0  0  0  0  0
  147.8609  137.6409  160.1201 O   0  0  0  0  0  0  0  0  0  0  0  0
  149.4827  136.8359  158.7500 N   0  0  0  0  0  0  0  0  0  0  0  0
  149.9480  136.0023  157.6338 C   0  0  0  0  0  0  0  0  0  0  0  0
  150.2412  136.9121  156.4278 C   0  0  0  0  0  0  0  0  0  0  0  0
  151.2620  138.0047  156.7987 C   0  0  0  0  0  0  0  0  0  0  0  0
  150.8500  138.7609  158.0844 C   0  0  2  0  0  0  0  0  0  0  0  0
  151.9392  139.7404  158.5379 C   0  0  0  0  0  0  0  0  0  0  0  0
  153.0359  139.7513  157.9774 O   0  0  0  0  0  0  0  0  0  0  0  0
  151.6324  140.5357  159.5756 N   0  0  0  0  0  0  0  0  0  0  0  0
  152.5521  141.4542  160.2457 C   0  0  1  0  0  0  0  0  0  0  0  0
  153.6909  140.6474  160.8838 C   0  0  0  0  0  0  0  0  0  0  0  0
  153.0945  142.5056  159.2532 C   0  0  0  0  0  0  0  0  0  0  0  0
  152.3318  143.7423  159.2740 N   0  0  0  0  0  0  0  0  0  0  0  0
  152.0824  144.5764  160.3434 C   0  0  0  0  0  0  0  0  0  0  0  0
  151.3023  145.5998  159.8873 C   0  0  0  0  0  0  0  0  0  0  0  0
  151.1278  145.3026  158.5067 C   0  0  0  0  0  0  0  0  0  0  0  0
  151.7496  144.1935  158.1411 N   0  0  0  0  0  0  0  0  0  0  0  0
  150.5294  137.7552  159.2134 C   0  0  0  0  0  0  0  0  0  0  0  0
  147.0568  136.0971  157.5588 H   0  0  0  0  0  0  0  0  0  0  0  0
  146.1914  136.0987  159.0931 H   0  0  0  0  0  0  0  0  0  0  0  0
  147.4398  134.8898  158.8031 H   0  0  0  0  0  0  0  0  0  0  0  0
  150.8571  135.4788  157.9336 H   0  0  0  0  0  0  0  0  0  0  0  0
  149.2455  135.2210  157.3474 H   0  0  0  0  0  0  0  0  0  0  0  0
  150.6165  136.3196  155.5932 H   0  0  0  0  0  0  0  0  0  0  0  0
  149.3145  137.3763  156.0875 H   0  0  0  0  0  0  0  0  0  0  0  0
  152.2367  137.5342  156.9385 H   0  0  0  0  0  0  0  0  0  0  0  0
  151.3743  138.7029  155.9684 H   0  0  0  0  0  0  0  0  0  0  0  0
  149.9435  139.3294  157.8669 H   0  0  0  0  0  0  0  0  0  0  0  0
  150.7064  140.4555  159.9704 H   0  0  0  0  0  0  0  0  0  0  0  0
  152.0346  141.9730  161.0546 H   0  0  0  0  0  0  0  0  0  0  0  0
  154.3844  141.3010  161.4137 H   0  0  0  0  0  0  0  0  0  0  0  0
  154.2607  140.0993  160.1327 H   0  0  0  0  0  0  0  0  0  0  0  0
  153.3056  139.9250  161.6041 H   0  0  0  0  0  0  0  0  0  0  0  0
  154.1287  142.7505  159.4980 H   0  0  0  0  0  0  0  0  0  0  0  0
  153.1030  142.1061  158.2374 H   0  0  0  0  0  0  0  0  0  0  0  0
  152.4698  144.3688  161.3301 H   0  0  0  0  0  0  0  0  0  0  0  0
  150.9129  146.4322  160.4543 H   0  0  0  0  0  0  0  0  0  0  0  0
  150.5717  145.8560  157.7646 H   0  0  0  0  0  0  0  0  0  0  0  0
  150.2431  138.2879  160.1220 H   0  0  0  0  0  0  0  0  0  0  0  0
  151.4173  137.1791  159.4801 H   0  0  0  0  0  0  0  0  0  0  0  0
  1  2  1  0  0  0  0
  1 21  1  0  0  0  0
  1 22  1  0  0  0  0
  1 23  1  0  0  0  0
  2  3  2  0  0  0  0
  2  4  1  0  0  0  0
  4 20  1  0  0  0  0
  4  5  1  0  0  0  0
  5  6  1  0  0  0  0
  5 24  1  0  0  0  0
  5 25  1  0  0  0  0
  6  7  1  0  0  0  0
  6 26  1  0  0  0  0
  6 27  1  0  0  0  0
  7  8  1  0  0  0  0
  7 28  1  0  0  0  0
  7 29  1  0  0  0  0
  8  9  1  0  0  0  0
  8 20  1  0  0  0  0
  8 30  1  0  0  0  0
  9 10  2  0  0  0  0
  9 11  1  0  0  0  0
 11 12  1  0  0  0  0
 11 31  1  0  0  0  0
 12 13  1  0  0  0  0
 12 14  1  0  0  0  0
 12 32  1  0  0  0  0
 13 33  1  0  0  0  0
 13 34  1  0  0  0  0
 13 35  1  0  0  0  0
 14 15  1  0  0  0  0
 14 36  1  0  0  0  0
 14 37  1  0  0  0  0
 15 19  1  0  0  0  0
 15 16  1  0  0  0  0
 16 17  2  0  0  0  0
 16 38  1  0  0  0  0
 17 18  1  0  0  0  0
 17 39  1  0  0  0  0
 18 19  2  0  0  0  0
 18 40  1  0  0  0  0
 20 41  1  0  0  0  0
 20 42  1  0  0  0  0
M  END
> <s_m_source_file>
AV-unprocessed.smi

> <i_m_source_file_index>
1796

> <i_lp_mmshare_version>
43012

> <i_f3d_flags>
0

> <s_epik_input>
W0NIM11DKD1PKU4xW0NIMl1bQ0gyXVtDSDJdW0NASF0oW0NIMl0xKUMoPU8pW05IXVtDQEhdKFtDSDNdKVtDSDJdbjJbY0hdW2NIXVtjSF1uMg==

> <s_epik_cmdline>
J2VwaWtfcHl0aG9uJywgJy1waCcsICc3LjAnLCAnLXRuJywgJzgnLCAnLW1hJywgJzIwMCcsICctbWV0YWxfYmluZGluZycsICctaW1hZScsICc8aW5maWxlLm1hZT4nLCAnLW9tYWUnLCAnPG91dGZpbGUubWFlPic=

> <r_lp_tautomer_probability>
1

> <r_epik_Ionization_Penalty>
0.000315051

> <r_epik_Ionization_Penalty_Charging>
0

> <r_epik_Ionization_Penalty_Neutral>
0.000315051

> <r_epik_State_Penalty>
-0

> <r_epik_Charging_Adjusted_Penalty>
0

> <i_epik_Tot_Q>
0

> <i_epik_Tot_abs_Q>
0

> <r_epik_Metal_State_Penalty>
-0

> <b_epik_Metal_Only>
0

> <s_lp_Force_Field>
OPLS_2005

> <r_lp_Energy>
22.8322

> <b_lp_Chiralities_Consistent>
1

> <s_lp_Variant>
AV-unprocessed.smi:1796-4

> <Gold.Version>
5.8.1

> <Gold.Id.Protein>
6NUR|6NUR_protein|mol2

> <Gold.PLP.Fitness>
44.8771

> <Gold.PLP.PLP>
-36.5046

> <Gold.PLP.part.hbond>
-3.0000

> <Gold.PLP.part.metal>
0.0000

> <Gold.PLP.part.buried>
-4.0635

> <Gold.PLP.part.nonpolar>
-28.5767

> <Gold.PLP.part.repulsive>
0.2916

> <Gold.PLP.ligand.clash>
0.0000

> <Gold.PLP.ligand.torsion>
0.5573

> <Gold.PLP.Chemscore.Hbond>
2.1470

> <Gold.PLP.Chemscore.CHOScore>
1.0000

> <Gold.PLP.Chemscore.Metal>
0.0000

> <Gold.Chemscore.Hbonds>
donor molecule, donor type, donor heavy atom, donor atom, acceptor molecule, acceptor atom, score
      P1  H  6931  6943       L1     3  0.26
      P1  H  6934  6947       L1     3  0.69
      P1  H  7997  8010       L1    10  1.00
      L1  C    18    40       P1  8028  0.03
      L1  C    18    40       P1  8029  0.36

> <Gold.PLP.Chemscore.Internal.Correction>
0.0463

> <Gold.Rescore>
     Score         DG    S(hbond)    S(metal)    S(lipo)     H(rot)  DE(clash)    DE(int)     intcor
     16.89     -18.34       2.18        0.00      83.48       1.63       0.02       1.43       ----

> <Gold.Chemscore.Fitness>
16.8879

> <Gold.Chemscore.DG>
-18.3387

> <Gold.Chemscore.ZeroCoef>
-5.4800

> <Gold.Chemscore.Hbond>
2.1779

> <Gold.Chemscore.Metal>
0.0000

> <Gold.Chemscore.Lipo>
83.4755

> <Gold.Chemscore.Internal_Hbond>
0.0000

> <Gold.Chemscore.DEClash>
0.0243

> <Gold.Chemscore.DEInternal>
1.4264

> <Gold.Chemscore.Rot>
1.6336

> <Gold.Chemscore.Internal.Correction>
   9.000000E+99

> <Gold.Chemscore.Hbonds>
donor molecule, donor type, donor heavy atom, donor atom, acceptor molecule, acceptor atom, score
      P1  H  6931  6943       L1     3  0.26
      P1  H  6934  6947       L1     3  0.68
      P1  H  7997  8010       L1    10  0.99

> <Gold.Chemscore.Hbond.Weighted>
-7.2742

> <Gold.Chemscore.Metal.Weighted>
-0.0000

> <Gold.Chemscore.Lipo.Weighted>
-9.7666

> <Gold.Chemscore.Internal_Hbond.Weighted>
0.0000

> <Gold.Chemscore.DEClash.Weighted>
0.0243

> <Gold.Chemscore.DEInternal.Weighted>
1.4264

> <Gold.Chemscore.Rot.Weighted>
4.1821

> <Gold.Chemscore.Internal.Correction.Weighted>
   9.000000E+99

> <Gold.Protein.RotatedTorsions>
[ 6907 6896 6895 6894 ] final -141.18 input  -60.11 | X-H torsion
[ 7974 7965 7964 7962 ] final -146.77 input  175.53 | X-H torsion
[ 8008 7997 7996 7995 ] final   49.25 input   59.86 | X-H torsion
[ 10167 10162 10161 10158 ] final -100.95 input  -65.29 | X-H torsion
[ 10718 10713 10712 10709 ] final  -14.93 input   66.30 | X-H torsion
[ 10763 10752 10751 10750 ] final -125.91 input  -60.55 | X-H torsion
[ 11005 11000 10999 10996 ] final  161.13 input  -57.11 | X-H torsion

> <Gold.Protein.ActiveResidues>
 VAL166  LYS551  ARG553  GLY616  TRP617  ASP618  TYR619  PRO620  LYS621  CYS622 
 ASP623  PHE694  ASN695  SER759  ASP760  ASP761  ALA762  ILE779  LEU786  VAL792 
 PHE793  MET794  SER795  GLU796  ALA797  LYS798  CYS799  TRP800  GLU811  SER814 

> <Gold.Protein.RotatedAtoms>
  151.0704  133.5471  159.2627 H   0  0  0  0  0  0  0  0  0  0  0  0  # atno 6907 bound_to 6896
  151.2413  135.0589  159.9036 H   0  0  0  0  0  0  0  0  0  0  0  0  # atno 6908 bound_to 6896
  152.5410  134.0478  159.8150 H   0  0  0  0  0  0  0  0  0  0  0  0  # atno 6909 bound_to 6896
  144.8137  140.5414  143.5625 H   0  0  0  0  0  0  0  0  0  0  0  0  # atno 7974 bound_to 7965
  155.3991  140.3437  155.4256 H   0  0  0  0  0  0  0  0  0  0  0  0  # atno 8008 bound_to 7997
  156.1514  140.1572  156.8796 H   0  0  0  0  0  0  0  0  0  0  0  0  # atno 8009 bound_to 7997
  154.5055  140.0803  156.7867 H   0  0  0  0  0  0  0  0  0  0  0  0  # atno 8010 bound_to 7997
  140.2465  143.3502  152.0754 H   0  0  0  0  0  0  0  0  0  0  0  0  # atno 10167 bound_to 10162
  156.6090  130.4844  149.6209 H   0  0  0  0  0  0  0  0  0  0  0  0  # atno 10718 bound_to 10713
  154.8740  135.4013  154.3345 H   0  0  0  0  0  0  0  0  0  0  0  0  # atno 10763 bound_to 10752
  153.4153  135.7022  153.6336 H   0  0  0  0  0  0  0  0  0  0  0  0  # atno 10764 bound_to 10752
  153.5021  135.3725  155.2515 H   0  0  0  0  0  0  0  0  0  0  0  0  # atno 10765 bound_to 10752
  140.2127  134.8255  157.3138 H   0  0  0  0  0  0  0  0  0  0  0  0  # atno 11005 bound_to 11000
  145.5263  139.1476  143.3524 LP  0  0  0  0  0  0  0  0  0  0  0  0  # atno 17320 bound_to 7965
  146.2439  140.5404  142.8922 LP  0  0  0  0  0  0  0  0  0  0  0  0  # atno 17321 bound_to 7965
  139.5060  144.6806  151.6019 LP  0  0  0  0  0  0  0  0  0  0  0  0  # atno 17342 bound_to 10162
  140.6074  143.9499  150.6428 LP  0  0  0  0  0  0  0  0  0  0  0  0  # atno 17343 bound_to 10162
  156.2406  130.6849  151.1552 LP  0  0  0  0  0  0  0  0  0  0  0  0  # atno 17370 bound_to 10713
  157.7259  131.0650  150.5931 LP  0  0  0  0  0  0  0  0  0  0  0  0  # atno 17371 bound_to 10713
  140.1933  134.4344  155.7703 LP  0  0  0  0  0  0  0  0  0  0  0  0  # atno 17394 bound_to 11000
  141.2226  133.7037  156.8063 LP  0  0  0  0  0  0  0  0  0  0  0  0  # atno 17395 bound_to 11000

$$$$
