AV-unprocessed.smi:907|AV-procd|sdf|4107|dock9
  -GOLD-   22720 2 03D 1   1.00000     0.00000
 Structure written by MMmdl.
 53 56  0  0  0  0  0  0  0  0  2 V2000
  149.7969  140.1018  153.9492 O   0  0  0  0  0  0  0  0  0  0  0  0
  148.8091  140.5544  154.5288 C   0  0  0  0  0  0  0  0  0  0  0  0
  148.8860  141.0909  155.7572 N   0  0  0  0  0  0  0  0  0  0  0  0
  150.1125  141.2165  156.5328 C   0  0  0  0  0  0  0  0  0  0  0  0
  149.8050  141.7172  157.9512 C   0  0  0  0  0  0  0  0  0  0  0  0
  150.9660  142.4841  158.5557 C   0  0  0  0  0  0  0  0  0  0  0  0
  151.4468  143.6622  157.9451 C   0  0  0  0  0  0  0  0  0  0  0  0
  152.5232  144.3400  158.5495 C   0  0  0  0  0  0  0  0  0  0  0  0
  153.0733  143.8177  159.7356 C   0  0  0  0  0  0  0  0  0  0  0  0
  152.5203  142.6352  160.2669 C   0  0  0  0  0  0  0  0  0  0  0  0
  151.4891  141.9767  159.6947 N   0  0  0  0  0  0  0  0  0  0  0  0
  147.5597  140.5220  154.0004 N   0  0  0  0  0  0  0  0  0  0  0  0
  147.1973  140.1066  152.6404 C   0  0  0  0  0  0  0  0  0  0  0  0
  146.5302  138.7190  152.6949 C   0  0  0  0  0  0  0  0  0  0  0  0
  145.3624  138.6872  153.6256 N   0  3  0  0  0  0  0  0  0  0  0  0
  144.7230  137.3422  153.7662 C   0  0  1  0  0  0  0  0  0  0  0  0
  143.6901  137.3098  154.9246 C   0  0  0  0  0  0  0  0  0  0  0  0
  142.4108  136.7787  154.2574 C   0  0  2  0  0  0  0  0  0  0  0  0
  142.5970  135.2970  153.8912 C   0  0  0  0  0  0  0  0  0  0  0  0
  143.5745  135.3684  152.7056 C   0  0  0  0  0  0  0  0  0  0  0  0
  143.8444  136.8803  152.5682 C   0  0  1  0  0  0  0  0  0  0  0  0
  142.4738  137.4608  152.8974 C   0  0  0  0  0  0  0  0  0  0  0  0
  145.6890  139.2828  154.9563 C   0  0  0  0  0  0  0  0  0  0  0  0
  146.3596  140.6609  154.8257 C   0  0  0  0  0  0  0  0  0  0  0  0
  148.0366  141.4294  156.1849 H   0  0  0  0  0  0  0  0  0  0  0  0
  150.6085  140.2456  156.5763 H   0  0  0  0  0  0  0  0  0  0  0  0
  150.7941  141.9067  156.0327 H   0  0  0  0  0  0  0  0  0  0  0  0
  148.9251  142.3623  157.9377 H   0  0  0  0  0  0  0  0  0  0  0  0
  149.5574  140.8750  158.5990 H   0  0  0  0  0  0  0  0  0  0  0  0
  151.0018  144.0399  157.0363 H   0  0  0  0  0  0  0  0  0  0  0  0
  152.9190  145.2442  158.1110 H   0  0  0  0  0  0  0  0  0  0  0  0
  153.8988  144.3110  160.2269 H   0  0  0  0  0  0  0  0  0  0  0  0
  152.9165  142.2069  161.1756 H   0  0  0  0  0  0  0  0  0  0  0  0
  146.5017  140.8352  152.2212 H   0  0  0  0  0  0  0  0  0  0  0  0
  148.0372  140.0819  151.9457 H   0  0  0  0  0  0  0  0  0  0  0  0
  146.2208  138.4755  151.6809 H   0  0  0  0  0  0  0  0  0  0  0  0
  147.2594  137.9679  153.0030 H   0  0  0  0  0  0  0  0  0  0  0  0
  145.5158  136.6117  153.9373 H   0  0  0  0  0  0  0  0  0  0  0  0
  144.0169  136.6826  155.7547 H   0  0  0  0  0  0  0  0  0  0  0  0
  143.4912  138.3058  155.3222 H   0  0  0  0  0  0  0  0  0  0  0  0
  141.5047  136.9771  154.8307 H   0  0  0  0  0  0  0  0  0  0  0  0
  142.9905  134.7116  154.7231 H   0  0  0  0  0  0  0  0  0  0  0  0
  141.6518  134.8487  153.5825 H   0  0  0  0  0  0  0  0  0  0  0  0
  144.4849  134.7942  152.8799 H   0  0  0  0  0  0  0  0  0  0  0  0
  143.1048  134.9764  151.8024 H   0  0  0  0  0  0  0  0  0  0  0  0
  144.2159  137.1182  151.5743 H   0  0  0  0  0  0  0  0  0  0  0  0
  141.6890  137.1333  152.2132 H   0  0  0  0  0  0  0  0  0  0  0  0
  142.4667  138.5506  152.9558 H   0  0  0  0  0  0  0  0  0  0  0  0
  144.7913  139.3868  155.5646 H   0  0  0  0  0  0  0  0  0  0  0  0
  146.3540  138.6078  155.4981 H   0  0  0  0  0  0  0  0  0  0  0  0
  146.5742  141.0671  155.8153 H   0  0  0  0  0  0  0  0  0  0  0  0
  145.6752  141.3707  154.3587 H   0  0  0  0  0  0  0  0  0  0  0  0
  144.6668  139.2906  153.2103 H   0  0  0  0  0  0  0  0  0  0  0  0
  1  2  2  0  0  0  0
  2  3  1  0  0  0  0
  2 12  1  0  0  0  0
  3  4  1  0  0  0  0
  3 25  1  0  0  0  0
  4  5  1  0  0  0  0
  4 26  1  0  0  0  0
  4 27  1  0  0  0  0
  5  6  1  0  0  0  0
  5 28  1  0  0  0  0
  5 29  1  0  0  0  0
  6 11  1  0  0  0  0
  6  7  2  0  0  0  0
  7  8  1  0  0  0  0
  7 30  1  0  0  0  0
  8  9  2  0  0  0  0
  8 31  1  0  0  0  0
  9 10  1  0  0  0  0
  9 32  1  0  0  0  0
 10 11  2  0  0  0  0
 10 33  1  0  0  0  0
 12 24  1  0  0  0  0
 12 13  1  0  0  0  0
 13 14  1  0  0  0  0
 13 34  1  0  0  0  0
 13 35  1  0  0  0  0
 14 15  1  0  0  0  0
 14 36  1  0  0  0  0
 14 37  1  0  0  0  0
 15 16  1  0  0  0  0
 15 23  1  0  0  0  0
 15 53  1  0  0  0  0
 16 21  1  0  0  0  0
 16 17  1  0  0  0  0
 16 38  1  0  0  0  0
 17 18  1  0  0  0  0
 17 39  1  0  0  0  0
 17 40  1  0  0  0  0
 18 22  1  0  0  0  0
 18 19  1  0  0  0  0
 18 41  1  0  0  0  0
 19 20  1  0  0  0  0
 19 42  1  0  0  0  0
 19 43  1  0  0  0  0
 20 21  1  0  0  0  0
 20 44  1  0  0  0  0
 20 45  1  0  0  0  0
 21 22  1  0  0  0  0
 21 46  1  0  0  0  0
 22 47  1  0  0  0  0
 22 48  1  0  0  0  0
 23 24  1  0  0  0  0
 23 49  1  0  0  0  0
 23 50  1  0  0  0  0
 24 51  1  0  0  0  0
 24 52  1  0  0  0  0
M  CHG  1  15   1
M  END
> <s_m_source_file>
AV-unprocessed.smi

> <i_m_source_file_index>
907

> <i_lp_mmshare_version>
43012

> <i_f3d_flags>
0

> <s_epik_input>
W0NIMl0xW0NIMl1bQ0BASF0oW0NIMl0yKVtDQEBIXShbQ0gyXVtDQEhdMTIpTihbQ0gyXVtDSDJdMylbQ0gyXVtDSDJdTjNDKD1PKVtOSF1bQ0gyXVtDSDJdYzRbY0hdW2NIXVtjSF1bY0hdbjQ=

> <s_epik_cmdline>
J2VwaWtfcHl0aG9uJywgJy1waCcsICc3LjAnLCAnLXRuJywgJzgnLCAnLW1hJywgJzIwMCcsICctbWV0YWxfYmluZGluZycsICctaW1hZScsICc8aW5maWxlLm1hZT4nLCAnLW9tYWUnLCAnPG91dGZpbGUubWFlPic=

> <r_epik_Ionization_Penalty>
0.0419258

> <r_epik_Ionization_Penalty_Charging>
0.00262064

> <r_epik_Ionization_Penalty_Neutral>
0.0393052

> <r_epik_State_Penalty>
0.0329887

> <r_epik_Charging_Adjusted_Penalty>
0.0356093

> <i_epik_Tot_Q>
1

> <i_epik_Tot_abs_Q>
1

> <r_epik_Metal_State_Penalty>
0.0309172

> <b_epik_Metal_Only>
0

> <s_lp_Force_Field>
OPLS_2005

> <r_lp_Energy>
96.5641

> <b_lp_Chiralities_Consistent>
1

> <s_lp_Variant>
AV-unprocessed.smi:907-2

> <Gold.Version>
5.8.1

> <Gold.Id.Protein>
6NUR|6NUR_protein|mol2

> <Gold.PLP.Fitness>
48.1318

> <Gold.PLP.PLP>
-41.5677

> <Gold.PLP.part.hbond>
-2.6383

> <Gold.PLP.part.metal>
0.0000

> <Gold.PLP.part.buried>
-4.6312

> <Gold.PLP.part.nonpolar>
-36.4238

> <Gold.PLP.part.repulsive>
2.2529

> <Gold.PLP.ligand.clash>
0.8405

> <Gold.PLP.ligand.torsion>
0.5686

> <Gold.PLP.Chemscore.Hbond>
2.8160

> <Gold.PLP.Chemscore.CHOScore>
0.0000

> <Gold.PLP.Chemscore.Metal>
0.0000

> <Gold.Chemscore.Hbonds>
donor molecule, donor type, donor heavy atom, donor atom, acceptor molecule, acceptor atom, score
      L1  H    15    53       P1 10175  2.00
      P1  H  7989  7998       L1     1  0.80

> <Gold.PLP.Chemscore.Internal.Correction>
0.0940

> <Gold.Rescore>
     Score         DG    S(hbond)    S(metal)    S(lipo)     H(rot)  DE(clash)    DE(int)     intcor
     18.79     -20.84       1.84        0.00     108.82       1.37       1.69       0.36       ----

> <Gold.Chemscore.Fitness>
18.7865

> <Gold.Chemscore.DG>
-20.8407

> <Gold.Chemscore.ZeroCoef>
-5.4800

> <Gold.Chemscore.Hbond>
1.8395

> <Gold.Chemscore.Metal>
0.0000

> <Gold.Chemscore.Lipo>
108.8195

> <Gold.Chemscore.Internal_Hbond>
0.0000

> <Gold.Chemscore.DEClash>
1.6946

> <Gold.Chemscore.DEInternal>
0.3596

> <Gold.Chemscore.Rot>
1.3731

> <Gold.Chemscore.Internal.Correction>
   9.000000E+99

> <Gold.Chemscore.Hbonds>
donor molecule, donor type, donor heavy atom, donor atom, acceptor molecule, acceptor atom, score
      L1  H    15    53       P1 10175  1.00
      P1  H  7989  7998       L1     1  0.74

> <Gold.Chemscore.Hbond.Weighted>
-6.1440

> <Gold.Chemscore.Metal.Weighted>
-0.0000

> <Gold.Chemscore.Lipo.Weighted>
-12.7319

> <Gold.Chemscore.Internal_Hbond.Weighted>
0.0000

> <Gold.Chemscore.DEClash.Weighted>
1.6946

> <Gold.Chemscore.DEInternal.Weighted>
0.3596

> <Gold.Chemscore.Rot.Weighted>
3.5152

> <Gold.Chemscore.Internal.Correction.Weighted>
   9.000000E+99

> <Gold.Protein.RotatedTorsions>
[ 6907 6896 6895 6894 ] final  -96.69 input  -60.11 | X-H torsion
[ 7974 7965 7964 7962 ] final  -28.83 input  175.53 | X-H torsion
[ 8008 7997 7996 7995 ] final   72.48 input   59.86 | X-H torsion
[ 10167 10162 10161 10158 ] final   35.33 input  -65.29 | X-H torsion
[ 10718 10713 10712 10709 ] final   50.12 input   66.30 | X-H torsion
[ 10763 10752 10751 10750 ] final  166.99 input  -60.55 | X-H torsion
[ 11005 11000 10999 10996 ] final -170.29 input  -57.11 | X-H torsion

> <Gold.Protein.ActiveResidues>
 VAL166  LYS551  ARG553  GLY616  TRP617  ASP618  TYR619  PRO620  LYS621  CYS622 
 ASP623  PHE694  ASN695  SER759  ASP760  ASP761  ALA762  ILE779  LEU786  VAL792 
 PHE793  MET794  SER795  GLU796  ALA797  LYS798  CYS799  TRP800  GLU811  SER814 

> <Gold.Protein.RotatedAtoms>
  150.6995  134.1463  159.4123 H   0  0  0  0  0  0  0  0  0  0  0  0  # atno 6907 bound_to 6896
  151.9447  135.0195  160.0547 H   0  0  0  0  0  0  0  0  0  0  0  0  # atno 6908 bound_to 6896
  152.2063  133.4843  159.5122 H   0  0  0  0  0  0  0  0  0  0  0  0  # atno 6909 bound_to 6896
  146.1260  140.5334  142.8714 H   0  0  0  0  0  0  0  0  0  0  0  0  # atno 7974 bound_to 7965
  155.7695  140.3484  155.5239 H   0  0  0  0  0  0  0  0  0  0  0  0  # atno 8008 bound_to 7997
  155.8836  140.1006  157.1489 H   0  0  0  0  0  0  0  0  0  0  0  0  # atno 8009 bound_to 7997
  154.4027  140.1318  156.4214 H   0  0  0  0  0  0  0  0  0  0  0  0  # atno 8010 bound_to 7997
  140.4232  144.1430  150.6150 H   0  0  0  0  0  0  0  0  0  0  0  0  # atno 10167 bound_to 10162
  157.4854  130.8342  149.8141 H   0  0  0  0  0  0  0  0  0  0  0  0  # atno 10718 bound_to 10713
  154.3473  135.2753  155.2391 H   0  0  0  0  0  0  0  0  0  0  0  0  # atno 10763 bound_to 10752
  154.4636  135.5901  153.6276 H   0  0  0  0  0  0  0  0  0  0  0  0  # atno 10764 bound_to 10752
  152.9852  135.6071  154.3679 H   0  0  0  0  0  0  0  0  0  0  0  0  # atno 10765 bound_to 10752
  140.5212  134.5708  157.5048 H   0  0  0  0  0  0  0  0  0  0  0  0  # atno 11005 bound_to 11000
  144.7643  140.5494  143.6714 LP  0  0  0  0  0  0  0  0  0  0  0  0  # atno 17320 bound_to 7965
  145.5364  139.1475  143.3471 LP  0  0  0  0  0  0  0  0  0  0  0  0  # atno 17321 bound_to 7965
  140.4510  143.2487  151.9347 LP  0  0  0  0  0  0  0  0  0  0  0  0  # atno 17342 bound_to 10162
  139.4783  144.5562  151.8310 LP  0  0  0  0  0  0  0  0  0  0  0  0  # atno 17343 bound_to 10162
  156.0144  130.3820  150.2159 LP  0  0  0  0  0  0  0  0  0  0  0  0  # atno 17370 bound_to 10713
  157.0346  131.0017  151.3302 LP  0  0  0  0  0  0  0  0  0  0  0  0  # atno 17371 bound_to 10713
  139.9605  134.7461  156.0248 LP  0  0  0  0  0  0  0  0  0  0  0  0  # atno 17394 bound_to 11000
  141.1333  133.6581  156.3524 LP  0  0  0  0  0  0  0  0  0  0  0  0  # atno 17395 bound_to 11000

$$$$
