#       Name:                AV-unprocessed.smi:2774
#       Creating user name   scv26
#       Creation time:       Fri Mar 27 15:12:52 2020


#       File generated by GOLD software.
#

@<TRIPOS>MOLECULE
AV-unprocessed.smi:2774
    38    39     1
SMALL
NO_CHARGES


@<TRIPOS>ATOM
      1 ****        -2.5791  -0.5603  -0.6941 O.3            1 S1                 0.0000
      2 ****        -2.0105   0.4041   0.1697 C.3            1 S1                 0.0000
      3 ****        -0.4828   0.3925  -0.0160 C.3            1 S1                 0.0000
      4 ****         0.0983  -0.9122   0.3687 N.4            1 S1                 1.0000
      5 ****         1.5682  -1.0141   0.2327 C.3            1 S1                 0.0000
      6 ****         2.0849  -2.1568   1.1289 C.3            1 S1                 0.0000
      7 ****         3.6178  -2.2789   1.1187 C.3            1 S1                 0.0000
      8 ****         4.1723  -2.5796  -0.2801 C.3            1 S1                 0.0000
      9 ****         3.7766  -1.2437  -1.4394 S.3            1 S1                 0.0000
     10 ****         1.9741  -1.2335  -1.2395 C.3            1 S1                 0.0000
     11 ****        -2.5871   1.7878  -0.0840 C.ar           1 S1                 0.0000
     12 ****        -3.1056   2.5557   0.9798 C.ar           1 S1                 0.0000
     13 ****        -3.6249   3.8351   0.6967 C.ar           1 S1                 0.0000
     14 ****        -3.6502   4.3672  -0.5439 N.ar           1 S1                 0.0000
     15 ****        -3.1527   3.6285  -1.5585 C.ar           1 S1                 0.0000
     16 ****        -2.6116   2.3392  -1.3834 C.ar           1 S1                 0.0000
     17 ****        -3.5135  -0.5781  -0.5492 H              1 S1                 0.0000
     18 ****        -2.2510   0.1095   1.1924 H              1 S1                 0.0000
     19 ****        -0.2300   0.6287  -1.0496 H              1 S1                 0.0000
     20 ****        -0.0341   1.1677   0.6067 H              1 S1                 0.0000
     21 ****        -0.1335  -1.0681   1.3391 H              1 S1                 0.0000
     22 ****         2.0057  -0.0807   0.5906 H              1 S1                 0.0000
     23 ****         1.7546  -1.9910   2.1552 H              1 S1                 0.0000
     24 ****         1.6428  -3.1040   0.8167 H              1 S1                 0.0000
     25 ****         4.0649  -1.3610   1.5024 H              1 S1                 0.0000
     26 ****         3.9197  -3.0732   1.8020 H              1 S1                 0.0000
     27 ****         5.2553  -2.6985  -0.2398 H              1 S1                 0.0000
     28 ****         3.7616  -3.5154  -0.6604 H              1 S1                 0.0000
     29 ****         1.5723  -2.1768  -1.6116 H              1 S1                 0.0000
     30 ****         1.5794  -0.4462  -1.8807 H              1 S1                 0.0000
     31 ****        -3.1094   2.1789   1.9921 H              1 S1                 0.0000
     32 ****        -4.0295   4.4479   1.4886 H              1 S1                 0.0000
     33 ****        -3.1852   4.0786  -2.5397 H              1 S1                 0.0000
     34 ****        -2.2244   1.7907  -2.2296 H              1 S1                 0.0000
     35 ****        -0.3333  -1.6403  -0.1829 H              1 S1                 0.0000
     36 ****        -2.1899  -1.4603  -0.4979 LP             1 S1                 0.0000
     37 ****        -2.3896  -0.3153  -1.6449 LP             1 S1                 0.0000
     38 ****        -4.0256   5.2798  -0.7061 LP             1 S1                 0.0000
@<TRIPOS>BOND
    1    1    2 1     
    2    1   17 1     
    3    2    3 1     
    4    2   11 1     
    5    2   18 1     
    6    3    4 1     
    7    3   19 1     
    8    3   20 1     
    9    4    5 1     
   10    4   21 1     
   11    4   35 1     
   12    5   10 1     
   13    5    6 1     
   14    5   22 1     
   15    6    7 1     
   16    6   23 1     
   17    6   24 1     
   18    7    8 1     
   19    7   25 1     
   20    7   26 1     
   21    8    9 1     
   22    8   27 1     
   23    8   28 1     
   24    9   10 1     
   25   10   29 1     
   26   10   30 1     
   27   11   16 ar    
   28   11   12 ar    
   29   12   13 ar    
   30   12   31 1     
   31   13   14 ar    
   32   13   32 1     
   33   14   15 ar    
   34   15   16 ar    
   35   15   33 1     
   36   16   34 1     
   37    1   36 1     
   38    1   37 1     
   39   14   38 1     
@<TRIPOS>SUBSTRUCTURE
      1 S1             1
@<TRIPOS>SET
LONE_PAIRS      STATIC     ATOMS    <user>   **** ""
3 36 37 38
DONOR_HYDROGENS      STATIC     ATOMS    <user>   **** ""
3 17 21 35
ATOM$BLUE        STATIC     ATOMS    COLORGROUP SYSTEM
3 36 37 38
ATOM$RED        STATIC     ATOMS    COLORGROUP SYSTEM
3 17 21 35
