AV-unprocessed.smi:3120|AV-procd|sdf|11892|dock6
  -GOLD-   2272017283D 1   1.00000     0.00000
 Structure written by MMmdl.
 22 23  0  0  0  0  0  0  0  0  1 V2000
  154.7929  141.1210  162.7240 O   0  0  0  0  0  0  0  0  0  0  0  0
  154.4230  140.4843  161.7394 C   0  0  0  0  0  0  0  0  0  0  0  0
  154.1708  139.1764  161.7124 N   0  0  0  0  0  0  0  0  0  0  0  0
  153.7610  138.6933  160.4080 C   0  0  0  0  0  0  0  0  0  0  0  0
  153.5189  139.9642  159.5790 C   0  0  0  0  0  0  0  0  0  0  0  0
  154.1893  141.1046  160.3661 C   0  0  1  0  0  0  0  0  0  0  0  0
  153.3715  142.3902  160.4328 C   0  0  0  0  0  0  0  0  0  0  0  0
  153.1451  143.1891  159.2893 C   0  0  0  0  0  0  0  0  0  0  0  0
  152.3831  144.3658  159.4191 C   0  0  0  0  0  0  0  0  0  0  0  0
  151.8759  144.6987  160.6904 C   0  0  0  0  0  0  0  0  0  0  0  0
  152.0834  143.9453  161.7914 N   0  0  0  0  0  0  0  0  0  0  0  0
  152.8146  142.8178  161.6576 C   0  0  0  0  0  0  0  0  0  0  0  0
  154.2609  138.5677  162.5132 H   0  0  0  0  0  0  0  0  0  0  0  0
  154.5632  138.0909  159.9802 H   0  0  0  0  0  0  0  0  0  0  0  0
  152.8660  138.0747  160.4801 H   0  0  0  0  0  0  0  0  0  0  0  0
  153.9157  139.8771  158.5672 H   0  0  0  0  0  0  0  0  0  0  0  0
  152.4448  140.1305  159.4879 H   0  0  0  0  0  0  0  0  0  0  0  0
  155.1704  141.3138  159.9374 H   0  0  0  0  0  0  0  0  0  0  0  0
  153.5473  142.9068  158.3274 H   0  0  0  0  0  0  0  0  0  0  0  0
  152.1918  144.9979  158.5645 H   0  0  0  0  0  0  0  0  0  0  0  0
  151.2885  145.5946  160.8271 H   0  0  0  0  0  0  0  0  0  0  0  0
  152.9601  142.2405  162.5591 H   0  0  0  0  0  0  0  0  0  0  0  0
  1  2  2  0  0  0  0
  2  6  1  0  0  0  0
  2  3  1  0  0  0  0
  3  4  1  0  0  0  0
  3 13  1  0  0  0  0
  4  5  1  0  0  0  0
  4 14  1  0  0  0  0
  4 15  1  0  0  0  0
  5  6  1  0  0  0  0
  5 16  1  0  0  0  0
  5 17  1  0  0  0  0
  6  7  1  0  0  0  0
  6 18  1  0  0  0  0
  7 12  1  0  0  0  0
  7  8  2  0  0  0  0
  8  9  1  0  0  0  0
  8 19  1  0  0  0  0
  9 10  2  0  0  0  0
  9 20  1  0  0  0  0
 10 11  1  0  0  0  0
 10 21  1  0  0  0  0
 11 12  2  0  0  0  0
 12 22  1  0  0  0  0
M  END
> <s_m_source_file>
AV-unprocessed.smi

> <i_m_source_file_index>
3120

> <i_lp_mmshare_version>
43012

> <i_f3d_flags>
0

> <s_epik_input>
Tz1DMVtOSF1bQ0gyXVtDSDJdW0NASF0xYzJbY0hdW2NIXVtjSF1uW2NIXTI=

> <s_epik_cmdline>
J2VwaWtfcHl0aG9uJywgJy1waCcsICc3LjAnLCAnLXRuJywgJzgnLCAnLW1hJywgJzIwMCcsICctbWV0YWxfYmluZGluZycsICctaW1hZScsICc8aW5maWxlLm1hZT4nLCAnLW9tYWUnLCAnPG91dGZpbGUubWFlPic=

> <r_epik_Ionization_Penalty>
0.00558523

> <r_epik_Ionization_Penalty_Charging>
0

> <r_epik_Ionization_Penalty_Neutral>
0.00558523

> <r_epik_State_Penalty>
0.00409114

> <r_epik_Charging_Adjusted_Penalty>
0.00409114

> <i_epik_Tot_Q>
0

> <i_epik_Tot_abs_Q>
0

> <r_epik_Metal_State_Penalty>
-0

> <b_epik_Metal_Only>
0

> <s_lp_Force_Field>
OPLS_2005

> <r_lp_Energy>
14.9187

> <b_lp_Chiralities_Consistent>
1

> <s_lp_Variant>
AV-unprocessed.smi:3120-1

> <Gold.Version>
5.8.1

> <Gold.Id.Protein>
6NUR|6NUR_protein|mol2

> <Gold.PLP.Fitness>
32.1388

> <Gold.PLP.PLP>
-32.3430

> <Gold.PLP.part.hbond>
-1.0000

> <Gold.PLP.part.metal>
0.0000

> <Gold.PLP.part.buried>
-4.6977

> <Gold.PLP.part.nonpolar>
-26.7951

> <Gold.PLP.part.repulsive>
0.1848

> <Gold.PLP.ligand.clash>
0.0000

> <Gold.PLP.ligand.torsion>
0.1058

> <Gold.PLP.Chemscore.Hbond>
0.0000

> <Gold.PLP.Chemscore.CHOScore>
0.0000

> <Gold.PLP.Chemscore.Metal>
0.0000

> <Gold.PLP.Chemscore.Internal.Correction>
0.0075

> <Gold.Rescore>
     Score         DG    S(hbond)    S(metal)    S(lipo)     H(rot)  DE(clash)    DE(int)     intcor
     11.27     -12.80       0.00        0.00      84.46       1.00       0.11       1.43       ----

> <Gold.Chemscore.Fitness>
11.2708

> <Gold.Chemscore.DG>
-12.8018

> <Gold.Chemscore.ZeroCoef>
-5.4800

> <Gold.Chemscore.Hbond>
0.0000

> <Gold.Chemscore.Metal>
0.0000

> <Gold.Chemscore.Lipo>
84.4602

> <Gold.Chemscore.Internal_Hbond>
0.0000

> <Gold.Chemscore.DEClash>
0.1054

> <Gold.Chemscore.DEInternal>
1.4256

> <Gold.Chemscore.Rot>
1.0000

> <Gold.Chemscore.Internal.Correction>
   9.000000E+99

> <Gold.Chemscore.Hbond.Weighted>
-0.0000

> <Gold.Chemscore.Metal.Weighted>
-0.0000

> <Gold.Chemscore.Lipo.Weighted>
-9.8818

> <Gold.Chemscore.Internal_Hbond.Weighted>
0.0000

> <Gold.Chemscore.DEClash.Weighted>
0.1054

> <Gold.Chemscore.DEInternal.Weighted>
1.4256

> <Gold.Chemscore.Rot.Weighted>
2.5600

> <Gold.Chemscore.Internal.Correction.Weighted>
   9.000000E+99

> <Gold.Protein.RotatedTorsions>
[ 6907 6896 6895 6894 ] final   60.09 input  -60.11 | X-H torsion
[ 7974 7965 7964 7962 ] final   26.82 input  175.53 | X-H torsion
[ 8008 7997 7996 7995 ] final   97.82 input   59.86 | X-H torsion
[ 10167 10162 10161 10158 ] final  115.66 input  -65.29 | X-H torsion
[ 10718 10713 10712 10709 ] final -118.59 input   66.30 | X-H torsion
[ 10763 10752 10751 10750 ] final   41.85 input  -60.55 | X-H torsion
[ 11005 11000 10999 10996 ] final  -25.12 input  -57.11 | X-H torsion

> <Gold.Protein.ActiveResidues>
 VAL166  LYS551  ARG553  GLY616  TRP617  ASP618  TYR619  PRO620  LYS621  CYS622 
 ASP623  PHE694  ASN695  SER759  ASP760  ASP761  ALA762  ILE779  LEU786  VAL792 
 PHE793  MET794  SER795  GLU796  ALA797  LYS798  CYS799  TRP800  GLU811  SER814 

> <Gold.Protein.RotatedAtoms>
  152.3972  134.6345  160.0083 H   0  0  0  0  0  0  0  0  0  0  0  0  # atno 6907 bound_to 6896
  151.6561  133.3313  159.3171 H   0  0  0  0  0  0  0  0  0  0  0  0  # atno 6908 bound_to 6896
  150.7878  134.6920  159.6547 H   0  0  0  0  0  0  0  0  0  0  0  0  # atno 6909 bound_to 6896
  146.1817  139.7276  142.8895 H   0  0  0  0  0  0  0  0  0  0  0  0  # atno 7974 bound_to 7965
  156.0941  140.3253  155.7854 H   0  0  0  0  0  0  0  0  0  0  0  0  # atno 8008 bound_to 7997
  155.4947  140.0564  157.2965 H   0  0  0  0  0  0  0  0  0  0  0  0  # atno 8009 bound_to 7997
  154.4656  140.1987  156.0144 H   0  0  0  0  0  0  0  0  0  0  0  0  # atno 8010 bound_to 7997
  139.6302  144.7114  151.2449 H   0  0  0  0  0  0  0  0  0  0  0  0  # atno 10167 bound_to 10162
  156.1118  130.6254  150.9310 H   0  0  0  0  0  0  0  0  0  0  0  0  # atno 10718 bound_to 10713
  152.9897  135.6149  154.2854 H   0  0  0  0  0  0  0  0  0  0  0  0  # atno 10763 bound_to 10752
  154.2582  135.2783  155.2791 H   0  0  0  0  0  0  0  0  0  0  0  0  # atno 10764 bound_to 10752
  154.5229  135.5810  153.6753 H   0  0  0  0  0  0  0  0  0  0  0  0  # atno 10765 bound_to 10752
  140.8908  133.7589  156.0419 H   0  0  0  0  0  0  0  0  0  0  0  0  # atno 11005 bound_to 11000
  145.4056  141.0390  143.3046 LP  0  0  0  0  0  0  0  0  0  0  0  0  # atno 17320 bound_to 7965
  144.8327  139.5601  143.6936 LP  0  0  0  0  0  0  0  0  0  0  0  0  # atno 17321 bound_to 7965
  140.7434  143.6495  150.8262 LP  0  0  0  0  0  0  0  0  0  0  0  0  # atno 17342 bound_to 10162
  140.0118  143.5634  152.2836 LP  0  0  0  0  0  0  0  0  0  0  0  0  # atno 17343 bound_to 10162
  157.6299  131.0922  150.8461 LP  0  0  0  0  0  0  0  0  0  0  0  0  # atno 17370 bound_to 10713
  156.8571  130.5100  149.5307 LP  0  0  0  0  0  0  0  0  0  0  0  0  # atno 17371 bound_to 10713
  140.8349  134.3135  157.5335 LP  0  0  0  0  0  0  0  0  0  0  0  0  # atno 17394 bound_to 11000
  139.8729  134.9384  156.3713 LP  0  0  0  0  0  0  0  0  0  0  0  0  # atno 17395 bound_to 11000

$$$$
