AV-unprocessed.smi:276|AV-procd|sdf|2079|dock10
  -GOLD-   2262021343D 1   1.00000     0.00000
 Structure written by MMmdl.
 57 61  0  0  0  0  0  0  0  0  1 V2000
  151.7304  143.6179  159.4239 C   0  0  0  0  0  0  0  0  0  0  0  0
  151.4668  142.8292  158.2762 O   0  0  0  0  0  0  0  0  0  0  0  0
  150.2912  142.0442  158.4029 C   0  0  1  0  0  0  0  0  0  0  0  0
  149.0217  142.8942  158.3025 C   0  0  0  0  0  0  0  0  0  0  0  0
  148.3839  141.7140  157.5591 C   0  0  1  0  0  0  0  0  0  0  0  0
  147.4653  142.1332  156.4977 N   0  0  0  0  0  0  0  0  0  0  0  0
  146.3006  142.8976  156.9255 C   0  0  0  0  0  0  0  0  0  0  0  0
  147.0948  141.1767  155.6165 C   0  0  0  0  0  0  0  0  0  0  0  0
  147.5658  141.2944  154.3497 N   0  0  0  0  0  0  0  0  0  0  0  0
  147.2456  140.3817  153.4279 C   0  0  0  0  0  0  0  0  0  0  0  0
  146.4763  139.2991  153.5568 N   0  0  0  0  0  0  0  0  0  0  0  0
  145.9826  139.1909  154.8234 C   0  0  0  0  0  0  0  0  0  0  0  0
  146.2331  140.0796  155.9067 C   0  0  0  0  0  0  0  0  0  0  0  0
  145.5433  139.6512  157.0355 N   0  0  0  0  0  0  0  0  0  0  0  0
  144.9330  138.5658  156.6455 C   0  0  0  0  0  0  0  0  0  0  0  0
  145.1417  138.2177  155.3309 N   0  0  0  0  0  0  0  0  0  0  0  0
  144.5874  137.0728  154.6310 C   0  0  0  0  0  0  0  0  0  0  0  0
  144.8365  137.1381  153.1113 C   0  0  2  0  0  0  0  0  0  0  0  0
  143.9106  138.0346  152.5264 O   0  0  0  0  0  0  0  0  0  0  0  0
  144.6930  135.7615  152.4367 C   0  0  1  0  0  0  0  0  0  0  0  0
  145.1474  135.7194  150.9777 C   0  0  0  0  0  0  0  0  0  0  0  0
  145.4742  134.2523  150.7537 C   0  0  0  0  0  0  0  0  0  0  0  0
  145.6592  133.6938  152.1677 C   0  0  0  0  0  0  0  0  0  0  0  0
  145.5681  134.8171  153.0343 O   0  0  0  0  0  0  0  0  0  0  0  0
  149.8203  141.3182  157.1236 C   0  0  0  0  0  0  0  0  0  0  0  0
  150.2050  139.8551  156.8645 C   0  0  0  0  0  0  0  0  0  0  0  0
  150.4043  140.1918  155.3831 C   0  0  0  0  0  0  0  0  0  0  0  0
  150.4116  141.6807  155.7459 C   0  0  0  0  0  0  0  0  0  0  0  0
  152.6315  144.2090  159.2614 H   0  0  0  0  0  0  0  0  0  0  0  0
  151.8925  142.9991  160.3064 H   0  0  0  0  0  0  0  0  0  0  0  0
  150.9088  144.3063  159.6258 H   0  0  0  0  0  0  0  0  0  0  0  0
  150.2778  141.4070  159.2902 H   0  0  0  0  0  0  0  0  0  0  0  0
  148.5573  143.1372  159.2584 H   0  0  0  0  0  0  0  0  0  0  0  0
  149.1534  143.7811  157.6793 H   0  0  0  0  0  0  0  0  0  0  0  0
  147.9567  141.0019  158.2665 H   0  0  0  0  0  0  0  0  0  0  0  0
  145.6639  142.2980  157.5774 H   0  0  0  0  0  0  0  0  0  0  0  0
  145.7067  143.2252  156.0707 H   0  0  0  0  0  0  0  0  0  0  0  0
  146.6050  143.7889  157.4741 H   0  0  0  0  0  0  0  0  0  0  0  0
  147.6674  140.5411  152.4464 H   0  0  0  0  0  0  0  0  0  0  0  0
  144.3047  137.9892  157.3087 H   0  0  0  0  0  0  0  0  0  0  0  0
  145.0376  136.1723  155.0501 H   0  0  0  0  0  0  0  0  0  0  0  0
  143.5190  137.0148  154.8432 H   0  0  0  0  0  0  0  0  0  0  0  0
  145.8398  137.5249  152.9276 H   0  0  0  0  0  0  0  0  0  0  0  0
  144.2194  138.2641  151.6633 H   0  0  0  0  0  0  0  0  0  0  0  0
  143.6674  135.3960  152.5201 H   0  0  0  0  0  0  0  0  0  0  0  0
  144.3916  136.0954  150.2875 H   0  0  0  0  0  0  0  0  0  0  0  0
  146.0502  136.3178  150.8471 H   0  0  0  0  0  0  0  0  0  0  0  0
  144.6554  133.7402  150.2471 H   0  0  0  0  0  0  0  0  0  0  0  0
  146.3721  134.1351  150.1461 H   0  0  0  0  0  0  0  0  0  0  0  0
  144.8644  132.9865  152.4082 H   0  0  0  0  0  0  0  0  0  0  0  0
  146.6156  133.1858  152.2934 H   0  0  0  0  0  0  0  0  0  0  0  0
  151.1333  139.5664  157.3583 H   0  0  0  0  0  0  0  0  0  0  0  0
  149.4115  139.1338  157.0583 H   0  0  0  0  0  0  0  0  0  0  0  0
  151.3423  139.8287  154.9624 H   0  0  0  0  0  0  0  0  0  0  0  0
  149.5528  139.9060  154.7653 H   0  0  0  0  0  0  0  0  0  0  0  0
  149.7829  142.3047  155.1116 H   0  0  0  0  0  0  0  0  0  0  0  0
  151.4241  142.0810  155.8001 H   0  0  0  0  0  0  0  0  0  0  0  0
  1  2  1  0  0  0  0
  1 29  1  0  0  0  0
  1 30  1  0  0  0  0
  1 31  1  0  0  0  0
  2  3  1  0  0  0  0
  3 25  1  0  0  0  0
  3  4  1  0  0  0  0
  3 32  1  0  0  0  0
  4  5  1  0  0  0  0
  4 33  1  0  0  0  0
  4 34  1  0  0  0  0
  5  6  1  0  0  0  0
  5 25  1  0  0  0  0
  5 35  1  0  0  0  0
  6  7  1  0  0  0  0
  6  8  1  0  0  0  0
  7 36  1  0  0  0  0
  7 37  1  0  0  0  0
  7 38  1  0  0  0  0
  8 13  1  0  0  0  0
  8  9  2  0  0  0  0
  9 10  1  0  0  0  0
 10 11  2  0  0  0  0
 10 39  1  0  0  0  0
 11 12  1  0  0  0  0
 12 16  1  0  0  0  0
 12 13  2  0  0  0  0
 13 14  1  0  0  0  0
 14 15  2  0  0  0  0
 15 16  1  0  0  0  0
 15 40  1  0  0  0  0
 16 17  1  0  0  0  0
 17 18  1  0  0  0  0
 17 41  1  0  0  0  0
 17 42  1  0  0  0  0
 18 19  1  0  0  0  0
 18 20  1  0  0  0  0
 18 43  1  0  0  0  0
 19 44  1  0  0  0  0
 20 24  1  0  0  0  0
 20 21  1  0  0  0  0
 20 45  1  0  0  0  0
 21 22  1  0  0  0  0
 21 46  1  0  0  0  0
 21 47  1  0  0  0  0
 22 23  1  0  0  0  0
 22 48  1  0  0  0  0
 22 49  1  0  0  0  0
 23 24  1  0  0  0  0
 23 50  1  0  0  0  0
 23 51  1  0  0  0  0
 25 28  1  0  0  0  0
 25 26  1  0  0  0  0
 26 27  1  0  0  0  0
 26 52  1  0  0  0  0
 26 53  1  0  0  0  0
 27 28  1  0  0  0  0
 27 54  1  0  0  0  0
 27 55  1  0  0  0  0
 28 56  1  0  0  0  0
 28 57  1  0  0  0  0
M  END
> <s_m_source_file>
AV-unprocessed.smi

> <i_m_source_file_index>
276

> <i_lp_mmshare_version>
43012

> <i_f3d_flags>
0

> <s_epik_input>
W0NIMl0xW0NIMl1bQ0gyXUMxMltDQEhdKE9bQ0gzXSlbQ0gyXVtDQEhdMk4oW0NIM10pYyhuW2NIXW4zKWMoYzM0KW5bY0hdbjRbQ0gyXVtDQEhdKFtPSF0pW0NAQEhdNVtDSDJdW0NIMl1bQ0gyXU81

> <s_epik_cmdline>
J2VwaWtfcHl0aG9uJywgJy1waCcsICc3LjAnLCAnLXRuJywgJzgnLCAnLW1hJywgJzIwMCcsICctbWV0YWxfYmluZGluZycsICctaW1hZScsICc8aW5maWxlLm1hZT4nLCAnLW9tYWUnLCAnPG91dGZpbGUubWFlPic=

> <r_lp_tautomer_probability>
1

> <r_epik_Ionization_Penalty>
0.00204117

> <r_epik_Ionization_Penalty_Charging>
0

> <r_epik_Ionization_Penalty_Neutral>
0.00204117

> <r_epik_State_Penalty>
0.00127401

> <r_epik_Charging_Adjusted_Penalty>
0.00127401

> <i_epik_Tot_Q>
0

> <i_epik_Tot_abs_Q>
0

> <r_epik_Metal_State_Penalty>
-0

> <b_epik_Metal_Only>
0

> <s_lp_Force_Field>
OPLS_2005

> <r_lp_Energy>
54.7762

> <b_lp_Chiralities_Consistent>
1

> <s_lp_Variant>
AV-unprocessed.smi:276-10

> <Gold.Version>
5.8.1

> <Gold.Id.Protein>
6NUR|6NUR_protein|mol2

> <Gold.PLP.Fitness>
36.8410

> <Gold.PLP.PLP>
-31.4294

> <Gold.PLP.part.hbond>
-1.6547

> <Gold.PLP.part.metal>
0.0000

> <Gold.PLP.part.buried>
-6.1945

> <Gold.PLP.part.nonpolar>
-24.4249

> <Gold.PLP.part.repulsive>
1.1535

> <Gold.PLP.ligand.clash>
0.0365

> <Gold.PLP.ligand.torsion>
0.6330

> <Gold.PLP.Chemscore.Hbond>
1.0000

> <Gold.PLP.Chemscore.CHOScore>
1.0000

> <Gold.PLP.Chemscore.Metal>
0.0000

> <Gold.Chemscore.Hbonds>
donor molecule, donor type, donor heavy atom, donor atom, acceptor molecule, acceptor atom, score
      L1  H    19    44       P1 10171  0.99
      L1  C    10    39       P1  7957  1.00

> <Gold.PLP.Chemscore.Internal.Correction>
0.7142

> <Gold.Rescore>
     Score         DG    S(hbond)    S(metal)    S(lipo)     H(rot)  DE(clash)    DE(int)     intcor
      8.11     -10.25       0.98        0.00      72.35       2.72       0.04       2.10       ----

> <Gold.Chemscore.Fitness>
8.1133

> <Gold.Chemscore.DG>
-10.2493

> <Gold.Chemscore.ZeroCoef>
-5.4800

> <Gold.Chemscore.Hbond>
0.9761

> <Gold.Chemscore.Metal>
0.0000

> <Gold.Chemscore.Lipo>
72.3510

> <Gold.Chemscore.Internal_Hbond>
0.0000

> <Gold.Chemscore.DEClash>
0.0403

> <Gold.Chemscore.DEInternal>
2.0958

> <Gold.Chemscore.Rot>
2.7172

> <Gold.Chemscore.Internal.Correction>
   9.000000E+99

> <Gold.Chemscore.Hbonds>
donor molecule, donor type, donor heavy atom, donor atom, acceptor molecule, acceptor atom, score
      L1  H    19    44       P1 10171  0.94

> <Gold.Chemscore.Hbond.Weighted>
-3.2602

> <Gold.Chemscore.Metal.Weighted>
-0.0000

> <Gold.Chemscore.Lipo.Weighted>
-8.4651

> <Gold.Chemscore.Internal_Hbond.Weighted>
0.0000

> <Gold.Chemscore.DEClash.Weighted>
0.0403

> <Gold.Chemscore.DEInternal.Weighted>
2.0958

> <Gold.Chemscore.Rot.Weighted>
6.9560

> <Gold.Chemscore.Internal.Correction.Weighted>
   9.000000E+99

> <Gold.Protein.RotatedTorsions>
[ 6907 6896 6895 6894 ] final  -40.39 input  -60.11 | X-H torsion
[ 7974 7965 7964 7962 ] final   20.35 input  175.53 | X-H torsion
[ 8008 7997 7996 7995 ] final -175.45 input   59.86 | X-H torsion
[ 10167 10162 10161 10158 ] final -107.44 input  -65.29 | X-H torsion
[ 10718 10713 10712 10709 ] final -112.90 input   66.30 | X-H torsion
[ 10763 10752 10751 10750 ] final -148.19 input  -60.55 | X-H torsion
[ 11005 11000 10999 10996 ] final   87.18 input  -57.11 | X-H torsion

> <Gold.Protein.ActiveResidues>
 VAL166  LYS551  ARG553  GLY616  TRP617  ASP618  TYR619  PRO620  LYS621  CYS622 
 ASP623  PHE694  ASN695  SER759  ASP760  ASP761  ALA762  ILE779  LEU786  VAL792 
 PHE793  MET794  SER795  GLU796  ALA797  LYS798  CYS799  TRP800  GLU811  SER814 

> <Gold.Protein.RotatedAtoms>
  150.9790  134.9149  159.7832 H   0  0  0  0  0  0  0  0  0  0  0  0  # atno 6907 bound_to 6896
  152.5215  134.3437  159.9236 H   0  0  0  0  0  0  0  0  0  0  0  0  # atno 6908 bound_to 6896
  151.3444  133.3909  159.2709 H   0  0  0  0  0  0  0  0  0  0  0  0  # atno 6909 bound_to 6896
  146.2115  139.8182  142.8685 H   0  0  0  0  0  0  0  0  0  0  0  0  # atno 7974 bound_to 7965
  155.9827  140.1185  157.0712 H   0  0  0  0  0  0  0  0  0  0  0  0  # atno 8008 bound_to 7997
  154.4187  140.1141  156.5525 H   0  0  0  0  0  0  0  0  0  0  0  0  # atno 8009 bound_to 7997
  155.6449  140.3473  155.4730 H   0  0  0  0  0  0  0  0  0  0  0  0  # atno 8010 bound_to 7997
  140.1769  143.3997  152.1311 H   0  0  0  0  0  0  0  0  0  0  0  0  # atno 10167 bound_to 10162
  156.0734  130.5945  150.8571 H   0  0  0  0  0  0  0  0  0  0  0  0  # atno 10718 bound_to 10713
  154.8246  135.3341  154.6935 H   0  0  0  0  0  0  0  0  0  0  0  0  # atno 10763 bound_to 10752
  153.7563  135.6936  153.4939 H   0  0  0  0  0  0  0  0  0  0  0  0  # atno 10764 bound_to 10752
  153.2141  135.4471  155.0364 H   0  0  0  0  0  0  0  0  0  0  0  0  # atno 10765 bound_to 10752
  139.8926  134.8405  156.2824 H   0  0  0  0  0  0  0  0  0  0  0  0  # atno 11005 bound_to 11000
  145.3124  141.0223  143.3547 LP  0  0  0  0  0  0  0  0  0  0  0  0  # atno 17320 bound_to 7965
  144.8926  139.4754  143.6670 LP  0  0  0  0  0  0  0  0  0  0  0  0  # atno 17321 bound_to 7965
  139.5313  144.7162  151.5047 LP  0  0  0  0  0  0  0  0  0  0  0  0  # atno 17342 bound_to 10162
  140.6545  143.8628  150.6820 LP  0  0  0  0  0  0  0  0  0  0  0  0  # atno 17343 bound_to 10162
  157.5817  131.0946  150.9261 LP  0  0  0  0  0  0  0  0  0  0  0  0  # atno 17370 bound_to 10713
  156.9455  130.5400  149.5281 LP  0  0  0  0  0  0  0  0  0  0  0  0  # atno 17371 bound_to 10713
  141.0030  133.7140  156.0990 LP  0  0  0  0  0  0  0  0  0  0  0  0  # atno 17394 bound_to 11000
  140.7472  134.4085  157.5546 LP  0  0  0  0  0  0  0  0  0  0  0  0  # atno 17395 bound_to 11000

$$$$
