AV-unprocessed.smi:1197|AV-procd|sdf|5009|dock1
  -GOLD-   22720 4 23D 1   1.00000     0.00000
 Structure written by MMmdl.
 41 42  0  0  0  0  0  0  0  0  2 V2000
  150.6197  142.1199  157.6746 C   0  0  0  0  0  0  0  0  0  0  0  0
  151.0299  141.7014  156.3775 O   0  0  0  0  0  0  0  0  0  0  0  0
  150.6258  140.4599  155.9315 C   0  0  0  0  0  0  0  0  0  0  0  0
  150.1218  139.5376  156.8700 C   0  0  0  0  0  0  0  0  0  0  0  0
  149.7079  138.2681  156.4234 C   0  0  0  0  0  0  0  0  0  0  0  0
  149.8190  137.9575  155.0472 C   0  0  0  0  0  0  0  0  0  0  0  0
  149.4151  136.7218  154.4734 N   0  0  0  0  0  0  0  0  0  0  0  0
  149.0986  135.5767  155.1016 C   0  0  0  0  0  0  0  0  0  0  0  0
  149.1486  135.3977  156.3183 O   0  0  0  0  0  0  0  0  0  0  0  0
  148.7353  134.6280  154.2264 N   0  0  0  0  0  0  0  0  0  0  0  0
  148.3459  133.2643  154.5699 C   0  0  0  0  0  0  0  0  0  0  0  0
  148.7217  132.2953  153.4369 C   0  0  0  0  0  0  0  0  0  0  0  0
  147.5884  132.0473  152.5104 N   0  3  0  0  0  0  0  0  0  0  0  0
  146.5425  131.1836  153.1086 C   0  0  0  0  0  0  0  0  0  0  0  0
  145.4197  130.9138  152.0921 C   0  0  0  0  0  0  0  0  0  0  0  0
  144.8751  132.1479  151.6421 O   0  0  0  0  0  0  0  0  0  0  0  0
  145.8483  132.9527  150.9884 C   0  0  0  0  0  0  0  0  0  0  0  0
  146.9832  133.2901  151.9700 C   0  0  0  0  0  0  0  0  0  0  0  0
  150.3218  138.9559  154.1875 C   0  0  0  0  0  0  0  0  0  0  0  0
  150.7220  140.1740  154.6092 N   0  0  0  0  0  0  0  0  0  0  0  0
  151.0268  143.1099  157.8792 H   0  0  0  0  0  0  0  0  0  0  0  0
  150.9889  141.4448  158.4478 H   0  0  0  0  0  0  0  0  0  0  0  0
  149.5333  142.1878  157.7463 H   0  0  0  0  0  0  0  0  0  0  0  0
  150.0486  139.8010  157.9147 H   0  0  0  0  0  0  0  0  0  0  0  0
  149.3020  137.5691  157.1382 H   0  0  0  0  0  0  0  0  0  0  0  0
  149.4180  136.6923  153.4642 H   0  0  0  0  0  0  0  0  0  0  0  0
  148.7253  134.8698  153.2463 H   0  0  0  0  0  0  0  0  0  0  0  0
  148.8093  132.9528  155.5060 H   0  0  0  0  0  0  0  0  0  0  0  0
  147.2682  133.2475  154.7350 H   0  0  0  0  0  0  0  0  0  0  0  0
  149.5513  132.7326  152.8791 H   0  0  0  0  0  0  0  0  0  0  0  0
  149.0861  131.3481  153.8383 H   0  0  0  0  0  0  0  0  0  0  0  0
  146.9804  130.2371  153.4275 H   0  0  0  0  0  0  0  0  0  0  0  0
  146.1342  131.6650  153.9987 H   0  0  0  0  0  0  0  0  0  0  0  0
  145.7907  130.3349  151.2448 H   0  0  0  0  0  0  0  0  0  0  0  0
  144.6266  130.3265  152.5555 H   0  0  0  0  0  0  0  0  0  0  0  0
  146.2350  132.4368  150.1081 H   0  0  0  0  0  0  0  0  0  0  0  0
  145.3716  133.8680  150.6370 H   0  0  0  0  0  0  0  0  0  0  0  0
  146.5948  133.8958  152.7904 H   0  0  0  0  0  0  0  0  0  0  0  0
  147.7332  133.8918  151.4580 H   0  0  0  0  0  0  0  0  0  0  0  0
  150.4108  138.7716  153.1269 H   0  0  0  0  0  0  0  0  0  0  0  0
  147.9630  131.5333  151.7256 H   0  0  0  0  0  0  0  0  0  0  0  0
  1  2  1  0  0  0  0
  1 21  1  0  0  0  0
  1 22  1  0  0  0  0
  1 23  1  0  0  0  0
  2  3  1  0  0  0  0
  3 20  1  0  0  0  0
  3  4  2  0  0  0  0
  4  5  1  0  0  0  0
  4 24  1  0  0  0  0
  5  6  2  0  0  0  0
  5 25  1  0  0  0  0
  6  7  1  0  0  0  0
  6 19  1  0  0  0  0
  7  8  1  0  0  0  0
  7 26  1  0  0  0  0
  8  9  2  0  0  0  0
  8 10  1  0  0  0  0
 10 11  1  0  0  0  0
 10 27  1  0  0  0  0
 11 12  1  0  0  0  0
 11 28  1  0  0  0  0
 11 29  1  0  0  0  0
 12 13  1  0  0  0  0
 12 30  1  0  0  0  0
 12 31  1  0  0  0  0
 13 18  1  0  0  0  0
 13 14  1  0  0  0  0
 13 41  1  0  0  0  0
 14 15  1  0  0  0  0
 14 32  1  0  0  0  0
 14 33  1  0  0  0  0
 15 16  1  0  0  0  0
 15 34  1  0  0  0  0
 15 35  1  0  0  0  0
 16 17  1  0  0  0  0
 17 18  1  0  0  0  0
 17 36  1  0  0  0  0
 17 37  1  0  0  0  0
 18 38  1  0  0  0  0
 18 39  1  0  0  0  0
 19 20  2  0  0  0  0
 19 40  1  0  0  0  0
M  CHG  1  13   1
M  END
> <s_m_source_file>
AV-unprocessed.smi

> <i_m_source_file_index>
1197

> <i_lp_mmshare_version>
43012

> <i_f3d_flags>
0

> <s_epik_input>
W0NIM11PYzFbY0hdW2NIXWMoW2NIXW4xKVtOSF1DKD1PKVtOSF1bQ0gyXVtDSDJdTjJbQ0gyXVtDSDJdT1tDSDJdW0NIMl0y

> <s_epik_cmdline>
J2VwaWtfcHl0aG9uJywgJy1waCcsICc3LjAnLCAnLXRuJywgJzgnLCAnLW1hJywgJzIwMCcsICctbWV0YWxfYmluZGluZycsICctaW1hZScsICc8aW5maWxlLm1hZT4nLCAnLW9tYWUnLCAnPG91dGZpbGUubWFlPic=

> <r_lp_tautomer_probability>
1

> <r_epik_Ionization_Penalty>
0.602607

> <r_epik_Ionization_Penalty_Charging>
0.602531

> <r_epik_Ionization_Penalty_Neutral>
7.65795e-05

> <r_epik_State_Penalty>
0.617039

> <r_epik_Charging_Adjusted_Penalty>
1.21957

> <i_epik_Tot_Q>
1

> <i_epik_Tot_abs_Q>
1

> <r_epik_Metal_State_Penalty>
0.617043

> <b_epik_Metal_Only>
0

> <s_lp_Force_Field>
OPLS_2005

> <r_lp_Energy>
19.492

> <b_lp_Chiralities_Consistent>
1

> <s_lp_Variant>
AV-unprocessed.smi:1197-2

> <Gold.Version>
5.8.1

> <Gold.Id.Protein>
6NUR|6NUR_protein|mol2

> <Gold.PLP.Fitness>
44.2178

> <Gold.PLP.PLP>
-30.5426

> <Gold.PLP.part.hbond>
-4.0000

> <Gold.PLP.part.metal>
0.0000

> <Gold.PLP.part.buried>
-5.1001

> <Gold.PLP.part.nonpolar>
-21.0750

> <Gold.PLP.part.repulsive>
0.3150

> <Gold.PLP.ligand.clash>
0.0000

> <Gold.PLP.ligand.torsion>
0.7132

> <Gold.PLP.Chemscore.Hbond>
3.9920

> <Gold.PLP.Chemscore.CHOScore>
1.0000

> <Gold.PLP.Chemscore.Metal>
0.0000

> <Gold.Chemscore.Hbonds>
donor molecule, donor type, donor heavy atom, donor atom, acceptor molecule, acceptor atom, score
      L1  H     7    26       P1  7948  1.00
      L1  H    10    27       P1  7948  0.99
      L1  H    13    41       P1 10747  1.00
      P1  H  7989  7998       L1    20  1.00
      L1  C    19    40       P1  7957  1.00

> <Gold.PLP.Chemscore.Internal.Correction>
0.1257

> <Gold.Rescore>
     Score         DG    S(hbond)    S(metal)    S(lipo)     H(rot)  DE(clash)    DE(int)     intcor
     18.28     -20.02       3.46        0.00      65.45       1.83       0.02       1.73       ----

> <Gold.Chemscore.Fitness>
18.2765

> <Gold.Chemscore.DG>
-20.0203

> <Gold.Chemscore.ZeroCoef>
-5.4800

> <Gold.Chemscore.Hbond>
3.4601

> <Gold.Chemscore.Metal>
0.0000

> <Gold.Chemscore.Lipo>
65.4517

> <Gold.Chemscore.Internal_Hbond>
0.0000

> <Gold.Chemscore.DEClash>
0.0163

> <Gold.Chemscore.DEInternal>
1.7275

> <Gold.Chemscore.Rot>
1.8260

> <Gold.Chemscore.Internal.Correction>
   9.000000E+99

> <Gold.Chemscore.Hbonds>
donor molecule, donor type, donor heavy atom, donor atom, acceptor molecule, acceptor atom, score
      L1  H     7    26       P1  7948  0.85
      L1  H    10    27       P1  7948  0.42
      L1  H    13    41       P1 10747  1.00
      P1  H  7989  7998       L1    20  0.73

> <Gold.Chemscore.Hbond.Weighted>
-11.5569

> <Gold.Chemscore.Metal.Weighted>
-0.0000

> <Gold.Chemscore.Lipo.Weighted>
-7.6578

> <Gold.Chemscore.Internal_Hbond.Weighted>
0.0000

> <Gold.Chemscore.DEClash.Weighted>
0.0163

> <Gold.Chemscore.DEInternal.Weighted>
1.7275

> <Gold.Chemscore.Rot.Weighted>
4.6744

> <Gold.Chemscore.Internal.Correction.Weighted>
   9.000000E+99

> <Gold.Protein.RotatedTorsions>
[ 6907 6896 6895 6894 ] final -117.50 input  -60.11 | X-H torsion
[ 7974 7965 7964 7962 ] final  110.02 input  175.53 | X-H torsion
[ 8008 7997 7996 7995 ] final   86.90 input   59.86 | X-H torsion
[ 10167 10162 10161 10158 ] final -114.03 input  -65.29 | X-H torsion
[ 10718 10713 10712 10709 ] final -118.28 input   66.30 | X-H torsion
[ 10763 10752 10751 10750 ] final  134.39 input  -60.55 | X-H torsion
[ 11005 11000 10999 10996 ] final  143.07 input  -57.11 | X-H torsion

> <Gold.Protein.ActiveResidues>
 VAL166  LYS551  ARG553  GLY616  TRP617  ASP618  TYR619  PRO620  LYS621  CYS622 
 ASP623  PHE694  ASN695  SER759  ASP760  ASP761  ALA762  ILE779  LEU786  VAL792 
 PHE793  MET794  SER795  GLU796  ALA797  LYS798  CYS799  TRP800  GLU811  SER814 

> <Gold.Protein.RotatedAtoms>
  150.8142  133.8367  159.3168 H   0  0  0  0  0  0  0  0  0  0  0  0  # atno 6907 bound_to 6896
  151.6144  135.1036  160.0097 H   0  0  0  0  0  0  0  0  0  0  0  0  # atno 6908 bound_to 6896
  152.4233  133.7113  159.6537 H   0  0  0  0  0  0  0  0  0  0  0  0  # atno 6909 bound_to 6896
  145.2603  139.2705  143.4020 H   0  0  0  0  0  0  0  0  0  0  0  0  # atno 7974 bound_to 7965
  155.9686  140.3387  155.6555 H   0  0  0  0  0  0  0  0  0  0  0  0  # atno 8008 bound_to 7997
  155.6705  140.0726  157.2540 H   0  0  0  0  0  0  0  0  0  0  0  0  # atno 8009 bound_to 7997
  154.4160  140.1692  156.1861 H   0  0  0  0  0  0  0  0  0  0  0  0  # atno 8010 bound_to 7997
  140.1054  143.4575  152.1786 H   0  0  0  0  0  0  0  0  0  0  0  0  # atno 10167 bound_to 10162
  156.1095  130.6237  150.9272 H   0  0  0  0  0  0  0  0  0  0  0  0  # atno 10718 bound_to 10713
  153.8228  135.3114  155.3412 H   0  0  0  0  0  0  0  0  0  0  0  0  # atno 10763 bound_to 10752
  154.8005  135.4729  154.0268 H   0  0  0  0  0  0  0  0  0  0  0  0  # atno 10764 bound_to 10752
  153.1682  135.6873  153.8735 H   0  0  0  0  0  0  0  0  0  0  0  0  # atno 10765 bound_to 10752
  140.0525  134.9248  157.1042 H   0  0  0  0  0  0  0  0  0  0  0  0  # atno 11005 bound_to 11000
  146.3277  140.3018  142.8621 LP  0  0  0  0  0  0  0  0  0  0  0  0  # atno 17320 bound_to 7965
  144.9424  140.8093  143.5622 LP  0  0  0  0  0  0  0  0  0  0  0  0  # atno 17321 bound_to 7965
  139.5648  144.7428  151.4053 LP  0  0  0  0  0  0  0  0  0  0  0  0  # atno 17342 bound_to 10162
  140.6955  143.7759  150.7320 LP  0  0  0  0  0  0  0  0  0  0  0  0  # atno 17343 bound_to 10162
  157.6275  131.0924  150.8505 LP  0  0  0  0  0  0  0  0  0  0  0  0  # atno 17370 bound_to 10713
  156.8619  130.5116  149.5303 LP  0  0  0  0  0  0  0  0  0  0  0  0  # atno 17371 bound_to 10713
  140.3895  134.2200  155.7167 LP  0  0  0  0  0  0  0  0  0  0  0  0  # atno 17394 bound_to 11000
  141.1937  133.8145  157.0788 LP  0  0  0  0  0  0  0  0  0  0  0  0  # atno 17395 bound_to 11000

$$$$
