AV-unprocessed.smi:928|AV-procd|sdf|4191|dock2
  -GOLD-   22720 2 93D 1   1.00000     0.00000
 Structure written by MMmdl.
 43 44  0  0  0  0  0  0  0  0  1 V2000
  152.1534  144.0997  159.0920 C   0  0  0  0  0  0  0  0  0  0  0  0
  152.3094  142.5761  159.0372 C   0  0  0  0  0  0  0  0  0  0  0  0
  151.6366  141.9591  157.8556 C   0  0  0  0  0  0  0  0  0  0  0  0
  150.8585  142.5845  156.9126 C   0  0  0  0  0  0  0  0  0  0  0  0
  150.3792  141.7292  155.9178 N   0  0  0  0  0  0  0  0  0  0  0  0
  150.7686  140.4654  156.1015 C   0  0  0  0  0  0  0  0  0  0  0  0
  150.4299  139.3536  155.1665 C   0  0  0  0  0  0  0  0  0  0  0  0
  149.6480  139.8439  153.9370 C   0  0  0  0  0  0  0  0  0  0  0  0
  148.7851  138.8016  153.3940 N   0  0  0  0  0  0  0  0  0  0  0  0
  147.4455  138.8308  153.4116 C   0  0  0  0  0  0  0  0  0  0  0  0
  146.7828  139.7552  153.8832 O   0  0  0  0  0  0  0  0  0  0  0  0
  146.9175  137.7327  152.8529 N   0  0  0  0  0  0  0  0  0  0  0  0
  145.4886  137.4584  152.7113 C   0  0  2  0  0  0  0  0  0  0  0  0
  144.9319  137.1155  154.1086 C   0  0  0  0  0  0  0  0  0  0  0  0
  143.4645  136.6668  154.0564 C   0  0  0  0  0  0  0  0  0  0  0  0
  143.2906  135.4749  153.1062 C   0  0  0  0  0  0  0  0  0  0  0  0
  143.7959  135.8258  151.7005 C   0  0  0  0  0  0  0  0  0  0  0  0
  145.2652  136.2905  151.7193 C   0  0  1  0  0  0  0  0  0  0  0  0
  145.5919  136.7025  150.4068 O   0  0  0  0  0  0  0  0  0  0  0  0
  151.7891  140.2533  157.5189 S   0  0  0  0  0  0  0  0  0  0  0  0
  152.6510  144.5095  159.9710 H   0  0  0  0  0  0  0  0  0  0  0  0
  151.1023  144.3851  159.1410 H   0  0  0  0  0  0  0  0  0  0  0  0
  152.5892  144.5737  158.2119 H   0  0  0  0  0  0  0  0  0  0  0  0
  153.3699  142.3222  159.0222 H   0  0  0  0  0  0  0  0  0  0  0  0
  151.9091  142.1406  159.9534 H   0  0  0  0  0  0  0  0  0  0  0  0
  150.6001  143.6323  156.8694 H   0  0  0  0  0  0  0  0  0  0  0  0
  151.3580  138.8700  154.8597 H   0  0  0  0  0  0  0  0  0  0  0  0
  149.8516  138.6033  155.7073 H   0  0  0  0  0  0  0  0  0  0  0  0
  149.0213  140.6935  154.2100 H   0  0  0  0  0  0  0  0  0  0  0  0
  150.3335  140.1987  153.1652 H   0  0  0  0  0  0  0  0  0  0  0  0
  149.2403  137.9998  152.9826 H   0  0  0  0  0  0  0  0  0  0  0  0
  147.5502  137.0340  152.4916 H   0  0  0  0  0  0  0  0  0  0  0  0
  144.9594  138.3426  152.3498 H   0  0  0  0  0  0  0  0  0  0  0  0
  145.5279  136.3192  154.5572 H   0  0  0  0  0  0  0  0  0  0  0  0
  145.0270  137.9784  154.7688 H   0  0  0  0  0  0  0  0  0  0  0  0
  143.1225  136.3983  155.0563 H   0  0  0  0  0  0  0  0  0  0  0  0
  142.8376  137.4961  153.7261 H   0  0  0  0  0  0  0  0  0  0  0  0
  143.8374  134.6128  153.4904 H   0  0  0  0  0  0  0  0  0  0  0  0
  142.2409  135.1832  153.0622 H   0  0  0  0  0  0  0  0  0  0  0  0
  143.6860  134.9618  151.0439 H   0  0  0  0  0  0  0  0  0  0  0  0
  143.1646  136.6119  151.2829 H   0  0  0  0  0  0  0  0  0  0  0  0
  145.9032  135.4473  151.9886 H   0  0  0  0  0  0  0  0  0  0  0  0
  145.0798  137.4682  150.1959 H   0  0  0  0  0  0  0  0  0  0  0  0
  1  2  1  0  0  0  0
  1 21  1  0  0  0  0
  1 22  1  0  0  0  0
  1 23  1  0  0  0  0
  2  3  1  0  0  0  0
  2 24  1  0  0  0  0
  2 25  1  0  0  0  0
  3 20  1  0  0  0  0
  3  4  2  0  0  0  0
  4  5  1  0  0  0  0
  4 26  1  0  0  0  0
  5  6  2  0  0  0  0
  6  7  1  0  0  0  0
  6 20  1  0  0  0  0
  7  8  1  0  0  0  0
  7 27  1  0  0  0  0
  7 28  1  0  0  0  0
  8  9  1  0  0  0  0
  8 29  1  0  0  0  0
  8 30  1  0  0  0  0
  9 10  1  0  0  0  0
  9 31  1  0  0  0  0
 10 11  2  0  0  0  0
 10 12  1  0  0  0  0
 12 13  1  0  0  0  0
 12 32  1  0  0  0  0
 13 18  1  0  0  0  0
 13 14  1  0  0  0  0
 13 33  1  0  0  0  0
 14 15  1  0  0  0  0
 14 34  1  0  0  0  0
 14 35  1  0  0  0  0
 15 16  1  0  0  0  0
 15 36  1  0  0  0  0
 15 37  1  0  0  0  0
 16 17  1  0  0  0  0
 16 38  1  0  0  0  0
 16 39  1  0  0  0  0
 17 18  1  0  0  0  0
 17 40  1  0  0  0  0
 17 41  1  0  0  0  0
 18 19  1  0  0  0  0
 18 42  1  0  0  0  0
 19 43  1  0  0  0  0
M  END
> <s_m_source_file>
AV-unprocessed.smi

> <i_m_source_file_index>
928

> <i_lp_mmshare_version>
43012

> <i_f3d_flags>
0

> <s_epik_input>
W0NIM11bQ0gyXWMxW2NIXW5jKHMxKVtDSDJdW0NIMl1bTkhdQyg9TylbTkhdW0NAQEhdMltDSDJdW0NIMl1bQ0gyXVtDSDJdW0NASF0yW09IXQ==

> <s_epik_cmdline>
J2VwaWtfcHl0aG9uJywgJy1waCcsICc3LjAnLCAnLXRuJywgJzgnLCAnLW1hJywgJzIwMCcsICctbWV0YWxfYmluZGluZycsICctaW1hZScsICc8aW5maWxlLm1hZT4nLCAnLW9tYWUnLCAnPG91dGZpbGUubWFlPic=

> <r_epik_Ionization_Penalty>
0.000957396

> <r_epik_Ionization_Penalty_Charging>
0

> <r_epik_Ionization_Penalty_Neutral>
0.000957396

> <r_epik_State_Penalty>
0.000586538

> <r_epik_Charging_Adjusted_Penalty>
0.000586538

> <i_epik_Tot_Q>
0

> <i_epik_Tot_abs_Q>
0

> <r_epik_Metal_State_Penalty>
-0

> <b_epik_Metal_Only>
0

> <s_lp_Force_Field>
OPLS_2005

> <r_lp_Energy>
-3.08797

> <b_lp_Chiralities_Consistent>
1

> <s_lp_Variant>
AV-unprocessed.smi:928-1

> <Gold.Version>
5.8.1

> <Gold.Id.Protein>
6NUR|6NUR_protein|mol2

> <Gold.PLP.Fitness>
45.1451

> <Gold.PLP.PLP>
-34.0944

> <Gold.PLP.part.hbond>
-4.0000

> <Gold.PLP.part.metal>
0.0000

> <Gold.PLP.part.buried>
-2.6066

> <Gold.PLP.part.nonpolar>
-27.8197

> <Gold.PLP.part.repulsive>
0.3495

> <Gold.PLP.ligand.clash>
0.0000

> <Gold.PLP.ligand.torsion>
0.3957

> <Gold.PLP.Chemscore.Hbond>
2.9120

> <Gold.PLP.Chemscore.CHOScore>
1.0000

> <Gold.PLP.Chemscore.Metal>
0.0000

> <Gold.Chemscore.Hbonds>
donor molecule, donor type, donor heavy atom, donor atom, acceptor molecule, acceptor atom, score
      L1  H     9    31       P1  7948  0.81
      L1  H    12    32       P1  7948  1.00
      L1  H    19    43       P1 10171  1.00
      L1  C     4    26       P1  8028  1.00

> <Gold.PLP.Chemscore.Internal.Correction>
0.1061

> <Gold.Rescore>
     Score         DG    S(hbond)    S(metal)    S(lipo)     H(rot)  DE(clash)    DE(int)     intcor
     18.22     -19.84       2.82        0.00      90.69       2.21       1.22       0.40       ----

> <Gold.Chemscore.Fitness>
18.2225

> <Gold.Chemscore.DG>
-19.8442

> <Gold.Chemscore.ZeroCoef>
-5.4800

> <Gold.Chemscore.Hbond>
2.8166

> <Gold.Chemscore.Metal>
0.0000

> <Gold.Chemscore.Lipo>
90.6857

> <Gold.Chemscore.Internal_Hbond>
0.0000

> <Gold.Chemscore.DEClash>
1.2245

> <Gold.Chemscore.DEInternal>
0.3972

> <Gold.Chemscore.Rot>
2.2084

> <Gold.Chemscore.Internal.Correction>
   9.000000E+99

> <Gold.Chemscore.Hbonds>
donor molecule, donor type, donor heavy atom, donor atom, acceptor molecule, acceptor atom, score
      L1  H     9    31       P1  7948  0.75
      L1  H    12    32       P1  7948  1.00
      L1  H    19    43       P1 10171  1.00

> <Gold.Chemscore.Hbond.Weighted>
-9.4075

> <Gold.Chemscore.Metal.Weighted>
-0.0000

> <Gold.Chemscore.Lipo.Weighted>
-10.6102

> <Gold.Chemscore.Internal_Hbond.Weighted>
0.0000

> <Gold.Chemscore.DEClash.Weighted>
1.2245

> <Gold.Chemscore.DEInternal.Weighted>
0.3972

> <Gold.Chemscore.Rot.Weighted>
5.6535

> <Gold.Chemscore.Internal.Correction.Weighted>
   9.000000E+99

> <Gold.Protein.RotatedTorsions>
[ 6907 6896 6895 6894 ] final -125.74 input  -60.11 | X-H torsion
[ 7974 7965 7964 7962 ] final  -32.99 input  175.53 | X-H torsion
[ 8008 7997 7996 7995 ] final  -67.35 input   59.86 | X-H torsion
[ 10167 10162 10161 10158 ] final   -6.34 input  -65.29 | X-H torsion
[ 10718 10713 10712 10709 ] final   -4.25 input   66.30 | X-H torsion
[ 10763 10752 10751 10750 ] final   27.59 input  -60.55 | X-H torsion
[ 11005 11000 10999 10996 ] final  116.35 input  -57.11 | X-H torsion

> <Gold.Protein.ActiveResidues>
 VAL166  LYS551  ARG553  GLY616  TRP617  ASP618  TYR619  PRO620  LYS621  CYS622 
 ASP623  PHE694  ASN695  SER759  ASP760  ASP761  ALA762  ILE779  LEU786  VAL792 
 PHE793  MET794  SER795  GLU796  ALA797  LYS798  CYS799  TRP800  GLU811  SER814 

> <Gold.Protein.RotatedAtoms>
  150.8898  133.7259  159.2907 H   0  0  0  0  0  0  0  0  0  0  0  0  # atno 6907 bound_to 6896
  151.4813  135.1051  159.9788 H   0  0  0  0  0  0  0  0  0  0  0  0  # atno 6908 bound_to 6896
  152.4813  133.8214  159.7111 H   0  0  0  0  0  0  0  0  0  0  0  0  # atno 6909 bound_to 6896
  146.0946  140.5861  142.8848 H   0  0  0  0  0  0  0  0  0  0  0  0  # atno 7974 bound_to 7965
  154.4794  140.0894  156.7340 H   0  0  0  0  0  0  0  0  0  0  0  0  # atno 8008 bound_to 7997
  155.4511  140.3457  155.4282 H   0  0  0  0  0  0  0  0  0  0  0  0  # atno 8009 bound_to 7997
  156.1167  140.1463  156.9250 H   0  0  0  0  0  0  0  0  0  0  0  0  # atno 8010 bound_to 7997
  140.6993  143.6205  150.8617 H   0  0  0  0  0  0  0  0  0  0  0  0  # atno 10167 bound_to 10162
  156.7640  130.5278  149.5779 H   0  0  0  0  0  0  0  0  0  0  0  0  # atno 10718 bound_to 10713
  153.0546  135.6533  154.0609 H   0  0  0  0  0  0  0  0  0  0  0  0  # atno 10763 bound_to 10752
  154.0290  135.2913  155.3372 H   0  0  0  0  0  0  0  0  0  0  0  0  # atno 10764 bound_to 10752
  154.6854  135.5304  153.8386 H   0  0  0  0  0  0  0  0  0  0  0  0  # atno 10765 bound_to 10752
  139.9038  134.9597  156.7184 H   0  0  0  0  0  0  0  0  0  0  0  0  # atno 11005 bound_to 11000
  144.7386  140.4878  143.6886 LP  0  0  0  0  0  0  0  0  0  0  0  0  # atno 17320 bound_to 7965
  145.5973  139.1500  143.3149 LP  0  0  0  0  0  0  0  0  0  0  0  0  # atno 17321 bound_to 7965
  139.9926  143.5830  152.2904 LP  0  0  0  0  0  0  0  0  0  0  0  0  # atno 17342 bound_to 10162
  139.6491  144.7660  151.2184 LP  0  0  0  0  0  0  0  0  0  0  0  0  # atno 17343 bound_to 10162
  156.1321  130.6185  151.0348 LP  0  0  0  0  0  0  0  0  0  0  0  0  # atno 17370 bound_to 10713
  157.6721  131.0859  150.7585 LP  0  0  0  0  0  0  0  0  0  0  0  0  # atno 17371 bound_to 10713
  140.7020  133.9298  155.8030 LP  0  0  0  0  0  0  0  0  0  0  0  0  # atno 17394 bound_to 11000
  141.0365  134.0683  157.3953 LP  0  0  0  0  0  0  0  0  0  0  0  0  # atno 17395 bound_to 11000

$$$$
