#       Name:                AV-unprocessed.smi:511
#       Creating user name   scv26
#       Creation time:       Thu Mar 26 23:23:00 2020


#       File generated by GOLD software.
#

@<TRIPOS>MOLECULE
AV-unprocessed.smi:511
    53    55     1
SMALL
NO_CHARGES


@<TRIPOS>ATOM
      1 ****        -5.1357   1.2294  -1.5185 C.3            1 S1                 0.0000
      2 ****        -4.3486   0.2724  -0.8317 O.3            1 S1                 0.0000
      3 ****        -2.9853   0.3155  -1.2156 C.3            1 S1                 0.0000
      4 ****        -2.2161  -0.7502  -0.4258 C.3            1 S1                 0.0000
      5 ****        -0.7944  -0.7393  -0.7590 N.pl3          1 S1                 0.0000
      6 ****         0.2258  -0.0966  -0.1283 C.2            1 S1                 0.0000
      7 ****         0.0262   0.6441   1.0364 N.pl3          1 S1                 0.0000
      8 ****        -0.4183   0.0908   2.3143 C.3            1 S1                 0.0000
      9 ****         0.7530  -0.0489   3.3049 C.3            1 S1                 0.0000
     10 ****         1.4421   1.2484   3.5037 N.4            1 S1                 1.0000
     11 ****         2.5699   1.1553   4.4548 C.3            1 S1                 0.0000
     12 ****         1.8319   1.8680   2.2149 C.3            1 S1                 0.0000
     13 ****         0.6217   1.9564   1.2693 C.3            1 S1                 0.0000
     14 ****         1.4149  -0.2135  -0.7263 N.2            1 S1                 0.0000
     15 ****         1.1351  -1.0230  -1.8165 C.2            1 S1                 0.0000
     16 ****        -0.1815  -1.3468  -1.8553 C.2            1 S1                 0.0000
     17 ****        -0.7566  -2.1750  -2.9226 C.2            1 S1                 0.0000
     18 ****        -1.9487  -2.4667  -2.9856 O.2            1 S1                 0.0000
     19 ****         0.1629  -2.5820  -3.8315 N.am           1 S1                 0.0000
     20 ****         1.5017  -2.2989  -3.8465 C.2            1 S1                 0.0000
     21 ****         2.2103  -2.7519  -4.7447 O.2            1 S1                 0.0000
     22 ****         1.9967  -1.5084  -2.8386 N.am           1 S1                 0.0000
     23 ****         3.4129  -1.1439  -2.7648 C.3            1 S1                 0.0000
     24 ****        -0.1793  -3.1598  -4.5855 H              1 S1                 0.0000
     25 ****        -6.1716   1.1579  -1.1869 H              1 S1                 0.0000
     26 ****        -5.1147   1.0582  -2.5955 H              1 S1                 0.0000
     27 ****        -4.7877   2.2435  -1.3177 H              1 S1                 0.0000
     28 ****        -2.8923   0.1345  -2.2875 H              1 S1                 0.0000
     29 ****        -2.5713   1.3041  -1.0107 H              1 S1                 0.0000
     30 ****        -2.3583  -0.5792   0.6379 H              1 S1                 0.0000
     31 ****        -2.6215  -1.7428  -0.6200 H              1 S1                 0.0000
     32 ****        -1.2004   0.7262   2.7315 H              1 S1                 0.0000
     33 ****        -0.8592  -0.8940   2.1614 H              1 S1                 0.0000
     34 ****         0.3856  -0.4197   4.2624 H              1 S1                 0.0000
     35 ****         1.4665  -0.7847   2.9297 H              1 S1                 0.0000
     36 ****         3.3518   0.4972   4.0735 H              1 S1                 0.0000
     37 ****         2.2321   0.7649   5.4154 H              1 S1                 0.0000
     38 ****         3.0063   2.1392   4.6303 H              1 S1                 0.0000
     39 ****         2.2355   2.8652   2.3939 H              1 S1                 0.0000
     40 ****         2.6256   1.2802   1.7503 H              1 S1                 0.0000
     41 ****         0.9258   2.3920   0.3165 H              1 S1                 0.0000
     42 ****        -0.1352   2.6235   1.6843 H              1 S1                 0.0000
     43 ****         3.9988  -1.4627  -3.6274 H              1 S1                 0.0000
     44 ****         3.8641  -1.5884  -1.8774 H              1 S1                 0.0000
     45 ****         3.5171  -0.0610  -2.6878 H              1 S1                 0.0000
     46 ****         0.7625   1.8684   3.9209 H              1 S1                 0.0000
     47 ****        -4.7085  -0.6396  -1.0283 LP             1 S1                 0.0000
     48 ****        -4.4111   0.4509   0.1503 LP             1 S1                 0.0000
     49 ****         2.2909   0.1849  -0.4544 LP             1 S1                 0.0000
     50 ****        -2.5821  -2.1357  -2.2861 LP             1 S1                 0.0000
     51 ****        -2.2854  -3.0350  -3.7363 LP             1 S1                 0.0000
     52 ****         1.8073  -3.3239  -5.4591 LP             1 S1                 0.0000
     53 ****         3.1892  -2.5480  -4.7602 LP             1 S1                 0.0000
@<TRIPOS>BOND
    1    1    2 1     
    2    1   25 1     
    3    1   26 1     
    4    1   27 1     
    5    2    3 1     
    6    3    4 1     
    7    3   28 1     
    8    3   29 1     
    9    4    5 1     
   10    4   30 1     
   11    4   31 1     
   12    5   16 1     
   13    5    6 1     
   14    6    7 1     
   15    6   14 2     
   16    7   13 1     
   17    7    8 1     
   18    8    9 1     
   19    8   32 1     
   20    8   33 1     
   21    9   10 1     
   22    9   34 1     
   23    9   35 1     
   24   10   11 1     
   25   10   12 1     
   26   10   46 1     
   27   11   36 1     
   28   11   37 1     
   29   11   38 1     
   30   12   13 1     
   31   12   39 1     
   32   12   40 1     
   33   13   41 1     
   34   13   42 1     
   35   14   15 1     
   36   15   22 1     
   37   15   16 2     
   38   16   17 1     
   39   17   18 2     
   40   17   19 1     
   41   19   24 1     
   42   19   20 1     
   43   20   21 2     
   44   20   22 1     
   45   22   23 1     
   46   23   43 1     
   47   23   44 1     
   48   23   45 1     
   49    2   47 1     
   50    2   48 1     
   51   14   49 1     
   52   18   50 1     
   53   18   51 1     
   54   21   52 1     
   55   21   53 1     
@<TRIPOS>SUBSTRUCTURE
      1 S1             1
@<TRIPOS>SET
LONE_PAIRS      STATIC     ATOMS    <user>   **** ""
7 47 48 49 50 51 52 53
DONOR_HYDROGENS      STATIC     ATOMS    <user>   **** ""
2 46 24
ATOM$BLUE        STATIC     ATOMS    COLORGROUP SYSTEM
7 47 48 49 50 51 52 53
ATOM$RED        STATIC     ATOMS    COLORGROUP SYSTEM
2 46 24
