#       Name:                AV-unprocessed.smi:21
#       Creating user name   scv26
#       Creation time:       Thu Mar 26 15:41:11 2020


#       File generated by GOLD software.
#

@<TRIPOS>MOLECULE
AV-unprocessed.smi:21
    71    74     1
SMALL
NO_CHARGES


@<TRIPOS>ATOM
      1 ****        -3.1262   0.1848  -6.0528 C.3            1 S1                 0.0000
      2 ****        -2.8457  -0.8342  -5.1061 O.3            1 S1                 0.0000
      3 ****        -3.7154  -0.8182  -3.9830 C.3            1 S1                 0.0000
      4 ****        -3.3713   0.2930  -2.9735 C.3            1 S1                 0.0000
      5 ****        -2.9995  -0.4564  -1.6850 C.3            1 S1                 0.0000
      6 ****        -3.2965   0.3426  -0.3959 C.3            1 S1                 0.0000
      7 ****        -2.5240   1.5811  -0.2934 N.pl3          1 S1                 0.0000
      8 ****        -3.1665   2.8220  -0.7237 C.3            1 S1                 0.0000
      9 ****        -1.1603   1.5324  -0.2391 C.ar           1 S1                 0.0000
     10 ****        -0.4541   2.5835  -0.7385 N.ar           1 S1                 0.0000
     11 ****         0.8808   2.5795  -0.7357 C.ar           1 S1                 0.0000
     12 ****         1.7087   1.6381  -0.2850 N.ar           1 S1                 0.0000
     13 ****         1.0189   0.5831   0.2325 C.ar           1 S1                 0.0000
     14 ****        -0.3994   0.4477   0.2995 C.ar           1 S1                 0.0000
     15 ****        -0.7149  -0.7657   0.9037 N.2            1 S1                 0.0000
     16 ****         0.4385  -1.3155   1.1633 C.2            1 S1                 0.0000
     17 ****         1.5340  -0.5699   0.7988 N.pl3          1 S1                 0.0000
     18 ****         2.9284  -0.9422   0.9668 C.3            1 S1                 0.0000
     19 ****         3.3890  -0.9557   2.4450 C.3            1 S1                 0.0000
     20 ****         4.8537  -1.4426   2.5488 C.3            1 S1                 0.0000
     21 ****         4.9457  -2.8139   2.2230 O.3            1 S1                 0.0000
     22 ****         3.1345   0.3988   3.1648 C.3            1 S1                 0.0000
     23 ****         3.3581   0.3876   4.6787 C.3            1 S1                 0.0000
     24 ****         4.3101   1.5569   4.9260 C.3            1 S1                 0.0000
     25 ****         4.0856   2.4163   3.8211 O.3            1 S1                 0.0000
     26 ****         3.9805   1.5844   2.6779 C.3            1 S1                 0.0000
     27 ****        -3.6942  -1.7291  -1.7815 N.3            1 S1                 0.0000
     28 ****        -3.1813  -2.7466  -0.8733 C.3            1 S1                 0.0000
     29 ****        -3.5309  -2.1048  -3.1722 C.3            1 S1                 0.0000
     30 ****        -4.7575  -0.7364  -4.2974 H              1 S1                 0.0000
     31 ****        -1.9284  -0.6598  -1.7331 H              1 S1                 0.0000
     32 ****        -2.4247   0.1127  -6.8834 H              1 S1                 0.0000
     33 ****        -3.0265   1.1799  -5.6181 H              1 S1                 0.0000
     34 ****        -4.1340   0.0804  -6.4563 H              1 S1                 0.0000
     35 ****        -2.5513   0.9308  -3.3043 H              1 S1                 0.0000
     36 ****        -4.2446   0.9280  -2.8188 H              1 S1                 0.0000
     37 ****        -4.3597   0.5830  -0.3680 H              1 S1                 0.0000
     38 ****        -3.1291  -0.2602   0.4940 H              1 S1                 0.0000
     39 ****        -2.8286   3.6633  -0.1175 H              1 S1                 0.0000
     40 ****        -4.2501   2.7605  -0.6219 H              1 S1                 0.0000
     41 ****        -2.9391   3.0336  -1.7689 H              1 S1                 0.0000
     42 ****         1.3519   3.4546  -1.1582 H              1 S1                 0.0000
     43 ****         0.5228  -2.2837   1.6352 H              1 S1                 0.0000
     44 ****         3.0596  -1.9275   0.5185 H              1 S1                 0.0000
     45 ****         3.5480  -0.2584   0.3857 H              1 S1                 0.0000
     46 ****         2.7722  -1.6898   2.9663 H              1 S1                 0.0000
     47 ****         5.5045  -0.8807   1.8787 H              1 S1                 0.0000
     48 ****         5.2498  -1.3165   3.5554 H              1 S1                 0.0000
     49 ****         5.8500  -3.0799   2.2943 H              1 S1                 0.0000
     50 ****         2.0885   0.6755   3.0282 H              1 S1                 0.0000
     51 ****         2.4108   0.5625   5.1904 H              1 S1                 0.0000
     52 ****         3.7600  -0.5493   5.0639 H              1 S1                 0.0000
     53 ****         4.1216   2.0611   5.8739 H              1 S1                 0.0000
     54 ****         5.3478   1.2189   4.9175 H              1 S1                 0.0000
     55 ****         4.9828   1.2842   2.3732 H              1 S1                 0.0000
     56 ****         3.5201   2.1144   1.8446 H              1 S1                 0.0000
     57 ****        -3.6938  -3.6957  -1.0330 H              1 S1                 0.0000
     58 ****        -3.3395  -2.4593   0.1658 H              1 S1                 0.0000
     59 ****        -2.1128  -2.9086  -1.0217 H              1 S1                 0.0000
     60 ****        -4.2341  -2.8850  -3.4646 H              1 S1                 0.0000
     61 ****        -2.5231  -2.4924  -3.3331 H              1 S1                 0.0000
     62 ****        -1.9073  -0.7153  -4.7816 LP             1 S1                 0.0000
     63 ****        -2.9315  -1.7208  -5.5604 LP             1 S1                 0.0000
     64 ****        -0.9430   3.3712  -1.1134 LP             1 S1                 0.0000
     65 ****         2.7062   1.6980  -0.3217 LP             1 S1                 0.0000
     66 ****        -1.6244  -1.1341   1.0961 LP             1 S1                 0.0000
     67 ****         4.6239  -2.9605   1.2876 LP             1 S1                 0.0000
     68 ****         4.3860  -3.3490   2.8558 LP             1 S1                 0.0000
     69 ****         4.8508   3.0517   3.7167 LP             1 S1                 0.0000
     70 ****         3.2391   2.9326   3.9516 LP             1 S1                 0.0000
     71 ****        -4.6523  -1.6461  -1.5075 LP             1 S1                 0.0000
@<TRIPOS>BOND
    1    1    2 1     
    2    1   32 1     
    3    1   33 1     
    4    1   34 1     
    5    2    3 1     
    6    3   30 1     
    7    3   29 1     
    8    3    4 1     
    9    4    5 1     
   10    4   35 1     
   11    4   36 1     
   12    5   31 1     
   13    5    6 1     
   14    5   27 1     
   15    6    7 1     
   16    6   37 1     
   17    6   38 1     
   18    7    8 1     
   19    7    9 1     
   20    8   39 1     
   21    8   40 1     
   22    8   41 1     
   23    9   14 ar    
   24    9   10 ar    
   25   10   11 ar    
   26   11   12 ar    
   27   11   42 1     
   28   12   13 ar    
   29   13   17 1     
   30   13   14 ar    
   31   14   15 1     
   32   15   16 2     
   33   16   17 1     
   34   16   43 1     
   35   17   18 1     
   36   18   19 1     
   37   18   44 1     
   38   18   45 1     
   39   19   20 1     
   40   19   22 1     
   41   19   46 1     
   42   20   21 1     
   43   20   47 1     
   44   20   48 1     
   45   21   49 1     
   46   22   26 1     
   47   22   23 1     
   48   22   50 1     
   49   23   24 1     
   50   23   51 1     
   51   23   52 1     
   52   24   25 1     
   53   24   53 1     
   54   24   54 1     
   55   25   26 1     
   56   26   55 1     
   57   26   56 1     
   58   27   28 1     
   59   27   29 1     
   60   28   57 1     
   61   28   58 1     
   62   28   59 1     
   63   29   60 1     
   64   29   61 1     
   65    2   62 1     
   66    2   63 1     
   67   10   64 1     
   68   12   65 1     
   69   15   66 1     
   70   21   67 1     
   71   21   68 1     
   72   25   69 1     
   73   25   70 1     
   74   27   71 1     
@<TRIPOS>SUBSTRUCTURE
      1 S1             1
@<TRIPOS>SET
LONE_PAIRS      STATIC     ATOMS    <user>   **** ""
10 62 63 64 65 66 67 68 69 70 71
DONOR_HYDROGENS      STATIC     ATOMS    <user>   **** ""
1 49
ATOM$BLUE        STATIC     ATOMS    COLORGROUP SYSTEM
10 62 63 64 65 66 67 68 69 70 71
ATOM$RED        STATIC     ATOMS    COLORGROUP SYSTEM
1 49
