AV-unprocessed.smi:232|AV-procd|sdf|1781|dock2
  -GOLD-   2262020323D 1   1.00000     0.00000
 Structure written by MMmdl.
 52 55  0  0  0  0  0  0  0  0  1 V2000
  150.0044  141.6411  155.6873 C   0  0  0  0  0  0  0  0  0  0  0  0
  151.2145  141.1037  156.4605 C   0  0  0  0  0  0  0  0  0  0  0  0
  151.2704  141.6004  157.9200 C   0  0  2  0  0  0  0  0  0  0  0  0
  151.3782  143.1252  158.0606 C   0  0  0  0  0  0  0  0  0  0  0  0
  152.1898  143.3428  159.3436 C   0  0  0  0  0  0  0  0  0  0  0  0
  152.5279  141.9297  159.8356 C   0  0  2  0  0  0  0  0  0  0  0  0
  153.8959  141.8347  160.5317 C   0  0  0  0  0  0  0  0  0  0  0  0
  152.4258  141.0894  158.6494 N   0  0  0  0  0  0  0  0  0  0  0  0
  152.4339  139.7572  158.8891 C   0  0  0  0  0  0  0  0  0  0  0  0
  151.2675  139.0704  159.0198 N   0  0  0  0  0  0  0  0  0  0  0  0
  151.2912  137.7538  159.2486 C   0  0  0  0  0  0  0  0  0  0  0  0
  152.3473  136.9471  159.3788 N   0  0  0  0  0  0  0  0  0  0  0  0
  153.5165  137.6384  159.2513 C   0  0  0  0  0  0  0  0  0  0  0  0
  153.6481  139.0334  159.0096 C   0  0  0  0  0  0  0  0  0  0  0  0
  154.9905  139.3831  158.9394 N   0  0  0  0  0  0  0  0  0  0  0  0
  155.6197  138.2545  159.1271 C   0  0  0  0  0  0  0  0  0  0  0  0
  154.8108  137.1570  159.3200 N   0  0  0  0  0  0  0  0  0  0  0  0
  155.2374  135.7874  159.5414 C   0  0  0  0  0  0  0  0  0  0  0  0
  154.5765  135.1647  160.7861 C   0  0  1  0  0  0  0  0  0  0  0  0
  154.9555  133.8077  160.9260 O   0  0  0  0  0  0  0  0  0  0  0  0
  154.8799  135.9511  162.0771 C   0  0  1  0  0  0  0  0  0  0  0  0
  154.0703  137.2378  162.3044 C   0  0  0  0  0  0  0  0  0  0  0  0
  153.7417  137.2065  163.7913 C   0  0  0  0  0  0  0  0  0  0  0  0
  154.5896  136.0594  164.3345 C   0  0  0  0  0  0  0  0  0  0  0  0
  154.6684  135.1624  163.2398 O   0  0  0  0  0  0  0  0  0  0  0  0
  149.9841  141.2388  154.6743 H   0  0  0  0  0  0  0  0  0  0  0  0
  150.0306  142.7281  155.6103 H   0  0  0  0  0  0  0  0  0  0  0  0
  149.0708  141.3606  156.1753 H   0  0  0  0  0  0  0  0  0  0  0  0
  151.1700  140.0143  156.4445 H   0  0  0  0  0  0  0  0  0  0  0  0
  152.1333  141.3765  155.9398 H   0  0  0  0  0  0  0  0  0  0  0  0
  150.3645  141.2782  158.4368 H   0  0  0  0  0  0  0  0  0  0  0  0
  151.9144  143.5578  157.2148 H   0  0  0  0  0  0  0  0  0  0  0  0
  150.3957  143.5959  158.1058 H   0  0  0  0  0  0  0  0  0  0  0  0
  153.0951  143.9059  159.1116 H   0  0  0  0  0  0  0  0  0  0  0  0
  151.6343  143.9041  160.0954 H   0  0  0  0  0  0  0  0  0  0  0  0
  151.7547  141.6215  160.5420 H   0  0  0  0  0  0  0  0  0  0  0  0
  153.9428  142.5076  161.3879 H   0  0  0  0  0  0  0  0  0  0  0  0
  154.7055  142.1027  159.8521 H   0  0  0  0  0  0  0  0  0  0  0  0
  154.0888  140.8261  160.8980 H   0  0  0  0  0  0  0  0  0  0  0  0
  150.3255  137.2786  159.3397 H   0  0  0  0  0  0  0  0  0  0  0  0
  156.6982  138.1887  159.1233 H   0  0  0  0  0  0  0  0  0  0  0  0
  155.0077  135.2027  158.6495 H   0  0  0  0  0  0  0  0  0  0  0  0
  156.3229  135.7818  159.6476 H   0  0  0  0  0  0  0  0  0  0  0  0
  153.4954  135.1706  160.6411 H   0  0  0  0  0  0  0  0  0  0  0  0
  155.6587  133.7565  161.5551 H   0  0  0  0  0  0  0  0  0  0  0  0
  155.9390  136.2160  162.0742 H   0  0  0  0  0  0  0  0  0  0  0  0
  154.6619  138.1153  162.0411 H   0  0  0  0  0  0  0  0  0  0  0  0
  153.1526  137.2746  161.7173 H   0  0  0  0  0  0  0  0  0  0  0  0
  153.9494  138.1521  164.2931 H   0  0  0  0  0  0  0  0  0  0  0  0
  152.6837  136.9788  163.9281 H   0  0  0  0  0  0  0  0  0  0  0  0
  155.5912  136.4053  164.5956 H   0  0  0  0  0  0  0  0  0  0  0  0
  154.1486  135.5876  165.2128 H   0  0  0  0  0  0  0  0  0  0  0  0
  1  2  1  0  0  0  0
  1 26  1  0  0  0  0
  1 27  1  0  0  0  0
  1 28  1  0  0  0  0
  2  3  1  0  0  0  0
  2 29  1  0  0  0  0
  2 30  1  0  0  0  0
  3  8  1  0  0  0  0
  3  4  1  0  0  0  0
  3 31  1  0  0  0  0
  4  5  1  0  0  0  0
  4 32  1  0  0  0  0
  4 33  1  0  0  0  0
  5  6  1  0  0  0  0
  5 34  1  0  0  0  0
  5 35  1  0  0  0  0
  6  7  1  0  0  0  0
  6  8  1  0  0  0  0
  6 36  1  0  0  0  0
  7 37  1  0  0  0  0
  7 38  1  0  0  0  0
  7 39  1  0  0  0  0
  8  9  1  0  0  0  0
  9 14  1  0  0  0  0
  9 10  2  0  0  0  0
 10 11  1  0  0  0  0
 11 12  2  0  0  0  0
 11 40  1  0  0  0  0
 12 13  1  0  0  0  0
 13 17  1  0  0  0  0
 13 14  2  0  0  0  0
 14 15  1  0  0  0  0
 15 16  2  0  0  0  0
 16 17  1  0  0  0  0
 16 41  1  0  0  0  0
 17 18  1  0  0  0  0
 18 19  1  0  0  0  0
 18 42  1  0  0  0  0
 18 43  1  0  0  0  0
 19 20  1  0  0  0  0
 19 21  1  0  0  0  0
 19 44  1  0  0  0  0
 20 45  1  0  0  0  0
 21 25  1  0  0  0  0
 21 22  1  0  0  0  0
 21 46  1  0  0  0  0
 22 23  1  0  0  0  0
 22 47  1  0  0  0  0
 22 48  1  0  0  0  0
 23 24  1  0  0  0  0
 23 49  1  0  0  0  0
 23 50  1  0  0  0  0
 24 25  1  0  0  0  0
 24 51  1  0  0  0  0
 24 52  1  0  0  0  0
M  END
> <s_m_source_file>
AV-unprocessed.smi

> <i_m_source_file_index>
232

> <i_lp_mmshare_version>
43012

> <i_f3d_flags>
0

> <s_epik_input>
W0NIM11bQ0gyXVtDQEBIXTFbQ0gyXVtDSDJdW0NAQEhdKFtDSDNdKU4xYyhuW2NIXW4yKWMoYzIzKW5bY0hdbjNbQ0gyXVtDQEhdKFtPSF0pW0NAQEhdNFtDSDJdW0NIMl1bQ0gyXU80

> <s_epik_cmdline>
J2VwaWtfcHl0aG9uJywgJy1waCcsICc3LjAnLCAnLXRuJywgJzgnLCAnLW1hJywgJzIwMCcsICctbWV0YWxfYmluZGluZycsICctaW1hZScsICc8aW5maWxlLm1hZT4nLCAnLW9tYWUnLCAnPG91dGZpbGUubWFlPic=

> <r_lp_tautomer_probability>
1

> <r_epik_Ionization_Penalty>
0.00258048

> <r_epik_Ionization_Penalty_Charging>
0

> <r_epik_Ionization_Penalty_Neutral>
0.00258048

> <r_epik_State_Penalty>
0.00168551

> <r_epik_Charging_Adjusted_Penalty>
0.00168551

> <i_epik_Tot_Q>
0

> <i_epik_Tot_abs_Q>
0

> <r_epik_Metal_State_Penalty>
-0

> <b_epik_Metal_Only>
0

> <s_lp_Force_Field>
OPLS_2005

> <r_lp_Energy>
54.2714

> <b_lp_Chiralities_Consistent>
1

> <s_lp_Variant>
AV-unprocessed.smi:232-15

> <Gold.Version>
5.8.1

> <Gold.Id.Protein>
6NUR|6NUR_protein|mol2

> <Gold.PLP.Fitness>
46.0474

> <Gold.PLP.PLP>
-42.3405

> <Gold.PLP.part.hbond>
-2.0000

> <Gold.PLP.part.metal>
0.0000

> <Gold.PLP.part.buried>
-5.3544

> <Gold.PLP.part.nonpolar>
-34.2414

> <Gold.PLP.part.repulsive>
0.0213

> <Gold.PLP.ligand.clash>
0.0000

> <Gold.PLP.ligand.torsion>
1.2222

> <Gold.PLP.Chemscore.Hbond>
2.0000

> <Gold.PLP.Chemscore.CHOScore>
0.0000

> <Gold.PLP.Chemscore.Metal>
0.0000

> <Gold.Chemscore.Hbonds>
donor molecule, donor type, donor heavy atom, donor atom, acceptor molecule, acceptor atom, score
      P1  H  6896  6908       L1    12  1.00
      P1  H  7997  8010       L1    15  1.00

> <Gold.PLP.Chemscore.Internal.Correction>
0.1512

> <Gold.Rescore>
     Score         DG    S(hbond)    S(metal)    S(lipo)     H(rot)  DE(clash)    DE(int)     intcor
     15.57     -17.63       1.89        0.00     102.81       2.43       0.12       1.94       ----

> <Gold.Chemscore.Fitness>
15.5711

> <Gold.Chemscore.DG>
-17.6261

> <Gold.Chemscore.ZeroCoef>
-5.4800

> <Gold.Chemscore.Hbond>
1.8946

> <Gold.Chemscore.Metal>
0.0000

> <Gold.Chemscore.Lipo>
102.8114

> <Gold.Chemscore.Internal_Hbond>
0.0000

> <Gold.Chemscore.DEClash>
0.1154

> <Gold.Chemscore.DEInternal>
1.9396

> <Gold.Chemscore.Rot>
2.4260

> <Gold.Chemscore.Internal.Correction>
   9.000000E+99

> <Gold.Chemscore.Hbonds>
donor molecule, donor type, donor heavy atom, donor atom, acceptor molecule, acceptor atom, score
      P1  H  6896  6908       L1    12  0.67
      P1  H  7997  8010       L1    15  0.50

> <Gold.Chemscore.Hbond.Weighted>
-6.3278

> <Gold.Chemscore.Metal.Weighted>
-0.0000

> <Gold.Chemscore.Lipo.Weighted>
-12.0289

> <Gold.Chemscore.Internal_Hbond.Weighted>
0.0000

> <Gold.Chemscore.DEClash.Weighted>
0.1154

> <Gold.Chemscore.DEInternal.Weighted>
1.9396

> <Gold.Chemscore.Rot.Weighted>
6.2107

> <Gold.Chemscore.Internal.Correction.Weighted>
   9.000000E+99

> <Gold.Protein.RotatedTorsions>
[ 6907 6896 6895 6894 ] final -111.59 input  -60.11 | X-H torsion
[ 7974 7965 7964 7962 ] final  -62.29 input  175.53 | X-H torsion
[ 8008 7997 7996 7995 ] final   -8.22 input   59.86 | X-H torsion
[ 10167 10162 10161 10158 ] final  137.03 input  -65.29 | X-H torsion
[ 10718 10713 10712 10709 ] final -107.52 input   66.30 | X-H torsion
[ 10763 10752 10751 10750 ] final -175.93 input  -60.55 | X-H torsion
[ 11005 11000 10999 10996 ] final  -80.88 input  -57.11 | X-H torsion

> <Gold.Protein.ActiveResidues>
 VAL166  LYS551  ARG553  GLY616  TRP617  ASP618  TYR619  PRO620  LYS621  CYS622 
 ASP623  PHE694  ASN695  SER759  ASP760  ASP761  ALA762  ILE779  LEU786  VAL792 
 PHE793  MET794  SER795  GLU796  ALA797  LYS798  CYS799  TRP800  GLU811  SER814 

> <Gold.Protein.RotatedAtoms>
  150.7700  133.9214  159.3398 H   0  0  0  0  0  0  0  0  0  0  0  0  # atno 6907 bound_to 6896
  151.7102  135.0912  160.0276 H   0  0  0  0  0  0  0  0  0  0  0  0  # atno 6908 bound_to 6896
  152.3714  133.6386  159.6125 H   0  0  0  0  0  0  0  0  0  0  0  0  # atno 6909 bound_to 6896
  145.7931  140.8698  143.0270 H   0  0  0  0  0  0  0  0  0  0  0  0  # atno 7974 bound_to 7965
  154.5762  140.2386  155.8119 H   0  0  0  0  0  0  0  0  0  0  0  0  # atno 8008 bound_to 7997
  156.2145  140.3016  155.9764 H   0  0  0  0  0  0  0  0  0  0  0  0  # atno 8009 bound_to 7997
  155.2623  140.0415  157.2989 H   0  0  0  0  0  0  0  0  0  0  0  0  # atno 8010 bound_to 7997
  139.5159  144.6432  151.5511 H   0  0  0  0  0  0  0  0  0  0  0  0  # atno 10167 bound_to 10162
  156.0441  130.5667  150.7833 H   0  0  0  0  0  0  0  0  0  0  0  0  # atno 10718 bound_to 10713
  154.5784  135.2834  155.0757 H   0  0  0  0  0  0  0  0  0  0  0  0  # atno 10763 bound_to 10752
  154.2103  135.6409  153.5117 H   0  0  0  0  0  0  0  0  0  0  0  0  # atno 10764 bound_to 10752
  153.0080  135.5490  154.6430 H   0  0  0  0  0  0  0  0  0  0  0  0  # atno 10765 bound_to 10752
  141.1667  133.7170  156.8339 H   0  0  0  0  0  0  0  0  0  0  0  0  # atno 11005 bound_to 11000
  144.6779  140.0152  143.7484 LP  0  0  0  0  0  0  0  0  0  0  0  0  # atno 17320 bound_to 7965
  145.9956  139.3050  143.0958 LP  0  0  0  0  0  0  0  0  0  0  0  0  # atno 17321 bound_to 7965
  140.6207  143.9264  150.6524 LP  0  0  0  0  0  0  0  0  0  0  0  0  # atno 17342 bound_to 10162
  140.2536  143.3575  152.1384 LP  0  0  0  0  0  0  0  0  0  0  0  0  # atno 17343 bound_to 10162
  157.5294  131.0936  150.9974 LP  0  0  0  0  0  0  0  0  0  0  0  0  # atno 17370 bound_to 10713
  157.0284  130.5702  149.5340 LP  0  0  0  0  0  0  0  0  0  0  0  0  # atno 17371 bound_to 10713
  140.2031  134.8882  157.3191 LP  0  0  0  0  0  0  0  0  0  0  0  0  # atno 17394 bound_to 11000
  140.2166  134.4074  155.7586 LP  0  0  0  0  0  0  0  0  0  0  0  0  # atno 17395 bound_to 11000

$$$$
