AV-unprocessed.smi:3002|AV-procd|sdf|11435|dock6
  -GOLD-   2272016363D 1   1.00000     0.00000
 Structure written by MMmdl.
 34 35  0  0  0  0  0  0  0  0  1 V2000
  148.5037  139.3964  153.6569 C   0  0  0  0  0  0  0  0  0  0  0  0
  149.4345  139.5849  154.8725 C   0  0  2  0  0  0  0  0  0  0  0  0
  149.7862  141.0574  155.1347 C   0  0  0  0  0  0  0  0  0  0  0  0
  149.3600  141.9483  154.3989 O   0  0  0  0  0  0  0  0  0  0  0  0
  150.5976  141.2927  156.1786 N   0  0  0  0  0  0  0  0  0  0  0  0
  151.1680  142.5877  156.5339 C   0  0  0  0  0  0  0  0  0  0  0  0
  150.9709  142.9026  158.0299 C   0  0  1  0  0  0  0  0  0  0  0  0
  152.2835  142.9487  158.8426 C   0  0  0  0  0  0  0  0  0  0  0  0
  151.9887  143.5458  160.2217 C   0  0  0  0  0  0  0  0  0  0  0  0
  150.6531  144.7699  159.9569 S   0  0  0  0  0  0  0  0  0  0  0  0
  149.5321  144.4562  160.8558 O   0  0  0  0  0  0  0  0  0  0  0  0
  151.2282  146.1225  159.9067 O   0  0  0  0  0  0  0  0  0  0  0  0
  150.2394  144.2353  158.2529 C   0  0  0  0  0  0  0  0  0  0  0  0
  150.6576  138.7990  154.7561 N   0  0  0  0  0  0  0  0  0  0  0  0
  150.8202  137.4954  154.5191 C   0  0  0  0  0  0  0  0  0  0  0  0
  152.0843  137.0969  154.5407 N   0  0  0  0  0  0  0  0  0  0  0  0
  152.6933  138.2860  154.8249 C   0  0  0  0  0  0  0  0  0  0  0  0
  151.8847  139.3348  154.9751 N   0  0  0  0  0  0  0  0  0  0  0  0
  147.5711  139.9464  153.7867 H   0  0  0  0  0  0  0  0  0  0  0  0
  148.2456  138.3452  153.5256 H   0  0  0  0  0  0  0  0  0  0  0  0
  148.9639  139.7408  152.7299 H   0  0  0  0  0  0  0  0  0  0  0  0
  148.8991  139.2181  155.7501 H   0  0  0  0  0  0  0  0  0  0  0  0
  150.8909  140.5023  156.7344 H   0  0  0  0  0  0  0  0  0  0  0  0
  152.2251  142.6391  156.2674 H   0  0  0  0  0  0  0  0  0  0  0  0
  150.6666  143.3463  155.9323 H   0  0  0  0  0  0  0  0  0  0  0  0
  150.3508  142.1179  158.4666 H   0  0  0  0  0  0  0  0  0  0  0  0
  152.7429  141.9641  158.9363 H   0  0  0  0  0  0  0  0  0  0  0  0
  153.0018  143.5872  158.3262 H   0  0  0  0  0  0  0  0  0  0  0  0
  151.6152  142.7803  160.9023 H   0  0  0  0  0  0  0  0  0  0  0  0
  152.8572  144.0240  160.6753 H   0  0  0  0  0  0  0  0  0  0  0  0
  150.6033  145.0022  157.5685 H   0  0  0  0  0  0  0  0  0  0  0  0
  149.1587  144.1526  158.1373 H   0  0  0  0  0  0  0  0  0  0  0  0
  149.9961  136.8218  154.3358 H   0  0  0  0  0  0  0  0  0  0  0  0
  153.7639  138.3801  154.9321 H   0  0  0  0  0  0  0  0  0  0  0  0
  1  2  1  0  0  0  0
  1 19  1  0  0  0  0
  1 20  1  0  0  0  0
  1 21  1  0  0  0  0
  2  3  1  0  0  0  0
  2 14  1  0  0  0  0
  2 22  1  0  0  0  0
  3  4  2  0  0  0  0
  3  5  1  0  0  0  0
  5  6  1  0  0  0  0
  5 23  1  0  0  0  0
  6  7  1  0  0  0  0
  6 24  1  0  0  0  0
  6 25  1  0  0  0  0
  7 13  1  0  0  0  0
  7  8  1  0  0  0  0
  7 26  1  0  0  0  0
  8  9  1  0  0  0  0
  8 27  1  0  0  0  0
  8 28  1  0  0  0  0
  9 10  1  0  0  0  0
  9 29  1  0  0  0  0
  9 30  1  0  0  0  0
 10 11  2  0  0  0  0
 10 12  2  0  0  0  0
 10 13  1  0  0  0  0
 13 31  1  0  0  0  0
 13 32  1  0  0  0  0
 14 18  1  0  0  0  0
 14 15  1  0  0  0  0
 15 16  2  0  0  0  0
 15 33  1  0  0  0  0
 16 17  1  0  0  0  0
 17 18  2  0  0  0  0
 17 34  1  0  0  0  0
M  END
> <s_m_source_file>
AV-unprocessed.smi

> <i_m_source_file_index>
3002

> <i_lp_mmshare_version>
43012

> <i_f3d_flags>
0

> <s_epik_input>
bjFbY0hdbltjSF1uMVtDQEhdKFtDSDNdKUMoPU8pW05IXVtDSDJdW0NAQEhdKFtDSDJdMilbQ0gyXVtDSDJdUzIoPU8pPU8=

> <s_epik_cmdline>
J2VwaWtfcHl0aG9uJywgJy1waCcsICc3LjAnLCAnLXRuJywgJzgnLCAnLW1hJywgJzIwMCcsICctbWV0YWxfYmluZGluZycsICctaW1hZScsICc8aW5maWxlLm1hZT4nLCAnLW9tYWUnLCAnPG91dGZpbGUubWFlPic=

> <r_lp_tautomer_probability>
1

> <r_epik_Ionization_Penalty>
1.1748e-05

> <r_epik_Ionization_Penalty_Charging>
0

> <r_epik_Ionization_Penalty_Neutral>
1.1748e-05

> <r_epik_State_Penalty>
-0

> <r_epik_Charging_Adjusted_Penalty>
0

> <i_epik_Tot_Q>
0

> <i_epik_Tot_abs_Q>
0

> <r_epik_Metal_State_Penalty>
-0

> <b_epik_Metal_Only>
0

> <s_lp_Force_Field>
OPLS_2005

> <r_lp_Energy>
9.21474

> <b_lp_Chiralities_Consistent>
1

> <s_lp_Variant>
AV-unprocessed.smi:3002-3

> <Gold.Version>
5.8.1

> <Gold.Id.Protein>
6NUR|6NUR_protein|mol2

> <Gold.PLP.Fitness>
41.8651

> <Gold.PLP.PLP>
-34.4167

> <Gold.PLP.part.hbond>
-5.7599

> <Gold.PLP.part.metal>
0.0000

> <Gold.PLP.part.buried>
-2.6156

> <Gold.PLP.part.nonpolar>
-28.3937

> <Gold.PLP.part.repulsive>
2.3321

> <Gold.PLP.ligand.clash>
0.0000

> <Gold.PLP.ligand.torsion>
0.9218

> <Gold.PLP.Chemscore.Hbond>
2.1549

> <Gold.PLP.Chemscore.CHOScore>
0.9052

> <Gold.PLP.Chemscore.Metal>
0.0000

> <Gold.Chemscore.Hbonds>
donor molecule, donor type, donor heavy atom, donor atom, acceptor molecule, acceptor atom, score
      P1  H  6933  6944       L1    11  0.06
      P1  H  7989  7998       L1    18  0.56
      P1  H  8011  8017       L1     4  0.27
      P1  H 10752 10764       L1    16  0.90
      L1  C    15    33       P1  7948  0.48

> <Gold.PLP.Chemscore.Internal.Correction>
0.1116

> <Gold.Rescore>
     Score         DG    S(hbond)    S(metal)    S(lipo)     H(rot)  DE(clash)    DE(int)     intcor
      9.68     -12.92       2.04        0.00      57.85       2.39       0.77       2.47       ----

> <Gold.Chemscore.Fitness>
9.6826

> <Gold.Chemscore.DG>
-12.9178

> <Gold.Chemscore.ZeroCoef>
-5.4800

> <Gold.Chemscore.Hbond>
2.0356

> <Gold.Chemscore.Metal>
0.0000

> <Gold.Chemscore.Lipo>
57.8542

> <Gold.Chemscore.Internal_Hbond>
0.0000

> <Gold.Chemscore.DEClash>
0.7659

> <Gold.Chemscore.DEInternal>
2.4693

> <Gold.Chemscore.Rot>
2.3946

> <Gold.Chemscore.Internal.Correction>
   9.000000E+99

> <Gold.Chemscore.Hbonds>
donor molecule, donor type, donor heavy atom, donor atom, acceptor molecule, acceptor atom, score
      P1  H  6933  6944       L1    11  0.07
      P1  H  7989  7998       L1    18  0.07
      P1  H  8011  8017       L1     4  0.26
      P1  H 10752 10764       L1    16  0.87

> <Gold.Chemscore.Hbond.Weighted>
-6.7990

> <Gold.Chemscore.Metal.Weighted>
-0.0000

> <Gold.Chemscore.Lipo.Weighted>
-6.7689

> <Gold.Chemscore.Internal_Hbond.Weighted>
0.0000

> <Gold.Chemscore.DEClash.Weighted>
0.7659

> <Gold.Chemscore.DEInternal.Weighted>
2.4693

> <Gold.Chemscore.Rot.Weighted>
6.1301

> <Gold.Chemscore.Internal.Correction.Weighted>
   9.000000E+99

> <Gold.Protein.RotatedTorsions>
[ 6907 6896 6895 6894 ] final  -43.94 input  -60.11 | X-H torsion
[ 7974 7965 7964 7962 ] final   26.18 input  175.53 | X-H torsion
[ 8008 7997 7996 7995 ] final  112.95 input   59.86 | X-H torsion
[ 10167 10162 10161 10158 ] final -112.97 input  -65.29 | X-H torsion
[ 10718 10713 10712 10709 ] final  172.01 input   66.30 | X-H torsion
[ 10763 10752 10751 10750 ] final  -82.29 input  -60.55 | X-H torsion
[ 11005 11000 10999 10996 ] final  -98.46 input  -57.11 | X-H torsion

> <Gold.Protein.ActiveResidues>
 VAL166  LYS551  ARG553  GLY616  TRP617  ASP618  TYR619  PRO620  LYS621  CYS622 
 ASP623  PHE694  ASN695  SER759  ASP760  ASP761  ALA762  ILE779  LEU786  VAL792 
 PHE793  MET794  SER795  GLU796  ALA797  LYS798  CYS799  TRP800  GLU811  SER814 

> <Gold.Protein.RotatedAtoms>
  150.9383  134.8794  159.7595 H   0  0  0  0  0  0  0  0  0  0  0  0  # atno 6907 bound_to 6896
  152.5069  134.3978  159.9416 H   0  0  0  0  0  0  0  0  0  0  0  0  # atno 6908 bound_to 6896
  151.4001  133.3720  159.2766 H   0  0  0  0  0  0  0  0  0  0  0  0  # atno 6909 bound_to 6896
  146.1851  139.7363  142.8873 H   0  0  0  0  0  0  0  0  0  0  0  0  # atno 7974 bound_to 7965
  156.2226  140.2989  155.9990 H   0  0  0  0  0  0  0  0  0  0  0  0  # atno 8008 bound_to 7997
  155.2440  140.0423  157.2995 H   0  0  0  0  0  0  0  0  0  0  0  0  # atno 8009 bound_to 7997
  154.5865  140.2389  155.7988 H   0  0  0  0  0  0  0  0  0  0  0  0  # atno 8010 bound_to 7997
  140.1169  143.4478  152.1716 H   0  0  0  0  0  0  0  0  0  0  0  0  # atno 10167 bound_to 10162
  156.9852  131.0131  151.2871 H   0  0  0  0  0  0  0  0  0  0  0  0  # atno 10718 bound_to 10713
  154.5740  135.5596  153.7122 H   0  0  0  0  0  0  0  0  0  0  0  0  # atno 10763 bound_to 10752
  153.0058  135.6304  154.2075 H   0  0  0  0  0  0  0  0  0  0  0  0  # atno 10764 bound_to 10752
  154.2015  135.2877  155.2969 H   0  0  0  0  0  0  0  0  0  0  0  0  # atno 10765 bound_to 10752
  141.1344  133.8247  157.0843 H   0  0  0  0  0  0  0  0  0  0  0  0  # atno 11005 bound_to 11000
  145.3963  141.0379  143.3095 LP  0  0  0  0  0  0  0  0  0  0  0  0  # atno 17320 bound_to 7965
  144.8382  139.5515  143.6912 LP  0  0  0  0  0  0  0  0  0  0  0  0  # atno 17321 bound_to 7965
  139.5589  144.7392  151.4212 LP  0  0  0  0  0  0  0  0  0  0  0  0  # atno 17342 bound_to 10162
  140.6894  143.7897  150.7233 LP  0  0  0  0  0  0  0  0  0  0  0  0  # atno 17343 bound_to 10162
  157.5498  130.8174  149.8130 LP  0  0  0  0  0  0  0  0  0  0  0  0  # atno 17370 bound_to 10713
  156.0228  130.3789  150.1910 LP  0  0  0  0  0  0  0  0  0  0  0  0  # atno 17371 bound_to 10713
  140.0432  134.9844  157.1001 LP  0  0  0  0  0  0  0  0  0  0  0  0  # atno 17394 bound_to 11000
  140.4103  134.1988  155.7163 LP  0  0  0  0  0  0  0  0  0  0  0  0  # atno 17395 bound_to 11000

$$$$
