AV-unprocessed.smi:275|AV-procd|sdf|2066|dock7
  -GOLD-   2262021313D 1   1.00000     0.00000
 Structure written by MMmdl.
 65 69  0  0  0  0  0  0  0  0  1 V2000
  151.2555  141.0116  156.3997 C   0  0  0  0  0  0  0  0  0  0  0  0
  151.8693  140.3918  157.6673 C   0  0  0  0  0  0  0  0  0  0  0  0
  150.7391  139.8225  158.5411 C   0  0  0  0  0  0  0  0  0  0  0  0
  152.7261  141.3994  158.4532 C   0  0  2  0  0  0  0  0  0  0  0  0
  152.9182  141.0398  159.8560 N   0  0  0  0  0  0  0  0  0  0  0  0
  154.0866  140.2846  160.1484 C   0  0  0  0  0  0  0  0  0  0  0  0
  154.6670  139.4809  159.2154 N   0  0  0  0  0  0  0  0  0  0  0  0
  155.7601  138.7701  159.5081 C   0  0  0  0  0  0  0  0  0  0  0  0
  156.4311  138.7088  160.6592 N   0  0  0  0  0  0  0  0  0  0  0  0
  155.8564  139.5083  161.6016 C   0  0  0  0  0  0  0  0  0  0  0  0
  154.7008  140.3199  161.4289 C   0  0  0  0  0  0  0  0  0  0  0  0
  154.4113  140.9915  162.6102 N   0  0  0  0  0  0  0  0  0  0  0  0
  155.3419  140.5975  163.4363 C   0  0  0  0  0  0  0  0  0  0  0  0
  156.2480  139.7024  162.9135 N   0  0  0  0  0  0  0  0  0  0  0  0
  157.3746  139.0982  163.6011 C   0  0  0  0  0  0  0  0  0  0  0  0
  157.0139  138.5711  165.0122 C   0  0  2  0  0  0  0  0  0  0  0  0
  158.2641  138.2241  165.8569 C   0  0  0  0  0  0  0  0  0  0  0  0
  157.9096  137.8099  167.1605 O   0  0  0  0  0  0  0  0  0  0  0  0
  156.0023  137.4000  164.9389 C   0  0  1  0  0  0  0  0  0  0  0  0
  154.6795  137.7356  164.2725 C   0  0  0  0  0  0  0  0  0  0  0  0
  154.1318  136.3563  163.9205 C   0  0  0  0  0  0  0  0  0  0  0  0
  155.2700  135.5360  163.6812 O   0  0  0  0  0  0  0  0  0  0  0  0
  156.4552  136.2223  164.0694 C   0  0  0  0  0  0  0  0  0  0  0  0
  153.0027  142.4448  160.2266 C   0  0  0  0  0  0  0  0  0  0  0  0
  152.1579  142.7415  158.9772 C   0  0  0  0  0  0  0  0  0  0  0  0
  152.5622  143.9862  158.1709 C   0  0  0  0  0  0  0  0  0  0  0  0
  152.2008  145.3010  158.8818 C   0  0  0  0  0  0  0  0  0  0  0  0
  150.6991  145.3719  159.1869 C   0  0  0  0  0  0  0  0  0  0  0  0
  150.2320  144.1312  159.9588 C   0  0  0  0  0  0  0  0  0  0  0  0
  150.6355  142.8381  159.2290 C   0  0  0  0  0  0  0  0  0  0  0  0
  150.6570  141.8916  156.6381 H   0  0  0  0  0  0  0  0  0  0  0  0
  150.6092  140.2984  155.8870 H   0  0  0  0  0  0  0  0  0  0  0  0
  152.0214  141.3121  155.6866 H   0  0  0  0  0  0  0  0  0  0  0  0
  152.4930  139.5536  157.3537 H   0  0  0  0  0  0  0  0  0  0  0  0
  150.0652  140.6130  158.8732 H   0  0  0  0  0  0  0  0  0  0  0  0
  151.1180  139.3229  159.4304 H   0  0  0  0  0  0  0  0  0  0  0  0
  150.1464  139.0920  157.9897 H   0  0  0  0  0  0  0  0  0  0  0  0
  153.6842  141.5802  157.9615 H   0  0  0  0  0  0  0  0  0  0  0  0
  156.1515  138.1625  158.7056 H   0  0  0  0  0  0  0  0  0  0  0  0
  155.3889  140.9441  164.4585 H   0  0  0  0  0  0  0  0  0  0  0  0
  157.7478  138.2902  162.9714 H   0  0  0  0  0  0  0  0  0  0  0  0
  158.1767  139.8347  163.6653 H   0  0  0  0  0  0  0  0  0  0  0  0
  156.5147  139.3882  165.5352 H   0  0  0  0  0  0  0  0  0  0  0  0
  158.8472  137.4325  165.3859 H   0  0  0  0  0  0  0  0  0  0  0  0
  158.9340  139.0803  165.9310 H   0  0  0  0  0  0  0  0  0  0  0  0
  158.4928  138.2263  167.7767 H   0  0  0  0  0  0  0  0  0  0  0  0
  155.7991  137.0276  165.9440 H   0  0  0  0  0  0  0  0  0  0  0  0
  154.0025  138.2984  164.9157 H   0  0  0  0  0  0  0  0  0  0  0  0
  154.8460  138.3139  163.3623 H   0  0  0  0  0  0  0  0  0  0  0  0
  153.5764  135.9407  164.7619 H   0  0  0  0  0  0  0  0  0  0  0  0
  153.4685  136.3806  163.0556 H   0  0  0  0  0  0  0  0  0  0  0  0
  156.9558  136.5763  163.1671 H   0  0  0  0  0  0  0  0  0  0  0  0
  157.1383  135.5536  164.5935 H   0  0  0  0  0  0  0  0  0  0  0  0
  152.5156  142.6729  161.1746 H   0  0  0  0  0  0  0  0  0  0  0  0
  154.0085  142.8651  160.1752 H   0  0  0  0  0  0  0  0  0  0  0  0
  153.6348  143.9766  157.9744 H   0  0  0  0  0  0  0  0  0  0  0  0
  152.0851  143.9664  157.1905 H   0  0  0  0  0  0  0  0  0  0  0  0
  152.7670  145.3821  159.8106 H   0  0  0  0  0  0  0  0  0  0  0  0
  152.4952  146.1514  158.2662 H   0  0  0  0  0  0  0  0  0  0  0  0
  150.4729  146.2749  159.7547 H   0  0  0  0  0  0  0  0  0  0  0  0
  150.1429  145.4468  158.2516 H   0  0  0  0  0  0  0  0  0  0  0  0
  150.6632  144.1404  160.9602 H   0  0  0  0  0  0  0  0  0  0  0  0
  149.1502  144.1623  160.0905 H   0  0  0  0  0  0  0  0  0  0  0  0
  150.0872  142.7903  158.2892 H   0  0  0  0  0  0  0  0  0  0  0  0
  150.2885  141.9849  159.8130 H   0  0  0  0  0  0  0  0  0  0  0  0
  1  2  1  0  0  0  0
  1 31  1  0  0  0  0
  1 32  1  0  0  0  0
  1 33  1  0  0  0  0
  2  3  1  0  0  0  0
  2  4  1  0  0  0  0
  2 34  1  0  0  0  0
  3 35  1  0  0  0  0
  3 36  1  0  0  0  0
  3 37  1  0  0  0  0
  4 25  1  0  0  0  0
  4  5  1  0  0  0  0
  4 38  1  0  0  0  0
  5  6  1  0  0  0  0
  5 24  1  0  0  0  0
  6 11  1  0  0  0  0
  6  7  2  0  0  0  0
  7  8  1  0  0  0  0
  8  9  2  0  0  0  0
  8 39  1  0  0  0  0
  9 10  1  0  0  0  0
 10 14  1  0  0  0  0
 10 11  2  0  0  0  0
 11 12  1  0  0  0  0
 12 13  2  0  0  0  0
 13 14  1  0  0  0  0
 13 40  1  0  0  0  0
 14 15  1  0  0  0  0
 15 16  1  0  0  0  0
 15 41  1  0  0  0  0
 15 42  1  0  0  0  0
 16 17  1  0  0  0  0
 16 19  1  0  0  0  0
 16 43  1  0  0  0  0
 17 18  1  0  0  0  0
 17 44  1  0  0  0  0
 17 45  1  0  0  0  0
 18 46  1  0  0  0  0
 19 23  1  0  0  0  0
 19 20  1  0  0  0  0
 19 47  1  0  0  0  0
 20 21  1  0  0  0  0
 20 48  1  0  0  0  0
 20 49  1  0  0  0  0
 21 22  1  0  0  0  0
 21 50  1  0  0  0  0
 21 51  1  0  0  0  0
 22 23  1  0  0  0  0
 23 52  1  0  0  0  0
 23 53  1  0  0  0  0
 24 25  1  0  0  0  0
 24 54  1  0  0  0  0
 24 55  1  0  0  0  0
 25 30  1  0  0  0  0
 25 26  1  0  0  0  0
 26 27  1  0  0  0  0
 26 56  1  0  0  0  0
 26 57  1  0  0  0  0
 27 28  1  0  0  0  0
 27 58  1  0  0  0  0
 27 59  1  0  0  0  0
 28 29  1  0  0  0  0
 28 60  1  0  0  0  0
 28 61  1  0  0  0  0
 29 30  1  0  0  0  0
 29 62  1  0  0  0  0
 29 63  1  0  0  0  0
 30 64  1  0  0  0  0
 30 65  1  0  0  0  0
M  END
> <s_m_source_file>
AV-unprocessed.smi

> <i_m_source_file_index>
275

> <i_lp_mmshare_version>
43012

> <i_f3d_flags>
0

> <s_epik_input>
W0NIMl0xW0NIMl1bQ0gyXVtDSDJdW0NIMl1DMTJbQ0BIXShbQ0hdKFtDSDNdKVtDSDNdKU4oW0NIMl0yKWMobltjSF1uMyljKGMzNCluW2NIXW40W0NIMl1bQ0BIXShbQ0gyXVtPSF0pW0NAQEhdNVtDSDJdW0NIMl1PW0NIMl01

> <s_epik_cmdline>
J2VwaWtfcHl0aG9uJywgJy1waCcsICc3LjAnLCAnLXRuJywgJzgnLCAnLW1hJywgJzIwMCcsICctbWV0YWxfYmluZGluZycsICctaW1hZScsICc8aW5maWxlLm1hZT4nLCAnLW9tYWUnLCAnPG91dGZpbGUubWFlPic=

> <r_lp_tautomer_probability>
1

> <r_epik_Ionization_Penalty>
0.00375122

> <r_epik_Ionization_Penalty_Charging>
0

> <r_epik_Ionization_Penalty_Neutral>
0.00375122

> <r_epik_State_Penalty>
0.00260593

> <r_epik_Charging_Adjusted_Penalty>
0.00260593

> <i_epik_Tot_Q>
0

> <i_epik_Tot_abs_Q>
0

> <r_epik_Metal_State_Penalty>
-0

> <b_epik_Metal_Only>
0

> <s_lp_Force_Field>
OPLS_2005

> <r_lp_Energy>
62.8916

> <b_lp_Chiralities_Consistent>
1

> <s_lp_Variant>
AV-unprocessed.smi:275-5

> <Gold.Version>
5.8.1

> <Gold.Id.Protein>
6NUR|6NUR_protein|mol2

> <Gold.PLP.Fitness>
46.4546

> <Gold.PLP.PLP>
-44.7877

> <Gold.PLP.part.hbond>
-2.0714

> <Gold.PLP.part.metal>
0.0000

> <Gold.PLP.part.buried>
-4.7408

> <Gold.PLP.part.nonpolar>
-38.3160

> <Gold.PLP.part.repulsive>
0.0505

> <Gold.PLP.ligand.clash>
0.0000

> <Gold.PLP.ligand.torsion>
0.9759

> <Gold.PLP.Chemscore.Hbond>
1.0000

> <Gold.PLP.Chemscore.CHOScore>
0.0000

> <Gold.PLP.Chemscore.Metal>
0.0000

> <Gold.Chemscore.Hbonds>
donor molecule, donor type, donor heavy atom, donor atom, acceptor molecule, acceptor atom, score
      P1  H  7997  8009       L1     7  1.00

> <Gold.PLP.Chemscore.Internal.Correction>
0.6187

> <Gold.Rescore>
     Score         DG    S(hbond)    S(metal)    S(lipo)     H(rot)  DE(clash)    DE(int)     intcor
     14.09     -16.69       0.43        0.00     139.03       2.54       0.23       2.37       ----

> <Gold.Chemscore.Fitness>
14.0859

> <Gold.Chemscore.DG>
-16.6891

> <Gold.Chemscore.ZeroCoef>
-5.4800

> <Gold.Chemscore.Hbond>
0.4310

> <Gold.Chemscore.Metal>
0.0000

> <Gold.Chemscore.Lipo>
139.0260

> <Gold.Chemscore.Internal_Hbond>
0.0000

> <Gold.Chemscore.DEClash>
0.2350

> <Gold.Chemscore.DEInternal>
2.3682

> <Gold.Chemscore.Rot>
2.5377

> <Gold.Chemscore.Internal.Correction>
   9.000000E+99

> <Gold.Chemscore.Hbonds>
donor molecule, donor type, donor heavy atom, donor atom, acceptor molecule, acceptor atom, score
      P1  H  7997  8009       L1     7  0.33

> <Gold.Chemscore.Hbond.Weighted>
-1.4396

> <Gold.Chemscore.Metal.Weighted>
-0.0000

> <Gold.Chemscore.Lipo.Weighted>
-16.2660

> <Gold.Chemscore.Internal_Hbond.Weighted>
0.0000

> <Gold.Chemscore.DEClash.Weighted>
0.2350

> <Gold.Chemscore.DEInternal.Weighted>
2.3682

> <Gold.Chemscore.Rot.Weighted>
6.4966

> <Gold.Chemscore.Internal.Correction.Weighted>
   9.000000E+99

> <Gold.Protein.RotatedTorsions>
[ 6907 6896 6895 6894 ] final  -48.99 input  -60.11 | X-H torsion
[ 7974 7965 7964 7962 ] final  -86.09 input  175.53 | X-H torsion
[ 8008 7997 7996 7995 ] final  126.25 input   59.86 | X-H torsion
[ 10167 10162 10161 10158 ] final -148.96 input  -65.29 | X-H torsion
[ 10718 10713 10712 10709 ] final -148.57 input   66.30 | X-H torsion
[ 10763 10752 10751 10750 ] final   88.88 input  -60.55 | X-H torsion
[ 11005 11000 10999 10996 ] final -179.10 input  -57.11 | X-H torsion

> <Gold.Protein.ActiveResidues>
 VAL166  LYS551  ARG553  GLY616  TRP617  ASP618  TYR619  PRO620  LYS621  CYS622 
 ASP623  PHE694  ASN695  SER759  ASP760  ASP761  ALA762  ILE779  LEU786  VAL792 
 PHE793  MET794  SER795  GLU796  ALA797  LYS798  CYS799  TRP800  GLU811  SER814 

> <Gold.Protein.RotatedAtoms>
  150.8850  134.8247  159.7252 H   0  0  0  0  0  0  0  0  0  0  0  0  # atno 6907 bound_to 6896
  152.4802  134.4736  159.9653 H   0  0  0  0  0  0  0  0  0  0  0  0  # atno 6908 bound_to 6896
  151.4806  133.3508  159.2873 H   0  0  0  0  0  0  0  0  0  0  0  0  # atno 6909 bound_to 6896
  145.4846  140.9555  143.1845 H   0  0  0  0  0  0  0  0  0  0  0  0  # atno 7974 bound_to 7965
  156.2858  140.2697  156.2080 H   0  0  0  0  0  0  0  0  0  0  0  0  # atno 8008 bound_to 7997
  155.0293  140.0386  157.2486 H   0  0  0  0  0  0  0  0  0  0  0  0  # atno 8009 bound_to 7997
  154.7368  140.2717  155.6413 H   0  0  0  0  0  0  0  0  0  0  0  0  # atno 8010 bound_to 7997
  139.7485  143.8554  152.2580 H   0  0  0  0  0  0  0  0  0  0  0  0  # atno 10167 bound_to 10162
  156.4219  130.8033  151.2256 H   0  0  0  0  0  0  0  0  0  0  0  0  # atno 10718 bound_to 10713
  153.1814  135.4490  155.0032 H   0  0  0  0  0  0  0  0  0  0  0  0  # atno 10763 bound_to 10752
  154.8032  135.3264  154.7500 H   0  0  0  0  0  0  0  0  0  0  0  0  # atno 10764 bound_to 10752
  153.7964  135.6966  153.4918 H   0  0  0  0  0  0  0  0  0  0  0  0  # atno 10765 bound_to 10752
  140.4224  134.6593  157.4671 H   0  0  0  0  0  0  0  0  0  0  0  0  # atno 11005 bound_to 11000
  144.7869  139.6408  143.7130 LP  0  0  0  0  0  0  0  0  0  0  0  0  # atno 17320 bound_to 7965
  146.2321  139.5833  142.9548 LP  0  0  0  0  0  0  0  0  0  0  0  0  # atno 17321 bound_to 7965
  139.8525  144.7157  150.9196 LP  0  0  0  0  0  0  0  0  0  0  0  0  # atno 17342 bound_to 10162
  140.7795  143.3887  151.1349 LP  0  0  0  0  0  0  0  0  0  0  0  0  # atno 17343 bound_to 10162
  157.7508  131.0225  150.3795 LP  0  0  0  0  0  0  0  0  0  0  0  0  # atno 17370 bound_to 10713
  156.4115  130.3935  149.6888 LP  0  0  0  0  0  0  0  0  0  0  0  0  # atno 17371 bound_to 10713
  140.0191  134.6575  155.9266 LP  0  0  0  0  0  0  0  0  0  0  0  0  # atno 17394 bound_to 11000
  141.1779  133.6542  156.4900 LP  0  0  0  0  0  0  0  0  0  0  0  0  # atno 17395 bound_to 11000

$$$$
