AV-unprocessed.smi:1986|AV-procd|sdf|8048|dock3
  -GOLD-   2272010243D 1   1.00000     0.00000
 Structure written by MMmdl.
 47 48  0  0  0  0  0  0  0  0  3 V2000
  145.8111  137.3639  157.0470 C   0  0  0  0  0  0  0  0  0  0  0  0
  146.0424  137.8255  155.5971 C   0  0  0  0  0  0  0  0  0  0  0  0
  144.9882  138.8163  155.0166 C   0  0  1  0  0  0  0  0  0  0  0  0
  143.5593  138.2963  155.3263 C   0  0  0  0  0  0  0  0  0  0  0  0
  145.1237  140.2034  155.7127 C   0  0  0  0  0  0  0  0  0  0  0  0
  144.6785  140.1434  157.1009 N   0  0  0  0  0  0  0  0  0  0  0  0
  144.6004  141.1634  157.9680 C   0  0  0  0  0  0  0  0  0  0  0  0
  144.7892  142.3379  157.6538 O   0  0  0  0  0  0  0  0  0  0  0  0
  144.3111  140.7954  159.4314 C   0  0  0  0  0  0  0  0  0  0  0  0
  144.5797  141.8967  160.3731 N   0  0  0  0  0  0  0  0  0  0  0  0
  145.9494  142.4024  160.3296 N   0  5  0  0  0  0  0  0  0  0  0  0
  146.3153  143.3964  161.1818 C   0  0  0  0  0  0  0  0  0  0  0  0
  147.4515  143.8617  161.2135 O   0  0  0  0  0  0  0  0  0  0  0  0
  145.3050  143.9393  162.0742 C   0  0  0  0  0  0  0  0  0  0  0  0
  144.0367  143.4851  162.0599 C   0  0  0  0  0  0  0  0  0  0  0  0
  143.6021  142.4166  161.1693 C   0  0  0  0  0  0  0  0  0  0  0  0
  142.4399  142.0135  161.1353 O   0  0  0  0  0  0  0  0  0  0  0  0
  145.1565  138.9765  153.5229 N   0  3  0  0  0  0  0  0  0  0  0  0
  146.3926  139.6865  153.0870 C   0  0  0  0  0  0  0  0  0  0  0  0
  146.3487  139.9734  151.5782 C   0  0  0  0  0  0  0  0  0  0  0  0
  146.2030  138.7518  150.8686 O   0  0  0  0  0  0  0  0  0  0  0  0
  144.9877  138.0962  151.2003 C   0  0  0  0  0  0  0  0  0  0  0  0
  144.9699  137.7485  152.6989 C   0  0  0  0  0  0  0  0  0  0  0  0
  146.6055  136.6858  157.3592 H   0  0  0  0  0  0  0  0  0  0  0  0
  144.8704  136.8252  157.1588 H   0  0  0  0  0  0  0  0  0  0  0  0
  145.8101  138.1993  157.7463 H   0  0  0  0  0  0  0  0  0  0  0  0
  147.0347  138.2742  155.5582 H   0  0  0  0  0  0  0  0  0  0  0  0
  146.0942  136.9329  154.9744 H   0  0  0  0  0  0  0  0  0  0  0  0
  143.3137  138.3939  156.3842 H   0  0  0  0  0  0  0  0  0  0  0  0
  143.4420  137.2411  155.0795 H   0  0  0  0  0  0  0  0  0  0  0  0
  142.8001  138.8539  154.7766 H   0  0  0  0  0  0  0  0  0  0  0  0
  146.1520  140.5625  155.6562 H   0  0  0  0  0  0  0  0  0  0  0  0
  144.5314  140.9612  155.2005 H   0  0  0  0  0  0  0  0  0  0  0  0
  144.4743  139.2260  157.4722 H   0  0  0  0  0  0  0  0  0  0  0  0
  143.2739  140.4680  159.5229 H   0  0  0  0  0  0  0  0  0  0  0  0
  144.9158  139.9241  159.6885 H   0  0  0  0  0  0  0  0  0  0  0  0
  145.5754  144.7301  162.7584 H   0  0  0  0  0  0  0  0  0  0  0  0
  143.3172  143.9213  162.7367 H   0  0  0  0  0  0  0  0  0  0  0  0
  146.5138  140.6347  153.6075 H   0  0  0  0  0  0  0  0  0  0  0  0
  147.2734  139.0828  153.3066 H   0  0  0  0  0  0  0  0  0  0  0  0
  145.5353  140.6560  151.3334 H   0  0  0  0  0  0  0  0  0  0  0  0
  147.2731  140.4559  151.2609 H   0  0  0  0  0  0  0  0  0  0  0  0
  144.1374  138.7256  150.9361 H   0  0  0  0  0  0  0  0  0  0  0  0
  144.9056  137.1877  150.6036 H   0  0  0  0  0  0  0  0  0  0  0  0
  145.7569  137.0258  152.9141 H   0  0  0  0  0  0  0  0  0  0  0  0
  144.0185  137.2634  152.9086 H   0  0  0  0  0  0  0  0  0  0  0  0
  144.3956  139.5840  153.2518 H   0  0  0  0  0  0  0  0  0  0  0  0
  1  2  1  0  0  0  0
  1 24  1  0  0  0  0
  1 25  1  0  0  0  0
  1 26  1  0  0  0  0
  2  3  1  0  0  0  0
  2 27  1  0  0  0  0
  2 28  1  0  0  0  0
  3  4  1  0  0  0  0
  3  5  1  0  0  0  0
  3 18  1  0  0  0  0
  4 29  1  0  0  0  0
  4 30  1  0  0  0  0
  4 31  1  0  0  0  0
  5  6  1  0  0  0  0
  5 32  1  0  0  0  0
  5 33  1  0  0  0  0
  6  7  1  0  0  0  0
  6 34  1  0  0  0  0
  7  8  2  0  0  0  0
  7  9  1  0  0  0  0
  9 35  1  0  0  0  0
  9 36  1  0  0  0  0
  9 10  1  0  0  0  0
 10 11  1  0  0  0  0
 10 16  1  0  0  0  0
 11 12  1  0  0  0  0
 12 13  2  0  0  0  0
 12 14  1  0  0  0  0
 14 37  1  0  0  0  0
 14 15  2  0  0  0  0
 15 38  1  0  0  0  0
 15 16  1  0  0  0  0
 16 17  2  0  0  0  0
 18 23  1  0  0  0  0
 18 19  1  0  0  0  0
 18 47  1  0  0  0  0
 19 20  1  0  0  0  0
 19 39  1  0  0  0  0
 19 40  1  0  0  0  0
 20 21  1  0  0  0  0
 20 41  1  0  0  0  0
 20 42  1  0  0  0  0
 21 22  1  0  0  0  0
 22 23  1  0  0  0  0
 22 43  1  0  0  0  0
 22 44  1  0  0  0  0
 23 45  1  0  0  0  0
 23 46  1  0  0  0  0
M  CHG  1  11  -1
M  CHG  1  18   1
M  END
> <s_m_source_file>
AV-unprocessed.smi

> <i_m_source_file_index>
1986

> <i_lp_mmshare_version>
43012

> <i_f3d_flags>
0

> <s_epik_input>
W0NIMl0xW0NIMl1PW0NIMl1bQ0gyXU4xW0NAQF0oW0NIM10pKFtDSDJdW0NIM10pW0NIMl1bTkhdQyg9TylbQ0gyXW4yW25IXWMoPU8pW2NIXVtjSF1jMj1P

> <s_epik_cmdline>
J2VwaWtfcHl0aG9uJywgJy1waCcsICc3LjAnLCAnLXRuJywgJzgnLCAnLW1hJywgJzIwMCcsICctbWV0YWxfYmluZGluZycsICctaW1hZScsICc8aW5maWxlLm1hZT4nLCAnLW9tYWUnLCAnPG91dGZpbGUubWFlPic=

> <r_lp_tautomer_probability>
1

> <r_epik_Ionization_Penalty>
0.604767

> <r_epik_Ionization_Penalty_Charging>
0.604766

> <r_epik_Ionization_Penalty_Neutral>
8.70177e-08

> <r_epik_State_Penalty>
0.54579

> <r_epik_Charging_Adjusted_Penalty>
1.15056

> <i_epik_Tot_Q>
0

> <i_epik_Tot_abs_Q>
2

> <r_epik_Metal_State_Penalty>
0.54579

> <b_epik_Metal_Only>
0

> <s_lp_Force_Field>
OPLS_2005

> <r_lp_Energy>
39.3648

> <b_lp_Chiralities_Consistent>
1

> <s_lp_Variant>
AV-unprocessed.smi:1986-3

> <Gold.Version>
5.8.1

> <Gold.Id.Protein>
6NUR|6NUR_protein|mol2

> <Gold.PLP.Fitness>
42.5232

> <Gold.PLP.PLP>
-25.1674

> <Gold.PLP.part.hbond>
-4.7114

> <Gold.PLP.part.metal>
0.0000

> <Gold.PLP.part.buried>
1.4089

> <Gold.PLP.part.nonpolar>
-23.3506

> <Gold.PLP.part.repulsive>
0.4889

> <Gold.PLP.ligand.clash>
0.0000

> <Gold.PLP.ligand.torsion>
0.4313

> <Gold.PLP.Chemscore.Hbond>
6.0000

> <Gold.PLP.Chemscore.CHOScore>
0.0000

> <Gold.PLP.Chemscore.Metal>
0.0000

> <Gold.Chemscore.Hbonds>
donor molecule, donor type, donor heavy atom, donor atom, acceptor molecule, acceptor atom, score
      L1  H    18    47       P1 10175  1.24
      P1  H  6933  6944       L1    13  1.00
      P1  H  6934  6946       L1    11  2.00
      P1  H  7954  7966       L1    21  0.17

> <Gold.PLP.Chemscore.Internal.Correction>
0.2185

> <Gold.Rescore>
     Score         DG    S(hbond)    S(metal)    S(lipo)     H(rot)  DE(clash)    DE(int)     intcor
      9.52     -15.55       3.15        0.00      50.78       2.50       3.54       2.49       ----

> <Gold.Chemscore.Fitness>
9.5233

> <Gold.Chemscore.DG>
-15.5520

> <Gold.Chemscore.ZeroCoef>
-5.4800

> <Gold.Chemscore.Hbond>
3.1507

> <Gold.Chemscore.Metal>
0.0000

> <Gold.Chemscore.Lipo>
50.7842

> <Gold.Chemscore.Internal_Hbond>
0.0000

> <Gold.Chemscore.DEClash>
3.5420

> <Gold.Chemscore.DEInternal>
2.4867

> <Gold.Chemscore.Rot>
2.4973

> <Gold.Chemscore.Internal.Correction>
   9.000000E+99

> <Gold.Chemscore.Hbonds>
donor molecule, donor type, donor heavy atom, donor atom, acceptor molecule, acceptor atom, score
      L1  H    18    47       P1 10175  0.60
      P1  H  6933  6944       L1    13  0.40
      P1  H  6934  6946       L1    11  0.22
      P1  H  7954  7966       L1    21  0.17

> <Gold.Chemscore.Hbond.Weighted>
-10.5233

> <Gold.Chemscore.Metal.Weighted>
-0.0000

> <Gold.Chemscore.Lipo.Weighted>
-5.9418

> <Gold.Chemscore.Internal_Hbond.Weighted>
0.0000

> <Gold.Chemscore.DEClash.Weighted>
3.5420

> <Gold.Chemscore.DEInternal.Weighted>
2.4867

> <Gold.Chemscore.Rot.Weighted>
6.3930

> <Gold.Chemscore.Internal.Correction.Weighted>
   9.000000E+99

> <Gold.Protein.RotatedTorsions>
[ 6907 6896 6895 6894 ] final  137.97 input  -60.11 | X-H torsion
[ 7974 7965 7964 7962 ] final  -21.29 input  175.53 | X-H torsion
[ 8008 7997 7996 7995 ] final   13.31 input   59.86 | X-H torsion
[ 10167 10162 10161 10158 ] final  -22.69 input  -65.29 | X-H torsion
[ 10718 10713 10712 10709 ] final  -46.66 input   66.30 | X-H torsion
[ 10763 10752 10751 10750 ] final  -23.61 input  -60.55 | X-H torsion
[ 11005 11000 10999 10996 ] final -121.08 input  -57.11 | X-H torsion

> <Gold.Protein.ActiveResidues>
 VAL166  LYS551  ARG553  GLY616  TRP617  ASP618  TYR619  PRO620  LYS621  CYS622 
 ASP623  PHE694  ASN695  SER759  ASP760  ASP761  ALA762  ILE779  LEU786  VAL792 
 PHE793  MET794  SER795  GLU796  ALA797  LYS798  CYS799  TRP800  GLU811  SER814 

> <Gold.Protein.RotatedAtoms>
  152.2720  133.5391  159.5444 H   0  0  0  0  0  0  0  0  0  0  0  0  # atno 6907 bound_to 6896
  150.7163  134.0684  159.3865 H   0  0  0  0  0  0  0  0  0  0  0  0  # atno 6908 bound_to 6896
  151.8599  135.0528  160.0519 H   0  0  0  0  0  0  0  0  0  0  0  0  # atno 6909 bound_to 6896
  146.1741  140.4320  142.8520 H   0  0  0  0  0  0  0  0  0  0  0  0  # atno 7974 bound_to 7965
  154.8327  140.2902  155.5711 H   0  0  0  0  0  0  0  0  0  0  0  0  # atno 8008 bound_to 7997
  156.3006  140.2529  156.3186 H   0  0  0  0  0  0  0  0  0  0  0  0  # atno 8009 bound_to 7997
  154.9213  140.0386  157.1989 H   0  0  0  0  0  0  0  0  0  0  0  0  # atno 8010 bound_to 7997
  140.7286  143.4511  151.0515 H   0  0  0  0  0  0  0  0  0  0  0  0  # atno 10167 bound_to 10162
  156.2161  130.4163  149.9052 H   0  0  0  0  0  0  0  0  0  0  0  0  # atno 10718 bound_to 10713
  153.6706  135.6972  153.5148 H   0  0  0  0  0  0  0  0  0  0  0  0  # atno 10763 bound_to 10752
  153.2561  135.4259  155.0846 H   0  0  0  0  0  0  0  0  0  0  0  0  # atno 10764 bound_to 10752
  154.8427  135.3543  154.6250 H   0  0  0  0  0  0  0  0  0  0  0  0  # atno 10765 bound_to 10752
  141.0096  134.0283  157.3431 H   0  0  0  0  0  0  0  0  0  0  0  0  # atno 11005 bound_to 11000
  144.8209  140.6548  143.6354 LP  0  0  0  0  0  0  0  0  0  0  0  0  # atno 17320 bound_to 7965
  145.4259  139.1556  143.4048 LP  0  0  0  0  0  0  0  0  0  0  0  0  # atno 17321 bound_to 7965
  139.8187  143.7849  152.3176 LP  0  0  0  0  0  0  0  0  0  0  0  0  # atno 17342 bound_to 10162
  139.7924  144.7405  150.9936 LP  0  0  0  0  0  0  0  0  0  0  0  0  # atno 17343 bound_to 10162
  156.6714  130.8821  151.3562 LP  0  0  0  0  0  0  0  0  0  0  0  0  # atno 17370 bound_to 10713
  157.7064  130.9390  150.0945 LP  0  0  0  0  0  0  0  0  0  0  0  0  # atno 17371 bound_to 10713
  139.9082  135.0184  156.7580 LP  0  0  0  0  0  0  0  0  0  0  0  0  # atno 17394 bound_to 11000
  140.6755  133.9521  155.7880 LP  0  0  0  0  0  0  0  0  0  0  0  0  # atno 17395 bound_to 11000

$$$$
