AV-unprocessed.smi:2375|AV-procd|sdf|9442|dock9
  -GOLD-   2272013 73D 1   1.00000     0.00000
 Structure written by MMmdl.
 37 38  0  0  0  0  0  0  0  0  1 V2000
  143.8802  144.7432  155.2166 C   0  0  0  0  0  0  0  0  0  0  0  0
  144.8202  143.5984  155.0489 C   0  0  0  0  0  0  0  0  0  0  0  0
  145.0240  142.5451  155.9056 C   0  0  0  0  0  0  0  0  0  0  0  0
  145.9853  141.6348  155.4618 N   0  0  0  0  0  0  0  0  0  0  0  0
  146.5169  141.9850  154.2872 C   0  0  0  0  0  0  0  0  0  0  0  0
  147.6018  141.2130  153.5995 C   0  0  2  0  0  0  0  0  0  0  0  0
  147.0414  140.0588  152.7560 C   0  0  0  0  0  0  0  0  0  0  0  0
  148.7315  140.7680  154.5522 C   0  0  0  0  0  0  0  0  0  0  0  0
  149.1334  141.8390  155.4619 N   0  0  0  0  0  0  0  0  0  0  0  0
  149.9151  141.6972  156.5467 C   0  0  0  0  0  0  0  0  0  0  0  0
  150.4468  140.6369  156.8703 O   0  0  0  0  0  0  0  0  0  0  0  0
  150.0767  142.8188  157.2708 N   0  0  0  0  0  0  0  0  0  0  0  0
  150.8592  142.9947  158.4949 C   0  0  0  0  0  0  0  0  0  0  0  0
  150.8653  144.4695  158.9648 C   0  0  0  0  0  0  0  0  0  0  0  0
  152.3025  144.7192  159.3347 C   0  0  0  0  0  0  0  0  0  0  0  0
  153.0982  143.7086  158.9906 C   0  0  0  0  0  0  0  0  0  0  0  0
  152.3461  142.5900  158.3232 C   0  0  0  0  0  0  0  0  0  0  0  0
  145.8379  143.4736  153.6387 S   0  0  0  0  0  0  0  0  0  0  0  0
  143.2793  144.6296  156.1193 H   0  0  0  0  0  0  0  0  0  0  0  0
  143.2011  144.8143  154.3669 H   0  0  0  0  0  0  0  0  0  0  0  0
  144.4271  145.6833  155.2924 H   0  0  0  0  0  0  0  0  0  0  0  0
  144.5327  142.3660  156.8505 H   0  0  0  0  0  0  0  0  0  0  0  0
  148.0578  141.9071  152.8922 H   0  0  0  0  0  0  0  0  0  0  0  0
  146.3162  140.4220  152.0271 H   0  0  0  0  0  0  0  0  0  0  0  0
  146.5432  139.3173  153.3813 H   0  0  0  0  0  0  0  0  0  0  0  0
  147.8357  139.5517  152.2078 H   0  0  0  0  0  0  0  0  0  0  0  0
  148.4172  139.8842  155.1098 H   0  0  0  0  0  0  0  0  0  0  0  0
  149.6057  140.4654  153.9752 H   0  0  0  0  0  0  0  0  0  0  0  0
  148.7510  142.7550  155.2780 H   0  0  0  0  0  0  0  0  0  0  0  0
  149.6374  143.6528  156.9088 H   0  0  0  0  0  0  0  0  0  0  0  0
  150.4228  142.3971  159.2976 H   0  0  0  0  0  0  0  0  0  0  0  0
  150.5765  145.1619  158.1728 H   0  0  0  0  0  0  0  0  0  0  0  0
  150.2072  144.6263  159.8200 H   0  0  0  0  0  0  0  0  0  0  0  0
  152.6265  145.6362  159.8044 H   0  0  0  0  0  0  0  0  0  0  0  0
  154.1679  143.6781  159.1371 H   0  0  0  0  0  0  0  0  0  0  0  0
  152.5641  141.6312  158.7949 H   0  0  0  0  0  0  0  0  0  0  0  0
  152.6448  142.5386  157.2753 H   0  0  0  0  0  0  0  0  0  0  0  0
  1  2  1  0  0  0  0
  1 19  1  0  0  0  0
  1 20  1  0  0  0  0
  1 21  1  0  0  0  0
  2 18  1  0  0  0  0
  2  3  2  0  0  0  0
  3  4  1  0  0  0  0
  3 22  1  0  0  0  0
  4  5  2  0  0  0  0
  5  6  1  0  0  0  0
  5 18  1  0  0  0  0
  6  7  1  0  0  0  0
  6  8  1  0  0  0  0
  6 23  1  0  0  0  0
  7 24  1  0  0  0  0
  7 25  1  0  0  0  0
  7 26  1  0  0  0  0
  8  9  1  0  0  0  0
  8 27  1  0  0  0  0
  8 28  1  0  0  0  0
  9 10  1  0  0  0  0
  9 29  1  0  0  0  0
 10 11  2  0  0  0  0
 10 12  1  0  0  0  0
 12 13  1  0  0  0  0
 12 30  1  0  0  0  0
 13 17  1  0  0  0  0
 13 14  1  0  0  0  0
 13 31  1  0  0  0  0
 14 15  1  0  0  0  0
 14 32  1  0  0  0  0
 14 33  1  0  0  0  0
 15 16  2  0  0  0  0
 15 34  1  0  0  0  0
 16 17  1  0  0  0  0
 16 35  1  0  0  0  0
 17 36  1  0  0  0  0
 17 37  1  0  0  0  0
M  END
> <s_m_source_file>
AV-unprocessed.smi

> <i_m_source_file_index>
2375

> <i_lp_mmshare_version>
43012

> <i_f3d_flags>
0

> <s_epik_input>
W0NIM11jMVtjSF1uYyhzMSlbQ0BIXShbQ0gzXSlbQ0gyXVtOSF1DKD1PKVtOSF1bQ0hdMltDSDJdW0NIXT1bQ0hdW0NIMl0y

> <s_epik_cmdline>
J2VwaWtfcHl0aG9uJywgJy1waCcsICc3LjAnLCAnLXRuJywgJzgnLCAnLW1hJywgJzIwMCcsICctbWV0YWxfYmluZGluZycsICctaW1hZScsICc8aW5maWxlLm1hZT4nLCAnLW9tYWUnLCAnPG91dGZpbGUubWFlPic=

> <r_epik_Ionization_Penalty>
0.000644205

> <r_epik_Ionization_Penalty_Charging>
0

> <r_epik_Ionization_Penalty_Neutral>
0.000644205

> <r_epik_State_Penalty>
0.000370883

> <r_epik_Charging_Adjusted_Penalty>
0.000370883

> <i_epik_Tot_Q>
0

> <i_epik_Tot_abs_Q>
0

> <r_epik_Metal_State_Penalty>
-0

> <b_epik_Metal_Only>
0

> <s_lp_Force_Field>
OPLS_2005

> <r_lp_Energy>
17.1523

> <b_lp_Chiralities_Consistent>
1

> <s_lp_Variant>
AV-unprocessed.smi:2375-1

> <Gold.Version>
5.8.1

> <Gold.Id.Protein>
6NUR|6NUR_protein|mol2

> <Gold.PLP.Fitness>
44.4907

> <Gold.PLP.PLP>
-40.0200

> <Gold.PLP.part.hbond>
-2.0000

> <Gold.PLP.part.metal>
0.0000

> <Gold.PLP.part.buried>
-4.9395

> <Gold.PLP.part.nonpolar>
-33.0125

> <Gold.PLP.part.repulsive>
0.2955

> <Gold.PLP.ligand.clash>
0.0000

> <Gold.PLP.ligand.torsion>
0.6880

> <Gold.PLP.Chemscore.Hbond>
1.9120

> <Gold.PLP.Chemscore.CHOScore>
0.0000

> <Gold.PLP.Chemscore.Metal>
0.0000

> <Gold.Chemscore.Hbonds>
donor molecule, donor type, donor heavy atom, donor atom, acceptor molecule, acceptor atom, score
      L1  H     9    29       P1  8028  0.94
      L1  H    12    30       P1  8028  1.00

> <Gold.PLP.Chemscore.Internal.Correction>
0.1107

> <Gold.Rescore>
     Score         DG    S(hbond)    S(metal)    S(lipo)     H(rot)  DE(clash)    DE(int)     intcor
     18.85     -19.80       1.74        0.00     105.52       1.50       0.23       0.72       ----

> <Gold.Chemscore.Fitness>
18.8542

> <Gold.Chemscore.DG>
-19.7982

> <Gold.Chemscore.ZeroCoef>
-5.4800

> <Gold.Chemscore.Hbond>
1.7413

> <Gold.Chemscore.Metal>
0.0000

> <Gold.Chemscore.Lipo>
105.5154

> <Gold.Chemscore.Internal_Hbond>
0.0000

> <Gold.Chemscore.DEClash>
0.2284

> <Gold.Chemscore.DEInternal>
0.7156

> <Gold.Chemscore.Rot>
1.5012

> <Gold.Chemscore.Internal.Correction>
   9.000000E+99

> <Gold.Chemscore.Hbonds>
donor molecule, donor type, donor heavy atom, donor atom, acceptor molecule, acceptor atom, score
      L1  H     9    29       P1  8028  0.88
      L1  H    12    30       P1  8028  0.96

> <Gold.Chemscore.Hbond.Weighted>
-5.8159

> <Gold.Chemscore.Metal.Weighted>
-0.0000

> <Gold.Chemscore.Lipo.Weighted>
-12.3453

> <Gold.Chemscore.Internal_Hbond.Weighted>
0.0000

> <Gold.Chemscore.DEClash.Weighted>
0.2284

> <Gold.Chemscore.DEInternal.Weighted>
0.7156

> <Gold.Chemscore.Rot.Weighted>
3.8429

> <Gold.Chemscore.Internal.Correction.Weighted>
   9.000000E+99

> <Gold.Protein.RotatedTorsions>
[ 6907 6896 6895 6894 ] final  139.40 input  -60.11 | X-H torsion
[ 7974 7965 7964 7962 ] final   88.73 input  175.53 | X-H torsion
[ 8008 7997 7996 7995 ] final -176.49 input   59.86 | X-H torsion
[ 10167 10162 10161 10158 ] final   26.03 input  -65.29 | X-H torsion
[ 10718 10713 10712 10709 ] final    5.00 input   66.30 | X-H torsion
[ 10763 10752 10751 10750 ] final  165.10 input  -60.55 | X-H torsion
[ 11005 11000 10999 10996 ] final   43.64 input  -57.11 | X-H torsion

> <Gold.Protein.ActiveResidues>
 VAL166  LYS551  ARG553  GLY616  TRP617  ASP618  TYR619  PRO620  LYS621  CYS622 
 ASP623  PHE694  ASN695  SER759  ASP760  ASP761  ALA762  ILE779  LEU786  VAL792 
 PHE793  MET794  SER795  GLU796  ALA797  LYS798  CYS799  TRP800  GLU811  SER814 

> <Gold.Protein.RotatedAtoms>
  152.2553  133.5250  159.5349 H   0  0  0  0  0  0  0  0  0  0  0  0  # atno 6907 bound_to 6896
  150.7107  134.0904  159.3939 H   0  0  0  0  0  0  0  0  0  0  0  0  # atno 6908 bound_to 6896
  151.8823  135.0449  160.0540 H   0  0  0  0  0  0  0  0  0  0  0  0  # atno 6909 bound_to 6896
  145.5418  139.2289  143.2561 H   0  0  0  0  0  0  0  0  0  0  0  0  # atno 7974 bound_to 7965
  155.9954  140.1209  157.0598 H   0  0  0  0  0  0  0  0  0  0  0  0  # atno 8008 bound_to 7997
  154.4225  140.1117  156.5692 H   0  0  0  0  0  0  0  0  0  0  0  0  # atno 8009 bound_to 7997
  155.6285  140.3473  155.4677 H   0  0  0  0  0  0  0  0  0  0  0  0  # atno 8010 bound_to 7997
  140.5057  144.0243  150.6351 H   0  0  0  0  0  0  0  0  0  0  0  0  # atno 10167 bound_to 10162
  156.9009  130.5721  149.5648 H   0  0  0  0  0  0  0  0  0  0  0  0  # atno 10718 bound_to 10713
  154.3190  135.2756  155.2529 H   0  0  0  0  0  0  0  0  0  0  0  0  # atno 10763 bound_to 10752
  154.4891  135.5838  153.6449 H   0  0  0  0  0  0  0  0  0  0  0  0  # atno 10764 bound_to 10752
  152.9879  135.6130  154.3373 H   0  0  0  0  0  0  0  0  0  0  0  0  # atno 10765 bound_to 10752
  140.1626  134.4322  155.8308 H   0  0  0  0  0  0  0  0  0  0  0  0  # atno 11005 bound_to 11000
  146.1976  140.6238  142.9117 LP  0  0  0  0  0  0  0  0  0  0  0  0  # atno 17320 bound_to 7965
  144.7573  140.5338  143.6760 LP  0  0  0  0  0  0  0  0  0  0  0  0  # atno 17321 bound_to 7965
  140.3551  143.2940  152.0444 LP  0  0  0  0  0  0  0  0  0  0  0  0  # atno 17342 bound_to 10162
  139.4883  144.6344  151.7004 LP  0  0  0  0  0  0  0  0  0  0  0  0  # atno 17343 bound_to 10162
  156.0582  130.5640  150.9137 LP  0  0  0  0  0  0  0  0  0  0  0  0  # atno 17370 bound_to 10713
  157.6026  131.0940  150.8933 LP  0  0  0  0  0  0  0  0  0  0  0  0  # atno 17371 bound_to 10713
  141.2211  133.6920  156.7621 LP  0  0  0  0  0  0  0  0  0  0  0  0  # atno 17394 bound_to 11000
  140.2472  134.8569  157.3631 LP  0  0  0  0  0  0  0  0  0  0  0  0  # atno 17395 bound_to 11000

$$$$
