AV-unprocessed.smi:1780|AV-procd|sdf|7184|dock10
  -GOLD-   22720 8423D 1   1.00000     0.00000
 Structure written by MMmdl.
 43 44  0  0  0  0  0  0  0  0  1 V2000
  150.0494  141.8769  157.3198 C   0  0  0  0  0  0  0  0  0  0  0  0
  151.0084  140.6894  157.1692 C   0  0  0  0  0  0  0  0  0  0  0  0
  150.5814  139.7801  156.1233 N   0  0  0  0  0  0  0  0  0  0  0  0
  150.2353  138.4485  156.2392 C   0  0  0  0  0  0  0  0  0  0  0  0
  149.9095  138.0405  154.9765 C   0  0  0  0  0  0  0  0  0  0  0  0
  149.4775  136.7680  154.5256 N   0  0  0  0  0  0  0  0  0  0  0  0
  149.2279  135.6800  155.2722 C   0  0  0  0  0  0  0  0  0  0  0  0
  149.3607  135.6134  156.4944 O   0  0  0  0  0  0  0  0  0  0  0  0
  148.8076  134.6571  154.5150 N   0  0  0  0  0  0  0  0  0  0  0  0
  148.4371  133.3368  155.0171 C   0  0  0  0  0  0  0  0  0  0  0  0
  147.0822  132.8109  154.4581 C   0  0  1  0  0  0  0  0  0  0  0  0
  145.9831  133.8727  154.7184 C   0  0  0  0  0  0  0  0  0  0  0  0
  147.1589  132.4023  153.0361 N   0  0  0  0  0  0  0  0  0  0  0  0
  146.0230  131.5704  152.6215 C   0  0  0  0  0  0  0  0  0  0  0  0
  146.0869  131.1688  151.1376 C   0  0  0  0  0  0  0  0  0  0  0  0
  146.1603  132.3336  150.3273 O   0  0  0  0  0  0  0  0  0  0  0  0
  147.2921  133.1321  150.6435 C   0  0  0  0  0  0  0  0  0  0  0  0
  147.2344  133.5490  152.1234 C   0  0  0  0  0  0  0  0  0  0  0  0
  150.0814  139.1779  154.1455 C   0  0  0  0  0  0  0  0  0  0  0  0
  150.4908  140.2250  154.8452 N   0  0  0  0  0  0  0  0  0  0  0  0
  150.3725  142.5359  158.1256 H   0  0  0  0  0  0  0  0  0  0  0  0
  149.0382  141.5396  157.5502 H   0  0  0  0  0  0  0  0  0  0  0  0
  150.0055  142.4688  156.4047 H   0  0  0  0  0  0  0  0  0  0  0  0
  152.0156  141.0400  156.9396 H   0  0  0  0  0  0  0  0  0  0  0  0
  151.0711  140.1369  158.1073 H   0  0  0  0  0  0  0  0  0  0  0  0
  150.2517  137.9316  157.1873 H   0  0  0  0  0  0  0  0  0  0  0  0
  149.3377  136.6788  153.5299 H   0  0  0  0  0  0  0  0  0  0  0  0
  148.7295  134.8020  153.5191 H   0  0  0  0  0  0  0  0  0  0  0  0
  149.2377  132.6423  154.7605 H   0  0  0  0  0  0  0  0  0  0  0  0
  148.4287  133.4090  156.1040 H   0  0  0  0  0  0  0  0  0  0  0  0
  146.8134  131.9294  155.0423 H   0  0  0  0  0  0  0  0  0  0  0  0
  145.9587  134.2017  155.7566 H   0  0  0  0  0  0  0  0  0  0  0  0
  144.9829  133.4886  154.5235 H   0  0  0  0  0  0  0  0  0  0  0  0
  146.1331  134.7565  154.0977 H   0  0  0  0  0  0  0  0  0  0  0  0
  145.9905  130.6466  153.1953 H   0  0  0  0  0  0  0  0  0  0  0  0
  145.0876  132.0981  152.8146 H   0  0  0  0  0  0  0  0  0  0  0  0
  146.9496  130.5283  150.9476 H   0  0  0  0  0  0  0  0  0  0  0  0
  145.1994  130.5994  150.8614 H   0  0  0  0  0  0  0  0  0  0  0  0
  148.2089  132.5793  150.4328 H   0  0  0  0  0  0  0  0  0  0  0  0
  147.2956  134.0135  150.0022 H   0  0  0  0  0  0  0  0  0  0  0  0
  146.3768  134.2046  152.2813 H   0  0  0  0  0  0  0  0  0  0  0  0
  148.1263  134.1404  152.3215 H   0  0  0  0  0  0  0  0  0  0  0  0
  149.9270  139.2772  153.0811 H   0  0  0  0  0  0  0  0  0  0  0  0
  1  2  1  0  0  0  0
  1 21  1  0  0  0  0
  1 22  1  0  0  0  0
  1 23  1  0  0  0  0
  2  3  1  0  0  0  0
  2 24  1  0  0  0  0
  2 25  1  0  0  0  0
  3 20  1  0  0  0  0
  3  4  1  0  0  0  0
  4  5  2  0  0  0  0
  4 26  1  0  0  0  0
  5  6  1  0  0  0  0
  5 19  1  0  0  0  0
  6  7  1  0  0  0  0
  6 27  1  0  0  0  0
  7  8  2  0  0  0  0
  7  9  1  0  0  0  0
  9 10  1  0  0  0  0
  9 28  1  0  0  0  0
 10 11  1  0  0  0  0
 10 29  1  0  0  0  0
 10 30  1  0  0  0  0
 11 12  1  0  0  0  0
 11 13  1  0  0  0  0
 11 31  1  0  0  0  0
 12 32  1  0  0  0  0
 12 33  1  0  0  0  0
 12 34  1  0  0  0  0
 13 18  1  0  0  0  0
 13 14  1  0  0  0  0
 14 15  1  0  0  0  0
 14 35  1  0  0  0  0
 14 36  1  0  0  0  0
 15 16  1  0  0  0  0
 15 37  1  0  0  0  0
 15 38  1  0  0  0  0
 16 17  1  0  0  0  0
 17 18  1  0  0  0  0
 17 39  1  0  0  0  0
 17 40  1  0  0  0  0
 18 41  1  0  0  0  0
 18 42  1  0  0  0  0
 19 20  2  0  0  0  0
 19 43  1  0  0  0  0
M  END
> <s_m_source_file>
AV-unprocessed.smi

> <i_m_source_file_index>
1780

> <i_lp_mmshare_version>
43012

> <i_f3d_flags>
0

> <s_epik_input>
W0NIM11bQ0gyXW4xW2NIXWMoW2NIXW4xKVtOSF1DKD1PKVtOSF1bQ0gyXVtDQEhdKFtDSDNdKU4yW0NIMl1bQ0gyXU9bQ0gyXVtDSDJdMg==

> <s_epik_cmdline>
J2VwaWtfcHl0aG9uJywgJy1waCcsICc3LjAnLCAnLXRuJywgJzgnLCAnLW1hJywgJzIwMCcsICctbWV0YWxfYmluZGluZycsICctaW1hZScsICc8aW5maWxlLm1hZT4nLCAnLW9tYWUnLCAnPG91dGZpbGUubWFlPic=

> <r_lp_tautomer_probability>
1

> <r_epik_Ionization_Penalty>
0.242902

> <r_epik_Ionization_Penalty_Charging>
0

> <r_epik_Ionization_Penalty_Neutral>
0.242902

> <r_epik_State_Penalty>
0.233765

> <r_epik_Charging_Adjusted_Penalty>
0.233765

> <i_epik_Tot_Q>
0

> <i_epik_Tot_abs_Q>
0

> <r_epik_Metal_State_Penalty>
0.233759

> <b_epik_Metal_Only>
0

> <s_lp_Force_Field>
OPLS_2005

> <r_lp_Energy>
31.4714

> <b_lp_Chiralities_Consistent>
1

> <s_lp_Variant>
AV-unprocessed.smi:1780-2

> <Gold.Version>
5.8.1

> <Gold.Id.Protein>
6NUR|6NUR_protein|mol2

> <Gold.PLP.Fitness>
40.9329

> <Gold.PLP.PLP>
-30.7017

> <Gold.PLP.part.hbond>
-4.0000

> <Gold.PLP.part.metal>
0.0000

> <Gold.PLP.part.buried>
-1.6870

> <Gold.PLP.part.nonpolar>
-23.4909

> <Gold.PLP.part.repulsive>
0.4371

> <Gold.PLP.ligand.clash>
0.0000

> <Gold.PLP.ligand.torsion>
0.2908

> <Gold.PLP.Chemscore.Hbond>
2.5897

> <Gold.PLP.Chemscore.CHOScore>
1.0000

> <Gold.PLP.Chemscore.Metal>
0.0000

> <Gold.Chemscore.Hbonds>
donor molecule, donor type, donor heavy atom, donor atom, acceptor molecule, acceptor atom, score
      L1  H     6    27       P1  7948  1.00
      L1  H     9    28       P1  7948  0.62
      P1  H  7989  7998       L1    20  0.75
      L1  C    19    43       P1  7957  1.00

> <Gold.PLP.Chemscore.Internal.Correction>
0.0438

> <Gold.Rescore>
     Score         DG    S(hbond)    S(metal)    S(lipo)     H(rot)  DE(clash)    DE(int)     intcor
     12.45     -13.81       1.56        0.00      61.92       1.61       0.00       1.37       ----

> <Gold.Chemscore.Fitness>
12.4456

> <Gold.Chemscore.DG>
-13.8135

> <Gold.Chemscore.ZeroCoef>
-5.4800

> <Gold.Chemscore.Hbond>
1.5614

> <Gold.Chemscore.Metal>
0.0000

> <Gold.Chemscore.Lipo>
61.9182

> <Gold.Chemscore.Internal_Hbond>
0.0000

> <Gold.Chemscore.DEClash>
0.0029

> <Gold.Chemscore.DEInternal>
1.3650

> <Gold.Chemscore.Rot>
1.6117

> <Gold.Chemscore.Internal.Correction>
   9.000000E+99

> <Gold.Chemscore.Hbonds>
donor molecule, donor type, donor heavy atom, donor atom, acceptor molecule, acceptor atom, score
      L1  H     6    27       P1  7948  0.93
      L1  H     9    28       P1  7948  0.30
      P1  H  7989  7998       L1    20  0.09

> <Gold.Chemscore.Hbond.Weighted>
-5.2151

> <Gold.Chemscore.Metal.Weighted>
-0.0000

> <Gold.Chemscore.Lipo.Weighted>
-7.2444

> <Gold.Chemscore.Internal_Hbond.Weighted>
0.0000

> <Gold.Chemscore.DEClash.Weighted>
0.0029

> <Gold.Chemscore.DEInternal.Weighted>
1.3650

> <Gold.Chemscore.Rot.Weighted>
4.1260

> <Gold.Chemscore.Internal.Correction.Weighted>
   9.000000E+99

> <Gold.Protein.RotatedTorsions>
[ 6907 6896 6895 6894 ] final   37.39 input  -60.11 | X-H torsion
[ 7974 7965 7964 7962 ] final  -56.00 input  175.53 | X-H torsion
[ 8008 7997 7996 7995 ] final  146.45 input   59.86 | X-H torsion
[ 10167 10162 10161 10158 ] final  174.85 input  -65.29 | X-H torsion
[ 10718 10713 10712 10709 ] final  107.40 input   66.30 | X-H torsion
[ 10763 10752 10751 10750 ] final  -78.84 input  -60.55 | X-H torsion
[ 11005 11000 10999 10996 ] final   24.98 input  -57.11 | X-H torsion

> <Gold.Protein.ActiveResidues>
 VAL166  LYS551  ARG553  GLY616  TRP617  ASP618  TYR619  PRO620  LYS621  CYS622 
 ASP623  PHE694  ASN695  SER759  ASP760  ASP761  ALA762  ILE779  LEU786  VAL792 
 PHE793  MET794  SER795  GLU796  ALA797  LYS798  CYS799  TRP800  GLU811  SER814 

> <Gold.Protein.RotatedAtoms>
  152.1426  134.9051  160.0552 H   0  0  0  0  0  0  0  0  0  0  0  0  # atno 6907 bound_to 6896
  152.0113  133.3857  159.4229 H   0  0  0  0  0  0  0  0  0  0  0  0  # atno 6908 bound_to 6896
  150.6866  134.3649  159.5010 H   0  0  0  0  0  0  0  0  0  0  0  0  # atno 6909 bound_to 6896
  145.8677  140.8239  142.9904 H   0  0  0  0  0  0  0  0  0  0  0  0  # atno 7974 bound_to 7965
  156.2855  140.2182  156.5378 H   0  0  0  0  0  0  0  0  0  0  0  0  # atno 8008 bound_to 7997
  154.7395  140.0489  157.0820 H   0  0  0  0  0  0  0  0  0  0  0  0  # atno 8009 bound_to 7997
  155.0249  140.3128  155.4783 H   0  0  0  0  0  0  0  0  0  0  0  0  # atno 8010 bound_to 7997
  139.5156  144.3099  152.0301 H   0  0  0  0  0  0  0  0  0  0  0  0  # atno 10167 bound_to 10162
  157.6630  131.0872  150.6150 H   0  0  0  0  0  0  0  0  0  0  0  0  # atno 10718 bound_to 10713
  154.5310  135.5716  153.6759 H   0  0  0  0  0  0  0  0  0  0  0  0  # atno 10763 bound_to 10752
  152.9939  135.6205  154.2629 H   0  0  0  0  0  0  0  0  0  0  0  0  # atno 10764 bound_to 10752
  154.2555  135.2858  155.2779 H   0  0  0  0  0  0  0  0  0  0  0  0  # atno 10765 bound_to 10752
  140.3528  134.2210  155.7678 H   0  0  0  0  0  0  0  0  0  0  0  0  # atno 11005 bound_to 11000
  144.6726  140.1191  143.7451 LP  0  0  0  0  0  0  0  0  0  0  0  0  # atno 17320 bound_to 7965
  145.9174  139.2524  143.1402 LP  0  0  0  0  0  0  0  0  0  0  0  0  # atno 17321 bound_to 7965
  140.2544  144.4135  150.6209 LP  0  0  0  0  0  0  0  0  0  0  0  0  # atno 17342 bound_to 10162
  140.6202  143.2175  151.6710 LP  0  0  0  0  0  0  0  0  0  0  0  0  # atno 17343 bound_to 10162
  156.6452  130.4469  149.5738 LP  0  0  0  0  0  0  0  0  0  0  0  0  # atno 17370 bound_to 10713
  156.2179  130.6719  151.1338 LP  0  0  0  0  0  0  0  0  0  0  0  0  # atno 17371 bound_to 10713
  141.2007  133.7981  157.0476 LP  0  0  0  0  0  0  0  0  0  0  0  0  # atno 17394 bound_to 11000
  140.0689  134.9713  157.1433 LP  0  0  0  0  0  0  0  0  0  0  0  0  # atno 17395 bound_to 11000

$$$$
