AV-unprocessed.smi:3149|AV-procd|sdf|12006|dock6
  -GOLD-   2272017413D 1   1.00000     0.00000
 Structure written by MMmdl.
 37 38  0  0  0  0  0  0  0  0  1 V2000
  149.5692  143.1209  158.8553 C   0  0  0  0  0  0  0  0  0  0  0  0
  150.9464  142.6504  158.3456 C   0  0  1  0  0  0  0  0  0  0  0  0
  150.9639  142.6326  156.8850 N   0  0  0  0  0  0  0  0  0  0  0  0
  150.5462  141.3534  156.3011 C   0  0  0  0  0  0  0  0  0  0  0  0
  151.7186  140.3720  156.2340 C   0  0  0  0  0  0  0  0  0  0  0  0
  152.5424  140.3324  157.1475 O   0  0  0  0  0  0  0  0  0  0  0  0
  151.7602  139.4724  155.1649 N   0  0  0  0  0  0  0  0  0  0  0  0
  152.4029  138.1744  155.3007 C   0  0  0  0  0  0  0  0  0  0  0  0
  151.4042  137.6925  154.2430 C   0  0  0  0  0  0  0  0  0  0  0  0
  150.5508  138.9215  154.5712 C   0  0  0  0  0  0  0  0  0  0  0  0
  152.1083  143.5347  158.8758 C   0  0  1  0  0  0  0  0  0  0  0  0
  151.7636  145.0373  158.9012 C   0  0  0  0  0  0  0  0  0  0  0  0
  152.6555  143.0734  160.1503 N   0  0  0  0  0  0  0  0  0  0  0  0
  152.5875  143.6990  161.3789 C   0  0  0  0  0  0  0  0  0  0  0  0
  153.2591  142.9194  162.2763 C   0  0  0  0  0  0  0  0  0  0  0  0
  153.7172  141.8236  161.4942 C   0  0  0  0  0  0  0  0  0  0  0  0
  153.3598  141.9204  160.2246 N   0  0  0  0  0  0  0  0  0  0  0  0
  149.5766  143.2375  159.9392 H   0  0  0  0  0  0  0  0  0  0  0  0
  148.7833  142.4035  158.6205 H   0  0  0  0  0  0  0  0  0  0  0  0
  149.2828  144.0796  158.4217 H   0  0  0  0  0  0  0  0  0  0  0  0
  151.1221  141.6364  158.7082 H   0  0  0  0  0  0  0  0  0  0  0  0
  150.4252  143.4082  156.5255 H   0  0  0  0  0  0  0  0  0  0  0  0
  149.7317  140.9182  156.8817 H   0  0  0  0  0  0  0  0  0  0  0  0
  150.1709  141.5082  155.2897 H   0  0  0  0  0  0  0  0  0  0  0  0
  153.4460  138.1602  154.9834 H   0  0  0  0  0  0  0  0  0  0  0  0
  152.2515  137.7119  156.2783 H   0  0  0  0  0  0  0  0  0  0  0  0
  151.8083  137.7043  153.2292 H   0  0  0  0  0  0  0  0  0  0  0  0
  150.9272  136.7406  154.4784 H   0  0  0  0  0  0  0  0  0  0  0  0
  149.7605  138.7092  155.2934 H   0  0  0  0  0  0  0  0  0  0  0  0
  150.1914  139.4716  153.7010 H   0  0  0  0  0  0  0  0  0  0  0  0
  152.9198  143.4344  158.1533 H   0  0  0  0  0  0  0  0  0  0  0  0
  151.4470  145.3815  157.9162 H   0  0  0  0  0  0  0  0  0  0  0  0
  152.6300  145.6310  159.1935 H   0  0  0  0  0  0  0  0  0  0  0  0
  150.9589  145.2620  159.6017 H   0  0  0  0  0  0  0  0  0  0  0  0
  152.0731  144.6396  161.5108 H   0  0  0  0  0  0  0  0  0  0  0  0
  153.4040  143.1050  163.3301 H   0  0  0  0  0  0  0  0  0  0  0  0
  154.2975  140.9684  161.8080 H   0  0  0  0  0  0  0  0  0  0  0  0
  1  2  1  0  0  0  0
  1 18  1  0  0  0  0
  1 19  1  0  0  0  0
  1 20  1  0  0  0  0
  2  3  1  0  0  0  0
  2 11  1  0  0  0  0
  2 21  1  0  0  0  0
  3  4  1  0  0  0  0
  3 22  1  0  0  0  0
  4  5  1  0  0  0  0
  4 23  1  0  0  0  0
  4 24  1  0  0  0  0
  5  6  2  0  0  0  0
  5  7  1  0  0  0  0
  7 10  1  0  0  0  0
  7  8  1  0  0  0  0
  8  9  1  0  0  0  0
  8 25  1  0  0  0  0
  8 26  1  0  0  0  0
  9 10  1  0  0  0  0
  9 27  1  0  0  0  0
  9 28  1  0  0  0  0
 10 29  1  0  0  0  0
 10 30  1  0  0  0  0
 11 12  1  0  0  0  0
 11 13  1  0  0  0  0
 11 31  1  0  0  0  0
 12 32  1  0  0  0  0
 12 33  1  0  0  0  0
 12 34  1  0  0  0  0
 13 17  1  0  0  0  0
 13 14  1  0  0  0  0
 14 15  2  0  0  0  0
 14 35  1  0  0  0  0
 15 16  1  0  0  0  0
 15 36  1  0  0  0  0
 16 17  2  0  0  0  0
 16 37  1  0  0  0  0
M  END
> <s_m_source_file>
AV-unprocessed.smi

> <i_m_source_file_index>
3149

> <i_lp_mmshare_version>
43012

> <i_f3d_flags>
0

> <s_epik_input>
bjFbY0hdW2NIXVtjSF1uMVtDQEBIXShbQ0gzXSlbQ0BIXShbQ0gzXSlbTkhdW0NIMl1DKD1PKU4yW0NIMl1bQ0gyXVtDSDJdMg==

> <s_epik_cmdline>
J2VwaWtfcHl0aG9uJywgJy1waCcsICc3LjAnLCAnLXRuJywgJzgnLCAnLW1hJywgJzIwMCcsICctbWV0YWxfYmluZGluZycsICctaW1hZScsICc8aW5maWxlLm1hZT4nLCAnLW9tYWUnLCAnPG91dGZpbGUubWFlPic=

> <r_lp_tautomer_probability>
1

> <r_epik_Ionization_Penalty>
0.918674

> <r_epik_Ionization_Penalty_Charging>
0

> <r_epik_Ionization_Penalty_Neutral>
0.918674

> <r_epik_State_Penalty>
0.958258

> <r_epik_Charging_Adjusted_Penalty>
0.958258

> <i_epik_Tot_Q>
0

> <i_epik_Tot_abs_Q>
0

> <r_epik_Metal_State_Penalty>
0.956881

> <b_epik_Metal_Only>
0

> <s_lp_Force_Field>
OPLS_2005

> <r_lp_Energy>
24.8849

> <b_lp_Chiralities_Consistent>
1

> <s_lp_Variant>
AV-unprocessed.smi:3149-8

> <Gold.Version>
5.8.1

> <Gold.Id.Protein>
6NUR|6NUR_protein|mol2

> <Gold.PLP.Fitness>
48.6535

> <Gold.PLP.PLP>
-46.7617

> <Gold.PLP.part.hbond>
-1.8630

> <Gold.PLP.part.metal>
0.0000

> <Gold.PLP.part.buried>
-1.6747

> <Gold.PLP.part.nonpolar>
-41.9269

> <Gold.PLP.part.repulsive>
0.0000

> <Gold.PLP.ligand.clash>
0.0000

> <Gold.PLP.ligand.torsion>
2.2121

> <Gold.PLP.Chemscore.Hbond>
1.7723

> <Gold.PLP.Chemscore.CHOScore>
0.0000

> <Gold.PLP.Chemscore.Metal>
0.0000

> <Gold.Chemscore.Hbonds>
donor molecule, donor type, donor heavy atom, donor atom, acceptor molecule, acceptor atom, score
      L1  H     3    22       P1  8028  0.60
      P1  H  7997  8009       L1     6  0.94

> <Gold.PLP.Chemscore.Internal.Correction>
0.9992

> <Gold.Rescore>
     Score         DG    S(hbond)    S(metal)    S(lipo)     H(rot)  DE(clash)    DE(int)     intcor
     16.14     -18.82       1.78        0.00     102.19       1.79       0.35       2.34       ----

> <Gold.Chemscore.Fitness>
16.1357

> <Gold.Chemscore.DG>
-18.8213

> <Gold.Chemscore.ZeroCoef>
-5.4800

> <Gold.Chemscore.Hbond>
1.7846

> <Gold.Chemscore.Metal>
0.0000

> <Gold.Chemscore.Lipo>
102.1937

> <Gold.Chemscore.Internal_Hbond>
0.0000

> <Gold.Chemscore.DEClash>
0.3477

> <Gold.Chemscore.DEInternal>
2.3379

> <Gold.Chemscore.Rot>
1.7874

> <Gold.Chemscore.Internal.Correction>
   9.000000E+99

> <Gold.Chemscore.Hbonds>
donor molecule, donor type, donor heavy atom, donor atom, acceptor molecule, acceptor atom, score
      L1  H     3    22       P1  8028  0.60
      P1  H  7997  8009       L1     6  0.78

> <Gold.Chemscore.Hbond.Weighted>
-5.9605

> <Gold.Chemscore.Metal.Weighted>
-0.0000

> <Gold.Chemscore.Lipo.Weighted>
-11.9567

> <Gold.Chemscore.Internal_Hbond.Weighted>
0.0000

> <Gold.Chemscore.DEClash.Weighted>
0.3477

> <Gold.Chemscore.DEInternal.Weighted>
2.3379

> <Gold.Chemscore.Rot.Weighted>
4.5758

> <Gold.Chemscore.Internal.Correction.Weighted>
   9.000000E+99

> <Gold.Protein.RotatedTorsions>
[ 6907 6896 6895 6894 ] final  -89.32 input  -60.11 | X-H torsion
[ 7974 7965 7964 7962 ] final -142.47 input  175.53 | X-H torsion
[ 8008 7997 7996 7995 ] final -172.63 input   59.86 | X-H torsion
[ 10167 10162 10161 10158 ] final   94.14 input  -65.29 | X-H torsion
[ 10718 10713 10712 10709 ] final -178.79 input   66.30 | X-H torsion
[ 10763 10752 10751 10750 ] final   66.71 input  -60.55 | X-H torsion
[ 11005 11000 10999 10996 ] final   22.80 input  -57.11 | X-H torsion

> <Gold.Protein.ActiveResidues>
 VAL166  LYS551  ARG553  GLY616  TRP617  ASP618  TYR619  PRO620  LYS621  CYS622 
 ASP623  PHE694  ASN695  SER759  ASP760  ASP761  ALA762  ILE779  LEU786  VAL792 
 PHE793  MET794  SER795  GLU796  ALA797  LYS798  CYS799  TRP800  GLU811  SER814 

> <Gold.Protein.RotatedAtoms>
  150.6873  134.2605  159.4546 H   0  0  0  0  0  0  0  0  0  0  0  0  # atno 6907 bound_to 6896
  152.0535  134.9636  160.0584 H   0  0  0  0  0  0  0  0  0  0  0  0  # atno 6908 bound_to 6896
  152.1091  133.4256  159.4659 H   0  0  0  0  0  0  0  0  0  0  0  0  # atno 6909 bound_to 6896
  144.8441  140.5954  143.5433 H   0  0  0  0  0  0  0  0  0  0  0  0  # atno 7974 bound_to 7965
  155.9471  140.1119  157.1008 H   0  0  0  0  0  0  0  0  0  0  0  0  # atno 8008 bound_to 7997
  154.4101  140.1208  156.5069 H   0  0  0  0  0  0  0  0  0  0  0  0  # atno 8009 bound_to 7997
  155.6890  140.3472  155.4888 H   0  0  0  0  0  0  0  0  0  0  0  0  # atno 8010 bound_to 7997
  139.8112  144.6772  150.9638 H   0  0  0  0  0  0  0  0  0  0  0  0  # atno 10167 bound_to 10162
  156.8495  130.9714  151.3093 H   0  0  0  0  0  0  0  0  0  0  0  0  # atno 10718 bound_to 10713
  153.0152  135.5310  154.6866 H   0  0  0  0  0  0  0  0  0  0  0  0  # atno 10763 bound_to 10752
  154.6012  135.2868  155.0536 H   0  0  0  0  0  0  0  0  0  0  0  0  # atno 10764 bound_to 10752
  154.1592  135.6550  153.5034 H   0  0  0  0  0  0  0  0  0  0  0  0  # atno 10765 bound_to 10752
  140.3766  134.1965  155.7665 H   0  0  0  0  0  0  0  0  0  0  0  0  # atno 11005 bound_to 11000
  145.4633  139.1510  143.3854 LP  0  0  0  0  0  0  0  0  0  0  0  0  # atno 17320 bound_to 7965
  146.2729  140.4764  142.8807 LP  0  0  0  0  0  0  0  0  0  0  0  0  # atno 17321 bound_to 7965
  140.7817  143.4183  151.0882 LP  0  0  0  0  0  0  0  0  0  0  0  0  # atno 17342 bound_to 10162
  139.7849  143.8301  152.3143 LP  0  0  0  0  0  0  0  0  0  0  0  0  # atno 17343 bound_to 10162
  157.6311  130.8730  149.9276 LP  0  0  0  0  0  0  0  0  0  0  0  0  # atno 17370 bound_to 10713
  156.0836  130.3670  150.0532 LP  0  0  0  0  0  0  0  0  0  0  0  0  # atno 17371 bound_to 10713
  141.1937  133.8144  157.0787 LP  0  0  0  0  0  0  0  0  0  0  0  0  # atno 17394 bound_to 11000
  140.0510  134.9805  157.1137 LP  0  0  0  0  0  0  0  0  0  0  0  0  # atno 17395 bound_to 11000

$$$$
