AV-unprocessed.smi:3036|AV-procd|sdf|11583|dock1
  -GOLD-   2272016553D 1   1.00000     0.00000
 Structure written by MMmdl.
 42 43  0  0  0  0  0  0  0  0  2 V2000
  146.5661  131.7252  152.6060 C   0  0  0  0  0  0  0  0  0  0  0  0
  145.7525  131.1220  151.4532 C   0  0  1  0  0  0  0  0  0  0  0  0
  145.4212  132.1875  150.3910 C   0  0  0  0  0  0  0  0  0  0  0  0
  144.8650  133.3940  150.9756 N   0  0  0  0  0  0  0  0  0  0  0  0
  143.9415  133.5083  151.9932 C   0  0  0  0  0  0  0  0  0  0  0  0
  143.7144  134.8405  152.1869 C   0  0  0  0  0  0  0  0  0  0  0  0
  144.5613  135.4705  151.2326 C   0  0  0  0  0  0  0  0  0  0  0  0
  145.2500  134.6011  150.5107 N   0  0  0  0  0  0  0  0  0  0  0  0
  146.5007  129.9929  150.8543 N   0  3  0  0  0  0  0  0  0  0  0  0
  146.5523  128.7730  151.6898 C   0  0  0  0  0  0  0  0  0  0  0  0
  147.9320  128.0851  151.6377 C   0  0  0  0  0  0  0  0  0  0  0  0
  147.9426  126.6092  152.0793 C   0  0  0  0  0  0  0  0  0  0  0  0
  147.5280  126.3204  153.2018 O   0  0  0  0  0  0  0  0  0  0  0  0
  148.4106  125.6700  151.2225 N   0  0  0  0  0  0  0  0  0  0  0  0
  148.9540  125.9907  149.8989 C   0  0  0  0  0  0  0  0  0  0  0  0
  150.4434  125.6031  149.8762 C   0  0  0  0  0  0  0  0  0  0  0  0
  150.5836  124.2189  150.1863 O   0  0  0  0  0  0  0  0  0  0  0  0
  150.0408  123.8725  151.4580 C   0  0  0  0  0  0  0  0  0  0  0  0
  148.5457  124.2362  151.4998 C   0  0  0  0  0  0  0  0  0  0  0  0
  146.0240  132.5423  153.0830 H   0  0  0  0  0  0  0  0  0  0  0  0
  147.5205  132.1202  152.2558 H   0  0  0  0  0  0  0  0  0  0  0  0
  146.7749  130.9785  153.3732 H   0  0  0  0  0  0  0  0  0  0  0  0
  144.8138  130.7549  151.8725 H   0  0  0  0  0  0  0  0  0  0  0  0
  146.3239  132.4671  149.8464 H   0  0  0  0  0  0  0  0  0  0  0  0
  144.7233  131.7907  149.6515 H   0  0  0  0  0  0  0  0  0  0  0  0
  143.5241  132.6424  152.4860 H   0  0  0  0  0  0  0  0  0  0  0  0
  143.0463  135.2963  152.9027 H   0  0  0  0  0  0  0  0  0  0  0  0
  144.6945  136.5255  151.0432 H   0  0  0  0  0  0  0  0  0  0  0  0
  146.0675  129.7561  149.9720 H   0  0  0  0  0  0  0  0  0  0  0  0
  146.3346  129.0497  152.7221 H   0  0  0  0  0  0  0  0  0  0  0  0
  145.7664  128.0829  151.3780 H   0  0  0  0  0  0  0  0  0  0  0  0
  148.3290  128.1603  150.6245 H   0  0  0  0  0  0  0  0  0  0  0  0
  148.6129  128.6346  152.2887 H   0  0  0  0  0  0  0  0  0  0  0  0
  148.4077  125.4306  149.1387 H   0  0  0  0  0  0  0  0  0  0  0  0
  148.8449  127.0434  149.6351 H   0  0  0  0  0  0  0  0  0  0  0  0
  150.8671  125.7878  148.8888 H   0  0  0  0  0  0  0  0  0  0  0  0
  151.0131  126.2042  150.5866 H   0  0  0  0  0  0  0  0  0  0  0  0
  150.1743  122.8027  151.6179 H   0  0  0  0  0  0  0  0  0  0  0  0
  150.5888  124.3853  152.2500 H   0  0  0  0  0  0  0  0  0  0  0  0
  148.1215  123.9278  152.4538 H   0  0  0  0  0  0  0  0  0  0  0  0
  148.0033  123.6730  150.7391 H   0  0  0  0  0  0  0  0  0  0  0  0
  147.4466  130.2985  150.6756 H   0  0  0  0  0  0  0  0  0  0  0  0
  1  2  1  0  0  0  0
  1 20  1  0  0  0  0
  1 21  1  0  0  0  0
  1 22  1  0  0  0  0
  2  3  1  0  0  0  0
  2  9  1  0  0  0  0
  2 23  1  0  0  0  0
  3  4  1  0  0  0  0
  3 24  1  0  0  0  0
  3 25  1  0  0  0  0
  4  8  1  0  0  0  0
  4  5  1  0  0  0  0
  5  6  2  0  0  0  0
  5 26  1  0  0  0  0
  6  7  1  0  0  0  0
  6 27  1  0  0  0  0
  7  8  2  0  0  0  0
  7 28  1  0  0  0  0
  9 10  1  0  0  0  0
  9 29  1  0  0  0  0
  9 42  1  0  0  0  0
 10 11  1  0  0  0  0
 10 30  1  0  0  0  0
 10 31  1  0  0  0  0
 11 12  1  0  0  0  0
 11 32  1  0  0  0  0
 11 33  1  0  0  0  0
 12 13  2  0  0  0  0
 12 14  1  0  0  0  0
 14 19  1  0  0  0  0
 14 15  1  0  0  0  0
 15 16  1  0  0  0  0
 15 34  1  0  0  0  0
 15 35  1  0  0  0  0
 16 17  1  0  0  0  0
 16 36  1  0  0  0  0
 16 37  1  0  0  0  0
 17 18  1  0  0  0  0
 18 19  1  0  0  0  0
 18 38  1  0  0  0  0
 18 39  1  0  0  0  0
 19 40  1  0  0  0  0
 19 41  1  0  0  0  0
M  CHG  1   9   1
M  END
> <s_m_source_file>
AV-unprocessed.smi

> <i_m_source_file_index>
3036

> <i_lp_mmshare_version>
43012

> <i_f3d_flags>
0

> <s_epik_input>
bjFbY0hdW2NIXVtjSF1uMVtDSDJdW0NAQEhdKFtDSDNdKVtOSF1bQ0gyXVtDSDJdQyg9TylOMltDSDJdW0NIMl1PW0NIMl1bQ0gyXTI=

> <s_epik_cmdline>
J2VwaWtfcHl0aG9uJywgJy1waCcsICc3LjAnLCAnLXRuJywgJzgnLCAnLW1hJywgJzIwMCcsICctbWV0YWxfYmluZGluZycsICctaW1hZScsICc8aW5maWxlLm1hZT4nLCAnLW9tYWUnLCAnPG91dGZpbGUubWFlPic=

> <r_lp_tautomer_probability>
1

> <r_epik_Ionization_Penalty>
0.00797109

> <r_epik_Ionization_Penalty_Charging>
0.0079672

> <r_epik_Ionization_Penalty_Neutral>
3.88864e-06

> <r_epik_State_Penalty>
0.00597998

> <r_epik_Charging_Adjusted_Penalty>
0.0139472

> <i_epik_Tot_Q>
1

> <i_epik_Tot_abs_Q>
1

> <r_epik_Metal_State_Penalty>
0.00598029

> <b_epik_Metal_Only>
0

> <s_lp_Force_Field>
OPLS_2005

> <r_lp_Energy>
23.754

> <b_lp_Chiralities_Consistent>
1

> <s_lp_Variant>
AV-unprocessed.smi:3036-2

> <Gold.Version>
5.8.1

> <Gold.Id.Protein>
6NUR|6NUR_protein|mol2

> <Gold.PLP.Fitness>
42.5330

> <Gold.PLP.PLP>
-35.8224

> <Gold.PLP.part.hbond>
-1.6922

> <Gold.PLP.part.metal>
0.0000

> <Gold.PLP.part.buried>
-3.7960

> <Gold.PLP.part.nonpolar>
-30.8840

> <Gold.PLP.part.repulsive>
1.2450

> <Gold.PLP.ligand.clash>
0.0000

> <Gold.PLP.ligand.torsion>
0.7825

> <Gold.PLP.Chemscore.Hbond>
1.0000

> <Gold.PLP.Chemscore.CHOScore>
1.6690

> <Gold.PLP.Chemscore.Metal>
0.0000

> <Gold.Chemscore.Hbonds>
donor molecule, donor type, donor heavy atom, donor atom, acceptor molecule, acceptor atom, score
      L1  H     9    42       P1 10747  1.00
      L1  C     5    26       P1 10957  0.55
      L1  C     7    28       P1 10171  0.99

> <Gold.PLP.Chemscore.Internal.Correction>
0.2688

> <Gold.Rescore>
     Score         DG    S(hbond)    S(metal)    S(lipo)     H(rot)  DE(clash)    DE(int)     intcor
     12.43     -13.13       1.00        0.00      82.13       2.07       0.13       0.57       ----

> <Gold.Chemscore.Fitness>
12.4304

> <Gold.Chemscore.DG>
-13.1296

> <Gold.Chemscore.ZeroCoef>
-5.4800

> <Gold.Chemscore.Hbond>
0.9984

> <Gold.Chemscore.Metal>
0.0000

> <Gold.Chemscore.Lipo>
82.1284

> <Gold.Chemscore.Internal_Hbond>
0.0000

> <Gold.Chemscore.DEClash>
0.1292

> <Gold.Chemscore.DEInternal>
0.5701

> <Gold.Chemscore.Rot>
2.0680

> <Gold.Chemscore.Internal.Correction>
   9.000000E+99

> <Gold.Chemscore.Hbonds>
donor molecule, donor type, donor heavy atom, donor atom, acceptor molecule, acceptor atom, score
      L1  H     9    42       P1 10747  1.00

> <Gold.Chemscore.Hbond.Weighted>
-3.3347

> <Gold.Chemscore.Metal.Weighted>
-0.0000

> <Gold.Chemscore.Lipo.Weighted>
-9.6090

> <Gold.Chemscore.Internal_Hbond.Weighted>
0.0000

> <Gold.Chemscore.DEClash.Weighted>
0.1292

> <Gold.Chemscore.DEInternal.Weighted>
0.5701

> <Gold.Chemscore.Rot.Weighted>
5.2941

> <Gold.Chemscore.Internal.Correction.Weighted>
   9.000000E+99

> <Gold.Protein.RotatedTorsions>
[ 6907 6896 6895 6894 ] final   90.41 input  -60.11 | X-H torsion
[ 7974 7965 7964 7962 ] final  112.76 input  175.53 | X-H torsion
[ 8008 7997 7996 7995 ] final -164.33 input   59.86 | X-H torsion
[ 10167 10162 10161 10158 ] final  159.84 input  -65.29 | X-H torsion
[ 10718 10713 10712 10709 ] final  -62.44 input   66.30 | X-H torsion
[ 10763 10752 10751 10750 ] final  -64.97 input  -60.55 | X-H torsion
[ 11005 11000 10999 10996 ] final -118.80 input  -57.11 | X-H torsion

> <Gold.Protein.ActiveResidues>
 VAL166  LYS551  ARG553  GLY616  TRP617  ASP618  TYR619  PRO620  LYS621  CYS622 
 ASP623  PHE694  ASN695  SER759  ASP760  ASP761  ALA762  ILE779  LEU786  VAL792 
 PHE793  MET794  SER795  GLU796  ALA797  LYS798  CYS799  TRP800  GLU811  SER814 

> <Gold.Protein.RotatedAtoms>
  152.5444  134.1815  159.8637 H   0  0  0  0  0  0  0  0  0  0  0  0  # atno 6907 bound_to 6896
  151.1817  133.4714  159.2601 H   0  0  0  0  0  0  0  0  0  0  0  0  # atno 6908 bound_to 6896
  151.1171  135.0071  159.8576 H   0  0  0  0  0  0  0  0  0  0  0  0  # atno 6909 bound_to 6896
  145.2255  139.2843  143.4196 H   0  0  0  0  0  0  0  0  0  0  0  0  # atno 7974 bound_to 7965
  155.8340  140.0938  157.1775 H   0  0  0  0  0  0  0  0  0  0  0  0  # atno 8008 bound_to 7997
  154.3980  140.1413  156.3709 H   0  0  0  0  0  0  0  0  0  0  0  0  # atno 8009 bound_to 7997
  155.8135  140.3449  155.5474 H   0  0  0  0  0  0  0  0  0  0  0  0  # atno 8010 bound_to 7997
  139.4835  144.4691  151.8601 H   0  0  0  0  0  0  0  0  0  0  0  0  # atno 10167 bound_to 10162
  156.0855  130.4209  150.1135 H   0  0  0  0  0  0  0  0  0  0  0  0  # atno 10718 bound_to 10713
  154.3381  135.6162  153.5583 H   0  0  0  0  0  0  0  0  0  0  0  0  # atno 10763 bound_to 10752
  152.9806  135.5763  154.4884 H   0  0  0  0  0  0  0  0  0  0  0  0  # atno 10764 bound_to 10752
  154.4583  135.2855  155.1708 H   0  0  0  0  0  0  0  0  0  0  0  0  # atno 10765 bound_to 10752
  141.0261  134.0052  157.3213 H   0  0  0  0  0  0  0  0  0  0  0  0  # atno 11005 bound_to 11000
  146.3366  140.2573  142.8600 LP  0  0  0  0  0  0  0  0  0  0  0  0  # atno 17320 bound_to 7965
  144.9726  140.8383  143.5446 LP  0  0  0  0  0  0  0  0  0  0  0  0  # atno 17321 bound_to 7965
  140.4159  144.2308  150.5888 LP  0  0  0  0  0  0  0  0  0  0  0  0  # atno 17342 bound_to 10162
  140.4921  143.2344  151.8802 LP  0  0  0  0  0  0  0  0  0  0  0  0  # atno 17343 bound_to 10162
  156.9157  130.9666  151.3556 LP  0  0  0  0  0  0  0  0  0  0  0  0  # atno 17370 bound_to 10713
  157.5988  130.8497  149.8770 LP  0  0  0  0  0  0  0  0  0  0  0  0  # atno 17371 bound_to 10713
  139.9176  135.0198  156.7943 LP  0  0  0  0  0  0  0  0  0  0  0  0  # atno 17394 bound_to 11000
  140.6489  133.9749  155.7745 LP  0  0  0  0  0  0  0  0  0  0  0  0  # atno 17395 bound_to 11000

$$$$
