AV-unprocessed.smi:1501|AV-procd|sdf|6066|dock1
  -GOLD-   22720 6183D 1   1.00000     0.00000
 Structure written by MMmdl.
 48 49  0  0  0  0  0  0  0  0  2 V2000
  153.0823  138.6388  154.8206 C   0  0  0  0  0  0  0  0  0  0  0  0
  152.0662  139.3876  155.6645 C   0  0  0  0  0  0  0  0  0  0  0  0
  152.5790  140.0714  156.7762 N   0  0  0  0  0  0  0  0  0  0  0  0
  151.7836  140.7356  157.5596 C   0  0  0  0  0  0  0  0  0  0  0  0
  152.2564  141.4296  158.6767 N   0  0  0  0  0  0  0  0  0  0  0  0
  153.4192  140.9483  159.4264 C   0  0  0  0  0  0  0  0  0  0  0  0
  153.4271  141.4996  160.8620 C   0  0  0  0  0  0  0  0  0  0  0  0
  153.3697  142.9195  160.8320 O   0  0  0  0  0  0  0  0  0  0  0  0
  152.1743  143.3741  160.2127 C   0  0  0  0  0  0  0  0  0  0  0  0
  152.1261  142.8849  158.7557 C   0  0  0  0  0  0  0  0  0  0  0  0
  150.4171  140.8120  157.3391 N   0  5  0  0  0  0  0  0  0  0  0  0
  149.8501  140.1784  156.2733 C   0  0  0  0  0  0  0  0  0  0  0  0
  148.6420  140.2365  156.0467 O   0  0  0  0  0  0  0  0  0  0  0  0
  150.7343  139.4127  155.3775 C   0  0  0  0  0  0  0  0  0  0  0  0
  150.1206  138.6724  154.1912 C   0  0  0  0  0  0  0  0  0  0  0  0
  149.2209  137.5050  154.6402 C   0  0  0  0  0  0  0  0  0  0  0  0
  150.0084  136.2558  155.0471 C   0  0  0  0  0  0  0  0  0  0  0  0
  151.2295  136.3035  155.2002 O   0  0  0  0  0  0  0  0  0  0  0  0
  149.2928  135.1326  155.2095 N   0  0  0  0  0  0  0  0  0  0  0  0
  149.8451  133.8328  155.5781 C   0  0  0  0  0  0  0  0  0  0  0  0
  149.8492  132.8330  154.4021 C   0  0  0  0  0  0  0  0  0  0  0  0
  148.5608  132.9605  153.5762 C   0  0  0  0  0  0  0  0  0  0  0  0
  150.0542  131.3822  154.8705 C   0  0  0  0  0  0  0  0  0  0  0  0
  152.9906  138.9169  153.7705 H   0  0  0  0  0  0  0  0  0  0  0  0
  152.9314  137.5630  154.9107 H   0  0  0  0  0  0  0  0  0  0  0  0
  154.1012  138.8636  155.1381 H   0  0  0  0  0  0  0  0  0  0  0  0
  153.4481  139.8592  159.4675 H   0  0  0  0  0  0  0  0  0  0  0  0
  154.3226  141.2643  158.9037 H   0  0  0  0  0  0  0  0  0  0  0  0
  152.5887  141.1010  161.4352 H   0  0  0  0  0  0  0  0  0  0  0  0
  154.3383  141.1932  161.3757 H   0  0  0  0  0  0  0  0  0  0  0  0
  151.3044  143.0216  160.7696 H   0  0  0  0  0  0  0  0  0  0  0  0
  152.1508  144.4634  160.2430 H   0  0  0  0  0  0  0  0  0  0  0  0
  152.9308  143.3437  158.1802 H   0  0  0  0  0  0  0  0  0  0  0  0
  151.1867  143.2076  158.3045 H   0  0  0  0  0  0  0  0  0  0  0  0
  149.5489  139.3732  153.5830 H   0  0  0  0  0  0  0  0  0  0  0  0
  150.9124  138.3085  153.5343 H   0  0  0  0  0  0  0  0  0  0  0  0
  148.5987  137.8245  155.4777 H   0  0  0  0  0  0  0  0  0  0  0  0
  148.5404  137.2290  153.8342 H   0  0  0  0  0  0  0  0  0  0  0  0
  148.2946  135.1819  155.0651 H   0  0  0  0  0  0  0  0  0  0  0  0
  150.8630  133.9882  155.9369 H   0  0  0  0  0  0  0  0  0  0  0  0
  149.2849  133.4252  156.4214 H   0  0  0  0  0  0  0  0  0  0  0  0
  150.6796  133.0869  153.7418 H   0  0  0  0  0  0  0  0  0  0  0  0
  147.6804  132.7223  154.1742 H   0  0  0  0  0  0  0  0  0  0  0  0
  148.5742  132.2865  152.7192 H   0  0  0  0  0  0  0  0  0  0  0  0
  148.4386  133.9741  153.1933 H   0  0  0  0  0  0  0  0  0  0  0  0
  149.2633  131.0720  155.5542 H   0  0  0  0  0  0  0  0  0  0  0  0
  151.0075  131.2579  155.3847 H   0  0  0  0  0  0  0  0  0  0  0  0
  150.0513  130.6933  154.0252 H   0  0  0  0  0  0  0  0  0  0  0  0
  1  2  1  0  0  0  0
  1 24  1  0  0  0  0
  1 25  1  0  0  0  0
  1 26  1  0  0  0  0
  2 14  2  0  0  0  0
  2  3  1  0  0  0  0
  3  4  2  0  0  0  0
  4  5  1  0  0  0  0
  4 11  1  0  0  0  0
  5 10  1  0  0  0  0
  5  6  1  0  0  0  0
  6  7  1  0  0  0  0
  6 27  1  0  0  0  0
  6 28  1  0  0  0  0
  7  8  1  0  0  0  0
  7 29  1  0  0  0  0
  7 30  1  0  0  0  0
  8  9  1  0  0  0  0
  9 10  1  0  0  0  0
  9 31  1  0  0  0  0
  9 32  1  0  0  0  0
 10 33  1  0  0  0  0
 10 34  1  0  0  0  0
 11 12  1  0  0  0  0
 12 13  2  0  0  0  0
 12 14  1  0  0  0  0
 14 15  1  0  0  0  0
 15 16  1  0  0  0  0
 15 35  1  0  0  0  0
 15 36  1  0  0  0  0
 16 17  1  0  0  0  0
 16 37  1  0  0  0  0
 16 38  1  0  0  0  0
 17 18  2  0  0  0  0
 17 19  1  0  0  0  0
 19 20  1  0  0  0  0
 19 39  1  0  0  0  0
 20 21  1  0  0  0  0
 20 40  1  0  0  0  0
 20 41  1  0  0  0  0
 21 22  1  0  0  0  0
 21 23  1  0  0  0  0
 21 42  1  0  0  0  0
 22 43  1  0  0  0  0
 22 44  1  0  0  0  0
 22 45  1  0  0  0  0
 23 46  1  0  0  0  0
 23 47  1  0  0  0  0
 23 48  1  0  0  0  0
M  CHG  1  11  -1
M  END
> <s_m_source_file>
AV-unprocessed.smi

> <i_m_source_file_index>
1501

> <i_lp_mmshare_version>
43012

> <i_f3d_flags>
0

> <s_epik_input>
W0NIMl0xW0NIMl1PW0NIMl1bQ0gyXU4xYyhuYzJbQ0gzXSlbbkhdYyg9TyljMltDSDJdW0NIMl1DKD1PKVtOSF1bQ0gyXVtDSF0oW0NIM10pW0NIM10=

> <s_epik_cmdline>
J2VwaWtfcHl0aG9uJywgJy1waCcsICc3LjAnLCAnLXRuJywgJzgnLCAnLW1hJywgJzIwMCcsICctbWV0YWxfYmluZGluZycsICctaW1hZScsICc8aW5maWxlLm1hZT4nLCAnLW9tYWUnLCAnPG91dGZpbGUubWFlPic=

> <r_lp_tautomer_probability>
1

> <r_epik_Ionization_Penalty>
5.04715

> <r_epik_Ionization_Penalty_Charging>
9.89309e-08

> <r_epik_Ionization_Penalty_Neutral>
5.04715

> <r_epik_State_Penalty>
2.57778

> <r_epik_Charging_Adjusted_Penalty>
2.57778

> <i_epik_Tot_Q>
-1

> <i_epik_Tot_abs_Q>
1

> <r_epik_Metal_State_Penalty>
0.1232

> <b_epik_Metal_Only>
0

> <s_lp_Force_Field>
OPLS_2005

> <r_lp_Energy>
25.0321

> <b_lp_Chiralities_Consistent>
1

> <s_lp_Variant>
AV-unprocessed.smi:1501-3

> <Gold.Version>
5.8.1

> <Gold.Id.Protein>
6NUR|6NUR_protein|mol2

> <Gold.PLP.Fitness>
44.7727

> <Gold.PLP.PLP>
-40.9742

> <Gold.PLP.part.hbond>
-2.0000

> <Gold.PLP.part.metal>
0.0000

> <Gold.PLP.part.buried>
-0.2296

> <Gold.PLP.part.nonpolar>
-37.6417

> <Gold.PLP.part.repulsive>
0.1982

> <Gold.PLP.ligand.clash>
0.0000

> <Gold.PLP.ligand.torsion>
1.2920

> <Gold.PLP.Chemscore.Hbond>
2.0000

> <Gold.PLP.Chemscore.CHOScore>
0.0000

> <Gold.PLP.Chemscore.Metal>
0.0000

> <Gold.Chemscore.Hbonds>
donor molecule, donor type, donor heavy atom, donor atom, acceptor molecule, acceptor atom, score
      P1  H  7997  8010       L1     3  1.00
      P1  H 10752 10765       L1    18  1.00

> <Gold.PLP.Chemscore.Internal.Correction>
0.3825

> <Gold.Rescore>
     Score         DG    S(hbond)    S(metal)    S(lipo)     H(rot)  DE(clash)    DE(int)     intcor
     16.05     -18.80       1.87        0.00      99.45       1.79       0.68       2.06       ----

> <Gold.Chemscore.Fitness>
16.0526

> <Gold.Chemscore.DG>
-18.7969

> <Gold.Chemscore.ZeroCoef>
-5.4800

> <Gold.Chemscore.Hbond>
1.8733

> <Gold.Chemscore.Metal>
0.0000

> <Gold.Chemscore.Lipo>
99.4545

> <Gold.Chemscore.Internal_Hbond>
0.0000

> <Gold.Chemscore.DEClash>
0.6826

> <Gold.Chemscore.DEInternal>
2.0618

> <Gold.Chemscore.Rot>
1.7875

> <Gold.Chemscore.Internal.Correction>
   9.000000E+99

> <Gold.Chemscore.Hbonds>
donor molecule, donor type, donor heavy atom, donor atom, acceptor molecule, acceptor atom, score
      P1  H  7997  8010       L1     3  0.34
      P1  H 10752 10765       L1    18  0.99

> <Gold.Chemscore.Hbond.Weighted>
-6.2568

> <Gold.Chemscore.Metal.Weighted>
-0.0000

> <Gold.Chemscore.Lipo.Weighted>
-11.6362

> <Gold.Chemscore.Internal_Hbond.Weighted>
0.0000

> <Gold.Chemscore.DEClash.Weighted>
0.6826

> <Gold.Chemscore.DEInternal.Weighted>
2.0618

> <Gold.Chemscore.Rot.Weighted>
4.5760

> <Gold.Chemscore.Internal.Correction.Weighted>
   9.000000E+99

> <Gold.Protein.RotatedTorsions>
[ 6907 6896 6895 6894 ] final  -79.92 input  -60.11 | X-H torsion
[ 7974 7965 7964 7962 ] final  -89.37 input  175.53 | X-H torsion
[ 8008 7997 7996 7995 ] final   75.79 input   59.86 | X-H torsion
[ 10167 10162 10161 10158 ] final  136.11 input  -65.29 | X-H torsion
[ 10718 10713 10712 10709 ] final  128.51 input   66.30 | X-H torsion
[ 10763 10752 10751 10750 ] final -173.24 input  -60.55 | X-H torsion
[ 11005 11000 10999 10996 ] final  -74.46 input  -57.11 | X-H torsion

> <Gold.Protein.ActiveResidues>
 VAL166  LYS551  ARG553  GLY616  TRP617  ASP618  TYR619  PRO620  LYS621  CYS622 
 ASP623  PHE694  ASN695  SER759  ASP760  ASP761  ALA762  ILE779  LEU786  VAL792 
 PHE793  MET794  SER795  GLU796  ALA797  LYS798  CYS799  TRP800  GLU811  SER814 

> <Gold.Protein.RotatedAtoms>
  150.6939  134.4047  159.5134 H   0  0  0  0  0  0  0  0  0  0  0  0  # atno 6907 bound_to 6896
  152.1815  134.8747  160.0535 H   0  0  0  0  0  0  0  0  0  0  0  0  # atno 6908 bound_to 6896
  151.9736  133.3699  159.4117 H   0  0  0  0  0  0  0  0  0  0  0  0  # atno 6909 bound_to 6896
  145.4408  140.9559  143.2076 H   0  0  0  0  0  0  0  0  0  0  0  0  # atno 7974 bound_to 7965
  155.8180  140.3471  155.5497 H   0  0  0  0  0  0  0  0  0  0  0  0  # atno 8008 bound_to 7997
  155.8371  140.0936  157.1777 H   0  0  0  0  0  0  0  0  0  0  0  0  # atno 8009 bound_to 7997
  154.4004  140.1401  156.3671 H   0  0  0  0  0  0  0  0  0  0  0  0  # atno 8010 bound_to 7997
  139.5192  144.6482  151.5380 H   0  0  0  0  0  0  0  0  0  0  0  0  # atno 10167 bound_to 10162
  157.5238  131.1098  150.9114 H   0  0  0  0  0  0  0  0  0  0  0  0  # atno 10718 bound_to 10713
  154.6102  135.2863  155.0441 H   0  0  0  0  0  0  0  0  0  0  0  0  # atno 10763 bound_to 10752
  154.1674  135.6478  153.5004 H   0  0  0  0  0  0  0  0  0  0  0  0  # atno 10764 bound_to 10752
  153.0192  135.5392  154.6852 H   0  0  0  0  0  0  0  0  0  0  0  0  # atno 10765 bound_to 10752
  141.1635  133.6912  156.7368 H   0  0  0  0  0  0  0  0  0  0  0  0  # atno 11005 bound_to 11000
  144.8123  139.5940  143.7024 LP  0  0  0  0  0  0  0  0  0  0  0  0  # atno 17320 bound_to 7965
  146.2557  139.6298  142.9396 LP  0  0  0  0  0  0  0  0  0  0  0  0  # atno 17321 bound_to 7965
  140.6275  143.9140  150.6577 LP  0  0  0  0  0  0  0  0  0  0  0  0  # atno 17342 bound_to 10162
  140.2433  143.3647  152.1468 LP  0  0  0  0  0  0  0  0  0  0  0  0  # atno 17343 bound_to 10162
  156.9716  130.5493  149.5291 LP  0  0  0  0  0  0  0  0  0  0  0  0  # atno 17370 bound_to 10713
  156.0372  130.5458  150.8683 LP  0  0  0  0  0  0  0  0  0  0  0  0  # atno 17371 bound_to 10713
  140.2704  134.8396  157.3842 LP  0  0  0  0  0  0  0  0  0  0  0  0  # atno 17394 bound_to 11000
  140.1526  134.4830  155.7950 LP  0  0  0  0  0  0  0  0  0  0  0  0  # atno 17395 bound_to 11000

$$$$
