#       Name:                AV-unprocessed.smi:3217
#       Creating user name   scv26
#       Creation time:       Fri Mar 27 18:13:12 2020


#       File generated by GOLD software.
#

@<TRIPOS>MOLECULE
AV-unprocessed.smi:3217
    39    40     1
SMALL
NO_CHARGES


@<TRIPOS>ATOM
      1 ****        -2.0485  -1.2501  -1.9644 C.3            1 S1                 0.0000
      2 ****        -1.5961  -0.5257  -0.6871 C.3            1 S1                 0.0000
      3 ****        -0.1366  -0.4517  -0.6814 N.am           1 S1                 0.0000
      4 ****         0.5950   0.6719  -0.6755 C.2            1 S1                 0.0000
      5 ****         0.1105   1.8029  -0.6905 O.2            1 S1                 0.0000
      6 ****         1.9090   0.3887  -0.6709 N.am           1 S1                 0.0000
      7 ****         3.0118   1.2856  -0.6650 C.ar           1 S1                 0.0000
      8 ****         4.2699   0.7848  -1.0584 C.ar           1 S1                 0.0000
      9 ****         5.3852   1.6438  -1.0486 C.ar           1 S1                 0.0000
     10 ****         5.1994   2.9767  -0.6343 C.ar           1 S1                 0.0000
     11 ****         4.0063   3.4691  -0.2401 N.ar           1 S1                 0.0000
     12 ****         2.9402   2.6400  -0.2538 C.ar           1 S1                 0.0000
     13 ****        -2.0754  -1.2365   0.5934 C.3            1 S1                 0.0000
     14 ****        -3.5954  -1.3085   0.7564 C.3            1 S1                 0.0000
     15 ****        -3.8013  -1.3671   2.2631 C.3            1 S1                 0.0000
     16 ****        -2.4267  -1.0264   2.8425 C.3            1 S1                 0.0000
     17 ****        -1.6907  -0.5039   1.7471 O.3            1 S1                 0.0000
     18 ****        -3.1356  -1.2950  -2.0326 H              1 S1                 0.0000
     19 ****        -1.6700  -2.2723  -1.9968 H              1 S1                 0.0000
     20 ****        -1.6893  -0.7335  -2.8551 H              1 S1                 0.0000
     21 ****        -2.0263   0.4772  -0.7026 H              1 S1                 0.0000
     22 ****         0.3562  -1.3325  -0.6706 H              1 S1                 0.0000
     23 ****         2.1492  -0.5897  -0.7325 H              1 S1                 0.0000
     24 ****         4.3817  -0.2442  -1.3682 H              1 S1                 0.0000
     25 ****         6.3597   1.2895  -1.3502 H              1 S1                 0.0000
     26 ****         6.0325   3.6637  -0.6136 H              1 S1                 0.0000
     27 ****         2.0223   3.0859   0.0956 H              1 S1                 0.0000
     28 ****        -1.6488  -2.2399   0.6563 H              1 S1                 0.0000
     29 ****        -4.0618  -0.4043   0.3629 H              1 S1                 0.0000
     30 ****        -4.0310  -2.1631   0.2379 H              1 S1                 0.0000
     31 ****        -4.5555  -0.6439   2.5752 H              1 S1                 0.0000
     32 ****        -4.1269  -2.3549   2.5909 H              1 S1                 0.0000
     33 ****        -2.4812  -0.3094   3.6618 H              1 S1                 0.0000
     34 ****        -1.9309  -1.9264   3.2092 H              1 S1                 0.0000
     35 ****        -0.8823   1.9213  -0.7082 LP             1 S1                 0.0000
     36 ****         0.7095   2.6036  -0.6850 LP             1 S1                 0.0000
     37 ****         3.9142   4.4205   0.0537 LP             1 S1                 0.0000
     38 ****        -1.9026   0.4655   1.6235 LP             1 S1                 0.0000
     39 ****        -0.7102  -0.6126   1.9105 LP             1 S1                 0.0000
@<TRIPOS>BOND
    1    1    2 1     
    2    1   18 1     
    3    1   19 1     
    4    1   20 1     
    5    2    3 1     
    6    2   13 1     
    7    2   21 1     
    8    3    4 am    
    9    3   22 1     
   10    4    5 2     
   11    4    6 am    
   12    6    7 1     
   13    6   23 1     
   14    7   12 ar    
   15    7    8 ar    
   16    8    9 ar    
   17    8   24 1     
   18    9   10 ar    
   19    9   25 1     
   20   10   11 ar    
   21   10   26 1     
   22   11   12 ar    
   23   12   27 1     
   24   13   17 1     
   25   13   14 1     
   26   13   28 1     
   27   14   15 1     
   28   14   29 1     
   29   14   30 1     
   30   15   16 1     
   31   15   31 1     
   32   15   32 1     
   33   16   17 1     
   34   16   33 1     
   35   16   34 1     
   36    5   35 1     
   37    5   36 1     
   38   11   37 1     
   39   17   38 1     
   40   17   39 1     
@<TRIPOS>SUBSTRUCTURE
      1 S1             1
@<TRIPOS>SET
LONE_PAIRS      STATIC     ATOMS    <user>   **** ""
5 35 36 37 38 39
DONOR_HYDROGENS      STATIC     ATOMS    <user>   **** ""
2 22 23
ATOM$BLUE        STATIC     ATOMS    COLORGROUP SYSTEM
5 35 36 37 38 39
ATOM$RED        STATIC     ATOMS    COLORGROUP SYSTEM
2 22 23
