AV-unprocessed.smi:2671|AV-procd|sdf|10348|dock8
  -GOLD-   2272014373D 1   1.00000     0.00000
 Structure written by MMmdl.
 29 30  0  0  0  0  0  0  0  0  1 V2000
  151.5647  137.1399  154.5156 O   0  0  0  0  0  0  0  0  0  0  0  0
  150.9598  138.1420  154.8894 C   0  0  0  0  0  0  0  0  0  0  0  0
  149.6174  138.5052  154.4377 C   0  0  0  0  0  0  0  0  0  0  0  0
  149.0159  139.6280  154.9012 C   0  0  0  0  0  0  0  0  0  0  0  0
  147.6229  140.0245  154.4393 C   0  0  0  0  0  0  0  0  0  0  0  0
  146.7235  139.1418  154.8734 F   0  0  0  0  0  0  0  0  0  0  0  0
  147.2994  141.2211  154.9291 F   0  0  0  0  0  0  0  0  0  0  0  0
  147.5436  140.0820  153.1088 F   0  0  0  0  0  0  0  0  0  0  0  0
  149.6716  140.4636  155.8179 N   0  0  0  0  0  0  0  0  0  0  0  0
  150.8632  140.1634  156.2319 C   0  0  0  0  0  0  0  0  0  0  0  0
  151.9294  141.0532  157.4014 S   0  0  0  0  0  0  0  0  0  0  0  0
  151.0761  142.6522  157.5140 C   0  0  0  0  0  0  0  0  0  0  0  0
  151.8456  143.6532  158.3867 C   0  0  2  0  0  0  0  0  0  0  0  0
  152.1780  143.1482  159.7913 C   0  0  0  0  0  0  0  0  0  0  0  0
  152.3174  144.4451  160.5541 C   0  0  0  0  0  0  0  0  0  0  0  0
  151.2066  145.2882  159.9361 C   0  0  0  0  0  0  0  0  0  0  0  0
  151.0624  144.8261  158.5950 O   0  0  0  0  0  0  0  0  0  0  0  0
  151.5066  139.0091  155.7720 N   0  0  0  0  0  0  0  0  0  0  0  0
  152.4341  138.8053  156.1148 H   0  0  0  0  0  0  0  0  0  0  0  0
  149.1045  137.8714  153.7289 H   0  0  0  0  0  0  0  0  0  0  0  0
  150.0712  142.4993  157.9094 H   0  0  0  0  0  0  0  0  0  0  0  0
  150.9649  143.0553  156.5068 H   0  0  0  0  0  0  0  0  0  0  0  0
  152.7645  143.9600  157.8845 H   0  0  0  0  0  0  0  0  0  0  0  0
  151.3516  142.5633  160.1981 H   0  0  0  0  0  0  0  0  0  0  0  0
  153.0795  142.5356  159.8226 H   0  0  0  0  0  0  0  0  0  0  0  0
  152.2130  144.3245  161.6327 H   0  0  0  0  0  0  0  0  0  0  0  0
  153.2900  144.8954  160.3513 H   0  0  0  0  0  0  0  0  0  0  0  0
  150.2652  145.1217  160.4612 H   0  0  0  0  0  0  0  0  0  0  0  0
  151.4280  146.3551  159.9691 H   0  0  0  0  0  0  0  0  0  0  0  0
  1  2  2  0  0  0  0
  2 18  1  0  0  0  0
  2  3  1  0  0  0  0
  3 20  1  0  0  0  0
  3  4  2  0  0  0  0
  4  5  1  0  0  0  0
  4  9  1  0  0  0  0
  5  6  1  0  0  0  0
  5  7  1  0  0  0  0
  5  8  1  0  0  0  0
  9 10  2  0  0  0  0
 10 11  1  0  0  0  0
 10 18  1  0  0  0  0
 11 12  1  0  0  0  0
 12 13  1  0  0  0  0
 12 21  1  0  0  0  0
 12 22  1  0  0  0  0
 13 17  1  0  0  0  0
 13 14  1  0  0  0  0
 13 23  1  0  0  0  0
 14 15  1  0  0  0  0
 14 24  1  0  0  0  0
 14 25  1  0  0  0  0
 15 16  1  0  0  0  0
 15 26  1  0  0  0  0
 15 27  1  0  0  0  0
 16 17  1  0  0  0  0
 16 28  1  0  0  0  0
 16 29  1  0  0  0  0
 18 19  1  0  0  0  0
M  END
> <s_m_source_file>
AV-unprocessed.smi

> <i_m_source_file_index>
2671

> <i_lp_mmshare_version>
43012

> <i_f3d_flags>
0

> <s_epik_input>
W09IXWMxW2NIXWMoQyhGKShGKUYpbmMobjEpU1tDSDJdW0NAQEhdMltDSDJdW0NIMl1bQ0gyXU8y

> <s_epik_cmdline>
J2VwaWtfcHl0aG9uJywgJy1waCcsICc3LjAnLCAnLXRuJywgJzgnLCAnLW1hJywgJzIwMCcsICctbWV0YWxfYmluZGluZycsICctaW1hZScsICc8aW5maWxlLm1hZT4nLCAnLW9tYWUnLCAnPG91dGZpbGUubWFlPic=

> <r_lp_tautomer_probability>
0.660323

> <r_epik_Ionization_Penalty>
0.14469

> <r_epik_Ionization_Penalty_Charging>
0.14469

> <r_epik_Ionization_Penalty_Neutral>
3.1007e-10

> <r_epik_State_Penalty>
0.804349

> <r_epik_Charging_Adjusted_Penalty>
0.949039

> <i_epik_Tot_Q>
0

> <i_epik_Tot_abs_Q>
0

> <r_epik_Metal_State_Penalty>
1.52783

> <b_epik_Metal_Only>
0

> <s_lp_Force_Field>
OPLS_2005

> <r_lp_Energy>
21.2239

> <b_lp_Chiralities_Consistent>
1

> <s_lp_Variant>
AV-unprocessed.smi:2671-3

> <Gold.Version>
5.8.1

> <Gold.Id.Protein>
6NUR|6NUR_protein|mol2

> <Gold.PLP.Fitness>
37.4016

> <Gold.PLP.PLP>
-35.0073

> <Gold.PLP.part.hbond>
-1.0000

> <Gold.PLP.part.metal>
0.0000

> <Gold.PLP.part.buried>
-1.5131

> <Gold.PLP.part.nonpolar>
-33.3893

> <Gold.PLP.part.repulsive>
0.5147

> <Gold.PLP.ligand.clash>
0.0000

> <Gold.PLP.ligand.torsion>
0.2926

> <Gold.PLP.Chemscore.Hbond>
0.9913

> <Gold.PLP.Chemscore.CHOScore>
0.0000

> <Gold.PLP.Chemscore.Metal>
0.0000

> <Gold.Chemscore.Hbonds>
donor molecule, donor type, donor heavy atom, donor atom, acceptor molecule, acceptor atom, score
      P1  H 10752 10764       L1     1  0.99

> <Gold.PLP.Chemscore.Internal.Correction>
0.0059

> <Gold.Rescore>
     Score         DG    S(hbond)    S(metal)    S(lipo)     H(rot)  DE(clash)    DE(int)     intcor
     12.88     -14.21       0.99        0.00      83.48       1.69       1.14       0.19       ----

> <Gold.Chemscore.Fitness>
12.8757

> <Gold.Chemscore.DG>
-14.2103

> <Gold.Chemscore.ZeroCoef>
-5.4800

> <Gold.Chemscore.Hbond>
0.9868

> <Gold.Chemscore.Metal>
0.0000

> <Gold.Chemscore.Lipo>
83.4759

> <Gold.Chemscore.Internal_Hbond>
0.0000

> <Gold.Chemscore.DEClash>
1.1397

> <Gold.Chemscore.DEInternal>
0.1948

> <Gold.Chemscore.Rot>
1.6924

> <Gold.Chemscore.Internal.Correction>
   9.000000E+99

> <Gold.Chemscore.Hbonds>
donor molecule, donor type, donor heavy atom, donor atom, acceptor molecule, acceptor atom, score
      P1  H 10752 10764       L1     1  0.91

> <Gold.Chemscore.Hbond.Weighted>
-3.2960

> <Gold.Chemscore.Metal.Weighted>
-0.0000

> <Gold.Chemscore.Lipo.Weighted>
-9.7667

> <Gold.Chemscore.Internal_Hbond.Weighted>
0.0000

> <Gold.Chemscore.DEClash.Weighted>
1.1397

> <Gold.Chemscore.DEInternal.Weighted>
0.1948

> <Gold.Chemscore.Rot.Weighted>
4.3324

> <Gold.Chemscore.Internal.Correction.Weighted>
   9.000000E+99

> <Gold.Protein.RotatedTorsions>
[ 6907 6896 6895 6894 ] final  -26.81 input  -60.11 | X-H torsion
[ 7974 7965 7964 7962 ] final  -62.29 input  175.53 | X-H torsion
[ 8008 7997 7996 7995 ] final  113.39 input   59.86 | X-H torsion
[ 10167 10162 10161 10158 ] final   47.17 input  -65.29 | X-H torsion
[ 10718 10713 10712 10709 ] final -175.80 input   66.30 | X-H torsion
[ 10763 10752 10751 10750 ] final  -79.99 input  -60.55 | X-H torsion
[ 11005 11000 10999 10996 ] final -174.22 input  -57.11 | X-H torsion

> <Gold.Protein.ActiveResidues>
 VAL166  LYS551  ARG553  GLY616  TRP617  ASP618  TYR619  PRO620  LYS621  CYS622 
 ASP623  PHE694  ASN695  SER759  ASP760  ASP761  ALA762  ILE779  LEU786  VAL792 
 PHE793  MET794  SER795  GLU796  ALA797  LYS798  CYS799  TRP800  GLU811  SER814 

> <Gold.Protein.RotatedAtoms>
  151.1558  135.0249  159.8688 H   0  0  0  0  0  0  0  0  0  0  0  0  # atno 6907 bound_to 6896
  152.5452  134.1336  159.8459 H   0  0  0  0  0  0  0  0  0  0  0  0  # atno 6908 bound_to 6896
  151.1426  133.4915  159.2629 H   0  0  0  0  0  0  0  0  0  0  0  0  # atno 6909 bound_to 6896
  145.7930  140.8698  143.0271 H   0  0  0  0  0  0  0  0  0  0  0  0  # atno 7974 bound_to 7965
  156.2255  140.2980  156.0055 H   0  0  0  0  0  0  0  0  0  0  0  0  # atno 8008 bound_to 7997
  155.2369  140.0421  157.2987 H   0  0  0  0  0  0  0  0  0  0  0  0  # atno 8009 bound_to 7997
  154.5908  140.2401  155.7931 H   0  0  0  0  0  0  0  0  0  0  0  0  # atno 8010 bound_to 7997
  140.3064  144.2873  150.6208 H   0  0  0  0  0  0  0  0  0  0  0  0  # atno 10167 bound_to 10162
  156.8053  130.9567  151.3117 H   0  0  0  0  0  0  0  0  0  0  0  0  # atno 10718 bound_to 10713
  154.5456  135.5676  153.6877 H   0  0  0  0  0  0  0  0  0  0  0  0  # atno 10763 bound_to 10752
  152.9975  135.6238  154.2443 H   0  0  0  0  0  0  0  0  0  0  0  0  # atno 10764 bound_to 10752
  154.2376  135.2863  155.2846 H   0  0  0  0  0  0  0  0  0  0  0  0  # atno 10765 bound_to 10752
  140.4769  134.6112  157.4904 H   0  0  0  0  0  0  0  0  0  0  0  0  # atno 11005 bound_to 11000
  144.6779  140.0151  143.7484 LP  0  0  0  0  0  0  0  0  0  0  0  0  # atno 17320 bound_to 7965
  145.9957  139.3050  143.0958 LP  0  0  0  0  0  0  0  0  0  0  0  0  # atno 17321 bound_to 7965
  140.5606  143.2192  151.7771 LP  0  0  0  0  0  0  0  0  0  0  0  0  # atno 17342 bound_to 10162
  139.4903  144.4353  151.9826 LP  0  0  0  0  0  0  0  0  0  0  0  0  # atno 17343 bound_to 10162
  157.6533  130.8903  149.9678 LP  0  0  0  0  0  0  0  0  0  0  0  0  # atno 17370 bound_to 10713
  156.1077  130.3652  150.0105 LP  0  0  0  0  0  0  0  0  0  0  0  0  # atno 17371 bound_to 10713
  139.9850  134.7076  155.9790 LP  0  0  0  0  0  0  0  0  0  0  0  0  # atno 17394 bound_to 11000
  141.1550  133.6544  156.4132 LP  0  0  0  0  0  0  0  0  0  0  0  0  # atno 17395 bound_to 11000

$$$$
