AV-unprocessed.smi:2184|AV-procd|sdf|8874|dock10
  -GOLD-   2272012 73D 1   1.00000     0.00000
 Structure written by MMmdl.
 47 48  0  0  0  0  0  0  0  0  1 V2000
  142.6174  143.9696  156.7134 C   0  0  0  0  0  0  0  0  0  0  0  0
  143.6102  145.0780  155.6772 S   0  0  0  0  0  0  0  0  0  0  0  0
  144.2517  143.9138  154.4361 C   0  0  1  0  0  0  0  0  0  0  0  0
  145.0047  144.6770  153.3354 C   0  0  0  0  0  0  0  0  0  0  0  0
  145.1455  142.8369  155.0632 C   0  0  0  0  0  0  0  0  0  0  0  0
  145.2229  142.7295  156.2876 O   0  0  0  0  0  0  0  0  0  0  0  0
  145.8083  142.0371  154.2128 N   0  0  0  0  0  0  0  0  0  0  0  0
  146.6940  140.9482  154.6112 C   0  0  0  0  0  0  0  0  0  0  0  0
  147.8777  141.4049  155.4487 C   0  0  0  0  0  0  0  0  0  0  0  0
  149.1626  141.5093  154.8822 C   0  0  0  0  0  0  0  0  0  0  0  0
  150.2330  141.9406  155.6890 C   0  0  0  0  0  0  0  0  0  0  0  0
  149.9890  142.2595  157.0491 C   0  0  0  0  0  0  0  0  0  0  0  0
  151.0140  142.6987  157.9152 N   0  0  0  0  0  0  0  0  0  0  0  0
  152.0049  141.7316  158.3738 C   0  0  0  0  0  0  0  0  0  0  0  0
  152.7842  142.2904  159.5772 C   0  0  1  0  0  0  0  0  0  0  0  0
  153.9257  141.3603  160.0010 C   0  0  0  0  0  0  0  0  0  0  0  0
  153.3484  143.5559  159.2373 O   0  0  0  0  0  0  0  0  0  0  0  0
  152.3992  144.5415  158.8247 C   0  0  2  0  0  0  0  0  0  0  0  0
  151.5375  145.0468  159.9956 C   0  0  0  0  0  0  0  0  0  0  0  0
  151.5699  144.0208  157.6344 C   0  0  0  0  0  0  0  0  0  0  0  0
  148.7514  142.1481  157.5894 N   0  0  0  0  0  0  0  0  0  0  0  0
  147.7309  141.7306  156.8123 C   0  0  0  0  0  0  0  0  0  0  0  0
  142.0968  144.5423  157.4808 H   0  0  0  0  0  0  0  0  0  0  0  0
  143.2525  143.2361  157.2085 H   0  0  0  0  0  0  0  0  0  0  0  0
  141.8759  143.4437  156.1119 H   0  0  0  0  0  0  0  0  0  0  0  0
  143.3898  143.4305  153.9734 H   0  0  0  0  0  0  0  0  0  0  0  0
  145.4008  143.9971  152.5801 H   0  0  0  0  0  0  0  0  0  0  0  0
  145.8406  145.2479  153.7421 H   0  0  0  0  0  0  0  0  0  0  0  0
  144.3428  145.3789  152.8278 H   0  0  0  0  0  0  0  0  0  0  0  0
  145.6890  142.1920  153.2222 H   0  0  0  0  0  0  0  0  0  0  0  0
  146.1151  140.2344  155.1974 H   0  0  0  0  0  0  0  0  0  0  0  0
  147.0416  140.4108  153.7271 H   0  0  0  0  0  0  0  0  0  0  0  0
  149.3292  141.2699  153.8423 H   0  0  0  0  0  0  0  0  0  0  0  0
  151.2125  142.0303  155.2445 H   0  0  0  0  0  0  0  0  0  0  0  0
  151.5166  140.8023  158.6691 H   0  0  0  0  0  0  0  0  0  0  0  0
  152.6870  141.5011  157.5544 H   0  0  0  0  0  0  0  0  0  0  0  0
  152.1111  142.4037  160.4272 H   0  0  0  0  0  0  0  0  0  0  0  0
  153.5475  140.3760  160.2779 H   0  0  0  0  0  0  0  0  0  0  0  0
  154.4587  141.7654  160.8614 H   0  0  0  0  0  0  0  0  0  0  0  0
  154.6472  141.2275  159.1943 H   0  0  0  0  0  0  0  0  0  0  0  0
  152.9816  145.3935  158.4733 H   0  0  0  0  0  0  0  0  0  0  0  0
  150.9227  145.8915  159.6842 H   0  0  0  0  0  0  0  0  0  0  0  0
  152.1629  145.3825  160.8231 H   0  0  0  0  0  0  0  0  0  0  0  0
  150.8621  144.2801  160.3741 H   0  0  0  0  0  0  0  0  0  0  0  0
  152.2068  143.9386  156.7527 H   0  0  0  0  0  0  0  0  0  0  0  0
  150.7943  144.7477  157.3923 H   0  0  0  0  0  0  0  0  0  0  0  0
  146.7685  141.6562  157.2966 H   0  0  0  0  0  0  0  0  0  0  0  0
  1  2  1  0  0  0  0
  1 23  1  0  0  0  0
  1 24  1  0  0  0  0
  1 25  1  0  0  0  0
  2  3  1  0  0  0  0
  3  4  1  0  0  0  0
  3  5  1  0  0  0  0
  3 26  1  0  0  0  0
  4 27  1  0  0  0  0
  4 28  1  0  0  0  0
  4 29  1  0  0  0  0
  5  6  2  0  0  0  0
  5  7  1  0  0  0  0
  7  8  1  0  0  0  0
  7 30  1  0  0  0  0
  8  9  1  0  0  0  0
  8 31  1  0  0  0  0
  8 32  1  0  0  0  0
  9 22  1  0  0  0  0
  9 10  2  0  0  0  0
 10 11  1  0  0  0  0
 10 33  1  0  0  0  0
 11 12  2  0  0  0  0
 11 34  1  0  0  0  0
 12 13  1  0  0  0  0
 12 21  1  0  0  0  0
 13 20  1  0  0  0  0
 13 14  1  0  0  0  0
 14 15  1  0  0  0  0
 14 35  1  0  0  0  0
 14 36  1  0  0  0  0
 15 16  1  0  0  0  0
 15 17  1  0  0  0  0
 15 37  1  0  0  0  0
 16 38  1  0  0  0  0
 16 39  1  0  0  0  0
 16 40  1  0  0  0  0
 17 18  1  0  0  0  0
 18 19  1  0  0  0  0
 18 20  1  0  0  0  0
 18 41  1  0  0  0  0
 19 42  1  0  0  0  0
 19 43  1  0  0  0  0
 19 44  1  0  0  0  0
 20 45  1  0  0  0  0
 20 46  1  0  0  0  0
 21 22  2  0  0  0  0
 22 47  1  0  0  0  0
M  END
> <s_m_source_file>
AV-unprocessed.smi

> <i_m_source_file_index>
2184

> <i_lp_mmshare_version>
43012

> <i_f3d_flags>
0

> <s_epik_input>
W0NIM11TW0NASF0oW0NIM10pQyg9TylbTkhdW0NIMl1jMVtjSF1bY0hdYyhuW2NIXTEpTjJbQ0gyXVtDQEBIXShbQ0gzXSlPW0NAQEhdKFtDSDNdKVtDSDJdMg==

> <s_epik_cmdline>
J2VwaWtfcHl0aG9uJywgJy1waCcsICc3LjAnLCAnLXRuJywgJzgnLCAnLW1hJywgJzIwMCcsICctbWV0YWxfYmluZGluZycsICctaW1hZScsICc8aW5maWxlLm1hZT4nLCAnLW9tYWUnLCAnPG91dGZpbGUubWFlPic=

> <r_lp_tautomer_probability>
1

> <r_epik_Ionization_Penalty>
0.00551702

> <r_epik_Ionization_Penalty_Charging>
0

> <r_epik_Ionization_Penalty_Neutral>
0.00551702

> <r_epik_State_Penalty>
0.00403758

> <r_epik_Charging_Adjusted_Penalty>
0.00403758

> <i_epik_Tot_Q>
0

> <i_epik_Tot_abs_Q>
0

> <r_epik_Metal_State_Penalty>
-0

> <b_epik_Metal_Only>
0

> <s_lp_Force_Field>
OPLS_2005

> <r_lp_Energy>
17.8704

> <b_lp_Chiralities_Consistent>
1

> <s_lp_Variant>
AV-unprocessed.smi:2184-6

> <Gold.Version>
5.8.1

> <Gold.Id.Protein>
6NUR|6NUR_protein|mol2

> <Gold.PLP.Fitness>
43.3354

> <Gold.PLP.PLP>
-44.1908

> <Gold.PLP.part.hbond>
-0.6052

> <Gold.PLP.part.metal>
0.0000

> <Gold.PLP.part.buried>
-3.9161

> <Gold.PLP.part.nonpolar>
-40.3720

> <Gold.PLP.part.repulsive>
0.6591

> <Gold.PLP.ligand.clash>
0.0000

> <Gold.PLP.ligand.torsion>
0.6528

> <Gold.PLP.Chemscore.Hbond>
0.0000

> <Gold.PLP.Chemscore.CHOScore>
0.0000

> <Gold.PLP.Chemscore.Metal>
0.0000

> <Gold.PLP.Chemscore.Internal.Correction>
0.4503

> <Gold.Rescore>
     Score         DG    S(hbond)    S(metal)    S(lipo)     H(rot)  DE(clash)    DE(int)     intcor
     12.14     -13.96       0.00        0.00     107.32       1.59       0.03       1.79       ----

> <Gold.Chemscore.Fitness>
12.1412

> <Gold.Chemscore.DG>
-13.9562

> <Gold.Chemscore.ZeroCoef>
-5.4800

> <Gold.Chemscore.Hbond>
0.0006

> <Gold.Chemscore.Metal>
0.0000

> <Gold.Chemscore.Lipo>
107.3204

> <Gold.Chemscore.Internal_Hbond>
0.0000

> <Gold.Chemscore.DEClash>
0.0296

> <Gold.Chemscore.DEInternal>
1.7854

> <Gold.Chemscore.Rot>
1.5947

> <Gold.Chemscore.Internal.Correction>
   9.000000E+99

> <Gold.Chemscore.Hbond.Weighted>
-0.0021

> <Gold.Chemscore.Metal.Weighted>
-0.0000

> <Gold.Chemscore.Lipo.Weighted>
-12.5565

> <Gold.Chemscore.Internal_Hbond.Weighted>
0.0000

> <Gold.Chemscore.DEClash.Weighted>
0.0296

> <Gold.Chemscore.DEInternal.Weighted>
1.7854

> <Gold.Chemscore.Rot.Weighted>
4.0824

> <Gold.Chemscore.Internal.Correction.Weighted>
   9.000000E+99

> <Gold.Protein.RotatedTorsions>
[ 6907 6896 6895 6894 ] final   57.42 input  -60.11 | X-H torsion
[ 7974 7965 7964 7962 ] final   59.97 input  175.53 | X-H torsion
[ 8008 7997 7996 7995 ] final -101.85 input   59.86 | X-H torsion
[ 10167 10162 10161 10158 ] final -108.07 input  -65.29 | X-H torsion
[ 10718 10713 10712 10709 ] final   98.49 input   66.30 | X-H torsion
[ 10763 10752 10751 10750 ] final   -3.87 input  -60.55 | X-H torsion
[ 11005 11000 10999 10996 ] final -175.51 input  -57.11 | X-H torsion

> <Gold.Protein.ActiveResidues>
 VAL166  LYS551  ARG553  GLY616  TRP617  ASP618  TYR619  PRO620  LYS621  CYS622 
 ASP623  PHE694  ASN695  SER759  ASP760  ASP761  ALA762  ILE779  LEU786  VAL792 
 PHE793  MET794  SER795  GLU796  ALA797  LYS798  CYS799  TRP800  GLU811  SER814 

> <Gold.Protein.RotatedAtoms>
  152.3729  134.6706  160.0169 H   0  0  0  0  0  0  0  0  0  0  0  0  # atno 6907 bound_to 6896
  151.6993  133.3305  159.3270 H   0  0  0  0  0  0  0  0  0  0  0  0  # atno 6908 bound_to 6896
  150.7687  134.6564  159.6361 H   0  0  0  0  0  0  0  0  0  0  0  0  # atno 6909 bound_to 6896
  145.9012  139.3583  143.0591 H   0  0  0  0  0  0  0  0  0  0  0  0  # atno 7974 bound_to 7965
  154.8484  140.0432  157.1588 H   0  0  0  0  0  0  0  0  0  0  0  0  # atno 8008 bound_to 7997
  154.8970  140.2994  155.5318 H   0  0  0  0  0  0  0  0  0  0  0  0  # atno 8009 bound_to 7997
  156.2995  140.2383  156.3992 H   0  0  0  0  0  0  0  0  0  0  0  0  # atno 8010 bound_to 7997
  140.1701  143.4050  152.1361 H   0  0  0  0  0  0  0  0  0  0  0  0  # atno 10167 bound_to 10162
  157.6894  131.0642  150.4805 H   0  0  0  0  0  0  0  0  0  0  0  0  # atno 10718 bound_to 10713
  153.3772  135.6997  153.6593 H   0  0  0  0  0  0  0  0  0  0  0  0  # atno 10763 bound_to 10752
  153.5219  135.3610  155.2636 H   0  0  0  0  0  0  0  0  0  0  0  0  # atno 10764 bound_to 10752
  154.8688  135.4160  154.3062 H   0  0  0  0  0  0  0  0  0  0  0  0  # atno 10765 bound_to 10752
  140.4625  134.6241  157.4848 H   0  0  0  0  0  0  0  0  0  0  0  0  # atno 11005 bound_to 11000
  145.8789  140.9375  143.0612 LP  0  0  0  0  0  0  0  0  0  0  0  0  # atno 17320 bound_to 7965
  144.6736  140.0753  143.7471 LP  0  0  0  0  0  0  0  0  0  0  0  0  # atno 17321 bound_to 7965
  139.5342  144.7191  151.4952 LP  0  0  0  0  0  0  0  0  0  0  0  0  # atno 17342 bound_to 10162
  140.6587  143.8544  150.6864 LP  0  0  0  0  0  0  0  0  0  0  0  0  # atno 17343 bound_to 10162
  156.5137  130.4145  149.6287 LP  0  0  0  0  0  0  0  0  0  0  0  0  # atno 17370 bound_to 10713
  156.3217  130.7284  151.2197 LP  0  0  0  0  0  0  0  0  0  0  0  0  # atno 17371 bound_to 10713
  139.9936  134.6946  155.9647 LP  0  0  0  0  0  0  0  0  0  0  0  0  # atno 17394 bound_to 11000
  141.1615  133.6538  156.4333 LP  0  0  0  0  0  0  0  0  0  0  0  0  # atno 17395 bound_to 11000

$$$$
