AV-unprocessed.smi:2671|AV-procd|sdf|10351|dock7
  -GOLD-   2272014373D 1   1.00000     0.00000
 Structure written by MMmdl.
 29 30  0  0  0  0  0  0  0  0  1 V2000
  154.4758  140.0953  160.2903 O   0  0  0  0  0  0  0  0  0  0  0  0
  153.6472  140.6779  159.5940 C   0  0  0  0  0  0  0  0  0  0  0  0
  153.1579  142.0128  159.9599 C   0  0  0  0  0  0  0  0  0  0  0  0
  152.2486  142.6285  159.1777 C   0  0  0  0  0  0  0  0  0  0  0  0
  151.6924  144.0103  159.4821 C   0  0  0  0  0  0  0  0  0  0  0  0
  152.0741  144.4009  160.6975 F   0  0  0  0  0  0  0  0  0  0  0  0
  152.1515  144.8961  158.5987 F   0  0  0  0  0  0  0  0  0  0  0  0
  150.3586  144.0277  159.4370 F   0  0  0  0  0  0  0  0  0  0  0  0
  151.7774  142.0080  158.0321 N   0  0  0  0  0  0  0  0  0  0  0  0
  152.2553  140.7443  157.7081 C   0  0  0  0  0  0  0  0  0  0  0  0
  151.4789  140.1629  156.1718 S   0  0  0  0  0  0  0  0  0  0  0  0
  152.3320  138.5814  155.9061 C   0  0  0  0  0  0  0  0  0  0  0  0
  151.4153  137.3836  156.1886 C   0  0  1  0  0  0  0  0  0  0  0  0
  150.3518  137.1263  155.1195 C   0  0  0  0  0  0  0  0  0  0  0  0
  150.0983  135.6284  155.2111 C   0  0  0  0  0  0  0  0  0  0  0  0
  151.2262  135.1094  156.1068 C   0  0  0  0  0  0  0  0  0  0  0  0
  152.1604  136.1769  156.1735 O   0  0  0  0  0  0  0  0  0  0  0  0
  153.1317  140.0983  158.4233 N   0  0  0  0  0  0  0  0  0  0  0  0
  151.0978  142.5019  157.4712 H   0  0  0  0  0  0  0  0  0  0  0  0
  153.5267  142.4977  160.8522 H   0  0  0  0  0  0  0  0  0  0  0  0
  153.1989  138.5415  156.5661 H   0  0  0  0  0  0  0  0  0  0  0  0
  152.7068  138.5391  154.8828 H   0  0  0  0  0  0  0  0  0  0  0  0
  150.9458  137.4888  157.1687 H   0  0  0  0  0  0  0  0  0  0  0  0
  149.4499  137.7183  155.2780 H   0  0  0  0  0  0  0  0  0  0  0  0
  150.7414  137.3688  154.1298 H   0  0  0  0  0  0  0  0  0  0  0  0
  149.1233  135.4074  155.6467 H   0  0  0  0  0  0  0  0  0  0  0  0
  150.1348  135.1727  154.2210 H   0  0  0  0  0  0  0  0  0  0  0  0
  150.8527  134.8983  157.1098 H   0  0  0  0  0  0  0  0  0  0  0  0
  151.6888  134.2022  155.7179 H   0  0  0  0  0  0  0  0  0  0  0  0
  1  2  2  0  0  0  0
  2 18  1  0  0  0  0
  2  3  1  0  0  0  0
  3 20  1  0  0  0  0
  3  4  2  0  0  0  0
  4  5  1  0  0  0  0
  4  9  1  0  0  0  0
  5  6  1  0  0  0  0
  5  7  1  0  0  0  0
  5  8  1  0  0  0  0
  9 10  1  0  0  0  0
  9 19  1  0  0  0  0
 10 11  1  0  0  0  0
 10 18  2  0  0  0  0
 11 12  1  0  0  0  0
 12 13  1  0  0  0  0
 12 21  1  0  0  0  0
 12 22  1  0  0  0  0
 13 17  1  0  0  0  0
 13 14  1  0  0  0  0
 13 23  1  0  0  0  0
 14 15  1  0  0  0  0
 14 24  1  0  0  0  0
 14 25  1  0  0  0  0
 15 16  1  0  0  0  0
 15 26  1  0  0  0  0
 15 27  1  0  0  0  0
 16 17  1  0  0  0  0
 16 28  1  0  0  0  0
 16 29  1  0  0  0  0
M  END
> <s_m_source_file>
AV-unprocessed.smi

> <i_m_source_file_index>
2671

> <i_lp_mmshare_version>
43012

> <i_f3d_flags>
0

> <s_epik_input>
W09IXWMxW2NIXWMoQyhGKShGKUYpbmMobjEpU1tDSDJdW0NAQEhdMltDSDJdW0NIMl1bQ0gyXU8y

> <s_epik_cmdline>
J2VwaWtfcHl0aG9uJywgJy1waCcsICc3LjAnLCAnLXRuJywgJzgnLCAnLW1hJywgJzIwMCcsICctbWV0YWxfYmluZGluZycsICctaW1hZScsICc8aW5maWxlLm1hZT4nLCAnLW9tYWUnLCAnPG91dGZpbGUubWFlPic=

> <r_lp_tautomer_probability>
0.273662

> <r_epik_Ionization_Penalty>
1.33793

> <r_epik_Ionization_Penalty_Charging>
1.33793

> <r_epik_Ionization_Penalty_Neutral>
8.2996e-08

> <r_epik_State_Penalty>
1.59174

> <r_epik_Charging_Adjusted_Penalty>
2.92967

> <i_epik_Tot_Q>
0

> <i_epik_Tot_abs_Q>
0

> <r_epik_Metal_State_Penalty>
2.31522

> <b_epik_Metal_Only>
0

> <s_lp_Force_Field>
OPLS_2005

> <r_lp_Energy>
25.3569

> <b_lp_Chiralities_Consistent>
1

> <s_lp_Variant>
AV-unprocessed.smi:2671-6

> <Gold.Version>
5.8.1

> <Gold.Id.Protein>
6NUR|6NUR_protein|mol2

> <Gold.PLP.Fitness>
41.3559

> <Gold.PLP.PLP>
-37.6397

> <Gold.PLP.part.hbond>
-2.0000

> <Gold.PLP.part.metal>
0.0000

> <Gold.PLP.part.buried>
-4.1787

> <Gold.PLP.part.nonpolar>
-31.0961

> <Gold.PLP.part.repulsive>
0.0822

> <Gold.PLP.ligand.clash>
0.9309

> <Gold.PLP.ligand.torsion>
0.6848

> <Gold.PLP.Chemscore.Hbond>
2.0000

> <Gold.PLP.Chemscore.CHOScore>
0.0000

> <Gold.PLP.Chemscore.Metal>
0.0000

> <Gold.Chemscore.Hbonds>
donor molecule, donor type, donor heavy atom, donor atom, acceptor molecule, acceptor atom, score
      P1  H  7997  8010       L1    18  0.95
      P1  H 10752 10763       L1    17  0.75

> <Gold.PLP.Chemscore.Internal.Correction>
0.0167

> <Gold.Rescore>
     Score         DG    S(hbond)    S(metal)    S(lipo)     H(rot)  DE(clash)    DE(int)     intcor
     11.43     -11.82       0.95        0.00      64.10       1.69       0.02       0.37       ----

> <Gold.Chemscore.Fitness>
11.4259

> <Gold.Chemscore.DG>
-11.8159

> <Gold.Chemscore.ZeroCoef>
-5.4800

> <Gold.Chemscore.Hbond>
0.9487

> <Gold.Chemscore.Metal>
0.0000

> <Gold.Chemscore.Lipo>
64.0987

> <Gold.Chemscore.Internal_Hbond>
0.0000

> <Gold.Chemscore.DEClash>
0.0245

> <Gold.Chemscore.DEInternal>
0.3655

> <Gold.Chemscore.Rot>
1.6924

> <Gold.Chemscore.Internal.Correction>
   9.000000E+99

> <Gold.Chemscore.Hbonds>
donor molecule, donor type, donor heavy atom, donor atom, acceptor molecule, acceptor atom, score
      P1  H  7997  8010       L1    18  0.11
      P1  H 10752 10763       L1    17  0.09

> <Gold.Chemscore.Hbond.Weighted>
-3.1688

> <Gold.Chemscore.Metal.Weighted>
-0.0000

> <Gold.Chemscore.Lipo.Weighted>
-7.4995

> <Gold.Chemscore.Internal_Hbond.Weighted>
0.0000

> <Gold.Chemscore.DEClash.Weighted>
0.0245

> <Gold.Chemscore.DEInternal.Weighted>
0.3655

> <Gold.Chemscore.Rot.Weighted>
4.3324

> <Gold.Chemscore.Internal.Correction.Weighted>
   9.000000E+99

> <Gold.Protein.RotatedTorsions>
[ 6907 6896 6895 6894 ] final   40.48 input  -60.11 | X-H torsion
[ 7974 7965 7964 7962 ] final  100.88 input  175.53 | X-H torsion
[ 8008 7997 7996 7995 ] final   29.44 input   59.86 | X-H torsion
[ 10167 10162 10161 10158 ] final  144.00 input  -65.29 | X-H torsion
[ 10718 10713 10712 10709 ] final   90.26 input   66.30 | X-H torsion
[ 10763 10752 10751 10750 ] final  105.03 input  -60.55 | X-H torsion
[ 11005 11000 10999 10996 ] final  136.64 input  -57.11 | X-H torsion

> <Gold.Protein.ActiveResidues>
 VAL166  LYS551  ARG553  GLY616  TRP617  ASP618  TYR619  PRO620  LYS621  CYS622 
 ASP623  PHE694  ASN695  SER759  ASP760  ASP761  ALA762  ILE779  LEU786  VAL792 
 PHE793  MET794  SER795  GLU796  ALA797  LYS798  CYS799  TRP800  GLU811  SER814 

> <Gold.Protein.RotatedAtoms>
  152.1830  134.8738  160.0524 H   0  0  0  0  0  0  0  0  0  0  0  0  # atno 6907 bound_to 6896
  151.9655  133.3704  159.4059 H   0  0  0  0  0  0  0  0  0  0  0  0  # atno 6908 bound_to 6896
  150.6921  134.4119  159.5209 H   0  0  0  0  0  0  0  0  0  0  0  0  # atno 6909 bound_to 6896
  145.3796  139.2382  143.3410 H   0  0  0  0  0  0  0  0  0  0  0  0  # atno 7974 bound_to 7965
  155.0746  140.3204  155.4620 H   0  0  0  0  0  0  0  0  0  0  0  0  # atno 8008 bound_to 7997
  156.2782  140.2105  156.5819 H   0  0  0  0  0  0  0  0  0  0  0  0  # atno 8009 bound_to 7997
  154.7027  140.0505  157.0461 H   0  0  0  0  0  0  0  0  0  0  0  0  # atno 8010 bound_to 7997
  139.4956  144.6002  151.6498 H   0  0  0  0  0  0  0  0  0  0  0  0  # atno 10167 bound_to 10162
  157.6958  131.0364  150.3551 H   0  0  0  0  0  0  0  0  0  0  0  0  # atno 10718 bound_to 10713
  153.3739  135.3923  155.1808 H   0  0  0  0  0  0  0  0  0  0  0  0  # atno 10763 bound_to 10752
  154.8698  135.3709  154.4942 H   0  0  0  0  0  0  0  0  0  0  0  0  # atno 10764 bound_to 10752
  153.5413  135.7084  153.5696 H   0  0  0  0  0  0  0  0  0  0  0  0  # atno 10765 bound_to 10752
  140.0060  134.9459  157.0175 H   0  0  0  0  0  0  0  0  0  0  0  0  # atno 11005 bound_to 11000
  146.2848  140.4462  142.8762 LP  0  0  0  0  0  0  0  0  0  0  0  0  # atno 17320 bound_to 7965
  144.8517  140.7011  143.6164 LP  0  0  0  0  0  0  0  0  0  0  0  0  # atno 17321 bound_to 7965
  140.5649  144.0206  150.6188 LP  0  0  0  0  0  0  0  0  0  0  0  0  # atno 17342 bound_to 10162
  140.3304  143.3081  152.0693 LP  0  0  0  0  0  0  0  0  0  0  0  0  # atno 17343 bound_to 10162
  156.3994  130.3913  149.6970 LP  0  0  0  0  0  0  0  0  0  0  0  0  # atno 17370 bound_to 10713
  156.4293  130.7807  151.2826 LP  0  0  0  0  0  0  0  0  0  0  0  0  # atno 17371 bound_to 10713
  140.4641  134.1454  155.7195 LP  0  0  0  0  0  0  0  0  0  0  0  0  # atno 17394 bound_to 11000
  141.1677  133.8671  157.1666 LP  0  0  0  0  0  0  0  0  0  0  0  0  # atno 17395 bound_to 11000

$$$$
