#       Name:                AV-unprocessed.smi:1210
#       Creating user name   scv26
#       Creation time:       Fri Mar 27 04:12:44 2020


#       File generated by GOLD software.
#

@<TRIPOS>MOLECULE
AV-unprocessed.smi:1210
    51    52     1
SMALL
NO_CHARGES


@<TRIPOS>ATOM
      1 ****        -3.2295   1.1511   2.0730 C.3            1 S1                 0.0000
      2 ****        -3.6145   2.0436   0.9279 C.2            1 S1                 0.0000
      3 ****        -3.8644   3.3220   1.1560 N.2            1 S1                 0.0000
      4 ****        -4.1795   3.8788  -0.0872 O.3            1 S1                 0.0000
      5 ****        -4.1035   2.9022  -1.0267 C.2            1 S1                 0.0000
      6 ****        -4.4020   3.2983  -2.4331 C.3            1 S1                 0.0000
      7 ****        -3.7505   1.7125  -0.4517 C.2            1 S1                 0.0000
      8 ****        -3.5486   0.3745  -1.1157 C.3            1 S1                 0.0000
      9 ****        -2.0534   0.0766  -1.2268 C.2            1 S1                 0.0000
     10 ****        -1.3713   0.6530  -2.0741 O.2            1 S1                 0.0000
     11 ****        -1.5547  -0.8118  -0.3538 N.am           1 S1                 0.0000
     12 ****        -0.1516  -1.1902  -0.2519 C.3            1 S1                 0.0000
     13 ****         0.6513  -0.1488   0.5497 C.3            1 S1                 0.0000
     14 ****         2.0459  -0.5751   0.7353 N.am           1 S1                 0.0000
     15 ****         3.0092  -0.0464  -0.2427 C.3            1 S1                 0.0000
     16 ****         3.6489  -1.1519  -1.1053 C.3            1 S1                 0.0000
     17 ****         4.8156  -1.8816  -0.4227 C.3            1 S1                 0.0000
     18 ****         4.4231  -2.6615   0.8402 C.3            1 S1                 0.0000
     19 ****         3.8656  -1.7647   1.9576 C.3            1 S1                 0.0000
     20 ****         2.3887  -1.4075   1.7476 C.2            1 S1                 0.0000
     21 ****         1.5605  -1.8809   2.5267 O.2            1 S1                 0.0000
     22 ****        -2.1454   1.0743   2.1573 H              1 S1                 0.0000
     23 ****        -3.6233   0.1440   1.9365 H              1 S1                 0.0000
     24 ****        -3.6115   1.5277   3.0226 H              1 S1                 0.0000
     25 ****        -3.5832   3.0152  -3.0945 H              1 S1                 0.0000
     26 ****        -4.5467   4.3755  -2.5169 H              1 S1                 0.0000
     27 ****        -5.3084   2.8074  -2.7874 H              1 S1                 0.0000
     28 ****        -4.0464  -0.4215  -0.5606 H              1 S1                 0.0000
     29 ****        -3.9797   0.3572  -2.1173 H              1 S1                 0.0000
     30 ****        -2.1903  -1.2374   0.3054 H              1 S1                 0.0000
     31 ****        -0.1060  -2.1633   0.2378 H              1 S1                 0.0000
     32 ****         0.2775  -1.3232  -1.2466 H              1 S1                 0.0000
     33 ****         0.6053   0.8221   0.0550 H              1 S1                 0.0000
     34 ****         0.1784   0.0155   1.5198 H              1 S1                 0.0000
     35 ****         2.5139   0.6512  -0.9185 H              1 S1                 0.0000
     36 ****         3.7741   0.5436   0.2636 H              1 S1                 0.0000
     37 ****         2.8900  -1.8659  -1.4285 H              1 S1                 0.0000
     38 ****         4.0322  -0.6943  -2.0179 H              1 S1                 0.0000
     39 ****         5.2604  -2.5751  -1.1368 H              1 S1                 0.0000
     40 ****         5.5993  -1.1639  -0.1776 H              1 S1                 0.0000
     41 ****         3.7064  -3.4445   0.5875 H              1 S1                 0.0000
     42 ****         5.3068  -3.1788   1.2154 H              1 S1                 0.0000
     43 ****         3.9486  -2.2973   2.9061 H              1 S1                 0.0000
     44 ****         4.4636  -0.8602   2.0740 H              1 S1                 0.0000
     45 ****        -3.8342   3.7938   2.0372 LP             1 S1                 0.0000
     46 ****        -3.5305   4.6078  -0.3048 LP             1 S1                 0.0000
     47 ****        -5.1063   4.2536  -0.0641 LP             1 S1                 0.0000
     48 ****        -1.7953   1.3167  -2.6904 LP             1 S1                 0.0000
     49 ****        -0.3933   0.4575  -2.1461 LP             1 S1                 0.0000
     50 ****         0.5918  -1.6543   2.4251 LP             1 S1                 0.0000
     51 ****         1.8567  -2.4919   3.2608 LP             1 S1                 0.0000
@<TRIPOS>BOND
    1    1    2 1     
    2    1   22 1     
    3    1   23 1     
    4    1   24 1     
    5    2    7 1     
    6    2    3 2     
    7    3    4 1     
    8    4    5 1     
    9    5    6 1     
   10    5    7 2     
   11    6   25 1     
   12    6   26 1     
   13    6   27 1     
   14    7    8 1     
   15    8    9 1     
   16    8   28 1     
   17    8   29 1     
   18    9   10 2     
   19    9   11 am    
   20   11   12 1     
   21   11   30 1     
   22   12   13 1     
   23   12   31 1     
   24   12   32 1     
   25   13   14 1     
   26   13   33 1     
   27   13   34 1     
   28   14   20 am    
   29   14   15 1     
   30   15   16 1     
   31   15   35 1     
   32   15   36 1     
   33   16   17 1     
   34   16   37 1     
   35   16   38 1     
   36   17   18 1     
   37   17   39 1     
   38   17   40 1     
   39   18   19 1     
   40   18   41 1     
   41   18   42 1     
   42   19   20 1     
   43   19   43 1     
   44   19   44 1     
   45   20   21 2     
   46    3   45 1     
   47    4   46 1     
   48    4   47 1     
   49   10   48 1     
   50   10   49 1     
   51   21   50 1     
   52   21   51 1     
@<TRIPOS>SUBSTRUCTURE
      1 S1             1
@<TRIPOS>SET
LONE_PAIRS      STATIC     ATOMS    <user>   **** ""
7 45 46 47 48 49 50 51
DONOR_HYDROGENS      STATIC     ATOMS    <user>   **** ""
1 30
ATOM$BLUE        STATIC     ATOMS    COLORGROUP SYSTEM
7 45 46 47 48 49 50 51
ATOM$RED        STATIC     ATOMS    COLORGROUP SYSTEM
1 30
