AV-unprocessed.smi:3191|AV-procd|sdf|12198|dock6
  -GOLD-   2272018 33D 1   1.00000     0.00000
 Structure written by MMmdl.
 35 36  0  0  0  0  0  0  0  0  1 V2000
  153.2536  142.8187  159.7996 C   0  0  0  0  0  0  0  0  0  0  0  0
  152.3239  143.9106  159.5861 N   0  0  0  0  0  0  0  0  0  0  0  0
  151.9662  144.8464  160.4759 C   0  0  0  0  0  0  0  0  0  0  0  0
  151.0914  145.7332  160.0206 N   0  0  0  0  0  0  0  0  0  0  0  0
  150.8624  145.3284  158.7084 C   0  0  0  0  0  0  0  0  0  0  0  0
  151.6137  144.2090  158.4259 C   0  0  0  0  0  0  0  0  0  0  0  0
  151.7170  143.4188  157.1613 C   0  0  0  0  0  0  0  0  0  0  0  0
  150.8086  142.1789  157.1556 C   0  0  0  0  0  0  0  0  0  0  0  0
  149.7804  142.2739  156.1265 N   0  0  0  0  0  0  0  0  0  0  0  0
  149.6881  141.4691  155.0568 C   0  0  0  0  0  0  0  0  0  0  0  0
  150.4891  140.5595  154.8361 O   0  0  0  0  0  0  0  0  0  0  0  0
  148.5276  141.7862  154.1654 C   0  0  1  0  0  0  0  0  0  0  0  0
  147.5530  140.6731  153.8396 C   0  0  0  0  0  0  0  0  0  0  0  0
  147.1084  141.8131  154.7288 C   0  0  0  0  0  0  0  0  0  0  0  0
  146.7932  141.5372  156.1942 C   0  0  0  0  0  0  0  0  0  0  0  0
  146.1494  142.8585  154.1869 C   0  0  0  0  0  0  0  0  0  0  0  0
  148.7349  142.5008  153.3700 H   0  0  0  0  0  0  0  0  0  0  0  0
  153.6577  142.8589  160.8116 H   0  0  0  0  0  0  0  0  0  0  0  0
  154.0766  142.8879  159.0884 H   0  0  0  0  0  0  0  0  0  0  0  0
  152.7408  141.8665  159.6624 H   0  0  0  0  0  0  0  0  0  0  0  0
  152.3559  144.8794  161.4829 H   0  0  0  0  0  0  0  0  0  0  0  0
  150.1809  145.8714  158.0703 H   0  0  0  0  0  0  0  0  0  0  0  0
  151.4797  144.0603  156.3121 H   0  0  0  0  0  0  0  0  0  0  0  0
  152.7524  143.1083  157.0166 H   0  0  0  0  0  0  0  0  0  0  0  0
  151.4030  141.2851  156.9643 H   0  0  0  0  0  0  0  0  0  0  0  0
  150.3435  142.0360  158.1322 H   0  0  0  0  0  0  0  0  0  0  0  0
  149.0870  142.9995  156.2378 H   0  0  0  0  0  0  0  0  0  0  0  0
  147.1725  140.6376  152.8208 H   0  0  0  0  0  0  0  0  0  0  0  0
  147.6988  139.6984  154.3023 H   0  0  0  0  0  0  0  0  0  0  0  0
  145.7234  141.3756  156.3292 H   0  0  0  0  0  0  0  0  0  0  0  0
  147.0951  142.3840  156.8109 H   0  0  0  0  0  0  0  0  0  0  0  0
  147.3035  140.6451  156.5554 H   0  0  0  0  0  0  0  0  0  0  0  0
  145.1203  142.5047  154.2564 H   0  0  0  0  0  0  0  0  0  0  0  0
  146.3634  143.0759  153.1400 H   0  0  0  0  0  0  0  0  0  0  0  0
  146.2389  143.7854  154.7543 H   0  0  0  0  0  0  0  0  0  0  0  0
  1  2  1  0  0  0  0
  1 18  1  0  0  0  0
  1 19  1  0  0  0  0
  1 20  1  0  0  0  0
  2  6  1  0  0  0  0
  2  3  1  0  0  0  0
  3  4  2  0  0  0  0
  3 21  1  0  0  0  0
  4  5  1  0  0  0  0
  5  6  2  0  0  0  0
  5 22  1  0  0  0  0
  6  7  1  0  0  0  0
  7  8  1  0  0  0  0
  7 23  1  0  0  0  0
  7 24  1  0  0  0  0
  8  9  1  0  0  0  0
  8 25  1  0  0  0  0
  8 26  1  0  0  0  0
  9 10  1  0  0  0  0
  9 27  1  0  0  0  0
 10 11  2  0  0  0  0
 10 12  1  0  0  0  0
 12 17  1  0  0  0  0
 12 14  1  0  0  0  0
 12 13  1  0  0  0  0
 13 14  1  0  0  0  0
 13 28  1  0  0  0  0
 13 29  1  0  0  0  0
 14 15  1  0  0  0  0
 14 16  1  0  0  0  0
 15 30  1  0  0  0  0
 15 31  1  0  0  0  0
 15 32  1  0  0  0  0
 16 33  1  0  0  0  0
 16 34  1  0  0  0  0
 16 35  1  0  0  0  0
M  END
> <s_m_source_file>
AV-unprocessed.smi

> <i_m_source_file_index>
3191

> <i_lp_mmshare_version>
43012

> <i_f3d_flags>
0

> <s_epik_input>
W0NIM11uMVtjSF1uW2NIXWMxW0NIMl1bQ0gyXVtOSF1DKD1PKVtDQEBIXShbQ0gyXTIpQzIoW0NIM10pW0NIM10=

> <s_epik_cmdline>
J2VwaWtfcHl0aG9uJywgJy1waCcsICc3LjAnLCAnLXRuJywgJzgnLCAnLW1hJywgJzIwMCcsICctbWV0YWxfYmluZGluZycsICctaW1hZScsICc8aW5maWxlLm1hZT4nLCAnLW9tYWUnLCAnPG91dGZpbGUubWFlPic=

> <r_lp_tautomer_probability>
1

> <r_epik_Ionization_Penalty>
0.874249

> <r_epik_Ionization_Penalty_Charging>
0.874249

> <r_epik_Ionization_Penalty_Neutral>
1.97773e-08

> <r_epik_State_Penalty>
0.911868

> <r_epik_Charging_Adjusted_Penalty>
1.78612

> <i_epik_Tot_Q>
0

> <i_epik_Tot_abs_Q>
0

> <r_epik_Metal_State_Penalty>
0.361186

> <b_epik_Metal_Only>
0

> <s_lp_Force_Field>
OPLS_2005

> <r_lp_Energy>
11.7772

> <b_lp_Chiralities_Consistent>
1

> <s_lp_Variant>
AV-unprocessed.smi:3191-3

> <Gold.Version>
5.8.1

> <Gold.Id.Protein>
6NUR|6NUR_protein|mol2

> <Gold.PLP.Fitness>
48.3833

> <Gold.PLP.PLP>
-41.3770

> <Gold.PLP.part.hbond>
-2.5591

> <Gold.PLP.part.metal>
0.0000

> <Gold.PLP.part.buried>
-4.4651

> <Gold.PLP.part.nonpolar>
-35.4304

> <Gold.PLP.part.repulsive>
0.3947

> <Gold.PLP.ligand.clash>
0.0000

> <Gold.PLP.ligand.torsion>
0.7623

> <Gold.PLP.Chemscore.Hbond>
1.8160

> <Gold.PLP.Chemscore.CHOScore>
0.9969

> <Gold.PLP.Chemscore.Metal>
0.0000

> <Gold.Chemscore.Hbonds>
donor molecule, donor type, donor heavy atom, donor atom, acceptor molecule, acceptor atom, score
      L1  H     9    27       P1  8028  0.72
      P1  H  7989  7998       L1    11  0.98
      L1  C     5    22       P1  8029  1.00

> <Gold.PLP.Chemscore.Internal.Correction>
0.0921

> <Gold.Rescore>
     Score         DG    S(hbond)    S(metal)    S(lipo)     H(rot)  DE(clash)    DE(int)     intcor
     14.85     -16.02       1.60        0.00      81.41       1.69       0.41       0.76       ----

> <Gold.Chemscore.Fitness>
14.8508

> <Gold.Chemscore.DG>
-16.0194

> <Gold.Chemscore.ZeroCoef>
-5.4800

> <Gold.Chemscore.Hbond>
1.6003

> <Gold.Chemscore.Metal>
0.0000

> <Gold.Chemscore.Lipo>
81.4143

> <Gold.Chemscore.Internal_Hbond>
0.0000

> <Gold.Chemscore.DEClash>
0.4071

> <Gold.Chemscore.DEInternal>
0.7615

> <Gold.Chemscore.Rot>
1.6919

> <Gold.Chemscore.Internal.Correction>
   9.000000E+99

> <Gold.Chemscore.Hbonds>
donor molecule, donor type, donor heavy atom, donor atom, acceptor molecule, acceptor atom, score
      L1  H     9    27       P1  8028  0.72
      P1  H  7989  7998       L1    11  0.82

> <Gold.Chemscore.Hbond.Weighted>
-5.3451

> <Gold.Chemscore.Metal.Weighted>
-0.0000

> <Gold.Chemscore.Lipo.Weighted>
-9.5255

> <Gold.Chemscore.Internal_Hbond.Weighted>
0.0000

> <Gold.Chemscore.DEClash.Weighted>
0.4071

> <Gold.Chemscore.DEInternal.Weighted>
0.7615

> <Gold.Chemscore.Rot.Weighted>
4.3312

> <Gold.Chemscore.Internal.Correction.Weighted>
   9.000000E+99

> <Gold.Protein.RotatedTorsions>
[ 6907 6896 6895 6894 ] final    3.58 input  -60.11 | X-H torsion
[ 7974 7965 7964 7962 ] final -120.72 input  175.53 | X-H torsion
[ 8008 7997 7996 7995 ] final -104.53 input   59.86 | X-H torsion
[ 10167 10162 10161 10158 ] final -176.54 input  -65.29 | X-H torsion
[ 10718 10713 10712 10709 ] final  125.00 input   66.30 | X-H torsion
[ 10763 10752 10751 10750 ] final  142.12 input  -60.55 | X-H torsion
[ 11005 11000 10999 10996 ] final   -9.73 input  -57.11 | X-H torsion

> <Gold.Protein.ActiveResidues>
 VAL166  LYS551  ARG553  GLY616  TRP617  ASP618  TYR619  PRO620  LYS621  CYS622 
 ASP623  PHE694  ASN695  SER759  ASP760  ASP761  ALA762  ILE779  LEU786  VAL792 
 PHE793  MET794  SER795  GLU796  ALA797  LYS798  CYS799  TRP800  GLU811  SER814 

> <Gold.Protein.RotatedAtoms>
  151.6274  135.1026  160.0114 H   0  0  0  0  0  0  0  0  0  0  0  0  # atno 6907 bound_to 6896
  152.4125  133.6981  159.6418 H   0  0  0  0  0  0  0  0  0  0  0  0  # atno 6908 bound_to 6896
  150.8014  133.8516  159.3248 H   0  0  0  0  0  0  0  0  0  0  0  0  # atno 6909 bound_to 6896
  145.0482  140.8198  143.4225 H   0  0  0  0  0  0  0  0  0  0  0  0  # atno 7974 bound_to 7965
  154.8867  140.0417  157.1814 H   0  0  0  0  0  0  0  0  0  0  0  0  # atno 8008 bound_to 7997
  154.8583  140.2940  155.5534 H   0  0  0  0  0  0  0  0  0  0  0  0  # atno 8009 bound_to 7997
  156.2998  140.2452  156.3553 H   0  0  0  0  0  0  0  0  0  0  0  0  # atno 8010 bound_to 7997
  139.5525  144.2074  152.1101 H   0  0  0  0  0  0  0  0  0  0  0  0  # atno 10167 bound_to 10162
  157.5539  131.1093  150.8655 H   0  0  0  0  0  0  0  0  0  0  0  0  # atno 10718 bound_to 10713
  153.9506  135.2970  155.3439 H   0  0  0  0  0  0  0  0  0  0  0  0  # atno 10763 bound_to 10752
  154.7428  135.5017  153.9155 H   0  0  0  0  0  0  0  0  0  0  0  0  # atno 10764 bound_to 10752
  153.0996  135.6730  153.9806 H   0  0  0  0  0  0  0  0  0  0  0  0  # atno 10765 bound_to 10752
  140.7373  133.8699  155.8939 H   0  0  0  0  0  0  0  0  0  0  0  0  # atno 11005 bound_to 11000
  145.1561  139.2486  143.5416 LP  0  0  0  0  0  0  0  0  0  0  0  0  # atno 17320 bound_to 7965
  146.3515  140.1276  142.8598 LP  0  0  0  0  0  0  0  0  0  0  0  0  # atno 17321 bound_to 7965
  140.1571  144.5060  150.6653 LP  0  0  0  0  0  0  0  0  0  0  0  0  # atno 17342 bound_to 10162
  140.6790  143.2318  151.5432 LP  0  0  0  0  0  0  0  0  0  0  0  0  # atno 17343 bound_to 10162
  156.9172  130.5302  149.5279 LP  0  0  0  0  0  0  0  0  0  0  0  0  # atno 17370 bound_to 10713
  156.0601  130.5655  150.9174 LP  0  0  0  0  0  0  0  0  0  0  0  0  # atno 17371 bound_to 10713
  140.9868  134.1332  157.4445 LP  0  0  0  0  0  0  0  0  0  0  0  0  # atno 17394 bound_to 11000
  139.8813  135.0028  156.6148 LP  0  0  0  0  0  0  0  0  0  0  0  0  # atno 17395 bound_to 11000

$$$$
