#       Name:                AV-unprocessed.smi:1724
#       Creating user name   scv26
#       Creation time:       Fri Mar 27 08:16:27 2020


#       File generated by GOLD software.
#

@<TRIPOS>MOLECULE
AV-unprocessed.smi:1724
    44    45     1
SMALL
NO_CHARGES


@<TRIPOS>ATOM
      1 ****         0.2787   1.1434   0.8256 O.2            1 S1                 0.0000
      2 ****        -0.2529   0.0676   1.0984 C.2            1 S1                 0.0000
      3 ****         0.4376  -1.0687   1.2723 N.am           1 S1                 0.0000
      4 ****         1.8879  -1.2076   1.1753 C.3            1 S1                 0.0000
      5 ****         2.3296  -1.8476  -0.1568 C.3            1 S1                 0.0000
      6 ****         1.9647  -0.9963  -1.3880 C.3            1 S1                 0.0000
      7 ****         2.5161  -1.6431  -2.6635 C.3            1 S1                 0.0000
      8 ****         4.0189  -1.9233  -2.5170 C.3            1 S1                 0.0000
      9 ****         4.2449  -2.7413  -1.3749 O.3            1 S1                 0.0000
     10 ****         3.8478  -2.1191  -0.1572 C.3            1 S1                 0.0000
     11 ****        -1.5703  -0.1490   1.2669 N.am           1 S1                 0.0000
     12 ****        -2.6548   0.7422   1.1779 C.2            1 S1                 0.0000
     13 ****        -2.5751   2.0406   0.7728 C.2            1 S1                 0.0000
     14 ****        -3.7453   2.9076   0.7022 C.2            1 S1                 0.0000
     15 ****        -3.7110   4.3588   0.2593 C.3            1 S1                 0.0000
     16 ****        -4.5092   4.5386  -0.7925 F              1 S1                 0.0000
     17 ****        -4.1399   5.1498   1.2420 F              1 S1                 0.0000
     18 ****        -2.4782   4.7378  -0.0782 F              1 S1                 0.0000
     19 ****        -4.9041   2.2598   1.0799 C.2            1 S1                 0.0000
     20 ****        -5.0704   0.9831   1.4880 N.pl3          1 S1                -1.0000
     21 ****        -3.9703   0.1812   1.5532 C.2            1 S1                 0.0000
     22 ****        -4.0518  -0.9931   1.9158 O.2            1 S1                 0.0000
     23 ****        -0.0820  -1.9050   1.4958 H              1 S1                 0.0000
     24 ****         2.3867  -0.2477   1.3197 H              1 S1                 0.0000
     25 ****         2.2066  -1.8390   2.0051 H              1 S1                 0.0000
     26 ****         1.8236  -2.8099  -0.2508 H              1 S1                 0.0000
     27 ****         0.8840  -0.8829  -1.4768 H              1 S1                 0.0000
     28 ****         2.3766   0.0079  -1.2786 H              1 S1                 0.0000
     29 ****         1.9890  -2.5781  -2.8577 H              1 S1                 0.0000
     30 ****         2.3346  -0.9970  -3.5227 H              1 S1                 0.0000
     31 ****         4.3925  -2.4409  -3.4005 H              1 S1                 0.0000
     32 ****         4.5826  -0.9931  -2.4303 H              1 S1                 0.0000
     33 ****         4.4105  -1.1957  -0.0104 H              1 S1                 0.0000
     34 ****         4.1103  -2.7829   0.6669 H              1 S1                 0.0000
     35 ****        -1.8366  -1.0918   1.5105 H              1 S1                 0.0000
     36 ****        -1.6347   2.4750   0.4807 H              1 S1                 0.0000
     37 ****        -5.8380   2.8610   1.0487 H              1 S1                 0.0000
     38 ****         1.2720   1.1986   0.7234 LP             1 S1                 0.0000
     39 ****        -0.2825   1.9623   0.7060 LP             1 S1                 0.0000
     40 ****         5.2211  -2.9516  -1.3217 LP             1 S1                 0.0000
     41 ****         3.7267  -3.5897  -1.4830 LP             1 S1                 0.0000
     42 ****        -5.9750   0.6360   1.7353 LP             1 S1                 0.0000
     43 ****        -3.2305  -1.5624   1.9553 LP             1 S1                 0.0000
     44 ****        -4.9392  -1.3773   2.1706 LP             1 S1                 0.0000
@<TRIPOS>BOND
    1    1    2 2     
    2    2    3 am    
    3    2   11 am    
    4    3    4 1     
    5    3   23 1     
    6    4    5 1     
    7    4   24 1     
    8    4   25 1     
    9    5   10 1     
   10    5    6 1     
   11    5   26 1     
   12    6    7 1     
   13    6   27 1     
   14    6   28 1     
   15    7    8 1     
   16    7   29 1     
   17    7   30 1     
   18    8    9 1     
   19    8   31 1     
   20    8   32 1     
   21    9   10 1     
   22   10   33 1     
   23   10   34 1     
   24   11   12 1     
   25   11   35 1     
   26   12   21 1     
   27   12   13 2     
   28   13   14 1     
   29   13   36 1     
   30   14   15 1     
   31   14   19 2     
   32   15   16 1     
   33   15   17 1     
   34   15   18 1     
   35   19   20 1     
   36   19   37 1     
   37   20   21 1     
   38   21   22 2     
   39    1   38 1     
   40    1   39 1     
   41    9   40 1     
   42    9   41 1     
   43   20   42 1     
   44   22   43 1     
   45   22   44 1     
@<TRIPOS>SUBSTRUCTURE
      1 S1             1
@<TRIPOS>SET
LONE_PAIRS      STATIC     ATOMS    <user>   **** ""
7 38 39 40 41 42 43 44
DONOR_HYDROGENS      STATIC     ATOMS    <user>   **** ""
2 23 35
ATOM$BLUE        STATIC     ATOMS    COLORGROUP SYSTEM
7 38 39 40 41 42 43 44
ATOM$RED        STATIC     ATOMS    COLORGROUP SYSTEM
2 23 35
