AV-unprocessed.smi:1158|AV-procd|sdf|4912|dock9
  -GOLD-   22720 3493D 1   1.00000     0.00000
 Structure written by MMmdl.
 43 44  0  0  0  0  0  0  0  0  2 V2000
  152.8335  138.2500  154.4123 C   0  0  0  0  0  0  0  0  0  0  0  0
  151.5889  137.5637  154.4909 O   0  0  0  0  0  0  0  0  0  0  0  0
  150.6958  137.9274  155.4809 C   0  0  0  0  0  0  0  0  0  0  0  0
  151.0088  138.9816  156.2758 N   0  0  0  0  0  0  0  0  0  0  0  0
  150.1412  139.3349  157.2461 C   0  0  0  0  0  0  0  0  0  0  0  0
  148.9302  138.6586  157.4797 C   0  0  0  0  0  0  0  0  0  0  0  0
  148.6030  137.5652  156.6567 C   0  0  0  0  0  0  0  0  0  0  0  0
  149.4959  137.1912  155.6228 C   0  0  0  0  0  0  0  0  0  0  0  0
  149.2739  136.0954  154.7424 N   0  0  0  0  0  0  0  0  0  0  0  0
  148.7173  134.9012  155.0073 C   0  0  0  0  0  0  0  0  0  0  0  0
  148.2970  134.5355  156.1045 O   0  0  0  0  0  0  0  0  0  0  0  0
  148.6576  134.1404  153.9048 N   0  0  0  0  0  0  0  0  0  0  0  0
  148.0868  132.7978  153.8407 C   0  0  2  0  0  0  0  0  0  0  0  0
  149.1787  131.7466  153.5767 C   0  0  0  0  0  0  0  0  0  0  0  0
  148.5688  130.3447  153.4149 C   0  0  0  0  0  0  0  0  0  0  0  0
  147.5535  130.3153  152.3291 N   0  3  1  0  0  0  0  0  0  0  0  0
  147.0528  128.9385  152.0762 C   0  0  0  0  0  0  0  0  0  0  0  0
  148.1458  127.9753  151.5811 C   0  0  0  0  0  0  0  0  0  0  0  0
  148.7749  127.4446  152.6288 F   0  0  0  0  0  0  0  0  0  0  0  0
  147.6426  126.9849  150.8459 F   0  0  0  0  0  0  0  0  0  0  0  0
  146.4702  131.3052  152.5732 C   0  0  0  0  0  0  0  0  0  0  0  0
  147.0338  132.7288  152.7242 C   0  0  0  0  0  0  0  0  0  0  0  0
  153.4189  137.8403  153.5894 H   0  0  0  0  0  0  0  0  0  0  0  0
  153.4164  138.1268  155.3262 H   0  0  0  0  0  0  0  0  0  0  0  0
  152.6912  139.3141  154.2187 H   0  0  0  0  0  0  0  0  0  0  0  0
  150.4237  140.1785  157.8585 H   0  0  0  0  0  0  0  0  0  0  0  0
  148.2688  138.9688  158.2751 H   0  0  0  0  0  0  0  0  0  0  0  0
  147.6850  137.0316  156.8459 H   0  0  0  0  0  0  0  0  0  0  0  0
  149.5031  136.2727  153.7752 H   0  0  0  0  0  0  0  0  0  0  0  0
  149.0228  134.5233  153.0448 H   0  0  0  0  0  0  0  0  0  0  0  0
  147.5952  132.5732  154.7895 H   0  0  0  0  0  0  0  0  0  0  0  0
  149.7361  132.0067  152.6755 H   0  0  0  0  0  0  0  0  0  0  0  0
  149.9005  131.7373  154.3943 H   0  0  0  0  0  0  0  0  0  0  0  0
  149.3677  129.6356  153.1946 H   0  0  0  0  0  0  0  0  0  0  0  0
  148.1103  130.0235  154.3517 H   0  0  0  0  0  0  0  0  0  0  0  0
  146.6722  128.5346  153.0156 H   0  0  0  0  0  0  0  0  0  0  0  0
  146.2050  128.9575  151.3896 H   0  0  0  0  0  0  0  0  0  0  0  0
  148.9008  128.4877  150.9837 H   0  0  0  0  0  0  0  0  0  0  0  0
  145.7609  131.3052  151.7479 H   0  0  0  0  0  0  0  0  0  0  0  0
  145.9139  131.0248  153.4690 H   0  0  0  0  0  0  0  0  0  0  0  0
  146.2209  133.4251  152.9342 H   0  0  0  0  0  0  0  0  0  0  0  0
  147.4748  133.0450  151.7775 H   0  0  0  0  0  0  0  0  0  0  0  0
  148.0337  130.6038  151.4887 H   0  0  0  0  0  0  0  0  0  0  0  0
  1  2  1  0  0  0  0
  1 23  1  0  0  0  0
  1 24  1  0  0  0  0
  1 25  1  0  0  0  0
  2  3  1  0  0  0  0
  3  8  1  0  0  0  0
  3  4  2  0  0  0  0
  4  5  1  0  0  0  0
  5  6  2  0  0  0  0
  5 26  1  0  0  0  0
  6  7  1  0  0  0  0
  6 27  1  0  0  0  0
  7  8  2  0  0  0  0
  7 28  1  0  0  0  0
  8  9  1  0  0  0  0
  9 10  1  0  0  0  0
  9 29  1  0  0  0  0
 10 11  2  0  0  0  0
 10 12  1  0  0  0  0
 12 13  1  0  0  0  0
 12 30  1  0  0  0  0
 13 22  1  0  0  0  0
 13 14  1  0  0  0  0
 13 31  1  0  0  0  0
 14 15  1  0  0  0  0
 14 32  1  0  0  0  0
 14 33  1  0  0  0  0
 15 16  1  0  0  0  0
 15 34  1  0  0  0  0
 15 35  1  0  0  0  0
 16 17  1  0  0  0  0
 16 21  1  0  0  0  0
 16 43  1  0  0  0  0
 17 18  1  0  0  0  0
 17 36  1  0  0  0  0
 17 37  1  0  0  0  0
 18 19  1  0  0  0  0
 18 20  1  0  0  0  0
 18 38  1  0  0  0  0
 21 22  1  0  0  0  0
 21 39  1  0  0  0  0
 21 40  1  0  0  0  0
 22 41  1  0  0  0  0
 22 42  1  0  0  0  0
M  CHG  1  16   1
M  END
> <s_m_source_file>
AV-unprocessed.smi

> <i_m_source_file_index>
1158

> <i_lp_mmshare_version>
43012

> <i_f3d_flags>
0

> <s_epik_input>
W0NIM11PYzFuW2NIXVtjSF1bY0hdYzFbTkhdQyg9TylbTkhdW0NIXTJbQ0gyXVtDSDJdTihbQ0gyXVtDSF0oRilGKVtDSDJdW0NIMl0y

> <s_epik_cmdline>
J2VwaWtfcHl0aG9uJywgJy1waCcsICc3LjAnLCAnLXRuJywgJzgnLCAnLW1hJywgJzIwMCcsICctbWV0YWxfYmluZGluZycsICctaW1hZScsICc8aW5maWxlLm1hZT4nLCAnLW9tYWUnLCAnPG91dGZpbGUubWFlPic=

> <r_lp_tautomer_probability>
1

> <r_epik_Ionization_Penalty>
0.802109

> <r_epik_Ionization_Penalty_Charging>
0.802031

> <r_epik_Ionization_Penalty_Neutral>
7.83352e-05

> <r_epik_State_Penalty>
0.833408

> <r_epik_Charging_Adjusted_Penalty>
1.63544

> <i_epik_Tot_Q>
1

> <i_epik_Tot_abs_Q>
1

> <r_epik_Metal_State_Penalty>
0.833416

> <b_epik_Metal_Only>
0

> <s_lp_Force_Field>
OPLS_2005

> <r_lp_Energy>
21.1994

> <b_lp_Chiralities_Consistent>
1

> <s_lp_Variant>
AV-unprocessed.smi:1158-2

> <Gold.Version>
5.8.1

> <Gold.Id.Protein>
6NUR|6NUR_protein|mol2

> <Gold.PLP.Fitness>
39.6283

> <Gold.PLP.PLP>
-33.4180

> <Gold.PLP.part.hbond>
-3.0000

> <Gold.PLP.part.metal>
0.0000

> <Gold.PLP.part.buried>
-5.3720

> <Gold.PLP.part.nonpolar>
-26.1213

> <Gold.PLP.part.repulsive>
0.2132

> <Gold.PLP.ligand.clash>
0.0000

> <Gold.PLP.ligand.torsion>
0.6796

> <Gold.PLP.Chemscore.Hbond>
2.5088

> <Gold.PLP.Chemscore.CHOScore>
0.0000

> <Gold.PLP.Chemscore.Metal>
0.0000

> <Gold.Chemscore.Hbonds>
donor molecule, donor type, donor heavy atom, donor atom, acceptor molecule, acceptor atom, score
      L1  H     9    29       P1  7948  0.99
      L1  H    12    30       P1  7948  0.43
      L1  H    16    43       P1 10747  1.00

> <Gold.PLP.Chemscore.Internal.Correction>
0.0432

> <Gold.Rescore>
     Score         DG    S(hbond)    S(metal)    S(lipo)     H(rot)  DE(clash)    DE(int)     intcor
     13.50     -14.30       1.71        0.00      61.13       1.58       0.04       0.76       ----

> <Gold.Chemscore.Fitness>
13.5028

> <Gold.Chemscore.DG>
-14.3021

> <Gold.Chemscore.ZeroCoef>
-5.4800

> <Gold.Chemscore.Hbond>
1.7086

> <Gold.Chemscore.Metal>
0.0000

> <Gold.Chemscore.Lipo>
61.1316

> <Gold.Chemscore.Internal_Hbond>
0.0000

> <Gold.Chemscore.DEClash>
0.0380

> <Gold.Chemscore.DEInternal>
0.7613

> <Gold.Chemscore.Rot>
1.5770

> <Gold.Chemscore.Internal.Correction>
   9.000000E+99

> <Gold.Chemscore.Hbonds>
donor molecule, donor type, donor heavy atom, donor atom, acceptor molecule, acceptor atom, score
      L1  H     9    29       P1  7948  0.65
      L1  H    12    30       P1  7948  0.02
      L1  H    16    43       P1 10747  0.94

> <Gold.Chemscore.Hbond.Weighted>
-5.7068

> <Gold.Chemscore.Metal.Weighted>
-0.0000

> <Gold.Chemscore.Lipo.Weighted>
-7.1524

> <Gold.Chemscore.Internal_Hbond.Weighted>
0.0000

> <Gold.Chemscore.DEClash.Weighted>
0.0380

> <Gold.Chemscore.DEInternal.Weighted>
0.7613

> <Gold.Chemscore.Rot.Weighted>
4.0371

> <Gold.Chemscore.Internal.Correction.Weighted>
   9.000000E+99

> <Gold.Protein.RotatedTorsions>
[ 6907 6896 6895 6894 ] final -180.00 input  -60.11 | X-H torsion
[ 7974 7965 7964 7962 ] final -116.21 input  175.53 | X-H torsion
[ 8008 7997 7996 7995 ] final  -33.21 input   59.86 | X-H torsion
[ 10167 10162 10161 10158 ] final -171.46 input  -65.29 | X-H torsion
[ 10718 10713 10712 10709 ] final -108.94 input   66.30 | X-H torsion
[ 10763 10752 10751 10750 ] final  121.51 input  -60.55 | X-H torsion
[ 11005 11000 10999 10996 ] final  160.31 input  -57.11 | X-H torsion

> <Gold.Protein.ActiveResidues>
 VAL166  LYS551  ARG553  GLY616  TRP617  ASP618  TYR619  PRO620  LYS621  CYS622 
 ASP623  PHE694  ASN695  SER759  ASP760  ASP761  ALA762  ILE779  LEU786  VAL792 
 PHE793  MET794  SER795  GLU796  ALA797  LYS798  CYS799  TRP800  GLU811  SER814 

> <Gold.Protein.RotatedAtoms>
  151.6625  133.3316  159.3177 H   0  0  0  0  0  0  0  0  0  0  0  0  # atno 6907 bound_to 6896
  150.7907  134.6932  159.6517 H   0  0  0  0  0  0  0  0  0  0  0  0  # atno 6908 bound_to 6896
  152.3985  134.6328  160.0131 H   0  0  0  0  0  0  0  0  0  0  0  0  # atno 6909 bound_to 6896
  145.0994  140.8542  143.3935 H   0  0  0  0  0  0  0  0  0  0  0  0  # atno 7974 bound_to 7965
  154.4156  140.1717  156.1852 H   0  0  0  0  0  0  0  0  0  0  0  0  # atno 8008 bound_to 7997
  155.9649  140.3390  155.6500 H   0  0  0  0  0  0  0  0  0  0  0  0  # atno 8009 bound_to 7997
  155.6700  140.0710  157.2514 H   0  0  0  0  0  0  0  0  0  0  0  0  # atno 8010 bound_to 7997
  139.5801  144.1443  152.1503 H   0  0  0  0  0  0  0  0  0  0  0  0  # atno 10167 bound_to 10162
  156.0511  130.5738  150.8031 H   0  0  0  0  0  0  0  0  0  0  0  0  # atno 10718 bound_to 10713
  153.6153  135.3423  155.2992 H   0  0  0  0  0  0  0  0  0  0  0  0  # atno 10763 bound_to 10752
  154.8611  135.4260  154.2266 H   0  0  0  0  0  0  0  0  0  0  0  0  # atno 10764 bound_to 10752
  153.3126  135.7032  153.7174 H   0  0  0  0  0  0  0  0  0  0  0  0  # atno 10765 bound_to 10752
  140.2047  134.8312  157.3056 H   0  0  0  0  0  0  0  0  0  0  0  0  # atno 11005 bound_to 11000
  145.0973  139.2847  143.5704 LP  0  0  0  0  0  0  0  0  0  0  0  0  # atno 17320 bound_to 7965
  146.3530  140.0529  142.8634 LP  0  0  0  0  0  0  0  0  0  0  0  0  # atno 17321 bound_to 7965
  140.0994  144.5552  150.6999 LP  0  0  0  0  0  0  0  0  0  0  0  0  # atno 17342 bound_to 10162
  140.7080  143.2483  151.4668 LP  0  0  0  0  0  0  0  0  0  0  0  0  # atno 17343 bound_to 10162
  157.5438  131.0941  150.9790 LP  0  0  0  0  0  0  0  0  0  0  0  0  # atno 17370 bound_to 10713
  157.0067  130.5621  149.5316 LP  0  0  0  0  0  0  0  0  0  0  0  0  # atno 17371 bound_to 10713
  140.2016  134.4248  155.7660 LP  0  0  0  0  0  0  0  0  0  0  0  0  # atno 17394 bound_to 11000
  141.2227  133.7074  156.8192 LP  0  0  0  0  0  0  0  0  0  0  0  0  # atno 17395 bound_to 11000

$$$$
