AV-unprocessed.smi:2424|AV-procd|sdf|9569|dock2
  -GOLD-   2272013203D 1   1.00000     0.00000
 Structure written by MMmdl.
 49 50  0  0  0  0  0  0  0  0  2 V2000
  150.7210  139.5323  154.9351 C   0  0  0  0  0  0  0  0  0  0  0  0
  149.5002  138.7563  154.4062 C   0  0  0  0  0  0  0  0  0  0  0  0
  148.1004  139.2230  154.9040 C   0  0  0  0  0  0  0  0  0  0  0  0
  147.8334  140.6660  154.4342 C   0  0  0  0  0  0  0  0  0  0  0  0
  147.2669  140.7807  153.0102 C   0  0  0  0  0  0  0  0  0  0  0  0
  146.9054  138.2445  154.7204 C   0  0  1  0  0  0  0  0  0  0  0  0
  147.0391  137.2840  153.6305 N   0  0  0  0  0  0  0  0  0  0  0  0
  146.0720  136.4456  153.2341 C   0  0  0  0  0  0  0  0  0  0  0  0
  144.9604  136.4024  153.7606 O   0  0  0  0  0  0  0  0  0  0  0  0
  146.4857  135.6954  152.1976 N   0  0  0  0  0  0  0  0  0  0  0  0
  145.7801  134.7140  151.4893 C   0  0  0  0  0  0  0  0  0  0  0  0
  144.9258  135.0735  150.4667 C   0  0  0  0  0  0  0  0  0  0  0  0
  144.1674  134.2820  149.6779 N   0  5  0  0  0  0  0  0  0  0  0  0
  144.2193  132.9342  149.8803 C   0  0  0  0  0  0  0  0  0  0  0  0
  143.5556  132.1514  149.2016 O   0  0  0  0  0  0  0  0  0  0  0  0
  145.0981  132.4075  150.9440 C   0  0  0  0  0  0  0  0  0  0  0  0
  145.1576  130.9052  151.1632 C   0  0  0  0  0  0  0  0  0  0  0  0
  145.8304  133.2668  151.6961 C   0  0  0  0  0  0  0  0  0  0  0  0
  147.2136  137.6243  156.0876 C   0  0  2  0  0  0  0  0  0  0  0  0
  146.0599  137.0914  156.9271 C   0  0  0  0  0  0  0  0  0  0  0  0
  147.8366  138.9891  156.4163 C   0  0  1  0  0  0  0  0  0  0  0  0
  149.0299  138.9364  157.1845 O   0  0  0  0  0  0  0  0  0  0  0  0
  148.8833  138.2196  158.3972 C   0  0  0  0  0  0  0  0  0  0  0  0
  151.6306  139.1836  154.4459 H   0  0  0  0  0  0  0  0  0  0  0  0
  150.8634  139.3851  156.0052 H   0  0  0  0  0  0  0  0  0  0  0  0
  150.6473  140.6019  154.7514 H   0  0  0  0  0  0  0  0  0  0  0  0
  149.5385  138.7904  153.3175 H   0  0  0  0  0  0  0  0  0  0  0  0
  149.6492  137.7040  154.6486 H   0  0  0  0  0  0  0  0  0  0  0  0
  147.1835  141.1903  155.1341 H   0  0  0  0  0  0  0  0  0  0  0  0
  148.7659  141.2312  154.4584 H   0  0  0  0  0  0  0  0  0  0  0  0
  147.1752  141.8268  152.7176 H   0  0  0  0  0  0  0  0  0  0  0  0
  146.2765  140.3337  152.9295 H   0  0  0  0  0  0  0  0  0  0  0  0
  147.9167  140.2916  152.2841 H   0  0  0  0  0  0  0  0  0  0  0  0
  145.9408  138.7585  154.7377 H   0  0  0  0  0  0  0  0  0  0  0  0
  147.9233  137.2595  153.1444 H   0  0  0  0  0  0  0  0  0  0  0  0
  147.4271  135.8574  151.8716 H   0  0  0  0  0  0  0  0  0  0  0  0
  144.8368  136.1604  150.2515 H   0  0  0  0  0  0  0  0  0  0  0  0
  145.8365  130.6482  151.9767 H   0  0  0  0  0  0  0  0  0  0  0  0
  145.5073  130.4026  150.2608 H   0  0  0  0  0  0  0  0  0  0  0  0
  144.1698  130.5176  151.4136 H   0  0  0  0  0  0  0  0  0  0  0  0
  146.4630  132.8449  152.4597 H   0  0  0  0  0  0  0  0  0  0  0  0
  148.0006  136.8735  155.9951 H   0  0  0  0  0  0  0  0  0  0  0  0
  145.3061  137.8591  157.1020 H   0  0  0  0  0  0  0  0  0  0  0  0
  146.4028  136.7373  157.8989 H   0  0  0  0  0  0  0  0  0  0  0  0
  145.5679  136.2556  156.4293 H   0  0  0  0  0  0  0  0  0  0  0  0
  147.1071  139.6979  156.8167 H   0  0  0  0  0  0  0  0  0  0  0  0
  149.8197  138.2527  158.9537 H   0  0  0  0  0  0  0  0  0  0  0  0
  148.6405  137.1732  158.2151 H   0  0  0  0  0  0  0  0  0  0  0  0
  148.1054  138.6583  159.0233 H   0  0  0  0  0  0  0  0  0  0  0  0
  1  2  1  0  0  0  0
  1 24  1  0  0  0  0
  1 25  1  0  0  0  0
  1 26  1  0  0  0  0
  2  3  1  0  0  0  0
  2 27  1  0  0  0  0
  2 28  1  0  0  0  0
  3 21  1  0  0  0  0
  3  4  1  0  0  0  0
  3  6  1  0  0  0  0
  4  5  1  0  0  0  0
  4 29  1  0  0  0  0
  4 30  1  0  0  0  0
  5 31  1  0  0  0  0
  5 32  1  0  0  0  0
  5 33  1  0  0  0  0
  6  7  1  0  0  0  0
  6 19  1  0  0  0  0
  6 34  1  0  0  0  0
  7  8  1  0  0  0  0
  7 35  1  0  0  0  0
  8  9  2  0  0  0  0
  8 10  1  0  0  0  0
 10 11  1  0  0  0  0
 10 36  1  0  0  0  0
 11 18  1  0  0  0  0
 11 12  2  0  0  0  0
 12 13  1  0  0  0  0
 12 37  1  0  0  0  0
 13 14  1  0  0  0  0
 14 15  2  0  0  0  0
 14 16  1  0  0  0  0
 16 17  1  0  0  0  0
 16 18  2  0  0  0  0
 17 38  1  0  0  0  0
 17 39  1  0  0  0  0
 17 40  1  0  0  0  0
 18 41  1  0  0  0  0
 19 20  1  0  0  0  0
 19 21  1  0  0  0  0
 19 42  1  0  0  0  0
 20 43  1  0  0  0  0
 20 44  1  0  0  0  0
 20 45  1  0  0  0  0
 21 22  1  0  0  0  0
 21 46  1  0  0  0  0
 22 23  1  0  0  0  0
 23 47  1  0  0  0  0
 23 48  1  0  0  0  0
 23 49  1  0  0  0  0
M  CHG  1  13  -1
M  END
> <s_m_source_file>
AV-unprocessed.smi

> <i_m_source_file_index>
2424

> <i_lp_mmshare_version>
43012

> <i_f3d_flags>
0

> <s_epik_input>
W0NIM11PW0NAQEhdMVtDQEhdKFtDSDNdKVtDQEBIXShDMShbQ0gyXVtDSDNdKVtDSDJdW0NIM10pW05IXUMoPU8pW05IXWMyW2NIXVtuSF1jKD1PKWMoW0NIM10pW2NIXTI=

> <s_epik_cmdline>
J2VwaWtfcHl0aG9uJywgJy1waCcsICc3LjAnLCAnLXRuJywgJzgnLCAnLW1hJywgJzIwMCcsICctbWV0YWxfYmluZGluZycsICctaW1hZScsICc8aW5maWxlLm1hZT4nLCAnLW9tYWUnLCAnPG91dGZpbGUubWFlPic=

> <r_lp_tautomer_probability>
1

> <r_epik_Ionization_Penalty>
7.6122

> <r_epik_Ionization_Penalty_Charging>
1.53843

> <r_epik_Ionization_Penalty_Neutral>
6.07377

> <r_epik_State_Penalty>
6.07371

> <r_epik_Charging_Adjusted_Penalty>
7.61214

> <i_epik_Tot_Q>
-1

> <i_epik_Tot_abs_Q>
1

> <r_epik_Metal_State_Penalty>
2.02136

> <b_epik_Metal_Only>
1

> <s_lp_Force_Field>
OPLS_2005

> <r_lp_Energy>
39.7535

> <b_lp_Chiralities_Consistent>
1

> <s_lp_Variant>
AV-unprocessed.smi:2424-11

> <Gold.Version>
5.8.1

> <Gold.Id.Protein>
6NUR|6NUR_protein|mol2

> <Gold.PLP.Fitness>
36.1355

> <Gold.PLP.PLP>
-30.0309

> <Gold.PLP.part.hbond>
-3.0000

> <Gold.PLP.part.metal>
0.0000

> <Gold.PLP.part.buried>
-5.5017

> <Gold.PLP.part.nonpolar>
-23.4033

> <Gold.PLP.part.repulsive>
0.9472

> <Gold.PLP.ligand.clash>
0.0000

> <Gold.PLP.ligand.torsion>
1.5410

> <Gold.PLP.Chemscore.Hbond>
2.8315

> <Gold.PLP.Chemscore.CHOScore>
0.0000

> <Gold.PLP.Chemscore.Metal>
0.0000

> <Gold.Chemscore.Hbonds>
donor molecule, donor type, donor heavy atom, donor atom, acceptor molecule, acceptor atom, score
      L1  H     7    35       P1  7948  0.86
      L1  H    10    36       P1  7948  1.00
      P1  H 10785 10796       L1    15  0.78

> <Gold.PLP.Chemscore.Internal.Correction>
0.6921

> <Gold.Rescore>
     Score         DG    S(hbond)    S(metal)    S(lipo)     H(rot)  DE(clash)    DE(int)     intcor
     16.20     -18.97       2.80        0.00      68.64       1.52       0.19       2.59       ----

> <Gold.Chemscore.Fitness>
16.1994

> <Gold.Chemscore.DG>
-18.9738

> <Gold.Chemscore.ZeroCoef>
-5.4800

> <Gold.Chemscore.Hbond>
2.8011

> <Gold.Chemscore.Metal>
0.0000

> <Gold.Chemscore.Lipo>
68.6368

> <Gold.Chemscore.Internal_Hbond>
0.0000

> <Gold.Chemscore.DEClash>
0.1879

> <Gold.Chemscore.DEInternal>
2.5865

> <Gold.Chemscore.Rot>
1.5204

> <Gold.Chemscore.Internal.Correction>
   9.000000E+99

> <Gold.Chemscore.Hbonds>
donor molecule, donor type, donor heavy atom, donor atom, acceptor molecule, acceptor atom, score
      L1  H     7    35       P1  7948  0.84
      L1  H    10    36       P1  7948  0.94
      P1  H 10785 10796       L1    15  0.75

> <Gold.Chemscore.Hbond.Weighted>
-9.3556

> <Gold.Chemscore.Metal.Weighted>
-0.0000

> <Gold.Chemscore.Lipo.Weighted>
-8.0305

> <Gold.Chemscore.Internal_Hbond.Weighted>
0.0000

> <Gold.Chemscore.DEClash.Weighted>
0.1879

> <Gold.Chemscore.DEInternal.Weighted>
2.5865

> <Gold.Chemscore.Rot.Weighted>
3.8922

> <Gold.Chemscore.Internal.Correction.Weighted>
   9.000000E+99

> <Gold.Protein.RotatedTorsions>
[ 6907 6896 6895 6894 ] final   70.74 input  -60.11 | X-H torsion
[ 7974 7965 7964 7962 ] final   85.45 input  175.53 | X-H torsion
[ 8008 7997 7996 7995 ] final   59.17 input   59.86 | X-H torsion
[ 10167 10162 10161 10158 ] final  -17.04 input  -65.29 | X-H torsion
[ 10718 10713 10712 10709 ] final  -18.46 input   66.30 | X-H torsion
[ 10763 10752 10751 10750 ] final   48.28 input  -60.55 | X-H torsion
[ 11005 11000 10999 10996 ] final -176.66 input  -57.11 | X-H torsion

> <Gold.Protein.ActiveResidues>
 VAL166  LYS551  ARG553  GLY616  TRP617  ASP618  TYR619  PRO620  LYS621  CYS622 
 ASP623  PHE694  ASN695  SER759  ASP760  ASP761  ALA762  ILE779  LEU786  VAL792 
 PHE793  MET794  SER795  GLU796  ALA797  LYS798  CYS799  TRP800  GLU811  SER814 

> <Gold.Protein.RotatedAtoms>
  152.4768  134.4823  159.9669 H   0  0  0  0  0  0  0  0  0  0  0  0  # atno 6907 bound_to 6896
  151.4837  133.3534  159.2850 H   0  0  0  0  0  0  0  0  0  0  0  0  # atno 6908 bound_to 6896
  150.8812  134.8230  159.7287 H   0  0  0  0  0  0  0  0  0  0  0  0  # atno 6909 bound_to 6896
  145.5854  139.2330  143.2329 H   0  0  0  0  0  0  0  0  0  0  0  0  # atno 7974 bound_to 7965
  155.5619  140.3488  155.4493 H   0  0  0  0  0  0  0  0  0  0  0  0  # atno 8008 bound_to 7997
  156.0508  140.1317  157.0078 H   0  0  0  0  0  0  0  0  0  0  0  0  # atno 8009 bound_to 7997
  154.4433  140.1005  156.6358 H   0  0  0  0  0  0  0  0  0  0  0  0  # atno 8010 bound_to 7997
  140.7242  143.5055  150.9815 H   0  0  0  0  0  0  0  0  0  0  0  0  # atno 10167 bound_to 10162
  156.5592  130.4721  149.6415 H   0  0  0  0  0  0  0  0  0  0  0  0  # atno 10718 bound_to 10713
  152.9793  135.5949  154.3901 H   0  0  0  0  0  0  0  0  0  0  0  0  # atno 10763 bound_to 10752
  154.3557  135.2767  155.2349 H   0  0  0  0  0  0  0  0  0  0  0  0  # atno 10764 bound_to 10752
  154.4369  135.6022  153.6159 H   0  0  0  0  0  0  0  0  0  0  0  0  # atno 10765 bound_to 10752
  140.4496  134.6355  157.4795 H   0  0  0  0  0  0  0  0  0  0  0  0  # atno 11005 bound_to 11000
  146.1686  140.6680  142.9244 LP  0  0  0  0  0  0  0  0  0  0  0  0  # atno 17320 bound_to 7965
  144.7375  140.4850  143.6893 LP  0  0  0  0  0  0  0  0  0  0  0  0  # atno 17321 bound_to 7965
  139.8767  143.7124  152.3161 LP  0  0  0  0  0  0  0  0  0  0  0  0  # atno 17342 bound_to 10162
  139.7392  144.7564  151.0680 LP  0  0  0  0  0  0  0  0  0  0  0  0  # atno 17343 bound_to 10162
  156.2814  130.7073  151.1898 LP  0  0  0  0  0  0  0  0  0  0  0  0  # atno 17370 bound_to 10713
  157.7372  131.0554  150.5370 LP  0  0  0  0  0  0  0  0  0  0  0  0  # atno 17371 bound_to 10713
  140.0015  134.6828  155.9522 LP  0  0  0  0  0  0  0  0  0  0  0  0  # atno 17394 bound_to 11000
  141.1670  133.6537  156.4514 LP  0  0  0  0  0  0  0  0  0  0  0  0  # atno 17395 bound_to 11000

$$$$
