AV-unprocessed.smi:1019|AV-procd|sdf|4451|dock3
  -GOLD-   22720 2413D 1   1.00000     0.00000
 Structure written by MMmdl.
 43 45  0  0  0  0  0  0  0  0  1 V2000
  154.4187  141.5948  161.5628 C   0  0  0  0  0  0  0  0  0  0  0  0
  154.0323  140.9742  160.2957 N   0  0  0  0  0  0  0  0  0  0  0  0
  152.6362  141.2721  159.9720 C   0  0  0  0  0  0  0  0  0  0  0  0
  152.3534  142.7490  159.7515 C   0  0  0  0  0  0  0  0  0  0  0  0
  152.3020  143.6330  160.8501 C   0  0  0  0  0  0  0  0  0  0  0  0
  152.0400  145.0019  160.6456 C   0  0  0  0  0  0  0  0  0  0  0  0
  151.8309  145.4920  159.3418 C   0  0  0  0  0  0  0  0  0  0  0  0
  151.8838  144.6131  158.2428 C   0  0  0  0  0  0  0  0  0  0  0  0
  152.1454  143.2442  158.4466 C   0  0  0  0  0  0  0  0  0  0  0  0
  154.2517  139.5252  160.3120 C   0  0  0  0  0  0  0  0  0  0  0  0
  155.7203  139.0634  160.2062 C   0  0  2  0  0  0  0  0  0  0  0  0
  156.1656  139.2660  158.8786 O   0  0  0  0  0  0  0  0  0  0  0  0
  155.8663  137.5729  160.5679 C   0  0  0  0  0  0  0  0  0  0  0  0
  155.6257  137.3130  161.9765 N   0  0  0  0  0  0  0  0  0  0  0  0
  155.3297  138.2206  162.9267 C   0  0  0  0  0  0  0  0  0  0  0  0
  155.1402  137.7696  164.1633 N   0  0  0  0  0  0  0  0  0  0  0  0
  155.3367  136.4093  163.9973 C   0  0  0  0  0  0  0  0  0  0  0  0
  155.2772  135.3535  164.9350 C   0  0  0  0  0  0  0  0  0  0  0  0
  155.5165  134.0239  164.5300 C   0  0  0  0  0  0  0  0  0  0  0  0
  155.8193  133.7299  163.1847 C   0  0  0  0  0  0  0  0  0  0  0  0
  155.8840  134.7649  162.2321 C   0  0  0  0  0  0  0  0  0  0  0  0
  155.6429  136.0904  162.6396 C   0  0  0  0  0  0  0  0  0  0  0  0
  155.4781  141.4548  161.7710 H   0  0  0  0  0  0  0  0  0  0  0  0
  153.8486  141.1798  162.3950 H   0  0  0  0  0  0  0  0  0  0  0  0
  154.2489  142.6714  161.5428 H   0  0  0  0  0  0  0  0  0  0  0  0
  152.3550  140.7598  159.0509 H   0  0  0  0  0  0  0  0  0  0  0  0
  151.9790  140.8828  160.7512 H   0  0  0  0  0  0  0  0  0  0  0  0
  152.4608  143.2617  161.8522 H   0  0  0  0  0  0  0  0  0  0  0  0
  151.9997  145.6752  161.4891 H   0  0  0  0  0  0  0  0  0  0  0  0
  151.6302  146.5416  159.1847 H   0  0  0  0  0  0  0  0  0  0  0  0
  151.7233  144.9883  157.2426 H   0  0  0  0  0  0  0  0  0  0  0  0
  152.1829  142.5761  157.5987 H   0  0  0  0  0  0  0  0  0  0  0  0
  153.8130  139.1136  161.2224 H   0  0  0  0  0  0  0  0  0  0  0  0
  153.7004  139.0663  159.4897 H   0  0  0  0  0  0  0  0  0  0  0  0
  156.3599  139.6387  160.8740 H   0  0  0  0  0  0  0  0  0  0  0  0
  157.0406  139.6216  158.9053 H   0  0  0  0  0  0  0  0  0  0  0  0
  155.1595  136.9764  159.9895 H   0  0  0  0  0  0  0  0  0  0  0  0
  156.8619  137.2107  160.3085 H   0  0  0  0  0  0  0  0  0  0  0  0
  155.2492  139.2730  162.6966 H   0  0  0  0  0  0  0  0  0  0  0  0
  155.0469  135.5672  165.9683 H   0  0  0  0  0  0  0  0  0  0  0  0
  155.4678  133.2254  165.2558 H   0  0  0  0  0  0  0  0  0  0  0  0
  156.0021  132.7085  162.8844 H   0  0  0  0  0  0  0  0  0  0  0  0
  156.1166  134.5426  161.2014 H   0  0  0  0  0  0  0  0  0  0  0  0
  1  2  1  0  0  0  0
  1 23  1  0  0  0  0
  1 24  1  0  0  0  0
  1 25  1  0  0  0  0
  2  3  1  0  0  0  0
  2 10  1  0  0  0  0
  3  4  1  0  0  0  0
  3 26  1  0  0  0  0
  3 27  1  0  0  0  0
  4  9  1  0  0  0  0
  4  5  2  0  0  0  0
  5  6  1  0  0  0  0
  5 28  1  0  0  0  0
  6  7  2  0  0  0  0
  6 29  1  0  0  0  0
  7  8  1  0  0  0  0
  7 30  1  0  0  0  0
  8  9  2  0  0  0  0
  8 31  1  0  0  0  0
  9 32  1  0  0  0  0
 10 11  1  0  0  0  0
 10 33  1  0  0  0  0
 10 34  1  0  0  0  0
 11 12  1  0  0  0  0
 11 13  1  0  0  0  0
 11 35  1  0  0  0  0
 12 36  1  0  0  0  0
 13 14  1  0  0  0  0
 13 37  1  0  0  0  0
 13 38  1  0  0  0  0
 14 22  1  0  0  0  0
 14 15  1  0  0  0  0
 15 16  2  0  0  0  0
 15 39  1  0  0  0  0
 16 17  1  0  0  0  0
 17 22  2  0  0  0  0
 17 18  1  0  0  0  0
 18 19  2  0  0  0  0
 18 40  1  0  0  0  0
 19 20  1  0  0  0  0
 19 41  1  0  0  0  0
 20 21  2  0  0  0  0
 20 42  1  0  0  0  0
 21 22  1  0  0  0  0
 21 43  1  0  0  0  0
M  END
> <s_m_source_file>
AV-unprocessed.smi

> <i_m_source_file_index>
1019

> <i_lp_mmshare_version>
43012

> <i_f3d_flags>
0

> <s_epik_input>
W2NIXTFbY0hdW2NIXVtjSF1bY0hdYzFbQ0gyXU4oW0NIM10pW0NIMl1bQ0BIXShbT0hdKVtDSDJdbihbY0hdbjIpYyhjMjMpW2NIXVtjSF1bY0hdW2NIXTM=

> <s_epik_cmdline>
J2VwaWtfcHl0aG9uJywgJy1waCcsICc3LjAnLCAnLXRuJywgJzgnLCAnLW1hJywgJzIwMCcsICctbWV0YWxfYmluZGluZycsICctaW1hZScsICc8aW5maWxlLm1hZT4nLCAnLW9tYWUnLCAnPG91dGZpbGUubWFlPic=

> <r_epik_Ionization_Penalty>
1.56741

> <r_epik_Ionization_Penalty_Charging>
0

> <r_epik_Ionization_Penalty_Neutral>
1.56741

> <r_epik_State_Penalty>
1.62466

> <r_epik_Charging_Adjusted_Penalty>
1.62466

> <i_epik_Tot_Q>
0

> <i_epik_Tot_abs_Q>
0

> <r_epik_Metal_State_Penalty>
1.58486

> <b_epik_Metal_Only>
0

> <s_lp_Force_Field>
OPLS_2005

> <r_lp_Energy>
24.0301

> <b_lp_Chiralities_Consistent>
1

> <s_lp_Variant>
AV-unprocessed.smi:1019-9

> <Gold.Version>
5.8.1

> <Gold.Id.Protein>
6NUR|6NUR_protein|mol2

> <Gold.PLP.Fitness>
51.2742

> <Gold.PLP.PLP>
-48.9802

> <Gold.PLP.part.hbond>
-1.0000

> <Gold.PLP.part.metal>
0.0000

> <Gold.PLP.part.buried>
-5.5437

> <Gold.PLP.part.nonpolar>
-42.7296

> <Gold.PLP.part.repulsive>
0.0445

> <Gold.PLP.ligand.clash>
0.0000

> <Gold.PLP.ligand.torsion>
0.4508

> <Gold.PLP.Chemscore.Hbond>
1.0000

> <Gold.PLP.Chemscore.CHOScore>
0.0000

> <Gold.PLP.Chemscore.Metal>
0.0000

> <Gold.Chemscore.Hbonds>
donor molecule, donor type, donor heavy atom, donor atom, acceptor molecule, acceptor atom, score
      P1  H  7997  8009       L1    12  0.85

> <Gold.PLP.Chemscore.Internal.Correction>
0.1956

> <Gold.Rescore>
     Score         DG    S(hbond)    S(metal)    S(lipo)     H(rot)  DE(clash)    DE(int)     intcor
     19.42     -20.39       0.99        0.00     148.70       2.27       0.04       0.93       ----

> <Gold.Chemscore.Fitness>
19.4151

> <Gold.Chemscore.DG>
-20.3938

> <Gold.Chemscore.ZeroCoef>
-5.4800

> <Gold.Chemscore.Hbond>
0.9937

> <Gold.Chemscore.Metal>
0.0000

> <Gold.Chemscore.Lipo>
148.6969

> <Gold.Chemscore.Internal_Hbond>
0.0000

> <Gold.Chemscore.DEClash>
0.0446

> <Gold.Chemscore.DEInternal>
0.9340

> <Gold.Chemscore.Rot>
2.2667

> <Gold.Chemscore.Internal.Correction>
   9.000000E+99

> <Gold.Chemscore.Hbonds>
donor molecule, donor type, donor heavy atom, donor atom, acceptor molecule, acceptor atom, score
      P1  H  7997  8009       L1    12  0.15

> <Gold.Chemscore.Hbond.Weighted>
-3.3191

> <Gold.Chemscore.Metal.Weighted>
-0.0000

> <Gold.Chemscore.Lipo.Weighted>
-17.3975

> <Gold.Chemscore.Internal_Hbond.Weighted>
0.0000

> <Gold.Chemscore.DEClash.Weighted>
0.0446

> <Gold.Chemscore.DEInternal.Weighted>
0.9340

> <Gold.Chemscore.Rot.Weighted>
5.8028

> <Gold.Chemscore.Internal.Correction.Weighted>
   9.000000E+99

> <Gold.Protein.RotatedTorsions>
[ 6907 6896 6895 6894 ] final    1.63 input  -60.11 | X-H torsion
[ 7974 7965 7964 7962 ] final   38.76 input  175.53 | X-H torsion
[ 8008 7997 7996 7995 ] final   88.92 input   59.86 | X-H torsion
[ 10167 10162 10161 10158 ] final    9.11 input  -65.29 | X-H torsion
[ 10718 10713 10712 10709 ] final -152.31 input   66.30 | X-H torsion
[ 10763 10752 10751 10750 ] final -169.80 input  -60.55 | X-H torsion
[ 11005 11000 10999 10996 ] final  -64.96 input  -57.11 | X-H torsion

> <Gold.Protein.ActiveResidues>
 VAL166  LYS551  ARG553  GLY616  TRP617  ASP618  TYR619  PRO620  LYS621  CYS622 
 ASP623  PHE694  ASN695  SER759  ASP760  ASP761  ALA762  ILE779  LEU786  VAL792 
 PHE793  MET794  SER795  GLU796  ALA797  LYS798  CYS799  TRP800  GLU811  SER814 

> <Gold.Protein.RotatedAtoms>
  151.5957  135.1050  160.0048 H   0  0  0  0  0  0  0  0  0  0  0  0  # atno 6907 bound_to 6896
  152.4283  133.7229  159.6554 H   0  0  0  0  0  0  0  0  0  0  0  0  # atno 6908 bound_to 6896
  150.8174  133.8242  159.3177 H   0  0  0  0  0  0  0  0  0  0  0  0  # atno 6909 bound_to 6896
  146.1037  139.5733  142.9397 H   0  0  0  0  0  0  0  0  0  0  0  0  # atno 7974 bound_to 7965
  155.9936  140.3366  155.6777 H   0  0  0  0  0  0  0  0  0  0  0  0  # atno 8008 bound_to 7997
  155.6387  140.0693  157.2643 H   0  0  0  0  0  0  0  0  0  0  0  0  # atno 8009 bound_to 7997
  154.4227  140.1746  156.1537 H   0  0  0  0  0  0  0  0  0  0  0  0  # atno 8010 bound_to 7997
  140.6274  143.8069  150.7251 H   0  0  0  0  0  0  0  0  0  0  0  0  # atno 10167 bound_to 10162
  156.4707  130.8257  151.2487 H   0  0  0  0  0  0  0  0  0  0  0  0  # atno 10718 bound_to 10713
  154.6484  135.2908  155.0017 H   0  0  0  0  0  0  0  0  0  0  0  0  # atno 10763 bound_to 10752
  154.1119  135.6561  153.4890 H   0  0  0  0  0  0  0  0  0  0  0  0  # atno 10764 bound_to 10752
  153.0363  135.5267  154.7381 H   0  0  0  0  0  0  0  0  0  0  0  0  # atno 10765 bound_to 10752
  141.1440  133.6674  156.5913 H   0  0  0  0  0  0  0  0  0  0  0  0  # atno 11005 bound_to 11000
  145.5803  141.0383  143.2126 LP  0  0  0  0  0  0  0  0  0  0  0  0  # atno 17320 bound_to 7965
  144.7453  139.7336  143.7294 LP  0  0  0  0  0  0  0  0  0  0  0  0  # atno 17321 bound_to 7965
  140.1673  143.4224  152.2025 LP  0  0  0  0  0  0  0  0  0  0  0  0  # atno 17342 bound_to 10162
  139.5493  144.7324  151.4485 LP  0  0  0  0  0  0  0  0  0  0  0  0  # atno 17343 bound_to 10162
  157.7491  131.0077  150.3200 LP  0  0  0  0  0  0  0  0  0  0  0  0  # atno 17370 bound_to 10713
  156.3621  130.3849  149.7243 LP  0  0  0  0  0  0  0  0  0  0  0  0  # atno 17371 bound_to 10713
  140.3761  134.7564  157.4630 LP  0  0  0  0  0  0  0  0  0  0  0  0  # atno 17394 bound_to 11000
  140.0673  134.5911  155.8680 LP  0  0  0  0  0  0  0  0  0  0  0  0  # atno 17395 bound_to 11000

$$$$
