AV-unprocessed.smi:20|AV-procd|sdf|114|dock5
  -GOLD-   2262015283D 1   1.00000     0.00000
 Structure written by MMmdl.
 57 61  0  0  0  0  0  0  0  0  1 V2000
  150.1755  131.2490  160.5605 O   0  0  0  0  0  0  0  0  0  0  0  0
  149.1664  131.9159  160.7755 C   0  0  0  0  0  0  0  0  0  0  0  0
  149.1449  133.1579  161.6503 C   0  0  0  0  0  0  0  0  0  0  0  0
  147.7973  133.8243  161.2856 C   0  0  1  0  0  0  0  0  0  0  0  0
  147.1064  134.5062  162.4890 C   0  0  0  0  0  0  0  0  0  0  0  0
  147.8662  135.7660  162.9370 C   0  0  0  0  0  0  0  0  0  0  0  0
  148.0657  136.7385  161.7645 C   0  0  0  0  0  0  0  0  0  0  0  0
  148.6941  136.0551  160.6352 N   0  0  0  0  0  0  0  0  0  0  0  0
  149.2868  136.8067  159.6742 C   0  0  0  0  0  0  0  0  0  0  0  0
  150.5834  137.1911  159.8171 N   0  0  0  0  0  0  0  0  0  0  0  0
  151.1716  137.9419  158.8809 C   0  0  0  0  0  0  0  0  0  0  0  0
  150.6573  138.4116  157.7427 N   0  0  0  0  0  0  0  0  0  0  0  0
  149.3599  138.0213  157.5899 C   0  0  0  0  0  0  0  0  0  0  0  0
  148.6054  137.2247  158.4962 C   0  0  0  0  0  0  0  0  0  0  0  0
  147.3248  137.0221  157.9936 N   0  0  0  0  0  0  0  0  0  0  0  0
  147.3189  137.6721  156.8618 C   0  0  0  0  0  0  0  0  0  0  0  0
  148.4985  138.3077  156.5466 N   0  0  0  0  0  0  0  0  0  0  0  0
  148.7728  139.1032  155.3636 C   0  0  0  0  0  0  0  0  0  0  0  0
  147.9981  140.4445  155.3419 C   0  0  2  0  0  0  0  0  0  0  0  0
  147.7387  140.9595  153.9050 C   0  0  0  0  0  0  0  0  0  0  0  0
  148.9475  141.2540  153.2351 O   0  0  0  0  0  0  0  0  0  0  0  0
  148.6754  141.5120  156.2378 C   0  0  2  0  0  0  0  0  0  0  0  0
  150.1488  141.7418  155.9490 C   0  0  0  0  0  0  0  0  0  0  0  0
  150.6236  142.4300  157.2236 C   0  0  0  0  0  0  0  0  0  0  0  0
  149.8362  141.8781  158.2722 O   0  0  0  0  0  0  0  0  0  0  0  0
  148.7377  141.1537  157.7269 C   0  0  0  0  0  0  0  0  0  0  0  0
  147.9888  134.8668  160.1549 C   0  0  0  0  0  0  0  0  0  0  0  0
  146.9658  132.6355  160.7510 C   0  0  0  0  0  0  0  0  0  0  0  0
  147.9495  131.6725  160.2936 N   0  0  0  0  0  0  0  0  0  0  0  0
  149.1730  132.8464  162.6952 H   0  0  0  0  0  0  0  0  0  0  0  0
  150.0089  133.7957  161.4615 H   0  0  0  0  0  0  0  0  0  0  0  0
  146.0886  134.7851  162.2125 H   0  0  0  0  0  0  0  0  0  0  0  0
  147.0159  133.8102  163.3237 H   0  0  0  0  0  0  0  0  0  0  0  0
  147.3259  136.2618  163.7437 H   0  0  0  0  0  0  0  0  0  0  0  0
  148.8375  135.4834  163.3449 H   0  0  0  0  0  0  0  0  0  0  0  0
  147.1047  137.1456  161.4479 H   0  0  0  0  0  0  0  0  0  0  0  0
  148.6817  137.5776  162.0908 H   0  0  0  0  0  0  0  0  0  0  0  0
  152.2014  138.2052  159.0721 H   0  0  0  0  0  0  0  0  0  0  0  0
  146.4467  137.7122  156.2254 H   0  0  0  0  0  0  0  0  0  0  0  0
  149.8481  139.2778  155.3280 H   0  0  0  0  0  0  0  0  0  0  0  0
  148.5273  138.5095  154.4822 H   0  0  0  0  0  0  0  0  0  0  0  0
  147.0158  140.2467  155.7733 H   0  0  0  0  0  0  0  0  0  0  0  0
  147.1850  140.2249  153.3200 H   0  0  0  0  0  0  0  0  0  0  0  0
  147.1192  141.8560  153.9186 H   0  0  0  0  0  0  0  0  0  0  0  0
  149.1893  140.5067  152.7095 H   0  0  0  0  0  0  0  0  0  0  0  0
  148.1535  142.4646  156.1316 H   0  0  0  0  0  0  0  0  0  0  0  0
  150.6668  140.7898  155.8234 H   0  0  0  0  0  0  0  0  0  0  0  0
  150.3260  142.3473  155.0598 H   0  0  0  0  0  0  0  0  0  0  0  0
  151.6887  142.2856  157.4045 H   0  0  0  0  0  0  0  0  0  0  0  0
  150.4302  143.5021  157.1716 H   0  0  0  0  0  0  0  0  0  0  0  0
  147.8130  141.3945  158.2516 H   0  0  0  0  0  0  0  0  0  0  0  0
  148.9333  140.0890  157.8615 H   0  0  0  0  0  0  0  0  0  0  0  0
  148.5003  134.4094  159.3086 H   0  0  0  0  0  0  0  0  0  0  0  0
  147.0158  135.1873  159.7800 H   0  0  0  0  0  0  0  0  0  0  0  0
  146.3743  132.1721  161.5422 H   0  0  0  0  0  0  0  0  0  0  0  0
  146.2846  132.9192  159.9481 H   0  0  0  0  0  0  0  0  0  0  0  0
  147.7201  130.8987  159.6868 H   0  0  0  0  0  0  0  0  0  0  0  0
  1  2  2  0  0  0  0
  2 29  1  0  0  0  0
  2  3  1  0  0  0  0
  3  4  1  0  0  0  0
  3 30  1  0  0  0  0
  3 31  1  0  0  0  0
  4 27  1  0  0  0  0
  4  5  1  0  0  0  0
  4 28  1  0  0  0  0
  5  6  1  0  0  0  0
  5 32  1  0  0  0  0
  5 33  1  0  0  0  0
  6  7  1  0  0  0  0
  6 34  1  0  0  0  0
  6 35  1  0  0  0  0
  7  8  1  0  0  0  0
  7 36  1  0  0  0  0
  7 37  1  0  0  0  0
  8  9  1  0  0  0  0
  8 27  1  0  0  0  0
  9 14  1  0  0  0  0
  9 10  2  0  0  0  0
 10 11  1  0  0  0  0
 11 12  2  0  0  0  0
 11 38  1  0  0  0  0
 12 13  1  0  0  0  0
 13 17  1  0  0  0  0
 13 14  2  0  0  0  0
 14 15  1  0  0  0  0
 15 16  2  0  0  0  0
 16 17  1  0  0  0  0
 16 39  1  0  0  0  0
 17 18  1  0  0  0  0
 18 19  1  0  0  0  0
 18 40  1  0  0  0  0
 18 41  1  0  0  0  0
 19 20  1  0  0  0  0
 19 22  1  0  0  0  0
 19 42  1  0  0  0  0
 20 21  1  0  0  0  0
 20 43  1  0  0  0  0
 20 44  1  0  0  0  0
 21 45  1  0  0  0  0
 22 26  1  0  0  0  0
 22 23  1  0  0  0  0
 22 46  1  0  0  0  0
 23 24  1  0  0  0  0
 23 47  1  0  0  0  0
 23 48  1  0  0  0  0
 24 25  1  0  0  0  0
 24 49  1  0  0  0  0
 24 50  1  0  0  0  0
 25 26  1  0  0  0  0
 26 51  1  0  0  0  0
 26 52  1  0  0  0  0
 27 53  1  0  0  0  0
 27 54  1  0  0  0  0
 28 29  1  0  0  0  0
 28 55  1  0  0  0  0
 28 56  1  0  0  0  0
 29 57  1  0  0  0  0
M  END
> <s_m_source_file>
AV-unprocessed.smi

> <i_m_source_file_index>
20

> <i_lp_mmshare_version>
43012

> <i_f3d_flags>
0

> <s_epik_input>
W0NIMl0xW05IXUMoPU8pW0NIMl1bQ0BAXTEyW0NIMl1bQ0gyXVtDSDJdTihbQ0gyXTIpYyhuW2NIXW4zKWMoYzM0KW5bY0hdbjRbQ0gyXVtDQEhdKFtDSDJdW09IXSlbQ0BASF01W0NIMl1bQ0gyXU9bQ0gyXTU=

> <s_epik_cmdline>
J2VwaWtfcHl0aG9uJywgJy1waCcsICc3LjAnLCAnLXRuJywgJzgnLCAnLW1hJywgJzIwMCcsICctbWV0YWxfYmluZGluZycsICctaW1hZScsICc8aW5maWxlLm1hZT4nLCAnLW9tYWUnLCAnPG91dGZpbGUubWFlPic=

> <r_lp_tautomer_probability>
1

> <r_epik_Ionization_Penalty>
0.0019697

> <r_epik_Ionization_Penalty_Charging>
0

> <r_epik_Ionization_Penalty_Neutral>
0.0019697

> <r_epik_State_Penalty>
0.00113613

> <r_epik_Charging_Adjusted_Penalty>
0.00113613

> <i_epik_Tot_Q>
0

> <i_epik_Tot_abs_Q>
0

> <r_epik_Metal_State_Penalty>
-0

> <b_epik_Metal_Only>
0

> <s_lp_Force_Field>
OPLS_2005

> <r_lp_Energy>
58.2949

> <b_lp_Chiralities_Consistent>
1

> <s_lp_Variant>
AV-unprocessed.smi:20-2

> <Gold.Version>
5.8.1

> <Gold.Id.Protein>
6NUR|6NUR_protein|mol2

> <Gold.PLP.Fitness>
46.6420

> <Gold.PLP.PLP>
-39.4499

> <Gold.PLP.part.hbond>
-4.2006

> <Gold.PLP.part.metal>
0.0000

> <Gold.PLP.part.buried>
-6.0464

> <Gold.PLP.part.nonpolar>
-30.1423

> <Gold.PLP.part.repulsive>
0.0300

> <Gold.PLP.ligand.clash>
0.0000

> <Gold.PLP.ligand.torsion>
0.8921

> <Gold.PLP.Chemscore.Hbond>
2.8000

> <Gold.PLP.Chemscore.CHOScore>
0.0000

> <Gold.PLP.Chemscore.Metal>
0.0000

> <Gold.Chemscore.Hbonds>
donor molecule, donor type, donor heavy atom, donor atom, acceptor molecule, acceptor atom, score
      L1  H    21    45       P1  7957  0.85
      P1  H  6896  6908       L1    10  0.01
      P1  H  8011  8017       L1    21  0.85

> <Gold.PLP.Chemscore.Internal.Correction>
0.5763

> <Gold.Rescore>
     Score         DG    S(hbond)    S(metal)    S(lipo)     H(rot)  DE(clash)    DE(int)     intcor
     13.18     -14.95       1.86        0.00      87.81       2.74       0.04       1.74       ----

> <Gold.Chemscore.Fitness>
13.1769

> <Gold.Chemscore.DG>
-14.9545

> <Gold.Chemscore.ZeroCoef>
-5.4800

> <Gold.Chemscore.Hbond>
1.8621

> <Gold.Chemscore.Metal>
0.0000

> <Gold.Chemscore.Lipo>
87.8069

> <Gold.Chemscore.Internal_Hbond>
0.0000

> <Gold.Chemscore.DEClash>
0.0387

> <Gold.Chemscore.DEInternal>
1.7389

> <Gold.Chemscore.Rot>
2.7415

> <Gold.Chemscore.Internal.Correction>
   9.000000E+99

> <Gold.Chemscore.Hbonds>
donor molecule, donor type, donor heavy atom, donor atom, acceptor molecule, acceptor atom, score
      L1  H    21    45       P1  7957  0.83
      P1  H  8011  8017       L1    21  0.14

> <Gold.Chemscore.Hbond.Weighted>
-6.2193

> <Gold.Chemscore.Metal.Weighted>
-0.0000

> <Gold.Chemscore.Lipo.Weighted>
-10.2734

> <Gold.Chemscore.Internal_Hbond.Weighted>
0.0000

> <Gold.Chemscore.DEClash.Weighted>
0.0387

> <Gold.Chemscore.DEInternal.Weighted>
1.7389

> <Gold.Chemscore.Rot.Weighted>
7.0182

> <Gold.Chemscore.Internal.Correction.Weighted>
   9.000000E+99

> <Gold.Protein.RotatedTorsions>
[ 6907 6896 6895 6894 ] final -167.53 input  -60.11 | X-H torsion
[ 7974 7965 7964 7962 ] final  -14.59 input  175.53 | X-H torsion
[ 8008 7997 7996 7995 ] final -115.87 input   59.86 | X-H torsion
[ 10167 10162 10161 10158 ] final  -53.26 input  -65.29 | X-H torsion
[ 10718 10713 10712 10709 ] final   54.46 input   66.30 | X-H torsion
[ 10763 10752 10751 10750 ] final  -62.71 input  -60.55 | X-H torsion
[ 11005 11000 10999 10996 ] final   84.91 input  -57.11 | X-H torsion

> <Gold.Protein.ActiveResidues>
 VAL166  LYS551  ARG553  GLY616  TRP617  ASP618  TYR619  PRO620  LYS621  CYS622 
 ASP623  PHE694  ASN695  SER759  ASP760  ASP761  ALA762  ILE779  LEU786  VAL792 
 PHE793  MET794  SER795  GLU796  ALA797  LYS798  CYS799  TRP800  GLU811  SER814 

> <Gold.Protein.RotatedAtoms>
  151.4610  133.3592  159.2808 H   0  0  0  0  0  0  0  0  0  0  0  0  # atno 6907 bound_to 6896
  150.9025  134.8440  159.7381 H   0  0  0  0  0  0  0  0  0  0  0  0  # atno 6908 bound_to 6896
  152.4887  134.4532  159.9633 H   0  0  0  0  0  0  0  0  0  0  0  0  # atno 6909 bound_to 6896
  146.2068  140.3370  142.8404 H   0  0  0  0  0  0  0  0  0  0  0  0  # atno 7974 bound_to 7965
  155.0588  140.0393  157.2569 H   0  0  0  0  0  0  0  0  0  0  0  0  # atno 8008 bound_to 7997
  154.7077  140.2686  155.6635 H   0  0  0  0  0  0  0  0  0  0  0  0  # atno 8009 bound_to 7997
  156.2780  140.2728  156.1708 H   0  0  0  0  0  0  0  0  0  0  0  0  # atno 8010 bound_to 7997
  140.6494  143.2556  151.4767 H   0  0  0  0  0  0  0  0  0  0  0  0  # atno 10167 bound_to 10162
  157.5259  130.8597  149.8621 H   0  0  0  0  0  0  0  0  0  0  0  0  # atno 10718 bound_to 10713
  154.3040  135.6229  153.5437 H   0  0  0  0  0  0  0  0  0  0  0  0  # atno 10763 bound_to 10752
  152.9837  135.5685  154.5252 H   0  0  0  0  0  0  0  0  0  0  0  0  # atno 10764 bound_to 10752
  154.4888  135.2866  155.1489 H   0  0  0  0  0  0  0  0  0  0  0  0  # atno 10765 bound_to 10752
  139.8986  134.8249  156.2509 H   0  0  0  0  0  0  0  0  0  0  0  0  # atno 11005 bound_to 11000
  144.8812  140.7403  143.5985 LP  0  0  0  0  0  0  0  0  0  0  0  0  # atno 17320 bound_to 7965
  145.3290  139.1765  143.4547 LP  0  0  0  0  0  0  0  0  0  0  0  0  # atno 17321 bound_to 7965
  139.5707  144.1934  152.1832 LP  0  0  0  0  0  0  0  0  0  0  0  0  # atno 17342 bound_to 10162
  140.1230  144.5356  150.6851 LP  0  0  0  0  0  0  0  0  0  0  0  0  # atno 17343 bound_to 10162
  156.0387  130.3744  150.1493 LP  0  0  0  0  0  0  0  0  0  0  0  0  # atno 17370 bound_to 10713
  156.9679  130.9825  151.3465 LP  0  0  0  0  0  0  0  0  0  0  0  0  # atno 17371 bound_to 10713
  141.0224  133.7034  156.1291 LP  0  0  0  0  0  0  0  0  0  0  0  0  # atno 17394 bound_to 11000
  140.7214  134.4354  157.5574 LP  0  0  0  0  0  0  0  0  0  0  0  0  # atno 17395 bound_to 11000

$$$$
