AV-unprocessed.smi:284|AV-procd|sdf|2158|dock1
  -GOLD-   2262021503D 1   1.00000     0.00000
 Structure written by MMmdl.
 60 62  0  0  0  0  0  0  0  0  1 V2000
  149.4843  134.0861  155.6043 C   0  0  0  0  0  0  0  0  0  0  0  0
  149.5219  135.5588  155.2279 C   0  0  0  0  0  0  0  0  0  0  0  0
  148.3956  136.2677  154.9842 C   0  0  0  0  0  0  0  0  0  0  0  0
  148.3960  137.6065  154.6403 N   0  0  0  0  0  0  0  0  0  0  0  0
  147.1093  138.3529  154.3797 C   0  0  1  0  0  0  0  0  0  0  0  0
  146.4819  137.9101  153.0624 C   0  0  0  0  0  0  0  0  0  0  0  0
  145.0194  138.1570  153.3575 C   0  0  1  0  0  0  0  0  0  0  0  0
  144.1824  137.4254  152.4843 O   0  0  0  0  0  0  0  0  0  0  0  0
  144.9048  137.7733  154.8445 C   0  0  1  0  0  0  0  0  0  0  0  0
  144.6062  136.2877  155.1355 C   0  0  0  0  0  0  0  0  0  0  0  0
  144.7494  136.0065  156.5124 O   0  0  0  0  0  0  0  0  0  0  0  0
  146.1907  138.0703  155.3950 O   0  0  0  0  0  0  0  0  0  0  0  0
  149.6195  138.2883  154.4892 C   0  0  0  0  0  0  0  0  0  0  0  0
  149.6447  139.4743  154.1515 O   0  0  0  0  0  0  0  0  0  0  0  0
  150.8152  137.5763  154.7336 N   0  0  0  0  0  0  0  0  0  0  0  0
  152.1018  138.2961  154.6023 C   0  0  0  0  0  0  0  0  0  0  0  0
  152.4600  139.1441  155.8328 C   0  0  0  0  0  0  0  0  0  0  0  0
  153.5380  138.9874  156.4078 O   0  0  0  0  0  0  0  0  0  0  0  0
  151.5364  140.0578  156.1823 N   0  0  0  0  0  0  0  0  0  0  0  0
  151.5520  140.9613  157.2789 C   0  0  0  0  0  0  0  0  0  0  0  0
  150.8434  142.1695  157.1336 C   0  0  0  0  0  0  0  0  0  0  0  0
  150.7906  143.1031  158.1863 C   0  0  0  0  0  0  0  0  0  0  0  0
  151.4390  142.8446  159.4191 C   0  0  0  0  0  0  0  0  0  0  0  0
  151.3983  143.8364  160.5975 C   0  0  0  0  0  0  0  0  0  0  0  0
  152.1996  143.2600  161.7832 C   0  0  0  0  0  0  0  0  0  0  0  0
  149.9637  144.1237  161.0957 C   0  0  0  0  0  0  0  0  0  0  0  0
  152.0202  145.1817  160.1679 C   0  0  0  0  0  0  0  0  0  0  0  0
  152.1355  141.6212  159.5612 C   0  0  0  0  0  0  0  0  0  0  0  0
  152.1907  140.6866  158.5098 C   0  0  0  0  0  0  0  0  0  0  0  0
  150.8282  136.2138  155.1217 C   0  0  0  0  0  0  0  0  0  0  0  0
  151.8922  135.6362  155.3526 O   0  0  0  0  0  0  0  0  0  0  0  0
  148.4628  133.7104  155.6727 H   0  0  0  0  0  0  0  0  0  0  0  0
  149.9628  133.9264  156.5714 H   0  0  0  0  0  0  0  0  0  0  0  0
  150.0101  133.4888  154.8586 H   0  0  0  0  0  0  0  0  0  0  0  0
  147.4502  135.7522  155.0593 H   0  0  0  0  0  0  0  0  0  0  0  0
  147.3345  139.4201  154.4182 H   0  0  0  0  0  0  0  0  0  0  0  0
  146.8724  138.4842  152.2216 H   0  0  0  0  0  0  0  0  0  0  0  0
  146.6775  136.8488  152.8989 H   0  0  0  0  0  0  0  0  0  0  0  0
  144.8053  139.2208  153.2432 H   0  0  0  0  0  0  0  0  0  0  0  0
  143.8613  138.0110  151.8152 H   0  0  0  0  0  0  0  0  0  0  0  0
  144.1632  138.3970  155.3456 H   0  0  0  0  0  0  0  0  0  0  0  0
  143.6096  136.0038  154.7968 H   0  0  0  0  0  0  0  0  0  0  0  0
  145.3168  135.6563  154.6012 H   0  0  0  0  0  0  0  0  0  0  0  0
  145.4026  136.5879  156.8712 H   0  0  0  0  0  0  0  0  0  0  0  0
  152.9280  137.6102  154.4100 H   0  0  0  0  0  0  0  0  0  0  0  0
  152.0874  138.9416  153.7222 H   0  0  0  0  0  0  0  0  0  0  0  0
  150.7485  140.1491  155.5575 H   0  0  0  0  0  0  0  0  0  0  0  0
  150.3361  142.3900  156.2056 H   0  0  0  0  0  0  0  0  0  0  0  0
  150.2379  144.0138  158.0171 H   0  0  0  0  0  0  0  0  0  0  0  0
  152.1768  143.9322  162.6417 H   0  0  0  0  0  0  0  0  0  0  0  0
  153.2480  143.1003  161.5312 H   0  0  0  0  0  0  0  0  0  0  0  0
  151.7905  142.3022  162.1069 H   0  0  0  0  0  0  0  0  0  0  0  0
  149.4705  143.2189  161.4530 H   0  0  0  0  0  0  0  0  0  0  0  0
  149.3449  144.5608  160.3110 H   0  0  0  0  0  0  0  0  0  0  0  0
  149.9691  144.8299  161.9268 H   0  0  0  0  0  0  0  0  0  0  0  0
  151.9839  145.9119  160.9772 H   0  0  0  0  0  0  0  0  0  0  0  0
  151.4864  145.6091  159.3183 H   0  0  0  0  0  0  0  0  0  0  0  0
  153.0665  145.0793  159.8800 H   0  0  0  0  0  0  0  0  0  0  0  0
  152.6326  141.3811  160.4891 H   0  0  0  0  0  0  0  0  0  0  0  0
  152.7154  139.7586  158.6772 H   0  0  0  0  0  0  0  0  0  0  0  0
  1  2  1  0  0  0  0
  1 32  1  0  0  0  0
  1 33  1  0  0  0  0
  1 34  1  0  0  0  0
  2 30  1  0  0  0  0
  2  3  2  0  0  0  0
  3  4  1  0  0  0  0
  3 35  1  0  0  0  0
  4  5  1  0  0  0  0
  4 13  1  0  0  0  0
  5 12  1  0  0  0  0
  5  6  1  0  0  0  0
  5 36  1  0  0  0  0
  6  7  1  0  0  0  0
  6 37  1  0  0  0  0
  6 38  1  0  0  0  0
  7  8  1  0  0  0  0
  7  9  1  0  0  0  0
  7 39  1  0  0  0  0
  8 40  1  0  0  0  0
  9 10  1  0  0  0  0
  9 12  1  0  0  0  0
  9 41  1  0  0  0  0
 10 11  1  0  0  0  0
 10 42  1  0  0  0  0
 10 43  1  0  0  0  0
 11 44  1  0  0  0  0
 13 14  2  0  0  0  0
 13 15  1  0  0  0  0
 15 16  1  0  0  0  0
 15 30  1  0  0  0  0
 16 17  1  0  0  0  0
 16 45  1  0  0  0  0
 16 46  1  0  0  0  0
 17 18  2  0  0  0  0
 17 19  1  0  0  0  0
 19 20  1  0  0  0  0
 19 47  1  0  0  0  0
 20 29  1  0  0  0  0
 20 21  2  0  0  0  0
 21 22  1  0  0  0  0
 21 48  1  0  0  0  0
 22 23  2  0  0  0  0
 22 49  1  0  0  0  0
 23 24  1  0  0  0  0
 23 28  1  0  0  0  0
 24 25  1  0  0  0  0
 24 26  1  0  0  0  0
 24 27  1  0  0  0  0
 25 50  1  0  0  0  0
 25 51  1  0  0  0  0
 25 52  1  0  0  0  0
 26 53  1  0  0  0  0
 26 54  1  0  0  0  0
 26 55  1  0  0  0  0
 27 56  1  0  0  0  0
 27 57  1  0  0  0  0
 27 58  1  0  0  0  0
 28 29  2  0  0  0  0
 28 59  1  0  0  0  0
 29 60  1  0  0  0  0
 30 31  2  0  0  0  0
M  END
> <s_m_source_file>
AV-unprocessed.smi

> <i_m_source_file_index>
284

> <i_lp_mmshare_version>
43012

> <i_f3d_flags>
0

> <s_epik_input>
W09IXVtDSDJdW0NAQEhdKE8xKVtDQEhdKFtPSF0pW0NIMl1bQ0BIXTFuKFtjSF1jMltDSDNdKWMoPU8pbihjMj1PKVtDSDJdQyg9TylbTkhdYzNbY0hdW2NIXWMoQyhbQ0gzXSkoW0NIM10pW0NIM10pW2NIXVtjSF0z

> <s_epik_cmdline>
J2VwaWtfcHl0aG9uJywgJy1waCcsICc3LjAnLCAnLXRuJywgJzgnLCAnLW1hJywgJzIwMCcsICctbWV0YWxfYmluZGluZycsICctaW1hZScsICc8aW5maWxlLm1hZT4nLCAnLW9tYWUnLCAnPG91dGZpbGUubWFlPic=

> <r_lp_tautomer_probability>
1

> <r_epik_Ionization_Penalty>
4.92358e-06

> <r_epik_Ionization_Penalty_Charging>
1.29777e-07

> <r_epik_Ionization_Penalty_Neutral>
4.79381e-06

> <r_epik_State_Penalty>
-0

> <r_epik_Charging_Adjusted_Penalty>
1.29777e-07

> <i_epik_Tot_Q>
0

> <i_epik_Tot_abs_Q>
0

> <r_epik_Metal_State_Penalty>
-0

> <b_epik_Metal_Only>
0

> <s_epik_Chemistry_Notes>
This compound contains an acetal/aminal-like group ( X-CH(R)-Y where X, Y are N, S, or O) that may be acid/base labile, releasing an aldehyde.

> <s_lp_Force_Field>
OPLS_2005

> <r_lp_Energy>
41.7726

> <b_lp_Chiralities_Consistent>
1

> <s_lp_Variant>
AV-unprocessed.smi:284-2

> <Gold.Version>
5.8.1

> <Gold.Id.Protein>
6NUR|6NUR_protein|mol2

> <Gold.PLP.Fitness>
50.7762

> <Gold.PLP.PLP>
-43.4974

> <Gold.PLP.part.hbond>
-3.6966

> <Gold.PLP.part.metal>
0.0000

> <Gold.PLP.part.buried>
-3.0831

> <Gold.PLP.part.nonpolar>
-37.5686

> <Gold.PLP.part.repulsive>
1.3833

> <Gold.PLP.ligand.clash>
0.0000

> <Gold.PLP.ligand.torsion>
0.8433

> <Gold.PLP.Chemscore.Hbond>
2.9440

> <Gold.PLP.Chemscore.CHOScore>
0.0000

> <Gold.PLP.Chemscore.Metal>
0.0000

> <Gold.Chemscore.Hbonds>
donor molecule, donor type, donor heavy atom, donor atom, acceptor molecule, acceptor atom, score
      L1  H     8    40       P1 10171  0.87
      P1  H  7997  8008       L1    18  0.60
      P1  H 10752 10764       L1    31  0.26

> <Gold.PLP.Chemscore.Internal.Correction>
0.1334

> <Gold.Rescore>
     Score         DG    S(hbond)    S(metal)    S(lipo)     H(rot)  DE(clash)    DE(int)     intcor
     16.40     -20.45       2.85        0.00     118.24       3.27       2.11       1.94       ----

> <Gold.Chemscore.Fitness>
16.3958

> <Gold.Chemscore.DG>
-20.4505

> <Gold.Chemscore.ZeroCoef>
-5.4800

> <Gold.Chemscore.Hbond>
2.8494

> <Gold.Chemscore.Metal>
0.0000

> <Gold.Chemscore.Lipo>
118.2359

> <Gold.Chemscore.Internal_Hbond>
0.0000

> <Gold.Chemscore.DEClash>
2.1139

> <Gold.Chemscore.DEInternal>
1.9408

> <Gold.Chemscore.Rot>
3.2735

> <Gold.Chemscore.Internal.Correction>
   9.000000E+99

> <Gold.Chemscore.Hbonds>
donor molecule, donor type, donor heavy atom, donor atom, acceptor molecule, acceptor atom, score
      L1  H     8    40       P1 10171  0.79
      P1  H  7989  7998       L1    14  0.01
      P1  H  7997  8008       L1    18  0.49
      P1  H 10752 10764       L1    31  0.27

> <Gold.Chemscore.Hbond.Weighted>
-9.5169

> <Gold.Chemscore.Metal.Weighted>
-0.0000

> <Gold.Chemscore.Lipo.Weighted>
-13.8336

> <Gold.Chemscore.Internal_Hbond.Weighted>
0.0000

> <Gold.Chemscore.DEClash.Weighted>
2.1139

> <Gold.Chemscore.DEInternal.Weighted>
1.9408

> <Gold.Chemscore.Rot.Weighted>
8.3801

> <Gold.Chemscore.Internal.Correction.Weighted>
   9.000000E+99

> <Gold.Protein.RotatedTorsions>
[ 6907 6896 6895 6894 ] final    1.97 input  -60.11 | X-H torsion
[ 7974 7965 7964 7962 ] final   -3.45 input  175.53 | X-H torsion
[ 8008 7997 7996 7995 ] final  -41.24 input   59.86 | X-H torsion
[ 10167 10162 10161 10158 ] final   88.50 input  -65.29 | X-H torsion
[ 10718 10713 10712 10709 ] final  -36.97 input   66.30 | X-H torsion
[ 10763 10752 10751 10750 ] final  -39.58 input  -60.55 | X-H torsion
[ 11005 11000 10999 10996 ] final   31.34 input  -57.11 | X-H torsion

> <Gold.Protein.ActiveResidues>
 VAL166  LYS551  ARG553  GLY616  TRP617  ASP618  TYR619  PRO620  LYS621  CYS622 
 ASP623  PHE694  ASN695  SER759  ASP760  ASP761  ALA762  ILE779  LEU786  VAL792 
 PHE793  MET794  SER795  GLU796  ALA797  LYS798  CYS799  TRP800  GLU811  SER814 

> <Gold.Protein.RotatedAtoms>
  151.6012  135.1047  160.0060 H   0  0  0  0  0  0  0  0  0  0  0  0  # atno 6907 bound_to 6896
  152.4256  133.7186  159.6531 H   0  0  0  0  0  0  0  0  0  0  0  0  # atno 6908 bound_to 6896
  150.8145  133.8289  159.3189 H   0  0  0  0  0  0  0  0  0  0  0  0  # atno 6909 bound_to 6896
  146.2389  140.1723  142.8332 H   0  0  0  0  0  0  0  0  0  0  0  0  # atno 7974 bound_to 7965
  154.4005  140.1504  156.3158 H   0  0  0  0  0  0  0  0  0  0  0  0  # atno 8008 bound_to 7997
  155.8574  140.3455  155.5712 H   0  0  0  0  0  0  0  0  0  0  0  0  # atno 8009 bound_to 7997
  155.7918  140.0857  157.1995 H   0  0  0  0  0  0  0  0  0  0  0  0  # atno 8010 bound_to 7997
  139.8667  144.6515  150.8996 H   0  0  0  0  0  0  0  0  0  0  0  0  # atno 10167 bound_to 10162
  156.3207  130.4265  149.7963 H   0  0  0  0  0  0  0  0  0  0  0  0  # atno 10718 bound_to 10713
  153.9317  135.6771  153.4745 H   0  0  0  0  0  0  0  0  0  0  0  0  # atno 10763 bound_to 10752
  153.0976  135.4843  154.8805 H   0  0  0  0  0  0  0  0  0  0  0  0  # atno 10764 bound_to 10752
  154.7424  135.3164  154.8661 H   0  0  0  0  0  0  0  0  0  0  0  0  # atno 10765 bound_to 10752
  140.2850  134.2930  155.7790 H   0  0  0  0  0  0  0  0  0  0  0  0  # atno 11005 bound_to 11000
  145.0001  140.8624  143.5287 LP  0  0  0  0  0  0  0  0  0  0  0  0  # atno 17320 bound_to 7965
  145.1742  139.2387  143.5326 LP  0  0  0  0  0  0  0  0  0  0  0  0  # atno 17321 bound_to 7965
  140.7767  143.3698  151.1670 LP  0  0  0  0  0  0  0  0  0  0  0  0  # atno 17342 bound_to 10162
  139.7322  143.9054  152.3023 LP  0  0  0  0  0  0  0  0  0  0  0  0  # atno 17343 bound_to 10162
  156.5272  130.8241  151.3224 LP  0  0  0  0  0  0  0  0  0  0  0  0  # atno 17370 bound_to 10713
  157.7411  130.9863  150.2422 LP  0  0  0  0  0  0  0  0  0  0  0  0  # atno 17371 bound_to 10713
  141.2156  133.7549  156.9538 LP  0  0  0  0  0  0  0  0  0  0  0  0  # atno 17394 bound_to 11000
  140.1248  134.9393  157.2255 LP  0  0  0  0  0  0  0  0  0  0  0  0  # atno 17395 bound_to 11000

$$$$
