#       Name:                AV-unprocessed.smi:739
#       Creating user name   scv26
#       Creation time:       Fri Mar 27 00:53:41 2020


#       File generated by GOLD software.
#

@<TRIPOS>MOLECULE
AV-unprocessed.smi:739
    35    37     1
SMALL
NO_CHARGES


@<TRIPOS>ATOM
      1 ****        -1.3372   3.0588  -1.5680 O.3            1 S1                 0.0000
      2 ****        -0.9010   1.7234  -1.4174 C.3            1 S1                 0.0000
      3 ****         0.6401   1.7187  -1.3808 C.3            1 S1                 0.0000
      4 ****         1.1875   0.3750  -1.4479 N.pl3          1 S1                 0.0000
      5 ****         1.4370  -0.3408  -2.5611 C.2            1 S1                 0.0000
      6 ****         1.9304  -1.5654  -2.4005 N.2            1 S1                 0.0000
      7 ****         2.0113  -1.6558  -1.0215 C.ar           1 S1                 0.0000
      8 ****         2.4541  -2.7145  -0.1968 C.ar           1 S1                 0.0000
      9 ****         2.4414  -2.5804   1.2072 C.ar           1 S1                 0.0000
     10 ****         2.8676  -3.6055   1.9826 F              1 S1                 0.0000
     11 ****         1.9877  -1.3867   1.8069 C.ar           1 S1                 0.0000
     12 ****         1.9763  -1.2670   3.1557 F              1 S1                 0.0000
     13 ****         1.5453  -0.3173   1.0054 C.ar           1 S1                 0.0000
     14 ****         1.5569  -0.4562  -0.3950 C.ar           1 S1                 0.0000
     15 ****        -1.5098   1.0532  -0.1932 C.ar           1 S1                 0.0000
     16 ****        -2.0151  -0.2615  -0.2882 C.ar           1 S1                 0.0000
     17 ****        -2.5507  -0.9004   0.8468 C.ar           1 S1                 0.0000
     18 ****        -2.5858  -0.2280   2.0834 C.ar           1 S1                 0.0000
     19 ****        -3.0980  -0.8434   3.1752 F              1 S1                 0.0000
     20 ****        -2.0854   1.0841   2.1843 C.ar           1 S1                 0.0000
     21 ****        -1.5488   1.7232   1.0497 C.ar           1 S1                 0.0000
     22 ****        -2.2740   3.0552  -1.6936 H              1 S1                 0.0000
     23 ****        -1.2349   1.1906  -2.3090 H              1 S1                 0.0000
     24 ****         1.0364   2.2812  -2.2276 H              1 S1                 0.0000
     25 ****         1.0110   2.2102  -0.4804 H              1 S1                 0.0000
     26 ****         1.2415   0.0590  -3.5455 H              1 S1                 0.0000
     27 ****         2.8027  -3.6333  -0.6445 H              1 S1                 0.0000
     28 ****         1.1960   0.5963   1.4628 H              1 S1                 0.0000
     29 ****        -1.9826  -0.7895  -1.2299 H              1 S1                 0.0000
     30 ****        -2.9316  -1.9080   0.7692 H              1 S1                 0.0000
     31 ****        -2.1092   1.5996   3.1331 H              1 S1                 0.0000
     32 ****        -1.1578   2.7262   1.1399 H              1 S1                 0.0000
     33 ****        -0.8918   3.4718  -2.3624 LP             1 S1                 0.0000
     34 ****        -1.1087   3.5830  -0.7477 LP             1 S1                 0.0000
     35 ****         2.1778  -2.2426  -3.0935 LP             1 S1                 0.0000
@<TRIPOS>BOND
    1    1    2 1     
    2    1   22 1     
    3    2    3 1     
    4    2   15 1     
    5    2   23 1     
    6    3    4 1     
    7    3   24 1     
    8    3   25 1     
    9    4   14 1     
   10    4    5 1     
   11    5    6 2     
   12    5   26 1     
   13    6    7 1     
   14    7   14 ar    
   15    7    8 ar    
   16    8    9 ar    
   17    8   27 1     
   18    9   10 1     
   19    9   11 ar    
   20   11   12 1     
   21   11   13 ar    
   22   13   14 ar    
   23   13   28 1     
   24   15   21 ar    
   25   15   16 ar    
   26   16   17 ar    
   27   16   29 1     
   28   17   18 ar    
   29   17   30 1     
   30   18   19 1     
   31   18   20 ar    
   32   20   21 ar    
   33   20   31 1     
   34   21   32 1     
   35    1   33 1     
   36    1   34 1     
   37    6   35 1     
@<TRIPOS>SUBSTRUCTURE
      1 S1             1
@<TRIPOS>SET
LONE_PAIRS      STATIC     ATOMS    <user>   **** ""
3 33 34 35
DONOR_HYDROGENS      STATIC     ATOMS    <user>   **** ""
1 22
ATOM$BLUE        STATIC     ATOMS    COLORGROUP SYSTEM
3 33 34 35
ATOM$RED        STATIC     ATOMS    COLORGROUP SYSTEM
1 22
