AV-unprocessed.smi:311|AV-procd|sdf|2300|dock9
  -GOLD-   2262022203D 1   1.00000     0.00000
 Structure written by MMmdl.
 44 46  0  0  0  0  0  0  0  0  2 V2000
  150.4191  130.6281  155.4255 C   0  0  0  0  0  0  0  0  0  0  0  0
  150.0764  131.9638  156.0208 C   0  0  0  0  0  0  0  0  0  0  0  0
  150.1942  132.1492  157.3248 N   0  0  0  0  0  0  0  0  0  0  0  0
  149.8021  133.4703  157.5613 O   0  0  0  0  0  0  0  0  0  0  0  0
  149.4620  134.0361  156.3757 C   0  0  0  0  0  0  0  0  0  0  0  0
  149.0024  135.4545  156.4201 C   0  0  0  0  0  0  0  0  0  0  0  0
  149.6124  133.1355  155.3568 C   0  0  0  0  0  0  0  0  0  0  0  0
  149.3497  133.3211  153.8839 C   0  0  0  0  0  0  0  0  0  0  0  0
  147.8440  133.3603  153.6217 C   0  0  0  0  0  0  0  0  0  0  0  0
  147.1257  132.4423  154.0156 O   0  0  0  0  0  0  0  0  0  0  0  0
  147.3808  134.4237  152.9452 N   0  0  0  0  0  0  0  0  0  0  0  0
  145.9806  134.6702  152.6085 C   0  0  1  0  0  0  0  0  0  0  0  0
  145.7703  135.9999  151.8593 C   0  0  0  0  0  0  0  0  0  0  0  0
  144.7350  135.6751  150.7775 C   0  0  0  0  0  0  0  0  0  0  0  0
  145.0461  134.2829  150.4338 N   0  3  2  0  0  0  0  0  0  0  0  0
  144.0953  133.5343  149.5867 C   0  0  0  0  0  0  0  0  0  0  0  0
  144.7305  132.1743  149.2239 C   0  0  0  0  0  0  0  0  0  0  0  0
  145.2231  131.4045  150.4706 C   0  0  0  0  0  0  0  0  0  0  0  0
  146.1093  132.2865  151.3770 C   0  0  0  0  0  0  0  0  0  0  0  0
  145.3546  133.5891  151.6963 C   0  0  1  0  0  0  0  0  0  0  0  0
  149.6390  130.2946  154.7408 H   0  0  0  0  0  0  0  0  0  0  0  0
  150.5342  129.8612  156.1925 H   0  0  0  0  0  0  0  0  0  0  0  0
  151.3526  130.6799  154.8651 H   0  0  0  0  0  0  0  0  0  0  0  0
  149.2815  135.9835  155.5089 H   0  0  0  0  0  0  0  0  0  0  0  0
  149.4460  135.9830  157.2642 H   0  0  0  0  0  0  0  0  0  0  0  0
  147.9183  135.5038  156.5210 H   0  0  0  0  0  0  0  0  0  0  0  0
  149.7955  134.2431  153.5092 H   0  0  0  0  0  0  0  0  0  0  0  0
  149.7935  132.5135  153.3000 H   0  0  0  0  0  0  0  0  0  0  0  0
  148.0490  135.1266  152.6638 H   0  0  0  0  0  0  0  0  0  0  0  0
  145.3988  134.7154  153.5315 H   0  0  0  0  0  0  0  0  0  0  0  0
  145.4455  136.8062  152.5178 H   0  0  0  0  0  0  0  0  0  0  0  0
  146.6993  136.3186  151.3835 H   0  0  0  0  0  0  0  0  0  0  0  0
  143.7234  135.7382  151.1821 H   0  0  0  0  0  0  0  0  0  0  0  0
  144.8058  136.3362  149.9131 H   0  0  0  0  0  0  0  0  0  0  0  0
  143.1497  133.3957  150.1131 H   0  0  0  0  0  0  0  0  0  0  0  0
  143.8824  134.1035  148.6811 H   0  0  0  0  0  0  0  0  0  0  0  0
  144.0180  131.5656  148.6662 H   0  0  0  0  0  0  0  0  0  0  0  0
  145.5760  132.3434  148.5559 H   0  0  0  0  0  0  0  0  0  0  0  0
  144.3604  131.0572  151.0405 H   0  0  0  0  0  0  0  0  0  0  0  0
  145.7694  130.5108  150.1671 H   0  0  0  0  0  0  0  0  0  0  0  0
  146.3500  131.7472  152.2936 H   0  0  0  0  0  0  0  0  0  0  0  0
  147.0542  132.5058  150.8779 H   0  0  0  0  0  0  0  0  0  0  0  0
  144.4036  133.3165  152.1593 H   0  0  0  0  0  0  0  0  0  0  0  0
  145.9147  134.3229  149.9199 H   0  0  0  0  0  0  0  0  0  0  0  0
  1  2  1  0  0  0  0
  1 21  1  0  0  0  0
  1 22  1  0  0  0  0
  1 23  1  0  0  0  0
  2  7  1  0  0  0  0
  2  3  2  0  0  0  0
  3  4  1  0  0  0  0
  4  5  1  0  0  0  0
  5  6  1  0  0  0  0
  5  7  2  0  0  0  0
  6 24  1  0  0  0  0
  6 25  1  0  0  0  0
  6 26  1  0  0  0  0
  7  8  1  0  0  0  0
  8  9  1  0  0  0  0
  8 27  1  0  0  0  0
  8 28  1  0  0  0  0
  9 10  2  0  0  0  0
  9 11  1  0  0  0  0
 11 12  1  0  0  0  0
 11 29  1  0  0  0  0
 12 20  1  0  0  0  0
 12 13  1  0  0  0  0
 12 30  1  0  0  0  0
 13 14  1  0  0  0  0
 13 31  1  0  0  0  0
 13 32  1  0  0  0  0
 14 15  1  0  0  0  0
 14 33  1  0  0  0  0
 14 34  1  0  0  0  0
 15 20  1  0  0  0  0
 15 16  1  0  0  0  0
 15 44  1  0  0  0  0
 16 17  1  0  0  0  0
 16 35  1  0  0  0  0
 16 36  1  0  0  0  0
 17 18  1  0  0  0  0
 17 37  1  0  0  0  0
 17 38  1  0  0  0  0
 18 19  1  0  0  0  0
 18 39  1  0  0  0  0
 18 40  1  0  0  0  0
 19 20  1  0  0  0  0
 19 41  1  0  0  0  0
 19 42  1  0  0  0  0
 20 43  1  0  0  0  0
M  CHG  1  15   1
M  END
> <s_m_source_file>
AV-unprocessed.smi

> <i_m_source_file_index>
311

> <i_lp_mmshare_version>
43012

> <i_f3d_flags>
0

> <s_epik_input>
W0NIM11jMW5vYyhbQ0gzXSljMVtDSDJdQyg9TylbTkhdW0NASF0oW0NIMl1bQ0gyXTIpW0NAQEhdKE4yMylbQ0gyXVtDSDJdW0NIMl1bQ0gyXTM=

> <s_epik_cmdline>
J2VwaWtfcHl0aG9uJywgJy1waCcsICc3LjAnLCAnLXRuJywgJzgnLCAnLW1hJywgJzIwMCcsICctbWV0YWxfYmluZGluZycsICctaW1hZScsICc8aW5maWxlLm1hZT4nLCAnLW9tYWUnLCAnPG91dGZpbGUubWFlPic=

> <r_epik_Ionization_Penalty>
0.00173669

> <r_epik_Ionization_Penalty_Charging>
0.0017366

> <r_epik_Ionization_Penalty_Neutral>
9.2145e-08

> <r_epik_State_Penalty>
0.00117499

> <r_epik_Charging_Adjusted_Penalty>
0.00291159

> <i_epik_Tot_Q>
1

> <i_epik_Tot_abs_Q>
1

> <r_epik_Metal_State_Penalty>
-0

> <b_epik_Metal_Only>
0

> <s_lp_Force_Field>
OPLS_2005

> <r_lp_Energy>
35.4626

> <b_lp_Chiralities_Consistent>
1

> <s_lp_Variant>
AV-unprocessed.smi:311-4

> <Gold.Version>
5.8.1

> <Gold.Id.Protein>
6NUR|6NUR_protein|mol2

> <Gold.PLP.Fitness>
38.7164

> <Gold.PLP.PLP>
-32.6779

> <Gold.PLP.part.hbond>
-2.8418

> <Gold.PLP.part.metal>
0.0000

> <Gold.PLP.part.buried>
-1.4800

> <Gold.PLP.part.nonpolar>
-28.8790

> <Gold.PLP.part.repulsive>
0.1081

> <Gold.PLP.ligand.clash>
0.0000

> <Gold.PLP.ligand.torsion>
0.1915

> <Gold.PLP.Chemscore.Hbond>
2.1404

> <Gold.PLP.Chemscore.CHOScore>
0.0000

> <Gold.PLP.Chemscore.Metal>
0.0000

> <Gold.Chemscore.Hbonds>
donor molecule, donor type, donor heavy atom, donor atom, acceptor molecule, acceptor atom, score
      L1  H    11    29       P1  7948  1.00
      L1  H    15    44       P1  7921  0.12
      P1  H  6896  6909       L1     4  0.65

> <Gold.PLP.Chemscore.Internal.Correction>
0.0004

> <Gold.Rescore>
     Score         DG    S(hbond)    S(metal)    S(lipo)     H(rot)  DE(clash)    DE(int)     intcor
     16.95     -18.54       1.88        0.00      87.56       1.36       0.15       1.45       ----

> <Gold.Chemscore.Fitness>
16.9463

> <Gold.Chemscore.DG>
-18.5441

> <Gold.Chemscore.ZeroCoef>
-5.4800

> <Gold.Chemscore.Hbond>
1.8839

> <Gold.Chemscore.Metal>
0.0000

> <Gold.Chemscore.Lipo>
87.5626

> <Gold.Chemscore.Internal_Hbond>
0.0000

> <Gold.Chemscore.DEClash>
0.1490

> <Gold.Chemscore.DEInternal>
1.4488

> <Gold.Chemscore.Rot>
1.3567

> <Gold.Chemscore.Internal.Correction>
   9.000000E+99

> <Gold.Chemscore.Hbonds>
donor molecule, donor type, donor heavy atom, donor atom, acceptor molecule, acceptor atom, score
      L1  H    11    29       P1  7948  0.95
      L1  H    15    44       P1  7921  0.06
      P1  H  6896  6909       L1     4  0.05

> <Gold.Chemscore.Hbond.Weighted>
-6.2924

> <Gold.Chemscore.Metal.Weighted>
-0.0000

> <Gold.Chemscore.Lipo.Weighted>
-10.2448

> <Gold.Chemscore.Internal_Hbond.Weighted>
0.0000

> <Gold.Chemscore.DEClash.Weighted>
0.1490

> <Gold.Chemscore.DEInternal.Weighted>
1.4488

> <Gold.Chemscore.Rot.Weighted>
3.4731

> <Gold.Chemscore.Internal.Correction.Weighted>
   9.000000E+99

> <Gold.Protein.RotatedTorsions>
[ 6907 6896 6895 6894 ] final  -13.91 input  -60.11 | X-H torsion
[ 7974 7965 7964 7962 ] final   -3.09 input  175.53 | X-H torsion
[ 8008 7997 7996 7995 ] final  123.55 input   59.86 | X-H torsion
[ 10167 10162 10161 10158 ] final  -46.68 input  -65.29 | X-H torsion
[ 10718 10713 10712 10709 ] final  -58.83 input   66.30 | X-H torsion
[ 10763 10752 10751 10750 ] final  151.66 input  -60.55 | X-H torsion
[ 11005 11000 10999 10996 ] final  -93.91 input  -57.11 | X-H torsion

> <Gold.Protein.ActiveResidues>
 VAL166  LYS551  ARG553  GLY616  TRP617  ASP618  TYR619  PRO620  LYS621  CYS622 
 ASP623  PHE694  ASN695  SER759  ASP760  ASP761  ALA762  ILE779  LEU786  VAL792 
 PHE793  MET794  SER795  GLU796  ALA797  LYS798  CYS799  TRP800  GLU811  SER814 

> <Gold.Protein.RotatedAtoms>
  151.3475  135.0877  159.9391 H   0  0  0  0  0  0  0  0  0  0  0  0  # atno 6907 bound_to 6896
  152.5196  133.9385  159.7625 H   0  0  0  0  0  0  0  0  0  0  0  0  # atno 6908 bound_to 6896
  150.9754  133.6246  159.2760 H   0  0  0  0  0  0  0  0  0  0  0  0  # atno 6909 bound_to 6896
  146.2395  140.1668  142.8332 H   0  0  0  0  0  0  0  0  0  0  0  0  # atno 7974 bound_to 7965
  156.2770  140.2760  156.1646 H   0  0  0  0  0  0  0  0  0  0  0  0  # atno 8008 bound_to 7997
  155.0718  140.0387  157.2629 H   0  0  0  0  0  0  0  0  0  0  0  0  # atno 8009 bound_to 7997
  154.7034  140.2654  155.6703 H   0  0  0  0  0  0  0  0  0  0  0  0  # atno 8010 bound_to 7997
  140.6807  143.2819  151.3817 H   0  0  0  0  0  0  0  0  0  0  0  0  # atno 10167 bound_to 10162
  156.1106  130.4175  150.0631 H   0  0  0  0  0  0  0  0  0  0  0  0  # atno 10718 bound_to 10713
  154.1074  135.2841  155.3238 H   0  0  0  0  0  0  0  0  0  0  0  0  # atno 10763 bound_to 10752
  154.6513  135.5368  153.7909 H   0  0  0  0  0  0  0  0  0  0  0  0  # atno 10764 bound_to 10752
  153.0357  135.6511  154.1234 H   0  0  0  0  0  0  0  0  0  0  0  0  # atno 10765 bound_to 10752
  141.1484  133.7920  157.0225 H   0  0  0  0  0  0  0  0  0  0  0  0  # atno 11005 bound_to 11000
  145.0044  140.8660  143.5262 LP  0  0  0  0  0  0  0  0  0  0  0  0  # atno 17320 bound_to 7965
  145.1692  139.2414  143.5351 LP  0  0  0  0  0  0  0  0  0  0  0  0  # atno 17321 bound_to 7965
  139.6128  144.1063  152.2316 LP  0  0  0  0  0  0  0  0  0  0  0  0  # atno 17342 bound_to 10162
  140.0483  144.5953  150.7356 LP  0  0  0  0  0  0  0  0  0  0  0  0  # atno 17343 bound_to 10162
  156.8595  130.9487  151.3619 LP  0  0  0  0  0  0  0  0  0  0  0  0  # atno 17370 bound_to 10713
  157.6287  130.8712  149.9235 LP  0  0  0  0  0  0  0  0  0  0  0  0  # atno 17371 bound_to 10713
  140.0806  134.9650  157.1618 LP  0  0  0  0  0  0  0  0  0  0  0  0  # atno 17394 bound_to 11000
  140.3582  134.2523  155.7190 LP  0  0  0  0  0  0  0  0  0  0  0  0  # atno 17395 bound_to 11000

$$$$
