AV-unprocessed.smi:1430|AV-procd|sdf|5824|dock9
  -GOLD-   22720 5483D 1   1.00000     0.00000
 Structure written by MMmdl.
 46 47  0  0  0  0  0  0  0  0  1 V2000
  143.5530  132.4071  150.5643 C   0  0  0  0  0  0  0  0  0  0  0  0
  144.5858  132.7453  151.4835 O   0  0  0  0  0  0  0  0  0  0  0  0
  144.7323  134.0686  151.8460 C   0  0  0  0  0  0  0  0  0  0  0  0
  143.6125  134.9192  151.7592 C   0  0  0  0  0  0  0  0  0  0  0  0
  143.7526  136.2711  152.1275 C   0  0  0  0  0  0  0  0  0  0  0  0
  145.0166  136.7336  152.5663 C   0  0  0  0  0  0  0  0  0  0  0  0
  145.2902  138.0656  152.9817 N   0  0  0  0  0  0  0  0  0  0  0  0
  146.2929  138.5224  153.7518 C   0  0  0  0  0  0  0  0  0  0  0  0
  147.1726  137.8315  154.2648 O   0  0  0  0  0  0  0  0  0  0  0  0
  146.2114  139.8511  153.9108 N   0  0  0  0  0  0  0  0  0  0  0  0
  147.1378  140.6602  154.6933 C   0  0  0  0  0  0  0  0  0  0  0  0
  148.5540  140.6310  154.0888 C   0  0  0  0  0  0  0  0  0  0  0  0
  149.6132  140.2392  155.0171 N   0  0  0  0  0  0  0  0  0  0  0  0
  150.2086  141.3829  155.7053 C   0  0  0  0  0  0  0  0  0  0  0  0
  151.3527  140.9786  156.6573 C   0  0  1  0  0  0  0  0  0  0  0  0
  150.8604  140.3071  157.9506 C   0  0  0  0  0  0  0  0  0  0  0  0
  152.3095  140.1695  155.9713 O   0  0  0  0  0  0  0  0  0  0  0  0
  151.7712  139.0383  155.2893 C   0  0  2  0  0  0  0  0  0  0  0  0
  152.9170  138.3356  154.5539 C   0  0  0  0  0  0  0  0  0  0  0  0
  150.6644  139.5032  154.3264 C   0  0  0  0  0  0  0  0  0  0  0  0
  146.0704  135.7982  152.6271 C   0  0  0  0  0  0  0  0  0  0  0  0
  145.9430  134.5015  152.2757 N   0  0  0  0  0  0  0  0  0  0  0  0
  143.5674  131.3321  150.3859 H   0  0  0  0  0  0  0  0  0  0  0  0
  143.6952  132.9038  149.6036 H   0  0  0  0  0  0  0  0  0  0  0  0
  142.5685  132.6636  150.9586 H   0  0  0  0  0  0  0  0  0  0  0  0
  142.6598  134.5399  151.4201 H   0  0  0  0  0  0  0  0  0  0  0  0
  142.8879  136.9133  152.0765 H   0  0  0  0  0  0  0  0  0  0  0  0
  144.6103  138.7531  152.6914 H   0  0  0  0  0  0  0  0  0  0  0  0
  145.4530  140.3393  153.4577 H   0  0  0  0  0  0  0  0  0  0  0  0
  146.7437  141.6755  154.7089 H   0  0  0  0  0  0  0  0  0  0  0  0
  147.1567  140.3163  155.7289 H   0  0  0  0  0  0  0  0  0  0  0  0
  148.5456  139.9271  153.2553 H   0  0  0  0  0  0  0  0  0  0  0  0
  148.7867  141.6045  153.6547 H   0  0  0  0  0  0  0  0  0  0  0  0
  150.5985  142.0852  154.9669 H   0  0  0  0  0  0  0  0  0  0  0  0
  149.4534  141.9231  156.2747 H   0  0  0  0  0  0  0  0  0  0  0  0
  151.8773  141.8875  156.9528 H   0  0  0  0  0  0  0  0  0  0  0  0
  150.2176  140.9813  158.5169 H   0  0  0  0  0  0  0  0  0  0  0  0
  151.6999  140.0364  158.5911 H   0  0  0  0  0  0  0  0  0  0  0  0
  150.2867  139.4024  157.7510 H   0  0  0  0  0  0  0  0  0  0  0  0
  151.3526  138.3414  156.0160 H   0  0  0  0  0  0  0  0  0  0  0  0
  152.5593  137.4540  154.0215 H   0  0  0  0  0  0  0  0  0  0  0  0
  153.6877  138.0110  155.2532 H   0  0  0  0  0  0  0  0  0  0  0  0
  153.3852  138.9994  153.8266 H   0  0  0  0  0  0  0  0  0  0  0  0
  150.2371  138.6331  153.8266 H   0  0  0  0  0  0  0  0  0  0  0  0
  151.0997  140.1282  153.5448 H   0  0  0  0  0  0  0  0  0  0  0  0
  147.0509  136.0991  152.9660 H   0  0  0  0  0  0  0  0  0  0  0  0
  1  2  1  0  0  0  0
  1 23  1  0  0  0  0
  1 24  1  0  0  0  0
  1 25  1  0  0  0  0
  2  3  1  0  0  0  0
  3 22  1  0  0  0  0
  3  4  2  0  0  0  0
  4  5  1  0  0  0  0
  4 26  1  0  0  0  0
  5  6  2  0  0  0  0
  5 27  1  0  0  0  0
  6  7  1  0  0  0  0
  6 21  1  0  0  0  0
  7  8  1  0  0  0  0
  7 28  1  0  0  0  0
  8  9  2  0  0  0  0
  8 10  1  0  0  0  0
 10 11  1  0  0  0  0
 10 29  1  0  0  0  0
 11 12  1  0  0  0  0
 11 30  1  0  0  0  0
 11 31  1  0  0  0  0
 12 13  1  0  0  0  0
 12 32  1  0  0  0  0
 12 33  1  0  0  0  0
 13 20  1  0  0  0  0
 13 14  1  0  0  0  0
 14 15  1  0  0  0  0
 14 34  1  0  0  0  0
 14 35  1  0  0  0  0
 15 16  1  0  0  0  0
 15 17  1  0  0  0  0
 15 36  1  0  0  0  0
 16 37  1  0  0  0  0
 16 38  1  0  0  0  0
 16 39  1  0  0  0  0
 17 18  1  0  0  0  0
 18 19  1  0  0  0  0
 18 20  1  0  0  0  0
 18 40  1  0  0  0  0
 19 41  1  0  0  0  0
 19 42  1  0  0  0  0
 19 43  1  0  0  0  0
 20 44  1  0  0  0  0
 20 45  1  0  0  0  0
 21 22  2  0  0  0  0
 21 46  1  0  0  0  0
M  END
> <s_m_source_file>
AV-unprocessed.smi

> <i_m_source_file_index>
1430

> <i_lp_mmshare_version>
43012

> <i_f3d_flags>
0

> <s_epik_input>
W0NIM11PYzFbY0hdW2NIXWMoW2NIXW4xKVtOSF1DKD1PKVtOSF1bQ0gyXVtDSDJdTjJbQ0gyXVtDQEBIXShbQ0gzXSlPW0NAQEhdKFtDSDNdKVtDSDJdMg==

> <s_epik_cmdline>
J2VwaWtfcHl0aG9uJywgJy1waCcsICc3LjAnLCAnLXRuJywgJzgnLCAnLW1hJywgJzIwMCcsICctbWV0YWxfYmluZGluZycsICctaW1hZScsICc8aW5maWxlLm1hZT4nLCAnLW9tYWUnLCAnPG91dGZpbGUubWFlPic=

> <r_lp_tautomer_probability>
1

> <r_epik_Ionization_Penalty>
0.266083

> <r_epik_Ionization_Penalty_Charging>
0

> <r_epik_Ionization_Penalty_Neutral>
0.266083

> <r_epik_State_Penalty>
0.257924

> <r_epik_Charging_Adjusted_Penalty>
0.257924

> <i_epik_Tot_Q>
0

> <i_epik_Tot_abs_Q>
0

> <r_epik_Metal_State_Penalty>
0.257922

> <b_epik_Metal_Only>
0

> <s_lp_Force_Field>
OPLS_2005

> <r_lp_Energy>
26.0225

> <b_lp_Chiralities_Consistent>
1

> <s_lp_Variant>
AV-unprocessed.smi:1430-3

> <Gold.Version>
5.8.1

> <Gold.Id.Protein>
6NUR|6NUR_protein|mol2

> <Gold.PLP.Fitness>
41.6261

> <Gold.PLP.PLP>
-32.1995

> <Gold.PLP.part.hbond>
-3.0000

> <Gold.PLP.part.metal>
0.0000

> <Gold.PLP.part.buried>
-0.1323

> <Gold.PLP.part.nonpolar>
-28.7845

> <Gold.PLP.part.repulsive>
0.4204

> <Gold.PLP.ligand.clash>
0.0000

> <Gold.PLP.ligand.torsion>
1.2291

> <Gold.PLP.Chemscore.Hbond>
2.9588

> <Gold.PLP.Chemscore.CHOScore>
0.9950

> <Gold.PLP.Chemscore.Metal>
0.0000

> <Gold.Chemscore.Hbonds>
donor molecule, donor type, donor heavy atom, donor atom, acceptor molecule, acceptor atom, score
      L1  H     7    28       P1 10175  1.00
      L1  H    10    29       P1 10175  1.00
      P1  H  7997  8008       L1    17  0.96
      L1  C    21    46       P1  7948  0.99

> <Gold.PLP.Chemscore.Internal.Correction>
0.0234

> <Gold.Rescore>
     Score         DG    S(hbond)    S(metal)    S(lipo)     H(rot)  DE(clash)    DE(int)     intcor
     16.09     -19.51       2.70        0.00      80.37       1.71       0.82       2.59       ----

> <Gold.Chemscore.Fitness>
16.0947

> <Gold.Chemscore.DG>
-19.5094

> <Gold.Chemscore.ZeroCoef>
-5.4800

> <Gold.Chemscore.Hbond>
2.6964

> <Gold.Chemscore.Metal>
0.0000

> <Gold.Chemscore.Lipo>
80.3661

> <Gold.Chemscore.Internal_Hbond>
0.0000

> <Gold.Chemscore.DEClash>
0.8208

> <Gold.Chemscore.DEInternal>
2.5940

> <Gold.Chemscore.Rot>
1.7107

> <Gold.Chemscore.Internal.Correction>
   9.000000E+99

> <Gold.Chemscore.Hbonds>
donor molecule, donor type, donor heavy atom, donor atom, acceptor molecule, acceptor atom, score
      L1  H     7    28       P1 10175  0.99
      L1  H    10    29       P1 10175  0.91
      P1  H  7997  8008       L1    17  0.82

> <Gold.Chemscore.Hbond.Weighted>
-9.0060

> <Gold.Chemscore.Metal.Weighted>
-0.0000

> <Gold.Chemscore.Lipo.Weighted>
-9.4028

> <Gold.Chemscore.Internal_Hbond.Weighted>
0.0000

> <Gold.Chemscore.DEClash.Weighted>
0.8208

> <Gold.Chemscore.DEInternal.Weighted>
2.5940

> <Gold.Chemscore.Rot.Weighted>
4.3794

> <Gold.Chemscore.Internal.Correction.Weighted>
   9.000000E+99

> <Gold.Protein.RotatedTorsions>
[ 6907 6896 6895 6894 ] final  147.66 input  -60.11 | X-H torsion
[ 7974 7965 7964 7962 ] final  134.93 input  175.53 | X-H torsion
[ 8008 7997 7996 7995 ] final  -34.41 input   59.86 | X-H torsion
[ 10167 10162 10161 10158 ] final  100.05 input  -65.29 | X-H torsion
[ 10718 10713 10712 10709 ] final   13.02 input   66.30 | X-H torsion
[ 10763 10752 10751 10750 ] final   37.13 input  -60.55 | X-H torsion
[ 11005 11000 10999 10996 ] final    5.05 input  -57.11 | X-H torsion

> <Gold.Protein.ActiveResidues>
 VAL166  LYS551  ARG553  GLY616  TRP617  ASP618  TYR619  PRO620  LYS621  CYS622 
 ASP623  PHE694  ASN695  SER759  ASP760  ASP761  ALA762  ILE779  LEU786  VAL792 
 PHE793  MET794  SER795  GLU796  ALA797  LYS798  CYS799  TRP800  GLU811  SER814 

> <Gold.Protein.RotatedAtoms>
  152.1518  133.4526  159.4816 H   0  0  0  0  0  0  0  0  0  0  0  0  # atno 6907 bound_to 6896
  150.6896  134.2180  159.4394 H   0  0  0  0  0  0  0  0  0  0  0  0  # atno 6908 bound_to 6896
  152.0077  134.9893  160.0618 H   0  0  0  0  0  0  0  0  0  0  0  0  # atno 6909 bound_to 6896
  144.9714  139.4602  143.5431 H   0  0  0  0  0  0  0  0  0  0  0  0  # atno 7974 bound_to 7965
  154.4122  140.1685  156.2044 H   0  0  0  0  0  0  0  0  0  0  0  0  # atno 8008 bound_to 7997
  155.9496  140.3402  155.6373 H   0  0  0  0  0  0  0  0  0  0  0  0  # atno 8009 bound_to 7997
  155.6886  140.0731  157.2448 H   0  0  0  0  0  0  0  0  0  0  0  0  # atno 8010 bound_to 7997
  139.7562  144.6969  151.0359 H   0  0  0  0  0  0  0  0  0  0  0  0  # atno 10167 bound_to 10162
  157.0186  130.6145  149.5718 H   0  0  0  0  0  0  0  0  0  0  0  0  # atno 10718 bound_to 10713
  153.0049  135.6286  154.2096 H   0  0  0  0  0  0  0  0  0  0  0  0  # atno 10763 bound_to 10752
  154.1839  135.2812  155.3045 H   0  0  0  0  0  0  0  0  0  0  0  0  # atno 10764 bound_to 10752
  154.5812  135.5646  153.7247 H   0  0  0  0  0  0  0  0  0  0  0  0  # atno 10765 bound_to 10752
  140.5750  134.0066  155.8024 H   0  0  0  0  0  0  0  0  0  0  0  0  # atno 11005 bound_to 11000
  146.3383  139.8928  142.8806 LP  0  0  0  0  0  0  0  0  0  0  0  0  # atno 17320 bound_to 7965
  145.2554  141.0058  143.3857 LP  0  0  0  0  0  0  0  0  0  0  0  0  # atno 17321 bound_to 7965
  140.7803  143.4750  151.0095 LP  0  0  0  0  0  0  0  0  0  0  0  0  # atno 17342 bound_to 10162
  139.8437  143.7530  152.3180 LP  0  0  0  0  0  0  0  0  0  0  0  0  # atno 17343 bound_to 10162
  156.0110  130.5202  150.7989 LP  0  0  0  0  0  0  0  0  0  0  0  0  # atno 17370 bound_to 10713
  157.5267  131.0934  151.0009 LP  0  0  0  0  0  0  0  0  0  0  0  0  # atno 17371 bound_to 10713
  141.1032  133.9735  157.3043 LP  0  0  0  0  0  0  0  0  0  0  0  0  # atno 17394 bound_to 11000
  139.9344  135.0197  156.8506 LP  0  0  0  0  0  0  0  0  0  0  0  0  # atno 17395 bound_to 11000

$$$$
