AV-unprocessed.smi:3261|AV-procd|sdf|12483|dock5
  -GOLD-   2272018383D 1   1.00000     0.00000
 Structure written by MMmdl.
 30 31  0  0  0  0  0  0  0  0  3 V2000
  153.3930  140.3288  160.2609 O   0  0  0  0  0  0  0  0  0  0  0  0
  153.1813  140.6099  159.0823 C   0  0  0  0  0  0  0  0  0  0  0  0
  152.7849  141.8684  158.7698 N   0  0  0  0  0  0  0  0  0  0  0  0
  152.5066  142.9590  159.6371 C   0  0  0  0  0  0  0  0  0  0  0  0
  152.0987  144.1779  159.0519 C   0  0  0  0  0  0  0  0  0  0  0  0
  151.7940  145.2775  159.8797 C   0  0  0  0  0  0  0  0  0  0  0  0
  151.8804  145.1534  161.2218 N   0  3  0  0  0  0  0  0  0  0  0  0
  152.2459  144.0026  161.8268 C   0  0  0  0  0  0  0  0  0  0  0  0
  152.5628  142.8695  161.0507 C   0  0  0  0  0  0  0  0  0  0  0  0
  153.3604  139.6862  158.0894 N   0  5  0  0  0  0  0  0  0  0  0  0
  152.4024  138.7119  157.5369 C   0  0  1  0  0  0  0  0  0  0  0  0
  151.2545  139.4712  156.8355 C   0  0  0  0  0  0  0  0  0  0  0  0
  151.7105  139.9151  155.4389 C   0  0  0  0  0  0  0  0  0  0  0  0
  152.8078  138.5776  154.8425 S   0  0  0  0  0  0  0  0  0  0  0  0
  152.0247  137.6403  154.0220 O   0  0  0  0  0  0  0  0  0  0  0  0
  154.0562  139.1633  154.3297 O   0  0  0  0  0  0  0  0  0  0  0  0
  153.1000  137.8180  156.4909 C   0  0  0  0  0  0  0  0  0  0  0  0
  152.7439  142.0748  157.7826 H   0  0  0  0  0  0  0  0  0  0  0  0
  152.0277  144.2738  157.9780 H   0  0  0  0  0  0  0  0  0  0  0  0
  151.4839  146.2442  159.5112 H   0  0  0  0  0  0  0  0  0  0  0  0
  152.2676  144.0195  162.9066 H   0  0  0  0  0  0  0  0  0  0  0  0
  152.8320  141.9500  161.5485 H   0  0  0  0  0  0  0  0  0  0  0  0
  151.9820  138.0847  158.3247 H   0  0  0  0  0  0  0  0  0  0  0  0
  150.4130  138.7873  156.7187 H   0  0  0  0  0  0  0  0  0  0  0  0
  150.8891  140.3120  157.4269 H   0  0  0  0  0  0  0  0  0  0  0  0
  150.8835  140.0637  154.7451 H   0  0  0  0  0  0  0  0  0  0  0  0
  152.2923  140.8371  155.4894 H   0  0  0  0  0  0  0  0  0  0  0  0
  154.1703  137.6965  156.6603 H   0  0  0  0  0  0  0  0  0  0  0  0
  152.6479  136.8264  156.4786 H   0  0  0  0  0  0  0  0  0  0  0  0
  151.6544  145.9608  161.8032 H   0  0  0  0  0  0  0  0  0  0  0  0
  1  2  2  0  0  0  0
  2  3  1  0  0  0  0
  2 10  1  0  0  0  0
  3  4  1  0  0  0  0
  3 18  1  0  0  0  0
  4  9  1  0  0  0  0
  4  5  2  0  0  0  0
  5  6  1  0  0  0  0
  5 19  1  0  0  0  0
  6  7  2  0  0  0  0
  6 20  1  0  0  0  0
  7  8  1  0  0  0  0
  7 30  1  0  0  0  0
  8  9  2  0  0  0  0
  8 21  1  0  0  0  0
  9 22  1  0  0  0  0
 10 11  1  0  0  0  0
 11 17  1  0  0  0  0
 11 12  1  0  0  0  0
 11 23  1  0  0  0  0
 12 13  1  0  0  0  0
 12 24  1  0  0  0  0
 12 25  1  0  0  0  0
 13 14  1  0  0  0  0
 13 26  1  0  0  0  0
 13 27  1  0  0  0  0
 14 15  2  0  0  0  0
 14 16  2  0  0  0  0
 14 17  1  0  0  0  0
 17 28  1  0  0  0  0
 17 29  1  0  0  0  0
M  CHG  1   7   1
M  CHG  1  10  -1
M  END
> <s_m_source_file>
AV-unprocessed.smi

> <i_m_source_file_index>
3261

> <i_lp_mmshare_version>
43012

> <i_f3d_flags>
0

> <s_epik_input>
Tz1TMSg9TylbQ0gyXVtDSDJdW0NASF0oW0NIMl0xKVtOSF1DKD1PKVtOSF1jMltjSF1bY0hdbltjSF1bY0hdMg==

> <s_epik_cmdline>
J2VwaWtfcHl0aG9uJywgJy1waCcsICc3LjAnLCAnLXRuJywgJzgnLCAnLW1hJywgJzIwMCcsICctbWV0YWxfYmluZGluZycsICctaW1hZScsICc8aW5maWxlLm1hZT4nLCAnLW9tYWUnLCAnPG91dGZpbGUubWFlPic=

> <r_epik_Ionization_Penalty>
8.1176

> <r_epik_Ionization_Penalty_Charging>
8.1176

> <r_epik_Ionization_Penalty_Neutral>
3.03687e-06

> <r_epik_State_Penalty>
7.79629

> <r_epik_Charging_Adjusted_Penalty>
15.9139

> <i_epik_Tot_Q>
0

> <i_epik_Tot_abs_Q>
2

> <r_epik_Metal_State_Penalty>
3.7997

> <b_epik_Metal_Only>
1

> <s_lp_Force_Field>
OPLS_2005

> <r_lp_Energy>
21.8236

> <b_lp_Chiralities_Consistent>
1

> <s_lp_Variant>
AV-unprocessed.smi:3261-6

> <Gold.Version>
5.8.1

> <Gold.Id.Protein>
6NUR|6NUR_protein|mol2

> <Gold.PLP.Fitness>
48.1377

> <Gold.PLP.PLP>
-38.0584

> <Gold.PLP.part.hbond>
-4.0000

> <Gold.PLP.part.metal>
0.0000

> <Gold.PLP.part.buried>
-4.3390

> <Gold.PLP.part.nonpolar>
-29.8210

> <Gold.PLP.part.repulsive>
0.3508

> <Gold.PLP.ligand.clash>
0.0000

> <Gold.PLP.ligand.torsion>
0.7702

> <Gold.PLP.Chemscore.Hbond>
3.8720

> <Gold.PLP.Chemscore.CHOScore>
0.0000

> <Gold.PLP.Chemscore.Metal>
0.0000

> <Gold.Chemscore.Hbonds>
donor molecule, donor type, donor heavy atom, donor atom, acceptor molecule, acceptor atom, score
      P1  H  7997  8008       L1    16  1.00
      P1  H  7997  8010       L1    10  2.00
      P1  H 10752 10765       L1    15  0.58

> <Gold.PLP.Chemscore.Internal.Correction>
0.0036

> <Gold.Rescore>
     Score         DG    S(hbond)    S(metal)    S(lipo)     H(rot)  DE(clash)    DE(int)     intcor
     17.53     -20.17       2.38        0.00      79.59       1.00       0.46       2.18       ----

> <Gold.Chemscore.Fitness>
17.5309

> <Gold.Chemscore.DG>
-20.1696

> <Gold.Chemscore.ZeroCoef>
-5.4800

> <Gold.Chemscore.Hbond>
2.3767

> <Gold.Chemscore.Metal>
0.0000

> <Gold.Chemscore.Lipo>
79.5856

> <Gold.Chemscore.Internal_Hbond>
0.0000

> <Gold.Chemscore.DEClash>
0.4627

> <Gold.Chemscore.DEInternal>
2.1760

> <Gold.Chemscore.Rot>
1.0000

> <Gold.Chemscore.Internal.Correction>
   9.000000E+99

> <Gold.Chemscore.Hbonds>
donor molecule, donor type, donor heavy atom, donor atom, acceptor molecule, acceptor atom, score
      P1  H  7997  8008       L1    16  0.86
      P1  H  7997  8010       L1    10  0.68
      P1  H 10752 10765       L1    15  0.34

> <Gold.Chemscore.Hbond.Weighted>
-7.9381

> <Gold.Chemscore.Metal.Weighted>
-0.0000

> <Gold.Chemscore.Lipo.Weighted>
-9.3115

> <Gold.Chemscore.Internal_Hbond.Weighted>
0.0000

> <Gold.Chemscore.DEClash.Weighted>
0.4627

> <Gold.Chemscore.DEInternal.Weighted>
2.1760

> <Gold.Chemscore.Rot.Weighted>
2.5600

> <Gold.Chemscore.Internal.Correction.Weighted>
   9.000000E+99

> <Gold.Protein.RotatedTorsions>
[ 6907 6896 6895 6894 ] final  111.98 input  -60.11 | X-H torsion
[ 7974 7965 7964 7962 ] final  -98.80 input  175.53 | X-H torsion
[ 8008 7997 7996 7995 ] final   17.56 input   59.86 | X-H torsion
[ 10167 10162 10161 10158 ] final  -10.41 input  -65.29 | X-H torsion
[ 10718 10713 10712 10709 ] final   69.09 input   66.30 | X-H torsion
[ 10763 10752 10751 10750 ] final  155.97 input  -60.55 | X-H torsion
[ 11005 11000 10999 10996 ] final   53.15 input  -57.11 | X-H torsion

> <Gold.Protein.ActiveResidues>
 VAL166  LYS551  ARG553  GLY616  TRP617  ASP618  TYR619  PRO620  LYS621  CYS622 
 ASP623  PHE694  ASN695  SER759  ASP760  ASP761  ALA762  ILE779  LEU786  VAL792 
 PHE793  MET794  SER795  GLU796  ALA797  LYS798  CYS799  TRP800  GLU811  SER814 

> <Gold.Protein.RotatedAtoms>
  152.4941  133.8581  159.7235 H   0  0  0  0  0  0  0  0  0  0  0  0  # atno 6907 bound_to 6896
  150.9100  133.7001  159.2864 H   0  0  0  0  0  0  0  0  0  0  0  0  # atno 6908 bound_to 6896
  151.4413  135.1025  159.9723 H   0  0  0  0  0  0  0  0  0  0  0  0  # atno 6909 bound_to 6896
  145.3159  140.9411  143.2743 H   0  0  0  0  0  0  0  0  0  0  0  0  # atno 7974 bound_to 7965
  154.8933  140.2990  155.5358 H   0  0  0  0  0  0  0  0  0  0  0  0  # atno 8008 bound_to 7997
  156.3020  140.2420  156.3886 H   0  0  0  0  0  0  0  0  0  0  0  0  # atno 8009 bound_to 7997
  154.8596  140.0406  157.1646 H   0  0  0  0  0  0  0  0  0  0  0  0  # atno 8010 bound_to 7997
  140.7113  143.5751  150.9051 H   0  0  0  0  0  0  0  0  0  0  0  0  # atno 10167 bound_to 10162
  157.6326  130.9407  150.0466 H   0  0  0  0  0  0  0  0  0  0  0  0  # atno 10718 bound_to 10713
  154.1769  135.2801  155.3064 H   0  0  0  0  0  0  0  0  0  0  0  0  # atno 10763 bound_to 10752
  154.6032  135.5523  153.7399 H   0  0  0  0  0  0  0  0  0  0  0  0  # atno 10764 bound_to 10752
  153.0149  135.6397  154.1909 H   0  0  0  0  0  0  0  0  0  0  0  0  # atno 10765 bound_to 10752
  140.0791  134.5364  155.8965 H   0  0  0  0  0  0  0  0  0  0  0  0  # atno 11005 bound_to 11000
  144.8978  139.4689  143.6647 LP  0  0  0  0  0  0  0  0  0  0  0  0  # atno 17320 bound_to 7965
  146.3100  139.7714  142.9027 LP  0  0  0  0  0  0  0  0  0  0  0  0  # atno 17321 bound_to 7965
  139.9477  143.6308  152.3037 LP  0  0  0  0  0  0  0  0  0  0  0  0  # atno 17342 bound_to 10162
  139.6815  144.7655  151.1599 LP  0  0  0  0  0  0  0  0  0  0  0  0  # atno 17343 bound_to 10162
  156.1541  130.3643  149.9395 LP  0  0  0  0  0  0  0  0  0  0  0  0  # atno 17370 bound_to 10713
  156.7408  130.9078  151.3632 LP  0  0  0  0  0  0  0  0  0  0  0  0  # atno 17371 bound_to 10713
  141.2040  133.6636  156.6096 LP  0  0  0  0  0  0  0  0  0  0  0  0  # atno 17394 bound_to 11000
  140.3514  134.7765  157.4470 LP  0  0  0  0  0  0  0  0  0  0  0  0  # atno 17395 bound_to 11000

$$$$
