AV-unprocessed.smi:1107|AV-procd|sdf|4783|dock5
  -GOLD-   22720 3323D 1   1.00000     0.00000
 Structure written by MMmdl.
 49 50  0  0  0  0  0  0  0  0  2 V2000
  151.3745  143.6515  157.9266 C   0  0  0  0  0  0  0  0  0  0  0  0
  151.2024  142.4125  157.0752 C   0  0  0  0  0  0  0  0  0  0  0  0
  150.0831  142.4493  156.2599 N   0  0  0  0  0  0  0  0  0  0  0  0
  149.8424  141.3604  155.4409 C   0  0  0  0  0  0  0  0  0  0  0  0
  148.5901  141.4736  154.5898 C   0  0  0  0  0  0  0  0  0  0  0  0
  150.6763  140.2897  155.4343 C   0  0  0  0  0  0  0  0  0  0  0  0
  150.4397  139.0552  154.5625 C   0  0  0  0  0  0  0  0  0  0  0  0
  150.0940  137.7477  155.2843 C   0  0  0  0  0  0  0  0  0  0  0  0
  150.1994  137.6876  156.5082 O   0  0  0  0  0  0  0  0  0  0  0  0
  149.6576  136.7210  154.5346 N   0  0  0  0  0  0  0  0  0  0  0  0
  149.2248  135.4127  155.0228 C   0  0  2  0  0  0  0  0  0  0  0  0
  148.2772  135.6129  156.2131 C   0  0  0  0  0  0  0  0  0  0  0  0
  150.4397  134.5393  155.4109 C   0  0  0  0  0  0  0  0  0  0  0  0
  150.1762  133.0842  155.2680 N   0  3  0  0  0  0  0  0  0  0  0  0
  149.6146  132.7250  153.9407 C   0  0  0  0  0  0  0  0  0  0  0  0
  149.2045  131.2431  153.9001 C   0  0  0  0  0  0  0  0  0  0  0  0
  150.3863  130.3335  154.2614 C   0  0  0  0  0  0  0  0  0  0  0  0
  150.9747  130.7502  155.6159 C   0  0  0  0  0  0  0  0  0  0  0  0
  151.3501  132.2411  155.6163 C   0  0  0  0  0  0  0  0  0  0  0  0
  151.8522  140.3032  156.3360 C   0  0  0  0  0  0  0  0  0  0  0  0
  152.6276  139.3497  156.3937 O   0  0  0  0  0  0  0  0  0  0  0  0
  152.0535  141.4340  157.1435 N   0  0  0  0  0  0  0  0  0  0  0  0
  149.4394  143.2271  156.2317 H   0  0  0  0  0  0  0  0  0  0  0  0
  152.2664  143.5763  158.5499 H   0  0  0  0  0  0  0  0  0  0  0  0
  150.5124  143.7868  158.5804 H   0  0  0  0  0  0  0  0  0  0  0  0
  151.4738  144.5354  157.2958 H   0  0  0  0  0  0  0  0  0  0  0  0
  148.8490  141.4770  153.5309 H   0  0  0  0  0  0  0  0  0  0  0  0
  148.0404  142.3915  154.8025 H   0  0  0  0  0  0  0  0  0  0  0  0
  147.9228  140.6323  154.7800 H   0  0  0  0  0  0  0  0  0  0  0  0
  151.3103  138.8780  153.9297 H   0  0  0  0  0  0  0  0  0  0  0  0
  149.6304  139.2637  153.8628 H   0  0  0  0  0  0  0  0  0  0  0  0
  149.6109  136.8645  153.5358 H   0  0  0  0  0  0  0  0  0  0  0  0
  148.6527  134.9076  154.2436 H   0  0  0  0  0  0  0  0  0  0  0  0
  147.9130  134.6565  156.5895 H   0  0  0  0  0  0  0  0  0  0  0  0
  147.4076  136.2057  155.9276 H   0  0  0  0  0  0  0  0  0  0  0  0
  148.7742  136.1269  157.0365 H   0  0  0  0  0  0  0  0  0  0  0  0
  151.2721  134.8170  154.7623 H   0  0  0  0  0  0  0  0  0  0  0  0
  150.7660  134.7572  156.4292 H   0  0  0  0  0  0  0  0  0  0  0  0
  148.7391  133.3409  153.7311 H   0  0  0  0  0  0  0  0  0  0  0  0
  150.3492  132.9379  153.1626 H   0  0  0  0  0  0  0  0  0  0  0  0
  148.3841  131.0720  154.5985 H   0  0  0  0  0  0  0  0  0  0  0  0
  148.8261  130.9867  152.9101 H   0  0  0  0  0  0  0  0  0  0  0  0
  150.0653  129.2919  154.2937 H   0  0  0  0  0  0  0  0  0  0  0  0
  151.1535  130.4011  153.4891 H   0  0  0  0  0  0  0  0  0  0  0  0
  150.2497  130.5559  156.4075 H   0  0  0  0  0  0  0  0  0  0  0  0
  151.8521  130.1441  155.8438 H   0  0  0  0  0  0  0  0  0  0  0  0
  152.1577  132.4258  154.9063 H   0  0  0  0  0  0  0  0  0  0  0  0
  151.7294  132.5113  156.6015 H   0  0  0  0  0  0  0  0  0  0  0  0
  149.4544  132.8672  155.9407 H   0  0  0  0  0  0  0  0  0  0  0  0
  1 24  1  0  0  0  0
  1 25  1  0  0  0  0
  1 26  1  0  0  0  0
  1  2  1  0  0  0  0
  2  3  1  0  0  0  0
  2 22  2  0  0  0  0
  3  4  1  0  0  0  0
  3 23  1  0  0  0  0
  4  6  2  0  0  0  0
  4  5  1  0  0  0  0
  5 27  1  0  0  0  0
  5 28  1  0  0  0  0
  5 29  1  0  0  0  0
  6 20  1  0  0  0  0
  6  7  1  0  0  0  0
  7  8  1  0  0  0  0
  7 30  1  0  0  0  0
  7 31  1  0  0  0  0
  8  9  2  0  0  0  0
  8 10  1  0  0  0  0
 10 11  1  0  0  0  0
 10 32  1  0  0  0  0
 11 12  1  0  0  0  0
 11 13  1  0  0  0  0
 11 33  1  0  0  0  0
 12 34  1  0  0  0  0
 12 35  1  0  0  0  0
 12 36  1  0  0  0  0
 13 14  1  0  0  0  0
 13 37  1  0  0  0  0
 13 38  1  0  0  0  0
 14 19  1  0  0  0  0
 14 15  1  0  0  0  0
 14 49  1  0  0  0  0
 15 16  1  0  0  0  0
 15 39  1  0  0  0  0
 15 40  1  0  0  0  0
 16 17  1  0  0  0  0
 16 41  1  0  0  0  0
 16 42  1  0  0  0  0
 17 18  1  0  0  0  0
 17 43  1  0  0  0  0
 17 44  1  0  0  0  0
 18 19  1  0  0  0  0
 18 45  1  0  0  0  0
 18 46  1  0  0  0  0
 19 47  1  0  0  0  0
 19 48  1  0  0  0  0
 20 21  2  0  0  0  0
 20 22  1  0  0  0  0
M  CHG  1  14   1
M  END
> <s_m_source_file>
AV-unprocessed.smi

> <i_m_source_file_index>
1107

> <i_lp_mmshare_version>
43012

> <i_f3d_flags>
0

> <s_epik_input>
W0NIM11jMW5jKFtDSDNdKWMoYyg9TylbbkhdMSlbQ0gyXUMoPU8pW05IXVtDQEhdKFtDSDNdKVtDSDJdTjJbQ0gyXVtDSDJdW0NIMl1bQ0gyXVtDSDJdMg==

> <s_epik_cmdline>
J2VwaWtfcHl0aG9uJywgJy1waCcsICc3LjAnLCAnLXRuJywgJzgnLCAnLW1hJywgJzIwMCcsICctbWV0YWxfYmluZGluZycsICctaW1hZScsICc8aW5maWxlLm1hZT4nLCAnLW9tYWUnLCAnPG91dGZpbGUubWFlPic=

> <r_lp_tautomer_probability>
0.156392

> <r_epik_Ionization_Penalty>
0.0190033

> <r_epik_Ionization_Penalty_Charging>
0.0189172

> <r_epik_Ionization_Penalty_Neutral>
8.60838e-05

> <r_epik_State_Penalty>
1.15342

> <r_epik_Charging_Adjusted_Penalty>
1.17233

> <i_epik_Tot_Q>
1

> <i_epik_Tot_abs_Q>
1

> <r_epik_Metal_State_Penalty>
1.34593

> <b_epik_Metal_Only>
0

> <s_lp_Force_Field>
OPLS_2005

> <r_lp_Energy>
27.2894

> <b_lp_Chiralities_Consistent>
1

> <s_lp_Variant>
AV-unprocessed.smi:1107-3

> <Gold.Version>
5.8.1

> <Gold.Id.Protein>
6NUR|6NUR_protein|mol2

> <Gold.PLP.Fitness>
44.6240

> <Gold.PLP.PLP>
-37.1995

> <Gold.PLP.part.hbond>
-3.0000

> <Gold.PLP.part.metal>
0.0000

> <Gold.PLP.part.buried>
-2.3403

> <Gold.PLP.part.nonpolar>
-32.1065

> <Gold.PLP.part.repulsive>
0.1698

> <Gold.PLP.ligand.clash>
0.0000

> <Gold.PLP.ligand.torsion>
0.6868

> <Gold.PLP.Chemscore.Hbond>
2.9120

> <Gold.PLP.Chemscore.CHOScore>
0.0000

> <Gold.PLP.Chemscore.Metal>
0.0000

> <Gold.Chemscore.Hbonds>
donor molecule, donor type, donor heavy atom, donor atom, acceptor molecule, acceptor atom, score
      L1  H     3    23       P1  8028  1.00
      L1  H    10    32       P1  7948  0.96
      P1  H  7997  8009       L1    21  1.00

> <Gold.PLP.Chemscore.Internal.Correction>
0.0621

> <Gold.Rescore>
     Score         DG    S(hbond)    S(metal)    S(lipo)     H(rot)  DE(clash)    DE(int)     intcor
     14.62     -17.61       2.56        0.00      73.97       1.98       1.09       1.90       ----

> <Gold.Chemscore.Fitness>
14.6176

> <Gold.Chemscore.DG>
-17.6100

> <Gold.Chemscore.ZeroCoef>
-5.4800

> <Gold.Chemscore.Hbond>
2.5611

> <Gold.Chemscore.Metal>
0.0000

> <Gold.Chemscore.Lipo>
73.9692

> <Gold.Chemscore.Internal_Hbond>
0.0000

> <Gold.Chemscore.DEClash>
1.0888

> <Gold.Chemscore.DEInternal>
1.9036

> <Gold.Chemscore.Rot>
1.9837

> <Gold.Chemscore.Internal.Correction>
   9.000000E+99

> <Gold.Chemscore.Hbonds>
donor molecule, donor type, donor heavy atom, donor atom, acceptor molecule, acceptor atom, score
      L1  H     3    23       P1  8028  0.98
      L1  H    10    32       P1  7948  0.69
      P1  H  7997  8009       L1    21  0.50

> <Gold.Chemscore.Hbond.Weighted>
-8.5539

> <Gold.Chemscore.Metal.Weighted>
-0.0000

> <Gold.Chemscore.Lipo.Weighted>
-8.6544

> <Gold.Chemscore.Internal_Hbond.Weighted>
0.0000

> <Gold.Chemscore.DEClash.Weighted>
1.0888

> <Gold.Chemscore.DEInternal.Weighted>
1.9036

> <Gold.Chemscore.Rot.Weighted>
5.0783

> <Gold.Chemscore.Internal.Correction.Weighted>
   9.000000E+99

> <Gold.Protein.RotatedTorsions>
[ 6907 6896 6895 6894 ] final -170.15 input  -60.11 | X-H torsion
[ 7974 7965 7964 7962 ] final -144.63 input  175.53 | X-H torsion
[ 8008 7997 7996 7995 ] final -165.05 input   59.86 | X-H torsion
[ 10167 10162 10161 10158 ] final   -8.33 input  -65.29 | X-H torsion
[ 10718 10713 10712 10709 ] final  133.73 input   66.30 | X-H torsion
[ 10763 10752 10751 10750 ] final  179.06 input  -60.55 | X-H torsion
[ 11005 11000 10999 10996 ] final  135.53 input  -57.11 | X-H torsion

> <Gold.Protein.ActiveResidues>
 VAL166  LYS551  ARG553  GLY616  TRP617  ASP618  TYR619  PRO620  LYS621  CYS622 
 ASP623  PHE694  ASN695  SER759  ASP760  ASP761  ALA762  ILE779  LEU786  VAL792 
 PHE793  MET794  SER795  GLU796  ALA797  LYS798  CYS799  TRP800  GLU811  SER814 

> <Gold.Protein.RotatedAtoms>
  151.5030  133.3500  159.2871 H   0  0  0  0  0  0  0  0  0  0  0  0  # atno 6907 bound_to 6896
  150.8760  134.8145  159.7201 H   0  0  0  0  0  0  0  0  0  0  0  0  # atno 6908 bound_to 6896
  152.4731  134.4921  159.9750 H   0  0  0  0  0  0  0  0  0  0  0  0  # atno 6909 bound_to 6896
  144.8284  140.5685  143.5532 H   0  0  0  0  0  0  0  0  0  0  0  0  # atno 7974 bound_to 7965
  155.8443  140.0953  157.1715 H   0  0  0  0  0  0  0  0  0  0  0  0  # atno 8008 bound_to 7997
  154.3983  140.1395  156.3828 H   0  0  0  0  0  0  0  0  0  0  0  0  # atno 8009 bound_to 7997
  155.8030  140.3452  155.5416 H   0  0  0  0  0  0  0  0  0  0  0  0  # atno 8010 bound_to 7997
  140.7056  143.5981  150.8825 H   0  0  0  0  0  0  0  0  0  0  0  0  # atno 10167 bound_to 10162
  157.4743  131.1082  150.9763 H   0  0  0  0  0  0  0  0  0  0  0  0  # atno 10718 bound_to 10713
  154.5157  135.2791  155.1305 H   0  0  0  0  0  0  0  0  0  0  0  0  # atno 10763 bound_to 10752
  154.2882  135.6272  153.5378 H   0  0  0  0  0  0  0  0  0  0  0  0  # atno 10764 bound_to 10752
  152.9927  135.5667  154.5634 H   0  0  0  0  0  0  0  0  0  0  0  0  # atno 10765 bound_to 10752
  139.9986  134.9487  157.0020 H   0  0  0  0  0  0  0  0  0  0  0  0  # atno 11005 bound_to 11000
  145.4950  139.1486  143.3689 LP  0  0  0  0  0  0  0  0  0  0  0  0  # atno 17320 bound_to 7965
  146.2588  140.5089  142.8862 LP  0  0  0  0  0  0  0  0  0  0  0  0  # atno 17321 bound_to 7965
  139.9706  143.6061  152.2975 LP  0  0  0  0  0  0  0  0  0  0  0  0  # atno 17342 bound_to 10162
  139.6647  144.7662  151.1896 LP  0  0  0  0  0  0  0  0  0  0  0  0  # atno 17343 bound_to 10162
  157.0517  130.5790  149.5371 LP  0  0  0  0  0  0  0  0  0  0  0  0  # atno 17370 bound_to 10713
  156.0089  130.5179  150.7923 LP  0  0  0  0  0  0  0  0  0  0  0  0  # atno 17371 bound_to 10713
  140.4771  134.1327  155.7211 LP  0  0  0  0  0  0  0  0  0  0  0  0  # atno 17394 bound_to 11000
  141.1624  133.8768  157.1811 LP  0  0  0  0  0  0  0  0  0  0  0  0  # atno 17395 bound_to 11000

$$$$
