AV-unprocessed.smi:1633|AV-procd|sdf|6535|dock2
  -GOLD-   22720 7213D 1   1.00000     0.00000
 Structure written by MMmdl.
 52 54  0  0  0  0  0  0  0  0  3 V2000
  148.5565  132.4424  156.7215 C   0  0  0  0  0  0  0  0  0  0  0  0
  147.7835  133.7510  156.5436 C   0  0  0  0  0  0  0  0  0  0  0  0
  146.9202  134.0303  157.3751 O   0  0  0  0  0  0  0  0  0  0  0  0
  148.0690  134.5529  155.4894 N   0  0  0  0  0  0  0  0  0  0  0  0
  149.1345  134.3254  154.5081 C   0  0  0  0  0  0  0  0  0  0  0  0
  150.2026  135.4252  154.6560 C   0  0  0  0  0  0  0  0  0  0  0  0
  149.6050  136.7848  154.5388 N   0  3  0  0  0  0  0  0  0  0  0  0
  150.5938  137.8854  154.6760 C   0  0  0  0  0  0  0  0  0  0  0  0
  150.8516  138.2995  156.1428 C   0  0  1  0  0  0  0  0  0  0  0  0
  151.3354  137.1841  156.8634 O   0  0  0  0  0  0  0  0  0  0  0  0
  151.8977  139.4227  156.2940 C   0  0  0  0  0  0  0  0  0  0  0  0
  151.2981  140.7533  156.4692 N   0  0  0  0  0  0  0  0  0  0  0  0
  150.4198  141.4185  155.6702 C   0  0  0  0  0  0  0  0  0  0  0  0
  150.1508  142.6150  156.2616 N   0  3  0  0  0  0  0  0  0  0  0  0
  150.8622  142.7141  157.4590 C   0  0  0  0  0  0  0  0  0  0  0  0
  150.9148  143.7321  158.4035 C   0  0  0  0  0  0  0  0  0  0  0  0
  151.7455  143.5267  159.5280 C   0  0  0  0  0  0  0  0  0  0  0  0
  151.8275  144.6209  160.5787 C   0  0  0  0  0  0  0  0  0  0  0  0
  152.4897  142.3279  159.6762 C   0  0  0  0  0  0  0  0  0  0  0  0
  153.3821  142.1183  160.8881 C   0  0  0  0  0  0  0  0  0  0  0  0
  152.4214  141.3035  158.7051 C   0  0  0  0  0  0  0  0  0  0  0  0
  151.5986  141.5215  157.6016 C   0  0  0  0  0  0  0  0  0  0  0  0
  148.4347  136.9732  155.4375 C   0  0  0  0  0  0  0  0  0  0  0  0
  147.4058  135.8411  155.2692 C   0  0  0  0  0  0  0  0  0  0  0  0
  149.6229  132.6349  156.8416 H   0  0  0  0  0  0  0  0  0  0  0  0
  148.4076  131.7855  155.8640 H   0  0  0  0  0  0  0  0  0  0  0  0
  148.2129  131.9109  157.6097 H   0  0  0  0  0  0  0  0  0  0  0  0
  149.6046  133.3466  154.5903 H   0  0  0  0  0  0  0  0  0  0  0  0
  148.7040  134.3581  153.5062 H   0  0  0  0  0  0  0  0  0  0  0  0
  150.6972  135.3290  155.6239 H   0  0  0  0  0  0  0  0  0  0  0  0
  150.9668  135.2792  153.8939 H   0  0  0  0  0  0  0  0  0  0  0  0
  151.5432  137.5747  154.2368 H   0  0  0  0  0  0  0  0  0  0  0  0
  150.2488  138.7353  154.0861 H   0  0  0  0  0  0  0  0  0  0  0  0
  149.9276  138.6328  156.6144 H   0  0  0  0  0  0  0  0  0  0  0  0
  150.6153  136.6031  157.0549 H   0  0  0  0  0  0  0  0  0  0  0  0
  152.5155  139.2362  157.1738 H   0  0  0  0  0  0  0  0  0  0  0  0
  152.5821  139.4431  155.4459 H   0  0  0  0  0  0  0  0  0  0  0  0
  150.0078  141.0613  154.7371 H   0  0  0  0  0  0  0  0  0  0  0  0
  150.3454  144.6424  158.2842 H   0  0  0  0  0  0  0  0  0  0  0  0
  151.5388  144.2374  161.5572 H   0  0  0  0  0  0  0  0  0  0  0  0
  151.1658  145.4541  160.3406 H   0  0  0  0  0  0  0  0  0  0  0  0
  152.8434  145.0104  160.6451 H   0  0  0  0  0  0  0  0  0  0  0  0
  153.8953  141.1573  160.8457 H   0  0  0  0  0  0  0  0  0  0  0  0
  152.7935  142.1403  161.8056 H   0  0  0  0  0  0  0  0  0  0  0  0
  154.1414  142.8985  160.9443 H   0  0  0  0  0  0  0  0  0  0  0  0
  152.9897  140.3931  158.8233 H   0  0  0  0  0  0  0  0  0  0  0  0
  148.7772  137.0107  156.4730 H   0  0  0  0  0  0  0  0  0  0  0  0
  147.9586  137.9311  155.2247 H   0  0  0  0  0  0  0  0  0  0  0  0
  146.9879  135.8603  154.2616 H   0  0  0  0  0  0  0  0  0  0  0  0
  146.5636  136.0071  155.9426 H   0  0  0  0  0  0  0  0  0  0  0  0
  149.2350  136.8534  153.6015 H   0  0  0  0  0  0  0  0  0  0  0  0
  149.5217  143.3087  155.8774 H   0  0  0  0  0  0  0  0  0  0  0  0
  1  2  1  0  0  0  0
  1 25  1  0  0  0  0
  1 26  1  0  0  0  0
  1 27  1  0  0  0  0
  2  3  2  0  0  0  0
  2  4  1  0  0  0  0
  4 24  1  0  0  0  0
  4  5  1  0  0  0  0
  5  6  1  0  0  0  0
  5 28  1  0  0  0  0
  5 29  1  0  0  0  0
  6  7  1  0  0  0  0
  6 30  1  0  0  0  0
  6 31  1  0  0  0  0
  7  8  1  0  0  0  0
  7 23  1  0  0  0  0
  7 51  1  0  0  0  0
  8  9  1  0  0  0  0
  8 32  1  0  0  0  0
  8 33  1  0  0  0  0
  9 10  1  0  0  0  0
  9 11  1  0  0  0  0
  9 34  1  0  0  0  0
 10 35  1  0  0  0  0
 11 12  1  0  0  0  0
 11 36  1  0  0  0  0
 11 37  1  0  0  0  0
 12 22  1  0  0  0  0
 12 13  1  0  0  0  0
 13 14  2  0  0  0  0
 13 38  1  0  0  0  0
 14 15  1  0  0  0  0
 14 52  1  0  0  0  0
 15 22  2  0  0  0  0
 15 16  1  0  0  0  0
 16 17  2  0  0  0  0
 16 39  1  0  0  0  0
 17 18  1  0  0  0  0
 17 19  1  0  0  0  0
 18 40  1  0  0  0  0
 18 41  1  0  0  0  0
 18 42  1  0  0  0  0
 19 20  1  0  0  0  0
 19 21  2  0  0  0  0
 20 43  1  0  0  0  0
 20 44  1  0  0  0  0
 20 45  1  0  0  0  0
 21 22  1  0  0  0  0
 21 46  1  0  0  0  0
 23 24  1  0  0  0  0
 23 47  1  0  0  0  0
 23 48  1  0  0  0  0
 24 49  1  0  0  0  0
 24 50  1  0  0  0  0
M  CHG  1   7   1
M  CHG  1  14   1
M  END
> <s_m_source_file>
AV-unprocessed.smi

> <i_m_source_file_index>
1633

> <i_lp_mmshare_version>
43012

> <i_f3d_flags>
0

> <s_epik_input>
W0NIM11DKD1PKU4xW0NIMl1bQ0gyXU4oW0NIMl1bQ0gyXTEpW0NIMl1bQ0BIXShbT0hdKVtDSDJdbihbY0hdbjIpYyhjMjMpW2NIXWMoW0NIM10pYyhbY0hdMylbQ0gzXQ==

> <s_epik_cmdline>
J2VwaWtfcHl0aG9uJywgJy1waCcsICc3LjAnLCAnLXRuJywgJzgnLCAnLW1hJywgJzIwMCcsICctbWV0YWxfYmluZGluZycsICctaW1hZScsICc8aW5maWxlLm1hZT4nLCAnLW9tYWUnLCAnPG91dGZpbGUubWFlPic=

> <r_epik_Ionization_Penalty>
1.18448

> <r_epik_Ionization_Penalty_Charging>
1.18447

> <r_epik_Ionization_Penalty_Neutral>
4.53746e-06

> <r_epik_State_Penalty>
1.28566

> <r_epik_Charging_Adjusted_Penalty>
2.47013

> <i_epik_Tot_Q>
2

> <i_epik_Tot_abs_Q>
2

> <r_epik_Metal_State_Penalty>
5.30076

> <b_epik_Metal_Only>
0

> <s_lp_Force_Field>
OPLS_2005

> <r_lp_Energy>
59.1266

> <b_lp_Chiralities_Consistent>
1

> <s_lp_Variant>
AV-unprocessed.smi:1633-4

> <Gold.Version>
5.8.1

> <Gold.Id.Protein>
6NUR|6NUR_protein|mol2

> <Gold.PLP.Fitness>
52.3335

> <Gold.PLP.PLP>
-41.7938

> <Gold.PLP.part.hbond>
-2.0000

> <Gold.PLP.part.metal>
0.0000

> <Gold.PLP.part.buried>
-4.7683

> <Gold.PLP.part.nonpolar>
-34.7345

> <Gold.PLP.part.repulsive>
0.1437

> <Gold.PLP.ligand.clash>
0.0000

> <Gold.PLP.ligand.torsion>
0.7798

> <Gold.PLP.Chemscore.Hbond>
4.0000

> <Gold.PLP.Chemscore.CHOScore>
0.0000

> <Gold.PLP.Chemscore.Metal>
0.0000

> <Gold.Chemscore.Hbonds>
donor molecule, donor type, donor heavy atom, donor atom, acceptor molecule, acceptor atom, score
      L1  H     7    51       P1  7948  2.00
      L1  H    14    52       P1  8028  2.00

> <Gold.PLP.Chemscore.Internal.Correction>
0.0993

> <Gold.Rescore>
     Score         DG    S(hbond)    S(metal)    S(lipo)     H(rot)  DE(clash)    DE(int)     intcor
     18.63     -19.66       1.91        0.00     115.09       2.22       0.10       0.93       ----

> <Gold.Chemscore.Fitness>
18.6309

> <Gold.Chemscore.DG>
-19.6636

> <Gold.Chemscore.ZeroCoef>
-5.4800

> <Gold.Chemscore.Hbond>
1.9147

> <Gold.Chemscore.Metal>
0.0000

> <Gold.Chemscore.Lipo>
115.0936

> <Gold.Chemscore.Internal_Hbond>
0.0000

> <Gold.Chemscore.DEClash>
0.0983

> <Gold.Chemscore.DEInternal>
0.9344

> <Gold.Chemscore.Rot>
2.2178

> <Gold.Chemscore.Internal.Correction>
   9.000000E+99

> <Gold.Chemscore.Hbonds>
donor molecule, donor type, donor heavy atom, donor atom, acceptor molecule, acceptor atom, score
      L1  H     7    51       P1  7948  0.95
      L1  H    14    52       P1  8028  0.95

> <Gold.Chemscore.Hbond.Weighted>
-6.3952

> <Gold.Chemscore.Metal.Weighted>
-0.0000

> <Gold.Chemscore.Lipo.Weighted>
-13.4660

> <Gold.Chemscore.Internal_Hbond.Weighted>
0.0000

> <Gold.Chemscore.DEClash.Weighted>
0.0983

> <Gold.Chemscore.DEInternal.Weighted>
0.9344

> <Gold.Chemscore.Rot.Weighted>
5.6775

> <Gold.Chemscore.Internal.Correction.Weighted>
   9.000000E+99

> <Gold.Protein.RotatedTorsions>
[ 6907 6896 6895 6894 ] final  159.25 input  -60.11 | X-H torsion
[ 7974 7965 7964 7962 ] final -168.20 input  175.53 | X-H torsion
[ 8008 7997 7996 7995 ] final  -79.77 input   59.86 | X-H torsion
[ 10167 10162 10161 10158 ] final   14.24 input  -65.29 | X-H torsion
[ 10718 10713 10712 10709 ] final -146.52 input   66.30 | X-H torsion
[ 10763 10752 10751 10750 ] final  -28.41 input  -60.55 | X-H torsion
[ 11005 11000 10999 10996 ] final -143.08 input  -57.11 | X-H torsion

> <Gold.Protein.ActiveResidues>
 VAL166  LYS551  ARG553  GLY616  TRP617  ASP618  TYR619  PRO620  LYS621  CYS622 
 ASP623  PHE694  ASN695  SER759  ASP760  ASP761  ALA762  ILE779  LEU786  VAL792 
 PHE793  MET794  SER795  GLU796  ALA797  LYS798  CYS799  TRP800  GLU811  SER814 

> <Gold.Protein.RotatedAtoms>
  151.9884  133.3782  159.4134 H   0  0  0  0  0  0  0  0  0  0  0  0  # atno 6907 bound_to 6896
  150.6925  134.3964  159.5108 H   0  0  0  0  0  0  0  0  0  0  0  0  # atno 6908 bound_to 6896
  152.1693  134.8847  160.0586 H   0  0  0  0  0  0  0  0  0  0  0  0  # atno 6909 bound_to 6896
  144.7207  140.2405  143.6292 H   0  0  0  0  0  0  0  0  0  0  0  0  # atno 7974 bound_to 7965
  154.5818  140.0673  156.9114 H   0  0  0  0  0  0  0  0  0  0  0  0  # atno 8008 bound_to 7997
  155.2450  140.3347  155.4270 H   0  0  0  0  0  0  0  0  0  0  0  0  # atno 8009 bound_to 7997
  156.2194  140.1792  156.7497 H   0  0  0  0  0  0  0  0  0  0  0  0  # atno 8010 bound_to 7997
  140.5949  143.8722  150.6908 H   0  0  0  0  0  0  0  0  0  0  0  0  # atno 10167 bound_to 10162
  156.3960  130.7909  151.2116 H   0  0  0  0  0  0  0  0  0  0  0  0  # atno 10718 bound_to 10713
  153.7478  135.6928  153.4952 H   0  0  0  0  0  0  0  0  0  0  0  0  # atno 10763 bound_to 10752
  153.2024  135.4432  155.0281 H   0  0  0  0  0  0  0  0  0  0  0  0  # atno 10764 bound_to 10752
  154.8198  135.3416  154.7000 H   0  0  0  0  0  0  0  0  0  0  0  0  # atno 10765 bound_to 10752
  140.8161  134.2686  157.4920 H   0  0  0  0  0  0  0  0  0  0  0  0  # atno 11005 bound_to 11000
  145.8324  139.2092  143.1875 LP  0  0  0  0  0  0  0  0  0  0  0  0  # atno 17320 bound_to 7965
  146.0419  140.8157  142.9824 LP  0  0  0  0  0  0  0  0  0  0  0  0  # atno 17321 bound_to 7965
  140.2254  143.3776  152.1609 LP  0  0  0  0  0  0  0  0  0  0  0  0  # atno 17342 bound_to 10162
  139.5251  144.7092  151.5259 LP  0  0  0  0  0  0  0  0  0  0  0  0  # atno 17343 bound_to 10162
  157.7501  131.0301  150.4123 LP  0  0  0  0  0  0  0  0  0  0  0  0  # atno 17370 bound_to 10713
  156.4393  130.3988  149.6708 LP  0  0  0  0  0  0  0  0  0  0  0  0  # atno 17371 bound_to 10713
  139.8711  134.9510  156.4072 LP  0  0  0  0  0  0  0  0  0  0  0  0  # atno 17394 bound_to 11000
  140.9147  133.7687  155.9834 LP  0  0  0  0  0  0  0  0  0  0  0  0  # atno 17395 bound_to 11000

$$$$
