AV-unprocessed.smi:1806|AV-procd|sdf|7300|dock1
  -GOLD-   22720 8553D 1   1.00000     0.00000
 Structure written by MMmdl.
 27 28  0  0  0  0  0  0  0  0  2 V2000
  151.8843  144.5387  159.9731 C   0  0  0  0  0  0  0  0  0  0  0  0
  152.5203  143.1671  160.0557 C   0  0  0  0  0  0  0  0  0  0  0  0
  153.1801  142.7483  161.2276 C   0  0  0  0  0  0  0  0  0  0  0  0
  153.7504  141.4630  161.2406 C   0  0  0  0  0  0  0  0  0  0  0  0
  153.6409  140.6596  160.0897 C   0  0  0  0  0  0  0  0  0  0  0  0
  152.9695  141.1592  158.9493 C   0  0  0  0  0  0  0  0  0  0  0  0
  152.8480  140.3973  157.8516 N   0  5  0  0  0  0  0  0  0  0  0  0
  151.7995  140.5597  157.0036 C   0  0  0  0  0  0  0  0  0  0  0  0
  150.9913  141.4906  157.0720 O   0  0  0  0  0  0  0  0  0  0  0  0
  151.6689  139.5426  155.9632 C   0  0  0  0  0  0  0  0  0  0  0  0
  152.2354  138.3236  156.1299 C   0  0  0  0  0  0  0  0  0  0  0  0
  152.1896  137.3244  155.1897 O   0  0  0  0  0  0  0  0  0  0  0  0
  151.7150  137.7324  153.9123 C   0  0  0  0  0  0  0  0  0  0  0  0
  150.5344  138.7017  154.0643 C   0  0  0  0  0  0  0  0  0  0  0  0
  150.9224  139.8287  154.8408 O   0  0  0  0  0  0  0  0  0  0  0  0
  152.4163  142.3958  158.9515 N   0  0  0  0  0  0  0  0  0  0  0  0
  151.6372  144.9142  160.9665 H   0  0  0  0  0  0  0  0  0  0  0  0
  150.9653  144.5059  159.3864 H   0  0  0  0  0  0  0  0  0  0  0  0
  152.5697  145.2423  159.5003 H   0  0  0  0  0  0  0  0  0  0  0  0
  153.2472  143.3913  162.0926 H   0  0  0  0  0  0  0  0  0  0  0  0
  154.2629  141.0976  162.1181 H   0  0  0  0  0  0  0  0  0  0  0  0
  154.0720  139.6691  160.0813 H   0  0  0  0  0  0  0  0  0  0  0  0
  152.8109  138.0237  156.9939 H   0  0  0  0  0  0  0  0  0  0  0  0
  152.5281  138.2071  153.3615 H   0  0  0  0  0  0  0  0  0  0  0  0
  151.4144  136.8512  153.3453 H   0  0  0  0  0  0  0  0  0  0  0  0
  150.1914  139.0425  153.0873 H   0  0  0  0  0  0  0  0  0  0  0  0
  149.6909  138.2055  154.5465 H   0  0  0  0  0  0  0  0  0  0  0  0
  1  2  1  0  0  0  0
  1 17  1  0  0  0  0
  1 18  1  0  0  0  0
  1 19  1  0  0  0  0
  2 16  1  0  0  0  0
  2  3  2  0  0  0  0
  3  4  1  0  0  0  0
  3 20  1  0  0  0  0
  4  5  2  0  0  0  0
  4 21  1  0  0  0  0
  5  6  1  0  0  0  0
  5 22  1  0  0  0  0
  6  7  1  0  0  0  0
  6 16  2  0  0  0  0
  7  8  1  0  0  0  0
  8  9  2  0  0  0  0
  8 10  1  0  0  0  0
 10 15  1  0  0  0  0
 10 11  2  0  0  0  0
 11 12  1  0  0  0  0
 11 23  1  0  0  0  0
 12 13  1  0  0  0  0
 13 14  1  0  0  0  0
 13 24  1  0  0  0  0
 13 25  1  0  0  0  0
 14 15  1  0  0  0  0
 14 26  1  0  0  0  0
 14 27  1  0  0  0  0
M  CHG  1   7  -1
M  END
> <s_m_source_file>
AV-unprocessed.smi

> <i_m_source_file_index>
1806

> <i_lp_mmshare_version>
43012

> <i_f3d_flags>
0

> <s_epik_input>
W0NIM11jMVtjSF1bY0hdW2NIXWMobjEpW05IXUMoPU8pQzI9W0NIXU9bQ0gyXVtDSDJdTzI=

> <s_epik_cmdline>
J2VwaWtfcHl0aG9uJywgJy1waCcsICc3LjAnLCAnLXRuJywgJzgnLCAnLW1hJywgJzIwMCcsICctbWV0YWxfYmluZGluZycsICctaW1hZScsICc8aW5maWxlLm1hZT4nLCAnLW9tYWUnLCAnPG91dGZpbGUubWFlPic=

> <r_lp_tautomer_probability>
1

> <r_epik_Ionization_Penalty>
11.2807

> <r_epik_Ionization_Penalty_Charging>
5.82682

> <r_epik_Ionization_Penalty_Neutral>
5.45386

> <r_epik_State_Penalty>
5.82679

> <r_epik_Charging_Adjusted_Penalty>
11.6536

> <i_epik_Tot_Q>
-1

> <i_epik_Tot_abs_Q>
1

> <r_epik_Metal_State_Penalty>
1.79445

> <b_epik_Metal_Only>
1

> <s_lp_Force_Field>
OPLS_2005

> <r_lp_Energy>
4.64637

> <b_lp_Chiralities_Consistent>
1

> <s_lp_Variant>
AV-unprocessed.smi:1806-2

> <Gold.Version>
5.8.1

> <Gold.Id.Protein>
6NUR|6NUR_protein|mol2

> <Gold.PLP.Fitness>
44.8495

> <Gold.PLP.PLP>
-34.1475

> <Gold.PLP.part.hbond>
-3.0000

> <Gold.PLP.part.metal>
0.0000

> <Gold.PLP.part.buried>
-3.6946

> <Gold.PLP.part.nonpolar>
-27.9777

> <Gold.PLP.part.repulsive>
0.1658

> <Gold.PLP.ligand.clash>
0.0000

> <Gold.PLP.ligand.torsion>
0.3684

> <Gold.PLP.Chemscore.Hbond>
3.7520

> <Gold.PLP.Chemscore.CHOScore>
0.0000

> <Gold.PLP.Chemscore.Metal>
0.0000

> <Gold.Chemscore.Hbonds>
donor molecule, donor type, donor heavy atom, donor atom, acceptor molecule, acceptor atom, score
      P1  H  7989  7998       L1    15  0.95
      P1  H  7997  8009       L1     7  1.76
      P1  H 10752 10765       L1    12  0.77

> <Gold.PLP.Chemscore.Internal.Correction>
0.1828

> <Gold.Rescore>
     Score         DG    S(hbond)    S(metal)    S(lipo)     H(rot)  DE(clash)    DE(int)     intcor
     17.50     -20.30       1.51        0.00      83.54       0.00       0.65       2.15       ----

> <Gold.Chemscore.Fitness>
17.5027

> <Gold.Chemscore.DG>
-20.3016

> <Gold.Chemscore.ZeroCoef>
-5.4800

> <Gold.Chemscore.Hbond>
1.5114

> <Gold.Chemscore.Metal>
0.0000

> <Gold.Chemscore.Lipo>
83.5356

> <Gold.Chemscore.Internal_Hbond>
0.0000

> <Gold.Chemscore.DEClash>
0.6479

> <Gold.Chemscore.DEInternal>
2.1509

> <Gold.Chemscore.Rot>
0.0000

> <Gold.Chemscore.Internal.Correction>
   9.000000E+99

> <Gold.Chemscore.Hbonds>
donor molecule, donor type, donor heavy atom, donor atom, acceptor molecule, acceptor atom, score
      P1  H  7989  7998       L1    15  0.21
      P1  H  7997  8009       L1     7  0.57
      P1  H 10752 10765       L1    12  0.29

> <Gold.Chemscore.Hbond.Weighted>
-5.0479

> <Gold.Chemscore.Metal.Weighted>
-0.0000

> <Gold.Chemscore.Lipo.Weighted>
-9.7737

> <Gold.Chemscore.Internal_Hbond.Weighted>
0.0000

> <Gold.Chemscore.DEClash.Weighted>
0.6479

> <Gold.Chemscore.DEInternal.Weighted>
2.1509

> <Gold.Chemscore.Rot.Weighted>
0.0000

> <Gold.Chemscore.Internal.Correction.Weighted>
   9.000000E+99

> <Gold.Protein.RotatedTorsions>
[ 6907 6896 6895 6894 ] final  -75.02 input  -60.11 | X-H torsion
[ 7974 7965 7964 7962 ] final   37.98 input  175.53 | X-H torsion
[ 8008 7997 7996 7995 ] final  168.75 input   59.86 | X-H torsion
[ 10167 10162 10161 10158 ] final -150.14 input  -65.29 | X-H torsion
[ 10718 10713 10712 10709 ] final -129.18 input   66.30 | X-H torsion
[ 10763 10752 10751 10750 ] final -166.67 input  -60.55 | X-H torsion
[ 11005 11000 10999 10996 ] final  124.53 input  -57.11 | X-H torsion

> <Gold.Protein.ActiveResidues>
 VAL166  LYS551  ARG553  GLY616  TRP617  ASP618  TYR619  PRO620  LYS621  CYS622 
 ASP623  PHE694  ASN695  SER759  ASP760  ASP761  ALA762  ILE779  LEU786  VAL792 
 PHE793  MET794  SER795  GLU796  ALA797  LYS798  CYS799  TRP800  GLU811  SER814 

> <Gold.Protein.RotatedAtoms>
  150.7073  134.4783  159.5457 H   0  0  0  0  0  0  0  0  0  0  0  0  # atno 6907 bound_to 6896
  152.2425  134.8211  160.0467 H   0  0  0  0  0  0  0  0  0  0  0  0  # atno 6908 bound_to 6896
  151.8987  133.3498  159.3860 H   0  0  0  0  0  0  0  0  0  0  0  0  # atno 6909 bound_to 6896
  146.1097  139.5828  142.9360 H   0  0  0  0  0  0  0  0  0  0  0  0  # atno 7974 bound_to 7965
  156.1519  140.1582  156.8756 H   0  0  0  0  0  0  0  0  0  0  0  0  # atno 8008 bound_to 7997
  154.5079  140.0808  156.7967 H   0  0  0  0  0  0  0  0  0  0  0  0  # atno 8009 bound_to 7997
  155.3880  140.3408  155.4252 H   0  0  0  0  0  0  0  0  0  0  0  0  # atno 8010 bound_to 7997
  139.7380  143.8706  152.2554 H   0  0  0  0  0  0  0  0  0  0  0  0  # atno 10167 bound_to 10162
  156.2022  130.6865  151.0553 H   0  0  0  0  0  0  0  0  0  0  0  0  # atno 10718 bound_to 10713
  154.6809  135.2954  154.9614 H   0  0  0  0  0  0  0  0  0  0  0  0  # atno 10763 bound_to 10752
  154.0609  135.6631  153.4815 H   0  0  0  0  0  0  0  0  0  0  0  0  # atno 10764 bound_to 10752
  153.0547  135.5152  154.7852 H   0  0  0  0  0  0  0  0  0  0  0  0  # atno 10765 bound_to 10752
  139.9363  134.9639  156.8423 H   0  0  0  0  0  0  0  0  0  0  0  0  # atno 11005 bound_to 11000
  145.5689  141.0396  143.2185 LP  0  0  0  0  0  0  0  0  0  0  0  0  # atno 17320 bound_to 7965
  144.7501  139.7217  143.7276 LP  0  0  0  0  0  0  0  0  0  0  0  0  # atno 17321 bound_to 7965
  139.8648  144.7099  150.9057 LP  0  0  0  0  0  0  0  0  0  0  0  0  # atno 17342 bound_to 10162
  140.7782  143.3787  151.1516 LP  0  0  0  0  0  0  0  0  0  0  0  0  # atno 17343 bound_to 10162
  157.6992  131.0782  150.6873 LP  0  0  0  0  0  0  0  0  0  0  0  0  # atno 17370 bound_to 10713
  156.6931  130.4601  149.5594 LP  0  0  0  0  0  0  0  0  0  0  0  0  # atno 17371 bound_to 10713
  140.6067  134.0121  155.7559 LP  0  0  0  0  0  0  0  0  0  0  0  0  # atno 17394 bound_to 11000
  141.0978  133.9816  157.3130 LP  0  0  0  0  0  0  0  0  0  0  0  0  # atno 17395 bound_to 11000

$$$$
