AV-unprocessed.smi:2044|AV-procd|sdf|8298|dock1
  -GOLD-   2272010563D 1   1.00000     0.00000
 Structure written by MMmdl.
 39 40  0  0  0  0  0  0  0  0  1 V2000
  146.4551  130.1740  152.9987 C   0  0  0  0  0  0  0  0  0  0  0  0
  147.1822  131.3083  153.6356 C   0  0  0  0  0  0  0  0  0  0  0  0
  147.5948  132.5257  153.1718 C   0  0  0  0  0  0  0  0  0  0  0  0
  148.2281  133.1020  154.3050 C   0  0  0  0  0  0  0  0  0  0  0  0
  148.8074  134.3948  154.2362 N   0  0  0  0  0  0  0  0  0  0  0  0
  149.4078  135.0770  155.2263 C   0  0  0  0  0  0  0  0  0  0  0  0
  149.5404  134.6768  156.3834 O   0  0  0  0  0  0  0  0  0  0  0  0
  149.8479  136.2685  154.7971 N   0  0  0  0  0  0  0  0  0  0  0  0
  150.5272  137.2712  155.6156 C   0  0  0  0  0  0  0  0  0  0  0  0
  151.3828  138.2486  154.7672 C   0  0  2  0  0  0  0  0  0  0  0  0
  152.8062  138.3023  155.3667 C   0  0  0  0  0  0  0  0  0  0  0  0
  150.7687  139.5821  154.5814 N   0  0  0  0  0  0  0  0  0  0  0  0
  149.4418  139.5079  153.9620 C   0  0  0  0  0  0  0  0  0  0  0  0
  148.7893  140.8905  153.7900 C   0  0  0  0  0  0  0  0  0  0  0  0
  148.7088  141.5425  155.0506 O   0  0  0  0  0  0  0  0  0  0  0  0
  149.9849  141.6997  155.6564 C   0  0  0  0  0  0  0  0  0  0  0  0
  150.6429  140.3215  155.8412 C   0  0  0  0  0  0  0  0  0  0  0  0
  148.2040  132.3082  155.3648 N   0  0  0  0  0  0  0  0  0  0  0  0
  147.5341  131.1543  154.9410 O   0  0  0  0  0  0  0  0  0  0  0  0
  145.8955  130.5120  152.1263 H   0  0  0  0  0  0  0  0  0  0  0  0
  145.7502  129.7216  153.6968 H   0  0  0  0  0  0  0  0  0  0  0  0
  147.1535  129.4025  152.6749 H   0  0  0  0  0  0  0  0  0  0  0  0
  147.4642  132.9341  152.1808 H   0  0  0  0  0  0  0  0  0  0  0  0
  148.7638  134.8472  153.3351 H   0  0  0  0  0  0  0  0  0  0  0  0
  149.6856  136.5128  153.8312 H   0  0  0  0  0  0  0  0  0  0  0  0
  149.8088  137.8299  156.2176 H   0  0  0  0  0  0  0  0  0  0  0  0
  151.1430  136.7507  156.3481 H   0  0  0  0  0  0  0  0  0  0  0  0
  151.4841  137.7881  153.7832 H   0  0  0  0  0  0  0  0  0  0  0  0
  153.1762  137.3026  155.5956 H   0  0  0  0  0  0  0  0  0  0  0  0
  152.8304  138.8815  156.2902 H   0  0  0  0  0  0  0  0  0  0  0  0
  153.5258  138.7408  154.6762 H   0  0  0  0  0  0  0  0  0  0  0  0
  149.5063  139.0524  152.9748 H   0  0  0  0  0  0  0  0  0  0  0  0
  148.7886  138.8721  154.5616 H   0  0  0  0  0  0  0  0  0  0  0  0
  149.3600  141.5029  153.0900 H   0  0  0  0  0  0  0  0  0  0  0  0
  147.7847  140.7866  153.3794 H   0  0  0  0  0  0  0  0  0  0  0  0
  150.6110  142.3483  155.0416 H   0  0  0  0  0  0  0  0  0  0  0  0
  149.8627  142.1930  156.6205 H   0  0  0  0  0  0  0  0  0  0  0  0
  150.0620  139.7372  156.5565 H   0  0  0  0  0  0  0  0  0  0  0  0
  151.6218  140.4846  156.2891 H   0  0  0  0  0  0  0  0  0  0  0  0
  1  2  1  0  0  0  0
  1 20  1  0  0  0  0
  1 21  1  0  0  0  0
  1 22  1  0  0  0  0
  2 19  1  0  0  0  0
  2  3  2  0  0  0  0
  3  4  1  0  0  0  0
  3 23  1  0  0  0  0
  4  5  1  0  0  0  0
  4 18  2  0  0  0  0
  5  6  1  0  0  0  0
  5 24  1  0  0  0  0
  6  7  2  0  0  0  0
  6  8  1  0  0  0  0
  8  9  1  0  0  0  0
  8 25  1  0  0  0  0
  9 10  1  0  0  0  0
  9 26  1  0  0  0  0
  9 27  1  0  0  0  0
 10 11  1  0  0  0  0
 10 12  1  0  0  0  0
 10 28  1  0  0  0  0
 11 29  1  0  0  0  0
 11 30  1  0  0  0  0
 11 31  1  0  0  0  0
 12 17  1  0  0  0  0
 12 13  1  0  0  0  0
 13 14  1  0  0  0  0
 13 32  1  0  0  0  0
 13 33  1  0  0  0  0
 14 15  1  0  0  0  0
 14 34  1  0  0  0  0
 14 35  1  0  0  0  0
 15 16  1  0  0  0  0
 16 17  1  0  0  0  0
 16 36  1  0  0  0  0
 16 37  1  0  0  0  0
 17 38  1  0  0  0  0
 17 39  1  0  0  0  0
 18 19  1  0  0  0  0
M  END
> <s_m_source_file>
AV-unprocessed.smi

> <i_m_source_file_index>
2044

> <i_lp_mmshare_version>
43012

> <i_f3d_flags>
0

> <s_epik_input>
W0NIM11jMVtjSF1jKG5vMSlbTkhdQyg9TylbTkhdW0NIMl1bQ0BIXShbQ0gzXSlOMltDSDJdW0NIMl1PW0NIMl1bQ0gyXTI=

> <s_epik_cmdline>
J2VwaWtfcHl0aG9uJywgJy1waCcsICc3LjAnLCAnLXRuJywgJzgnLCAnLW1hJywgJzIwMCcsICctbWV0YWxfYmluZGluZycsICctaW1hZScsICc8aW5maWxlLm1hZT4nLCAnLW9tYWUnLCAnPG91dGZpbGUubWFlPic=

> <r_epik_Ionization_Penalty>
0.214073

> <r_epik_Ionization_Penalty_Charging>
0

> <r_epik_Ionization_Penalty_Neutral>
0.214073

> <r_epik_State_Penalty>
0.204211

> <r_epik_Charging_Adjusted_Penalty>
0.204211

> <i_epik_Tot_Q>
0

> <i_epik_Tot_abs_Q>
0

> <r_epik_Metal_State_Penalty>
0.217151

> <b_epik_Metal_Only>
0

> <s_lp_Force_Field>
OPLS_2005

> <r_lp_Energy>
29.787

> <b_lp_Chiralities_Consistent>
1

> <s_lp_Variant>
AV-unprocessed.smi:2044-1

> <Gold.Version>
5.8.1

> <Gold.Id.Protein>
6NUR|6NUR_protein|mol2

> <Gold.PLP.Fitness>
42.2253

> <Gold.PLP.PLP>
-34.9885

> <Gold.PLP.part.hbond>
-3.6643

> <Gold.PLP.part.metal>
0.0000

> <Gold.PLP.part.buried>
-4.2147

> <Gold.PLP.part.nonpolar>
-28.4143

> <Gold.PLP.part.repulsive>
0.3693

> <Gold.PLP.ligand.clash>
0.0000

> <Gold.PLP.ligand.torsion>
0.8364

> <Gold.PLP.Chemscore.Hbond>
2.9516

> <Gold.PLP.Chemscore.CHOScore>
0.0000

> <Gold.PLP.Chemscore.Metal>
0.0000

> <Gold.Chemscore.Hbonds>
donor molecule, donor type, donor heavy atom, donor atom, acceptor molecule, acceptor atom, score
      L1  H     5    24       P1  7948  1.00
      L1  H     8    25       P1  7948  0.86
      P1  H  7989  7998       L1    12  1.00

> <Gold.PLP.Chemscore.Internal.Correction>
0.0547

> <Gold.Rescore>
     Score         DG    S(hbond)    S(metal)    S(lipo)     H(rot)  DE(clash)    DE(int)     intcor
     12.40     -14.26       1.61        0.00      63.58       1.58       0.01       1.85       ----

> <Gold.Chemscore.Fitness>
12.3974

> <Gold.Chemscore.DG>
-14.2562

> <Gold.Chemscore.ZeroCoef>
-5.4800

> <Gold.Chemscore.Hbond>
1.6080

> <Gold.Chemscore.Metal>
0.0000

> <Gold.Chemscore.Lipo>
63.5755

> <Gold.Chemscore.Internal_Hbond>
0.0000

> <Gold.Chemscore.DEClash>
0.0129

> <Gold.Chemscore.DEInternal>
1.8458

> <Gold.Chemscore.Rot>
1.5753

> <Gold.Chemscore.Internal.Correction>
   9.000000E+99

> <Gold.Chemscore.Hbonds>
donor molecule, donor type, donor heavy atom, donor atom, acceptor molecule, acceptor atom, score
      L1  H     5    24       P1  7948  0.38
      L1  H     8    25       P1  7948  0.50
      P1  H  7989  7998       L1    12  0.10

> <Gold.Chemscore.Hbond.Weighted>
-5.3707

> <Gold.Chemscore.Metal.Weighted>
-0.0000

> <Gold.Chemscore.Lipo.Weighted>
-7.4383

> <Gold.Chemscore.Internal_Hbond.Weighted>
0.0000

> <Gold.Chemscore.DEClash.Weighted>
0.0129

> <Gold.Chemscore.DEInternal.Weighted>
1.8458

> <Gold.Chemscore.Rot.Weighted>
4.0329

> <Gold.Chemscore.Internal.Correction.Weighted>
   9.000000E+99

> <Gold.Protein.RotatedTorsions>
[ 6907 6896 6895 6894 ] final   42.13 input  -60.11 | X-H torsion
[ 7974 7965 7964 7962 ] final -145.29 input  175.53 | X-H torsion
[ 8008 7997 7996 7995 ] final  171.05 input   59.86 | X-H torsion
[ 10167 10162 10161 10158 ] final   36.60 input  -65.29 | X-H torsion
[ 10718 10713 10712 10709 ] final   90.03 input   66.30 | X-H torsion
[ 10763 10752 10751 10750 ] final -140.84 input  -60.55 | X-H torsion
[ 11005 11000 10999 10996 ] final   14.47 input  -57.11 | X-H torsion

> <Gold.Protein.ActiveResidues>
 VAL166  LYS551  ARG553  GLY616  TRP617  ASP618  TYR619  PRO620  LYS621  CYS622 
 ASP623  PHE694  ASN695  SER759  ASP760  ASP761  ALA762  ILE779  LEU786  VAL792 
 PHE793  MET794  SER795  GLU796  ALA797  LYS798  CYS799  TRP800  GLU811  SER814 

> <Gold.Protein.RotatedAtoms>
  152.2040  134.8562  160.0504 H   0  0  0  0  0  0  0  0  0  0  0  0  # atno 6907 bound_to 6896
  151.9405  133.3631  159.3972 H   0  0  0  0  0  0  0  0  0  0  0  0  # atno 6908 bound_to 6896
  150.6961  134.4368  159.5318 H   0  0  0  0  0  0  0  0  0  0  0  0  # atno 6909 bound_to 6896
  144.8238  140.5603  143.5561 H   0  0  0  0  0  0  0  0  0  0  0  0  # atno 7974 bound_to 7965
  156.1307  140.1522  156.9069 H   0  0  0  0  0  0  0  0  0  0  0  0  # atno 8008 bound_to 7997
  154.4907  140.0852  156.7628 H   0  0  0  0  0  0  0  0  0  0  0  0  # atno 8009 bound_to 7997
  155.4260  140.3425  155.4278 H   0  0  0  0  0  0  0  0  0  0  0  0  # atno 8010 bound_to 7997
  140.4113  144.1589  150.6139 H   0  0  0  0  0  0  0  0  0  0  0  0  # atno 10167 bound_to 10162
  157.6957  131.0355  150.3516 H   0  0  0  0  0  0  0  0  0  0  0  0  # atno 10718 bound_to 10713
  154.8565  135.3541  154.5773 H   0  0  0  0  0  0  0  0  0  0  0  0  # atno 10763 bound_to 10752
  153.6384  135.6999  153.5255 H   0  0  0  0  0  0  0  0  0  0  0  0  # atno 10764 bound_to 10752
  153.2991  135.4212  155.1195 H   0  0  0  0  0  0  0  0  0  0  0  0  # atno 10765 bound_to 10752
  140.4691  134.1049  155.7729 H   0  0  0  0  0  0  0  0  0  0  0  0  # atno 11005 bound_to 11000
  145.5046  139.1482  143.3638 LP  0  0  0  0  0  0  0  0  0  0  0  0  # atno 17320 bound_to 7965
  146.2543  140.5186  142.8880 LP  0  0  0  0  0  0  0  0  0  0  0  0  # atno 17321 bound_to 7965
  140.4635  143.2440  151.9187 LP  0  0  0  0  0  0  0  0  0  0  0  0  # atno 17342 bound_to 10162
  139.4782  144.5443  151.8481 LP  0  0  0  0  0  0  0  0  0  0  0  0  # atno 17343 bound_to 10162
  156.3963  130.3907  149.6992 LP  0  0  0  0  0  0  0  0  0  0  0  0  # atno 17370 bound_to 10713
  156.4325  130.7822  151.2842 LP  0  0  0  0  0  0  0  0  0  0  0  0  # atno 17371 bound_to 10713
  141.1585  133.8837  157.1912 LP  0  0  0  0  0  0  0  0  0  0  0  0  # atno 17394 bound_to 11000
  139.9896  135.0069  156.9945 LP  0  0  0  0  0  0  0  0  0  0  0  0  # atno 17395 bound_to 11000

$$$$
