AV-unprocessed.smi:1887|AV-procd|sdf|7656|dock3
  -GOLD-   22720 9393D 1   1.00000     0.00000
 Structure written by MMmdl.
 43 45  0  0  0  0  0  0  0  0  2 V2000
  152.1477  129.3281  154.6029 C   0  0  0  0  0  0  0  0  0  0  0  0
  150.9934  129.2035  155.4132 O   0  0  0  0  0  0  0  0  0  0  0  0
  149.7902  129.2784  154.6668 C   0  0  0  0  0  0  0  0  0  0  0  0
  148.7857  130.1779  155.4000 C   0  0  0  0  0  0  0  0  0  0  0  0
  148.9816  131.5912  155.0851 N   0  0  0  0  0  0  0  0  0  0  0  0
  148.3798  132.3216  154.1111 C   0  0  0  0  0  0  0  0  0  0  0  0
  147.4255  131.7522  153.2423 N   0  0  0  0  0  0  0  0  0  0  0  0
  147.4201  130.4210  153.0227 N   0  0  0  0  0  0  0  0  0  0  0  0
  146.4305  130.2217  152.1689 C   0  0  0  0  0  0  0  0  0  0  0  0
  146.1311  128.8211  151.7179 C   0  0  0  0  0  0  0  0  0  0  0  0
  145.7771  131.4343  151.8007 C   0  0  0  0  0  0  0  0  0  0  0  0
  144.6189  131.5997  150.8553 C   0  0  0  0  0  0  0  0  0  0  0  0
  146.4486  132.3969  152.5055 C   0  0  0  0  0  0  0  0  0  0  0  0
  146.2523  133.8798  152.5480 C   0  0  0  0  0  0  0  0  0  0  0  0
  148.7356  133.6069  154.0673 N   0  0  0  0  0  0  0  0  0  0  0  0
  149.6508  133.7032  155.1058 C   0  0  0  0  0  0  0  0  0  0  0  0
  149.8105  132.5083  155.7368 C   0  0  0  0  0  0  0  0  0  0  0  0
  150.7020  132.3018  156.8986 C   0  0  0  0  0  0  0  0  0  0  0  0
  150.7993  131.2004  157.4359 O   0  0  0  0  0  0  0  0  0  0  0  0
  151.3523  133.4528  157.2612 N   0  5  0  0  0  0  0  0  0  0  0  0
  151.2224  134.6828  156.6522 C   0  0  0  0  0  0  0  0  0  0  0  0
  151.8410  135.6720  157.0472 O   0  0  0  0  0  0  0  0  0  0  0  0
  150.3841  134.8262  155.5774 N   0  0  0  0  0  0  0  0  0  0  0  0
  150.2249  136.1223  154.9119 C   0  0  0  0  0  0  0  0  0  0  0  0
  153.0392  129.2591  155.2260 H   0  0  0  0  0  0  0  0  0  0  0  0
  152.1675  130.2916  154.0922 H   0  0  0  0  0  0  0  0  0  0  0  0
  152.1944  128.5335  153.8573 H   0  0  0  0  0  0  0  0  0  0  0  0
  149.9911  129.6739  153.6702 H   0  0  0  0  0  0  0  0  0  0  0  0
  149.3693  128.2799  154.5419 H   0  0  0  0  0  0  0  0  0  0  0  0
  147.7640  129.8955  155.1495 H   0  0  0  0  0  0  0  0  0  0  0  0
  148.8709  130.0225  156.4741 H   0  0  0  0  0  0  0  0  0  0  0  0
  145.4823  128.8130  150.8422 H   0  0  0  0  0  0  0  0  0  0  0  0
  145.6313  128.2568  152.5053 H   0  0  0  0  0  0  0  0  0  0  0  0
  147.0448  128.2879  151.4540 H   0  0  0  0  0  0  0  0  0  0  0  0
  144.4926  132.6344  150.5365 H   0  0  0  0  0  0  0  0  0  0  0  0
  143.6808  131.2882  151.3147 H   0  0  0  0  0  0  0  0  0  0  0  0
  144.7480  131.0054  149.9509 H   0  0  0  0  0  0  0  0  0  0  0  0
  145.2132  134.1421  152.3509 H   0  0  0  0  0  0  0  0  0  0  0  0
  146.8734  134.3703  151.7988 H   0  0  0  0  0  0  0  0  0  0  0  0
  146.5139  134.2918  153.5227 H   0  0  0  0  0  0  0  0  0  0  0  0
  151.1906  136.5053  154.5789 H   0  0  0  0  0  0  0  0  0  0  0  0
  149.7871  136.8491  155.5973 H   0  0  0  0  0  0  0  0  0  0  0  0
  149.5802  136.0684  154.0347 H   0  0  0  0  0  0  0  0  0  0  0  0
  1  2  1  0  0  0  0
  1 25  1  0  0  0  0
  1 26  1  0  0  0  0
  1 27  1  0  0  0  0
  2  3  1  0  0  0  0
  3  4  1  0  0  0  0
  3 28  1  0  0  0  0
  3 29  1  0  0  0  0
  4  5  1  0  0  0  0
  4 30  1  0  0  0  0
  4 31  1  0  0  0  0
  5 17  1  0  0  0  0
  5  6  1  0  0  0  0
  6  7  1  0  0  0  0
  6 15  2  0  0  0  0
  7 13  1  0  0  0  0
  7  8  1  0  0  0  0
  8  9  2  0  0  0  0
  9 10  1  0  0  0  0
  9 11  1  0  0  0  0
 10 32  1  0  0  0  0
 10 33  1  0  0  0  0
 10 34  1  0  0  0  0
 11 12  1  0  0  0  0
 11 13  2  0  0  0  0
 12 35  1  0  0  0  0
 12 36  1  0  0  0  0
 12 37  1  0  0  0  0
 13 14  1  0  0  0  0
 14 38  1  0  0  0  0
 14 39  1  0  0  0  0
 14 40  1  0  0  0  0
 15 16  1  0  0  0  0
 16 23  1  0  0  0  0
 16 17  2  0  0  0  0
 17 18  1  0  0  0  0
 18 19  2  0  0  0  0
 18 20  1  0  0  0  0
 20 21  1  0  0  0  0
 21 22  2  0  0  0  0
 21 23  1  0  0  0  0
 23 24  1  0  0  0  0
 24 41  1  0  0  0  0
 24 42  1  0  0  0  0
 24 43  1  0  0  0  0
M  CHG  1  20  -1
M  END
> <s_m_source_file>
AV-unprocessed.smi

> <i_m_source_file_index>
1887

> <i_lp_mmshare_version>
43012

> <i_f3d_flags>
0

> <s_epik_input>
W0NIM11uMWMoPU8pW25IXWMoPU8pYyhjMTIpbihbQ0gyXVtDSDJdT1tDSDNdKWMobjIpLW4zbmMoW0NIM10pYyhbQ0gzXSljM1tDSDNd

> <s_epik_cmdline>
J2VwaWtfcHl0aG9uJywgJy1waCcsICc3LjAnLCAnLXRuJywgJzgnLCAnLW1hJywgJzIwMCcsICctbWV0YWxfYmluZGluZycsICctaW1hZScsICc8aW5maWxlLm1hZT4nLCAnLW9tYWUnLCAnPG91dGZpbGUubWFlPic=

> <r_lp_tautomer_probability>
1

> <r_epik_Ionization_Penalty>
3.98818

> <r_epik_Ionization_Penalty_Charging>
0.0180637

> <r_epik_Ionization_Penalty_Neutral>
3.97012

> <r_epik_State_Penalty>
3.96767

> <r_epik_Charging_Adjusted_Penalty>
3.98573

> <i_epik_Tot_Q>
-1

> <i_epik_Tot_abs_Q>
1

> <r_epik_Metal_State_Penalty>
0.612715

> <b_epik_Metal_Only>
1

> <s_lp_Force_Field>
OPLS_2005

> <r_lp_Energy>
28.3599

> <b_lp_Chiralities_Consistent>
1

> <s_lp_Variant>
AV-unprocessed.smi:1887-2

> <Gold.Version>
5.8.1

> <Gold.Id.Protein>
6NUR|6NUR_protein|mol2

> <Gold.PLP.Fitness>
39.7781

> <Gold.PLP.PLP>
-37.5896

> <Gold.PLP.part.hbond>
-2.0000

> <Gold.PLP.part.metal>
0.0000

> <Gold.PLP.part.buried>
-3.4625

> <Gold.PLP.part.nonpolar>
-32.1672

> <Gold.PLP.part.repulsive>
0.3125

> <Gold.PLP.ligand.clash>
0.0000

> <Gold.PLP.ligand.torsion>
1.0332

> <Gold.PLP.Chemscore.Hbond>
1.2799

> <Gold.PLP.Chemscore.CHOScore>
0.0000

> <Gold.PLP.Chemscore.Metal>
0.0000

> <Gold.Chemscore.Hbonds>
donor molecule, donor type, donor heavy atom, donor atom, acceptor molecule, acceptor atom, score
      P1  H  6896  6909       L1    20  1.15

> <Gold.PLP.Chemscore.Internal.Correction>
0.4152

> <Gold.Rescore>
     Score         DG    S(hbond)    S(metal)    S(lipo)     H(rot)  DE(clash)    DE(int)     intcor
      6.79     -11.76       0.51        0.00      71.60       1.48       0.00       4.96       ----

> <Gold.Chemscore.Fitness>
6.7940

> <Gold.Chemscore.DG>
-11.7562

> <Gold.Chemscore.ZeroCoef>
-5.4800

> <Gold.Chemscore.Hbond>
0.5079

> <Gold.Chemscore.Metal>
0.0000

> <Gold.Chemscore.Lipo>
71.5966

> <Gold.Chemscore.Internal_Hbond>
0.0000

> <Gold.Chemscore.DEClash>
0.0000

> <Gold.Chemscore.DEInternal>
4.9622

> <Gold.Chemscore.Rot>
1.4832

> <Gold.Chemscore.Internal.Correction>
   9.000000E+99

> <Gold.Chemscore.Hbonds>
donor molecule, donor type, donor heavy atom, donor atom, acceptor molecule, acceptor atom, score
      P1  H  6896  6909       L1    20  0.28

> <Gold.Chemscore.Hbond.Weighted>
-1.6964

> <Gold.Chemscore.Metal.Weighted>
-0.0000

> <Gold.Chemscore.Lipo.Weighted>
-8.3768

> <Gold.Chemscore.Internal_Hbond.Weighted>
0.0000

> <Gold.Chemscore.DEClash.Weighted>
0.0000

> <Gold.Chemscore.DEInternal.Weighted>
4.9622

> <Gold.Chemscore.Rot.Weighted>
3.7970

> <Gold.Chemscore.Internal.Correction.Weighted>
   9.000000E+99

> <Gold.Protein.RotatedTorsions>
[ 6907 6896 6895 6894 ] final  -50.75 input  -60.11 | X-H torsion
[ 7974 7965 7964 7962 ] final -120.58 input  175.53 | X-H torsion
[ 8008 7997 7996 7995 ] final   97.42 input   59.86 | X-H torsion
[ 10167 10162 10161 10158 ] final   17.87 input  -65.29 | X-H torsion
[ 10718 10713 10712 10709 ] final  178.38 input   66.30 | X-H torsion
[ 10763 10752 10751 10750 ] final  -47.47 input  -60.55 | X-H torsion
[ 11005 11000 10999 10996 ] final   31.19 input  -57.11 | X-H torsion

> <Gold.Protein.ActiveResidues>
 VAL166  LYS551  ARG553  GLY616  TRP617  ASP618  TYR619  PRO620  LYS621  CYS622 
 ASP623  PHE694  ASN695  SER759  ASP760  ASP761  ALA762  ILE779  LEU786  VAL792 
 PHE793  MET794  SER795  GLU796  ALA797  LYS798  CYS799  TRP800  GLU811  SER814 

> <Gold.Protein.RotatedAtoms>
  150.8677  134.8044  159.7130 H   0  0  0  0  0  0  0  0  0  0  0  0  # atno 6907 bound_to 6896
  152.4693  134.4997  159.9730 H   0  0  0  0  0  0  0  0  0  0  0  0  # atno 6908 bound_to 6896
  151.5090  133.3450  159.2917 H   0  0  0  0  0  0  0  0  0  0  0  0  # atno 6909 bound_to 6896
  145.0498  140.8210  143.4216 H   0  0  0  0  0  0  0  0  0  0  0  0  # atno 7974 bound_to 7965
  156.0900  140.3258  155.7803 H   0  0  0  0  0  0  0  0  0  0  0  0  # atno 8008 bound_to 7997
  155.5012  140.0569  157.2956 H   0  0  0  0  0  0  0  0  0  0  0  0  # atno 8009 bound_to 7997
  154.4632  140.1976  156.0205 H   0  0  0  0  0  0  0  0  0  0  0  0  # atno 8010 bound_to 7997
  140.5694  143.9189  150.6701 H   0  0  0  0  0  0  0  0  0  0  0  0  # atno 10167 bound_to 10162
  156.8914  130.9848  151.3049 H   0  0  0  0  0  0  0  0  0  0  0  0  # atno 10718 bound_to 10713
  154.0619  135.6617  153.4813 H   0  0  0  0  0  0  0  0  0  0  0  0  # atno 10763 bound_to 10752
  153.0423  135.5137  154.7651 H   0  0  0  0  0  0  0  0  0  0  0  0  # atno 10764 bound_to 10752
  154.6690  135.3026  154.9734 H   0  0  0  0  0  0  0  0  0  0  0  0  # atno 10765 bound_to 10752
  140.2865  134.2913  155.7787 H   0  0  0  0  0  0  0  0  0  0  0  0  # atno 11005 bound_to 11000
  145.1541  139.2497  143.5425 LP  0  0  0  0  0  0  0  0  0  0  0  0  # atno 17320 bound_to 7965
  146.3517  140.1251  142.8599 LP  0  0  0  0  0  0  0  0  0  0  0  0  # atno 17321 bound_to 7965
  140.2660  143.3489  152.1280 LP  0  0  0  0  0  0  0  0  0  0  0  0  # atno 17342 bound_to 10162
  139.5110  144.6893  151.5803 LP  0  0  0  0  0  0  0  0  0  0  0  0  # atno 17343 bound_to 10162
  157.6081  130.8562  149.8908 LP  0  0  0  0  0  0  0  0  0  0  0  0  # atno 17370 bound_to 10713
  156.0627  130.3697  150.0946 LP  0  0  0  0  0  0  0  0  0  0  0  0  # atno 17371 bound_to 10713
  141.2154  133.7558  156.9560 LP  0  0  0  0  0  0  0  0  0  0  0  0  # atno 17394 bound_to 11000
  140.1235  134.9402  157.2236 LP  0  0  0  0  0  0  0  0  0  0  0  0  # atno 17395 bound_to 11000

$$$$
