AV-unprocessed.smi:40|AV-procd|sdf|378|dock4
  -GOLD-   2262016233D 1   1.00000     0.00000
 Structure written by MMmdl.
 47 48  0  0  0  0  0  0  0  0  1 V2000
  153.6279  136.6310  164.3738 C   0  0  0  0  0  0  0  0  0  0  0  0
  154.6455  136.3960  163.2525 C   0  0  0  0  0  0  0  0  0  0  0  0
  155.2086  137.7065  162.6840 C   0  0  0  0  0  0  0  0  0  0  0  0
  154.2794  138.3422  161.6418 C   0  0  0  0  0  0  0  0  0  0  0  0
  154.8777  139.6169  161.0277 C   0  0  0  0  0  0  0  0  0  0  0  0
  153.8508  140.4559  160.5167 O   0  0  0  0  0  0  0  0  0  0  0  0
  153.1642  140.1095  159.4047 C   0  0  0  0  0  0  0  0  0  0  0  0
  153.2271  139.0053  158.8648 O   0  0  0  0  0  0  0  0  0  0  0  0
  152.3205  141.1982  158.9562 N   0  0  0  0  0  0  0  0  0  0  0  0
  151.5028  141.1971  157.8813 C   0  0  0  0  0  0  0  0  0  0  0  0
  151.8850  140.5001  156.8284 N   0  0  0  0  0  0  0  0  0  0  0  0
  151.1569  140.4084  155.6727 C   0  0  0  0  0  0  0  0  0  0  0  0
  151.5425  139.6936  154.7489 O   0  0  0  0  0  0  0  0  0  0  0  0
  149.9521  141.1507  155.5914 N   0  0  0  0  0  0  0  0  0  0  0  0
  149.1096  141.0327  154.3304 C   0  0  1  0  0  0  0  0  0  0  0  0
  148.7161  139.6996  154.1501 O   0  0  0  0  0  0  0  0  0  0  0  0
  147.3423  139.5182  154.4817 C   0  0  1  0  0  0  0  0  0  0  0  0
  147.1826  139.1368  155.9669 C   0  0  0  0  0  0  0  0  0  0  0  0
  146.7210  140.8566  154.0770 C   0  0  1  0  0  0  0  0  0  0  0  0
  145.5184  141.1321  154.7689 O   0  0  0  0  0  0  0  0  0  0  0  0
  147.8085  141.8706  154.4104 C   0  0  2  0  0  0  0  0  0  0  0  0
  147.7908  142.9089  153.4511 O   0  0  0  0  0  0  0  0  0  0  0  0
  149.5202  141.8602  156.7063 C   0  0  0  0  0  0  0  0  0  0  0  0
  150.2485  141.9264  157.8412 C   0  0  0  0  0  0  0  0  0  0  0  0
  149.8163  142.6589  158.8829 F   0  0  0  0  0  0  0  0  0  0  0  0
  149.7834  141.3277  153.5240 H   0  0  0  0  0  0  0  0  0  0  0  0
  146.9338  138.7106  153.8734 H   0  0  0  0  0  0  0  0  0  0  0  0
  146.5282  140.8421  153.0028 H   0  0  0  0  0  0  0  0  0  0  0  0
  147.6733  142.2663  155.4184 H   0  0  0  0  0  0  0  0  0  0  0  0
  153.2460  135.6840  164.7559 H   0  0  0  0  0  0  0  0  0  0  0  0
  152.7771  137.2125  164.0174 H   0  0  0  0  0  0  0  0  0  0  0  0
  154.0778  137.1700  165.2079 H   0  0  0  0  0  0  0  0  0  0  0  0
  155.4622  135.7803  163.6308 H   0  0  0  0  0  0  0  0  0  0  0  0
  154.1718  135.8241  162.4538 H   0  0  0  0  0  0  0  0  0  0  0  0
  155.3747  138.4131  163.4981 H   0  0  0  0  0  0  0  0  0  0  0  0
  156.1844  137.5183  162.2345 H   0  0  0  0  0  0  0  0  0  0  0  0
  154.0724  137.6231  160.8482 H   0  0  0  0  0  0  0  0  0  0  0  0
  153.3205  138.5731  162.1074 H   0  0  0  0  0  0  0  0  0  0  0  0
  155.4910  140.1502  161.7558 H   0  0  0  0  0  0  0  0  0  0  0  0
  155.5376  139.3491  160.2023 H   0  0  0  0  0  0  0  0  0  0  0  0
  152.4030  142.0490  159.4931 H   0  0  0  0  0  0  0  0  0  0  0  0
  146.1389  138.9382  156.2109 H   0  0  0  0  0  0  0  0  0  0  0  0
  147.5306  139.9270  156.6317 H   0  0  0  0  0  0  0  0  0  0  0  0
  147.7443  138.2317  156.1974 H   0  0  0  0  0  0  0  0  0  0  0  0
  144.7952  140.9831  154.1789 H   0  0  0  0  0  0  0  0  0  0  0  0
  148.1520  142.5730  152.6444 H   0  0  0  0  0  0  0  0  0  0  0  0
  148.5810  142.3915  156.6976 H   0  0  0  0  0  0  0  0  0  0  0  0
  1  2  1  0  0  0  0
  1 30  1  0  0  0  0
  1 31  1  0  0  0  0
  1 32  1  0  0  0  0
  2  3  1  0  0  0  0
  2 33  1  0  0  0  0
  2 34  1  0  0  0  0
  3  4  1  0  0  0  0
  3 35  1  0  0  0  0
  3 36  1  0  0  0  0
  4  5  1  0  0  0  0
  4 37  1  0  0  0  0
  4 38  1  0  0  0  0
  5  6  1  0  0  0  0
  5 39  1  0  0  0  0
  5 40  1  0  0  0  0
  6  7  1  0  0  0  0
  7  8  2  0  0  0  0
  7  9  1  0  0  0  0
  9 10  1  0  0  0  0
  9 41  1  0  0  0  0
 10 24  1  0  0  0  0
 10 11  2  0  0  0  0
 11 12  1  0  0  0  0
 12 13  2  0  0  0  0
 12 14  1  0  0  0  0
 14 15  1  0  0  0  0
 14 23  1  0  0  0  0
 15 26  1  0  0  0  0
 15 21  1  0  0  0  0
 15 16  1  0  0  0  0
 16 17  1  0  0  0  0
 17 27  1  0  0  0  0
 17 18  1  0  0  0  0
 17 19  1  0  0  0  0
 18 42  1  0  0  0  0
 18 43  1  0  0  0  0
 18 44  1  0  0  0  0
 19 28  1  0  0  0  0
 19 20  1  0  0  0  0
 19 21  1  0  0  0  0
 20 45  1  0  0  0  0
 21 29  1  0  0  0  0
 21 22  1  0  0  0  0
 22 46  1  0  0  0  0
 23 24  2  0  0  0  0
 23 47  1  0  0  0  0
 24 25  1  0  0  0  0
M  END
> <s_m_source_file>
AV-unprocessed.smi

> <i_m_source_file_index>
40

> <i_lp_mmshare_version>
43012

> <i_f3d_flags>
0

> <s_epik_input>
W0NIM11bQ0gyXVtDSDJdW0NIMl1bQ0gyXU9DKD1PKVtOSF1jMW5jKD1PKW4oW2NIXWMxRilbQ0BASF0yT1tDQEhdKFtDSDNdKVtDQEBIXShbT0hdKVtDQEhdMltPSF0=

> <s_epik_cmdline>
J2VwaWtfcHl0aG9uJywgJy1waCcsICc3LjAnLCAnLXRuJywgJzgnLCAnLW1hJywgJzIwMCcsICctbWV0YWxfYmluZGluZycsICctaW1hZScsICc8aW5maWxlLm1hZT4nLCAnLW9tYWUnLCAnPG91dGZpbGUubWFlPic=

> <r_lp_tautomer_probability>
1

> <r_epik_Ionization_Penalty>
2.29506e-06

> <r_epik_Ionization_Penalty_Charging>
8.26867e-09

> <r_epik_Ionization_Penalty_Neutral>
2.2868e-06

> <r_epik_State_Penalty>
-0

> <r_epik_Charging_Adjusted_Penalty>
8.26867e-09

> <i_epik_Tot_Q>
0

> <i_epik_Tot_abs_Q>
0

> <r_epik_Metal_State_Penalty>
-0

> <b_epik_Metal_Only>
0

> <s_epik_Chemistry_Notes>
This compound has an ester and may undergo hydrolysis at high or low pH. This compound contains an acetal/aminal-like group ( X-CH(R)-Y where X, Y are N, S, or O) that may be acid/base labile, releasing an aldehyde.

> <s_lp_Force_Field>
OPLS_2005

> <r_lp_Energy>
34.9505

> <b_lp_Chiralities_Consistent>
1

> <s_lp_Variant>
AV-unprocessed.smi:40-12

> <Gold.Version>
5.8.1

> <Gold.Id.Protein>
6NUR|6NUR_protein|mol2

> <Gold.PLP.Fitness>
40.9556

> <Gold.PLP.PLP>
-32.9804

> <Gold.PLP.part.hbond>
-5.0000

> <Gold.PLP.part.metal>
0.0000

> <Gold.PLP.part.buried>
4.5628

> <Gold.PLP.part.nonpolar>
-31.6878

> <Gold.PLP.part.repulsive>
0.4241

> <Gold.PLP.ligand.clash>
0.0000

> <Gold.PLP.ligand.torsion>
0.6141

> <Gold.PLP.Chemscore.Hbond>
2.4700

> <Gold.PLP.Chemscore.CHOScore>
0.5268

> <Gold.PLP.Chemscore.Metal>
0.0000

> <Gold.Chemscore.Hbonds>
donor molecule, donor type, donor heavy atom, donor atom, acceptor molecule, acceptor atom, score
      L1  H    20    45       P1 10175  0.88
      P1  H  7989  7998       L1    13  1.00
      P1  H  8022  8030       L1    22  0.56
      L1  C    23    47       P1  8028  0.57

> <Gold.PLP.Chemscore.Internal.Correction>
0.2130

> <Gold.Rescore>
     Score         DG    S(hbond)    S(metal)    S(lipo)     H(rot)  DE(clash)    DE(int)     intcor
      2.52      -8.55       1.67        0.00      59.55       3.70       2.58       3.46       ----

> <Gold.Chemscore.Fitness>
2.5168

> <Gold.Chemscore.DG>
-8.5540

> <Gold.Chemscore.ZeroCoef>
-5.4800

> <Gold.Chemscore.Hbond>
1.6670

> <Gold.Chemscore.Metal>
0.0000

> <Gold.Chemscore.Lipo>
59.5488

> <Gold.Chemscore.Internal_Hbond>
0.0000

> <Gold.Chemscore.DEClash>
2.5811

> <Gold.Chemscore.DEInternal>
3.4561

> <Gold.Chemscore.Rot>
3.6957

> <Gold.Chemscore.Internal.Correction>
   9.000000E+99

> <Gold.Chemscore.Hbonds>
donor molecule, donor type, donor heavy atom, donor atom, acceptor molecule, acceptor atom, score
      L1  H    20    45       P1 10175  0.77
      P1  H  7989  7998       L1    13  0.25
      P1  H  8022  8030       L1    22  0.24

> <Gold.Chemscore.Hbond.Weighted>
-5.5677

> <Gold.Chemscore.Metal.Weighted>
-0.0000

> <Gold.Chemscore.Lipo.Weighted>
-6.9672

> <Gold.Chemscore.Internal_Hbond.Weighted>
0.0000

> <Gold.Chemscore.DEClash.Weighted>
2.5811

> <Gold.Chemscore.DEInternal.Weighted>
3.4561

> <Gold.Chemscore.Rot.Weighted>
9.4610

> <Gold.Chemscore.Internal.Correction.Weighted>
   9.000000E+99

> <Gold.Protein.RotatedTorsions>
[ 6907 6896 6895 6894 ] final  -72.77 input  -60.11 | X-H torsion
[ 7974 7965 7964 7962 ] final  139.89 input  175.53 | X-H torsion
[ 8008 7997 7996 7995 ] final   80.56 input   59.86 | X-H torsion
[ 10167 10162 10161 10158 ] final  131.33 input  -65.29 | X-H torsion
[ 10718 10713 10712 10709 ] final -171.66 input   66.30 | X-H torsion
[ 10763 10752 10751 10750 ] final   70.01 input  -60.55 | X-H torsion
[ 11005 11000 10999 10996 ] final  -68.31 input  -57.11 | X-H torsion

> <Gold.Protein.ActiveResidues>
 VAL166  LYS551  ARG553  GLY616  TRP617  ASP618  TYR619  PRO620  LYS621  CYS622 
 ASP623  PHE694  ASN695  SER759  ASP760  ASP761  ALA762  ILE779  LEU786  VAL792 
 PHE793  MET794  SER795  GLU796  ALA797  LYS798  CYS799  TRP800  GLU811  SER814 

> <Gold.Protein.RotatedAtoms>
  150.7156  134.5115  159.5609 H   0  0  0  0  0  0  0  0  0  0  0  0  # atno 6907 bound_to 6896
  152.2690  134.7950  160.0426 H   0  0  0  0  0  0  0  0  0  0  0  0  # atno 6908 bound_to 6896
  151.8637  133.3427  159.3749 H   0  0  0  0  0  0  0  0  0  0  0  0  # atno 6909 bound_to 6896
  144.9237  139.5135  143.5651 H   0  0  0  0  0  0  0  0  0  0  0  0  # atno 7974 bound_to 7965
  155.8852  140.3442  155.5916 H   0  0  0  0  0  0  0  0  0  0  0  0  # atno 8008 bound_to 7997
  155.7674  140.0840  157.2144 H   0  0  0  0  0  0  0  0  0  0  0  0  # atno 8009 bound_to 7997
  154.4028  140.1524  156.2890 H   0  0  0  0  0  0  0  0  0  0  0  0  # atno 8010 bound_to 7997
  139.5389  144.6710  151.4693 H   0  0  0  0  0  0  0  0  0  0  0  0  # atno 10167 bound_to 10162
  156.7441  130.9353  151.3111 H   0  0  0  0  0  0  0  0  0  0  0  0  # atno 10718 bound_to 10713
  153.0318  135.5189  154.7376 H   0  0  0  0  0  0  0  0  0  0  0  0  # atno 10763 bound_to 10752
  154.6385  135.2909  155.0134 H   0  0  0  0  0  0  0  0  0  0  0  0  # atno 10764 bound_to 10752
  154.1061  135.6629  153.4929 H   0  0  0  0  0  0  0  0  0  0  0  0  # atno 10765 bound_to 10752
  141.1529  133.6738  156.6427 H   0  0  0  0  0  0  0  0  0  0  0  0  # atno 11005 bound_to 11000
  146.3216  139.8136  142.8941 LP  0  0  0  0  0  0  0  0  0  0  0  0  # atno 17320 bound_to 7965
  145.3254  141.0254  143.3476 LP  0  0  0  0  0  0  0  0  0  0  0  0  # atno 17321 bound_to 7965
  140.6609  143.8501  150.6887 LP  0  0  0  0  0  0  0  0  0  0  0  0  # atno 17342 bound_to 10162
  140.1895  143.4048  152.1874 LP  0  0  0  0  0  0  0  0  0  0  0  0  # atno 17343 bound_to 10162
  157.6806  130.9136  150.0257 LP  0  0  0  0  0  0  0  0  0  0  0  0  # atno 17370 bound_to 10713
  156.1445  130.3642  149.9531 LP  0  0  0  0  0  0  0  0  0  0  0  0  # atno 17371 bound_to 10713
  140.3381  134.7872  157.4377 LP  0  0  0  0  0  0  0  0  0  0  0  0  # atno 17394 bound_to 11000
  140.0961  134.5536  155.8397 LP  0  0  0  0  0  0  0  0  0  0  0  0  # atno 17395 bound_to 11000

$$$$
