AV-unprocessed.smi:904|AV-procd|sdf|4098|dock2
  -GOLD-   22720 1583D 1   1.00000     0.00000
 Structure written by MMmdl.
 42 43  0  0  0  0  0  0  0  0  1 V2000
  149.7129  135.0797  156.6227 C   0  0  0  0  0  0  0  0  0  0  0  0
  150.0797  133.6570  156.3087 C   0  0  0  0  0  0  0  0  0  0  0  0
  150.5087  132.8717  157.2827 N   0  0  0  0  0  0  0  0  0  0  0  0
  150.7387  131.6826  156.6906 N   0  0  0  0  0  0  0  0  0  0  0  0
  151.2267  130.5744  157.4882 C   0  0  0  0  0  0  0  0  0  0  0  0
  150.4483  131.7151  155.3405 C   0  0  0  0  0  0  0  0  0  0  0  0
  150.6099  130.5174  154.4608 C   0  0  0  0  0  0  0  0  0  0  0  0
  150.0211  132.9837  155.0523 C   0  0  0  0  0  0  0  0  0  0  0  0
  149.5822  133.5471  153.7239 C   0  0  0  0  0  0  0  0  0  0  0  0
  148.3919  132.7484  153.1943 C   0  0  0  0  0  0  0  0  0  0  0  0
  148.2053  131.5933  153.5768 O   0  0  0  0  0  0  0  0  0  0  0  0
  147.5948  133.3786  152.3176 N   0  0  0  0  0  0  0  0  0  0  0  0
  146.3922  132.8187  151.7107 C   0  0  2  0  0  0  0  0  0  0  0  0
  146.5372  132.7533  150.1771 C   0  0  0  0  0  0  0  0  0  0  0  0
  145.2523  132.2313  149.5105 C   0  0  0  0  0  0  0  0  0  0  0  0
  144.0090  133.0432  149.9201 C   0  0  2  0  0  0  0  0  0  0  0  0
  144.0614  134.3336  149.3442 O   0  0  0  0  0  0  0  0  0  0  0  0
  143.8827  133.1531  151.4514 C   0  0  0  0  0  0  0  0  0  0  0  0
  145.1743  133.6723  152.1072 C   0  0  0  0  0  0  0  0  0  0  0  0
  148.6374  135.1793  156.7703 H   0  0  0  0  0  0  0  0  0  0  0  0
  150.0009  135.7492  155.8125 H   0  0  0  0  0  0  0  0  0  0  0  0
  150.2067  135.4317  157.5291 H   0  0  0  0  0  0  0  0  0  0  0  0
  152.0722  130.1031  156.9865 H   0  0  0  0  0  0  0  0  0  0  0  0
  150.4322  129.8390  157.6162 H   0  0  0  0  0  0  0  0  0  0  0  0
  151.5518  130.9207  158.4704 H   0  0  0  0  0  0  0  0  0  0  0  0
  150.1305  130.6701  153.4939 H   0  0  0  0  0  0  0  0  0  0  0  0
  150.1602  129.6352  154.9165 H   0  0  0  0  0  0  0  0  0  0  0  0
  151.6649  130.3081  154.2841 H   0  0  0  0  0  0  0  0  0  0  0  0
  149.3015  134.5976  153.8069 H   0  0  0  0  0  0  0  0  0  0  0  0
  150.3885  133.5125  152.9905 H   0  0  0  0  0  0  0  0  0  0  0  0
  147.8305  134.3272  152.0648 H   0  0  0  0  0  0  0  0  0  0  0  0
  146.2372  131.8087  152.0951 H   0  0  0  0  0  0  0  0  0  0  0  0
  146.7743  133.7437  149.7859 H   0  0  0  0  0  0  0  0  0  0  0  0
  147.3735  132.1084  149.9055 H   0  0  0  0  0  0  0  0  0  0  0  0
  145.3654  132.2321  148.4258 H   0  0  0  0  0  0  0  0  0  0  0  0
  145.1055  131.1896  149.7987 H   0  0  0  0  0  0  0  0  0  0  0  0
  143.1179  132.5552  149.5238 H   0  0  0  0  0  0  0  0  0  0  0  0
  144.7331  134.3388  148.6792 H   0  0  0  0  0  0  0  0  0  0  0  0
  143.0425  133.7956  151.7169 H   0  0  0  0  0  0  0  0  0  0  0  0
  143.6518  132.1685  151.8598 H   0  0  0  0  0  0  0  0  0  0  0  0
  145.0575  133.6748  153.1915 H   0  0  0  0  0  0  0  0  0  0  0  0
  145.3388  134.7105  151.8146 H   0  0  0  0  0  0  0  0  0  0  0  0
  1  2  1  0  0  0  0
  1 20  1  0  0  0  0
  1 21  1  0  0  0  0
  1 22  1  0  0  0  0
  2  8  1  0  0  0  0
  2  3  2  0  0  0  0
  3  4  1  0  0  0  0
  4  5  1  0  0  0  0
  4  6  1  0  0  0  0
  5 23  1  0  0  0  0
  5 24  1  0  0  0  0
  5 25  1  0  0  0  0
  6  7  1  0  0  0  0
  6  8  2  0  0  0  0
  7 26  1  0  0  0  0
  7 27  1  0  0  0  0
  7 28  1  0  0  0  0
  8  9  1  0  0  0  0
  9 10  1  0  0  0  0
  9 29  1  0  0  0  0
  9 30  1  0  0  0  0
 10 11  2  0  0  0  0
 10 12  1  0  0  0  0
 12 13  1  0  0  0  0
 12 31  1  0  0  0  0
 13 19  1  0  0  0  0
 13 14  1  0  0  0  0
 13 32  1  0  0  0  0
 14 15  1  0  0  0  0
 14 33  1  0  0  0  0
 14 34  1  0  0  0  0
 15 16  1  0  0  0  0
 15 35  1  0  0  0  0
 15 36  1  0  0  0  0
 16 17  1  0  0  0  0
 16 18  1  0  0  0  0
 16 37  1  0  0  0  0
 17 38  1  0  0  0  0
 18 19  1  0  0  0  0
 18 39  1  0  0  0  0
 18 40  1  0  0  0  0
 19 41  1  0  0  0  0
 19 42  1  0  0  0  0
M  END
> <s_m_source_file>
AV-unprocessed.smi

> <i_m_source_file_index>
904

> <i_lp_mmshare_version>
43012

> <i_f3d_flags>
0

> <s_epik_input>
W0NIM11jMW5uKFtDSDNdKWMoW0NIM10pYzFbQ0gyXUMoPU8pW05IXVtDQEBIXTJbQ0gyXVtDSDJdW0NAQEhdKFtPSF0pW0NIMl1bQ0gyXTI=

> <s_epik_cmdline>
J2VwaWtfcHl0aG9uJywgJy1waCcsICc3LjAnLCAnLXRuJywgJzgnLCAnLW1hJywgJzIwMCcsICctbWV0YWxfYmluZGluZycsICctaW1hZScsICc8aW5maWxlLm1hZT4nLCAnLW9tYWUnLCAnPG91dGZpbGUubWFlPic=

> <r_lp_tautomer_probability>
1

> <r_epik_Ionization_Penalty>
0.00340889

> <r_epik_Ionization_Penalty_Charging>
0

> <r_epik_Ionization_Penalty_Neutral>
0.00340889

> <r_epik_State_Penalty>
0.00241397

> <r_epik_Charging_Adjusted_Penalty>
0.00241397

> <i_epik_Tot_Q>
0

> <i_epik_Tot_abs_Q>
0

> <r_epik_Metal_State_Penalty>
-0

> <b_epik_Metal_Only>
0

> <s_lp_Force_Field>
OPLS_2005

> <r_lp_Energy>
4.71478

> <b_lp_Chiralities_Consistent>
1

> <s_lp_Variant>
AV-unprocessed.smi:904-2

> <Gold.Version>
5.8.1

> <Gold.Id.Protein>
6NUR|6NUR_protein|mol2

> <Gold.PLP.Fitness>
43.1275

> <Gold.PLP.PLP>
-35.7909

> <Gold.PLP.part.hbond>
-3.3253

> <Gold.PLP.part.metal>
0.0000

> <Gold.PLP.part.buried>
-4.4986

> <Gold.PLP.part.nonpolar>
-27.9143

> <Gold.PLP.part.repulsive>
0.0913

> <Gold.PLP.ligand.clash>
0.0000

> <Gold.PLP.ligand.torsion>
0.3328

> <Gold.PLP.Chemscore.Hbond>
2.6663

> <Gold.PLP.Chemscore.CHOScore>
0.0000

> <Gold.PLP.Chemscore.Metal>
0.0000

> <Gold.Chemscore.Hbonds>
donor molecule, donor type, donor heavy atom, donor atom, acceptor molecule, acceptor atom, score
      L1  H    12    31       P1  7948  0.63
      L1  H    17    38       P1  7921  1.00
      P1  H  6896  6907       L1     3  0.81

> <Gold.PLP.Chemscore.Internal.Correction>
0.0035

> <Gold.Rescore>
     Score         DG    S(hbond)    S(metal)    S(lipo)     H(rot)  DE(clash)    DE(int)     intcor
     14.86     -17.80       2.36        0.00      78.07       1.84       0.07       2.88       ----

> <Gold.Chemscore.Fitness>
14.8598

> <Gold.Chemscore.DG>
-17.8007

> <Gold.Chemscore.ZeroCoef>
-5.4800

> <Gold.Chemscore.Hbond>
2.3647

> <Gold.Chemscore.Metal>
0.0000

> <Gold.Chemscore.Lipo>
78.0720

> <Gold.Chemscore.Internal_Hbond>
0.0000

> <Gold.Chemscore.DEClash>
0.0652

> <Gold.Chemscore.DEInternal>
2.8757

> <Gold.Chemscore.Rot>
1.8406

> <Gold.Chemscore.Internal.Correction>
   9.000000E+99

> <Gold.Chemscore.Hbonds>
donor molecule, donor type, donor heavy atom, donor atom, acceptor molecule, acceptor atom, score
      L1  H    12    31       P1  7948  0.14
      L1  H    17    38       P1  7921  1.00
      P1  H  6896  6907       L1     3  0.79

> <Gold.Chemscore.Hbond.Weighted>
-7.8981

> <Gold.Chemscore.Metal.Weighted>
-0.0000

> <Gold.Chemscore.Lipo.Weighted>
-9.1344

> <Gold.Chemscore.Internal_Hbond.Weighted>
0.0000

> <Gold.Chemscore.DEClash.Weighted>
0.0652

> <Gold.Chemscore.DEInternal.Weighted>
2.8757

> <Gold.Chemscore.Rot.Weighted>
4.7118

> <Gold.Chemscore.Internal.Correction.Weighted>
   9.000000E+99

> <Gold.Protein.RotatedTorsions>
[ 6907 6896 6895 6894 ] final -136.17 input  -60.11 | X-H torsion
[ 7974 7965 7964 7962 ] final  118.48 input  175.53 | X-H torsion
[ 8008 7997 7996 7995 ] final   90.57 input   59.86 | X-H torsion
[ 10167 10162 10161 10158 ] final  -45.70 input  -65.29 | X-H torsion
[ 10718 10713 10712 10709 ] final   63.12 input   66.30 | X-H torsion
[ 10763 10752 10751 10750 ] final   27.50 input  -60.55 | X-H torsion
[ 11005 11000 10999 10996 ] final -155.68 input  -57.11 | X-H torsion

> <Gold.Protein.ActiveResidues>
 VAL166  LYS551  ARG553  GLY616  TRP617  ASP618  TYR619  PRO620  LYS621  CYS622 
 ASP623  PHE694  ASN695  SER759  ASP760  ASP761  ALA762  ILE779  LEU786  VAL792 
 PHE793  MET794  SER795  GLU796  ALA797  LYS798  CYS799  TRP800  GLU811  SER814 

> <Gold.Protein.RotatedAtoms>
  151.0068  133.6003  159.2687 H   0  0  0  0  0  0  0  0  0  0  0  0  # atno 6907 bound_to 6896
  151.3170  135.0808  159.9302 H   0  0  0  0  0  0  0  0  0  0  0  0  # atno 6908 bound_to 6896
  152.5289  133.9722  159.7821 H   0  0  0  0  0  0  0  0  0  0  0  0  # atno 6909 bound_to 6896
  145.1547  139.3189  143.4548 H   0  0  0  0  0  0  0  0  0  0  0  0  # atno 7974 bound_to 7965
  156.0136  140.3348  155.6966 H   0  0  0  0  0  0  0  0  0  0  0  0  # atno 8008 bound_to 7997
  155.6123  140.0666  157.2720 H   0  0  0  0  0  0  0  0  0  0  0  0  # atno 8009 bound_to 7997
  154.4290  140.1791  156.1273 H   0  0  0  0  0  0  0  0  0  0  0  0  # atno 8010 bound_to 7997
  140.6848  143.2867  151.3676 H   0  0  0  0  0  0  0  0  0  0  0  0  # atno 10167 bound_to 10162
  157.5949  130.9088  149.9675 H   0  0  0  0  0  0  0  0  0  0  0  0  # atno 10718 bound_to 10713
  153.0551  135.6535  154.0596 H   0  0  0  0  0  0  0  0  0  0  0  0  # atno 10763 bound_to 10752
  154.0276  135.2914  155.3374 H   0  0  0  0  0  0  0  0  0  0  0  0  # atno 10764 bound_to 10752
  154.6862  135.5300  153.8397 H   0  0  0  0  0  0  0  0  0  0  0  0  # atno 10765 bound_to 10752
  140.6838  134.4115  157.5224 H   0  0  0  0  0  0  0  0  0  0  0  0  # atno 11005 bound_to 11000
  146.3490  140.1635  142.8590 LP  0  0  0  0  0  0  0  0  0  0  0  0  # atno 17320 bound_to 7965
  145.0393  140.8933  143.5062 LP  0  0  0  0  0  0  0  0  0  0  0  0  # atno 17321 bound_to 7965
  139.6197  144.0932  152.2379 LP  0  0  0  0  0  0  0  0  0  0  0  0  # atno 17342 bound_to 10162
  140.0372  144.6035  150.7440 LP  0  0  0  0  0  0  0  0  0  0  0  0  # atno 17343 bound_to 10162
  156.1010  130.3656  150.0218 LP  0  0  0  0  0  0  0  0  0  0  0  0  # atno 17370 bound_to 10713
  156.8334  130.9400  151.3636 LP  0  0  0  0  0  0  0  0  0  0  0  0  # atno 17371 bound_to 10713
  139.8943  134.8708  156.2181 LP  0  0  0  0  0  0  0  0  0  0  0  0  # atno 17394 bound_to 11000
  141.0296  133.6996  156.1407 LP  0  0  0  0  0  0  0  0  0  0  0  0  # atno 17395 bound_to 11000

$$$$
