AV-unprocessed.smi:2163|AV-procd|sdf|8806|dock1
  -GOLD-   2272011593D 1   1.00000     0.00000
 Structure written by MMmdl.
 44 46  0  0  0  0  0  0  0  0  2 V2000
  149.4171  141.5090  155.5068 C   0  0  0  0  0  0  0  0  0  0  0  0
  150.4565  141.7332  156.5530 C   0  0  0  0  0  0  0  0  0  0  0  0
  150.7862  142.9316  157.1113 N   0  3  0  0  0  0  0  0  0  0  0  0
  151.7991  142.7506  158.0539 C   0  0  0  0  0  0  0  0  0  0  0  0
  152.4543  143.6653  158.8725 C   0  0  0  0  0  0  0  0  0  0  0  0
  153.4454  143.1484  159.7321 C   0  0  0  0  0  0  0  0  0  0  0  0
  153.7526  141.7725  159.7548 C   0  0  0  0  0  0  0  0  0  0  0  0
  153.0828  140.8549  158.9186 C   0  0  0  0  0  0  0  0  0  0  0  0
  152.1034  141.3736  158.0714 C   0  0  0  0  0  0  0  0  0  0  0  0
  151.2504  140.7860  157.1290 N   0  0  0  0  0  0  0  0  0  0  0  0
  151.3053  139.3343  156.8969 C   0  0  0  0  0  0  0  0  0  0  0  0
  152.2230  138.9566  155.7163 C   0  0  2  0  0  0  0  0  0  0  0  0
  152.2570  139.9699  154.7313 O   0  0  0  0  0  0  0  0  0  0  0  0
  151.8578  137.6185  155.0540 C   0  0  0  0  0  0  0  0  0  0  0  0
  151.8298  136.5851  156.0312 O   0  0  0  0  0  0  0  0  0  0  0  0
  151.1174  135.4389  155.7500 C   0  0  0  0  0  0  0  0  0  0  0  0
  149.9717  135.3962  154.9157 C   0  0  0  0  0  0  0  0  0  0  0  0
  149.3039  134.1782  154.6824 C   0  0  0  0  0  0  0  0  0  0  0  0
  149.7683  132.9882  155.2762 C   0  0  0  0  0  0  0  0  0  0  0  0
  149.0499  131.6790  155.0226 C   0  0  0  0  0  0  0  0  0  0  0  0
  147.8900  131.8481  154.1342 C   0  0  0  0  0  0  0  0  0  0  0  0
  146.9774  131.9811  153.4355 N   0  0  0  0  0  0  0  0  0  0  0  0
  150.9062  133.0231  156.1056 C   0  0  0  0  0  0  0  0  0  0  0  0
  151.5729  134.2413  156.3389 C   0  0  0  0  0  0  0  0  0  0  0  0
  148.9321  142.4484  155.2405 H   0  0  0  0  0  0  0  0  0  0  0  0
  148.6571  140.8184  155.8725 H   0  0  0  0  0  0  0  0  0  0  0  0
  149.8706  141.0864  154.6101 H   0  0  0  0  0  0  0  0  0  0  0  0
  152.2197  144.7195  158.8576 H   0  0  0  0  0  0  0  0  0  0  0  0
  153.9799  143.8204  160.3880 H   0  0  0  0  0  0  0  0  0  0  0  0
  154.5171  141.4128  160.4282 H   0  0  0  0  0  0  0  0  0  0  0  0
  153.3250  139.8030  158.9482 H   0  0  0  0  0  0  0  0  0  0  0  0
  151.6761  138.8748  157.8137 H   0  0  0  0  0  0  0  0  0  0  0  0
  150.2929  138.9547  156.7584 H   0  0  0  0  0  0  0  0  0  0  0  0
  153.2443  138.8702  156.0889 H   0  0  0  0  0  0  0  0  0  0  0  0
  152.9969  140.5315  154.9054 H   0  0  0  0  0  0  0  0  0  0  0  0
  150.8990  137.6993  154.5385 H   0  0  0  0  0  0  0  0  0  0  0  0
  152.6170  137.3803  154.3071 H   0  0  0  0  0  0  0  0  0  0  0  0
  149.5833  136.2847  154.4418 H   0  0  0  0  0  0  0  0  0  0  0  0
  148.4329  134.1604  154.0438 H   0  0  0  0  0  0  0  0  0  0  0  0
  149.7317  130.9603  154.5674 H   0  0  0  0  0  0  0  0  0  0  0  0
  148.7037  131.2512  155.9637 H   0  0  0  0  0  0  0  0  0  0  0  0
  151.2712  132.1157  156.5639 H   0  0  0  0  0  0  0  0  0  0  0  0
  152.4450  134.2566  156.9761 H   0  0  0  0  0  0  0  0  0  0  0  0
  150.3464  143.8090  156.8648 H   0  0  0  0  0  0  0  0  0  0  0  0
  1  2  1  0  0  0  0
  1 25  1  0  0  0  0
  1 26  1  0  0  0  0
  1 27  1  0  0  0  0
  2 10  1  0  0  0  0
  2  3  2  0  0  0  0
  3  4  1  0  0  0  0
  3 44  1  0  0  0  0
  4  9  2  0  0  0  0
  4  5  1  0  0  0  0
  5  6  2  0  0  0  0
  5 28  1  0  0  0  0
  6  7  1  0  0  0  0
  6 29  1  0  0  0  0
  7  8  2  0  0  0  0
  7 30  1  0  0  0  0
  8  9  1  0  0  0  0
  8 31  1  0  0  0  0
  9 10  1  0  0  0  0
 10 11  1  0  0  0  0
 11 12  1  0  0  0  0
 11 32  1  0  0  0  0
 11 33  1  0  0  0  0
 12 13  1  0  0  0  0
 12 14  1  0  0  0  0
 12 34  1  0  0  0  0
 13 35  1  0  0  0  0
 14 15  1  0  0  0  0
 14 36  1  0  0  0  0
 14 37  1  0  0  0  0
 15 16  1  0  0  0  0
 16 24  1  0  0  0  0
 16 17  2  0  0  0  0
 17 18  1  0  0  0  0
 17 38  1  0  0  0  0
 18 19  2  0  0  0  0
 18 39  1  0  0  0  0
 19 20  1  0  0  0  0
 19 23  1  0  0  0  0
 20 21  1  0  0  0  0
 20 40  1  0  0  0  0
 20 41  1  0  0  0  0
 21 22  3  0  0  0  0
 23 24  2  0  0  0  0
 23 42  1  0  0  0  0
 24 43  1  0  0  0  0
M  CHG  1   3   1
M  END
> <s_m_source_file>
AV-unprocessed.smi

> <i_m_source_file_index>
2163

> <i_lp_mmshare_version>
43012

> <i_f3d_flags>
0

> <s_epik_input>
W2NIXTFbY0hdW2NIXVtjSF1jKGMxMiluKGMobjIpW0NIM10pW0NIMl1bQ0BIXShbT0hdKVtDSDJdT2MzW2NIXVtjSF1jKFtDSDJdQyNOKVtjSF1bY0hdMw==

> <s_epik_cmdline>
J2VwaWtfcHl0aG9uJywgJy1waCcsICc3LjAnLCAnLXRuJywgJzgnLCAnLW1hJywgJzIwMCcsICctbWV0YWxfYmluZGluZycsICctaW1hZScsICc8aW5maWxlLm1hZT4nLCAnLW9tYWUnLCAnPG91dGZpbGUubWFlPic=

> <r_lp_tautomer_probability>
1

> <r_epik_Ionization_Penalty>
1.03158

> <r_epik_Ionization_Penalty_Charging>
1.03158

> <r_epik_Ionization_Penalty_Neutral>
2.3994e-06

> <r_epik_State_Penalty>
1.08278

> <r_epik_Charging_Adjusted_Penalty>
2.11436

> <i_epik_Tot_Q>
1

> <i_epik_Tot_abs_Q>
1

> <r_epik_Metal_State_Penalty>
5.07177

> <b_epik_Metal_Only>
0

> <s_lp_Force_Field>
OPLS_2005

> <r_lp_Energy>
21.0912

> <b_lp_Chiralities_Consistent>
1

> <s_lp_Variant>
AV-unprocessed.smi:2163-3

> <Gold.Version>
5.8.1

> <Gold.Id.Protein>
6NUR|6NUR_protein|mol2

> <Gold.PLP.Fitness>
54.1072

> <Gold.PLP.PLP>
-48.0911

> <Gold.PLP.part.hbond>
-2.7949

> <Gold.PLP.part.metal>
0.0000

> <Gold.PLP.part.buried>
-1.9292

> <Gold.PLP.part.nonpolar>
-43.6711

> <Gold.PLP.part.repulsive>
0.1882

> <Gold.PLP.ligand.clash>
0.0000

> <Gold.PLP.ligand.torsion>
1.1679

> <Gold.PLP.Chemscore.Hbond>
2.6240

> <Gold.PLP.Chemscore.CHOScore>
0.0000

> <Gold.PLP.Chemscore.Metal>
0.0000

> <Gold.Chemscore.Hbonds>
donor molecule, donor type, donor heavy atom, donor atom, acceptor molecule, acceptor atom, score
      L1  H     3    44       P1  8028  1.60
      P1  H  7989  7998       L1    13  0.52
      P1  H 10752 10763       L1    15  0.04

> <Gold.PLP.Chemscore.Internal.Correction>
0.4799

> <Gold.Rescore>
     Score         DG    S(hbond)    S(metal)    S(lipo)     H(rot)  DE(clash)    DE(int)     intcor
     16.09     -17.00       1.35        0.00     117.00       2.60       0.04       0.87       ----

> <Gold.Chemscore.Fitness>
16.0910

> <Gold.Chemscore.DG>
-16.9975

> <Gold.Chemscore.ZeroCoef>
-5.4800

> <Gold.Chemscore.Hbond>
1.3458

> <Gold.Chemscore.Metal>
0.0000

> <Gold.Chemscore.Lipo>
117.0004

> <Gold.Chemscore.Internal_Hbond>
0.0000

> <Gold.Chemscore.DEClash>
0.0398

> <Gold.Chemscore.DEInternal>
0.8667

> <Gold.Chemscore.Rot>
2.6041

> <Gold.Chemscore.Internal.Correction>
   9.000000E+99

> <Gold.Chemscore.Hbonds>
donor molecule, donor type, donor heavy atom, donor atom, acceptor molecule, acceptor atom, score
      L1  H     3    44       P1  8028  0.75
      P1  H  7989  7998       L1    13  0.06

> <Gold.Chemscore.Hbond.Weighted>
-4.4950

> <Gold.Chemscore.Metal.Weighted>
-0.0000

> <Gold.Chemscore.Lipo.Weighted>
-13.6890

> <Gold.Chemscore.Internal_Hbond.Weighted>
0.0000

> <Gold.Chemscore.DEClash.Weighted>
0.0398

> <Gold.Chemscore.DEInternal.Weighted>
0.8667

> <Gold.Chemscore.Rot.Weighted>
6.6665

> <Gold.Chemscore.Internal.Correction.Weighted>
   9.000000E+99

> <Gold.Protein.RotatedTorsions>
[ 6907 6896 6895 6894 ] final  -99.19 input  -60.11 | X-H torsion
[ 7974 7965 7964 7962 ] final -166.53 input  175.53 | X-H torsion
[ 8008 7997 7996 7995 ] final   -6.28 input   59.86 | X-H torsion
[ 10167 10162 10161 10158 ] final  138.44 input  -65.29 | X-H torsion
[ 10718 10713 10712 10709 ] final -165.27 input   66.30 | X-H torsion
[ 10763 10752 10751 10750 ] final  116.22 input  -60.55 | X-H torsion
[ 11005 11000 10999 10996 ] final  103.22 input  -57.11 | X-H torsion

> <Gold.Protein.ActiveResidues>
 VAL166  LYS551  ARG553  GLY616  TRP617  ASP618  TYR619  PRO620  LYS621  CYS622 
 ASP623  PHE694  ASN695  SER759  ASP760  ASP761  ALA762  ILE779  LEU786  VAL792 
 PHE793  MET794  SER795  GLU796  ALA797  LYS798  CYS799  TRP800  GLU811  SER814 

> <Gold.Protein.RotatedAtoms>
  150.7072  134.1078  159.3988 H   0  0  0  0  0  0  0  0  0  0  0  0  # atno 6907 bound_to 6896
  151.9064  135.0354  160.0520 H   0  0  0  0  0  0  0  0  0  0  0  0  # atno 6908 bound_to 6896
  152.2371  133.5070  159.5286 H   0  0  0  0  0  0  0  0  0  0  0  0  # atno 6909 bound_to 6896
  144.7243  140.2653  143.6259 H   0  0  0  0  0  0  0  0  0  0  0  0  # atno 7974 bound_to 7965
  154.5953  140.2437  155.7865 H   0  0  0  0  0  0  0  0  0  0  0  0  # atno 8008 bound_to 7997
  156.2275  140.2978  156.0057 H   0  0  0  0  0  0  0  0  0  0  0  0  # atno 8009 bound_to 7997
  155.2303  140.0403  157.2951 H   0  0  0  0  0  0  0  0  0  0  0  0  # atno 8010 bound_to 7997
  139.5110  144.6353  151.5713 H   0  0  0  0  0  0  0  0  0  0  0  0  # atno 10167 bound_to 10162
  156.6510  130.9007  151.3013 H   0  0  0  0  0  0  0  0  0  0  0  0  # atno 10718 bound_to 10713
  153.5339  135.3572  155.2688 H   0  0  0  0  0  0  0  0  0  0  0  0  # atno 10763 bound_to 10752
  154.8724  135.4075  154.3120 H   0  0  0  0  0  0  0  0  0  0  0  0  # atno 10764 bound_to 10752
  153.3814  135.7068  153.6630 H   0  0  0  0  0  0  0  0  0  0  0  0  # atno 10765 bound_to 10752
  139.8782  134.9255  156.5177 H   0  0  0  0  0  0  0  0  0  0  0  0  # atno 11005 bound_to 11000
  145.8096  139.1997  143.2001 LP  0  0  0  0  0  0  0  0  0  0  0  0  # atno 17320 bound_to 7965
  146.0607  140.7973  142.9736 LP  0  0  0  0  0  0  0  0  0  0  0  0  # atno 17321 bound_to 7965
  140.6100  143.9454  150.6446 LP  0  0  0  0  0  0  0  0  0  0  0  0  # atno 17342 bound_to 10162
  140.2693  143.3467  152.1252 LP  0  0  0  0  0  0  0  0  0  0  0  0  # atno 17343 bound_to 10162
  157.7141  130.9475  150.1191 LP  0  0  0  0  0  0  0  0  0  0  0  0  # atno 17370 bound_to 10713
  156.2084  130.3665  149.8700 LP  0  0  0  0  0  0  0  0  0  0  0  0  # atno 17371 bound_to 10713
  140.8474  133.8158  155.9134 LP  0  0  0  0  0  0  0  0  0  0  0  0  # atno 17394 bound_to 11000
  140.9178  134.2180  157.4945 LP  0  0  0  0  0  0  0  0  0  0  0  0  # atno 17395 bound_to 11000

$$$$
