#       Name:                AV-unprocessed.smi:3018
#       Creating user name   scv26
#       Creation time:       Fri Mar 27 16:42:25 2020


#       File generated by GOLD software.
#

@<TRIPOS>MOLECULE
AV-unprocessed.smi:3018
    52    53     1
SMALL
NO_CHARGES


@<TRIPOS>ATOM
      1 ****        -3.0293  -1.1699   1.4764 C.3            1 S1                 0.0000
      2 ****        -1.4998  -1.2152   1.5812 C.3            1 S1                 0.0000
      3 ****        -0.8039  -0.3561   0.5097 C.3            1 S1                 0.0000
      4 ****        -1.0474  -0.9604  -0.7599 O.3            1 S1                 0.0000
      5 ****        -0.7715  -0.1678  -1.9124 C.3            1 S1                 0.0000
      6 ****        -1.9408   0.7966  -2.1987 C.3            1 S1                 0.0000
      7 ****        -1.7248   1.5597  -3.5161 C.3            1 S1                 0.0000
      8 ****        -1.5053   0.5947  -4.6923 C.3            1 S1                 0.0000
      9 ****        -0.3453  -0.3728  -4.4090 C.3            1 S1                 0.0000
     10 ****        -0.5674  -1.1338  -3.0922 C.3            1 S1                 0.0000
     11 ****         0.7083  -0.2774   0.7687 C.2            1 S1                 0.0000
     12 ****         1.3818  -1.3070   0.8141 O.2            1 S1                 0.0000
     13 ****         1.2209   0.9528   0.9300 N.am           1 S1                 0.0000
     14 ****         2.6171   1.2594   1.2332 C.3            1 S1                 0.0000
     15 ****         2.8245   1.6279   2.7167 C.3            1 S1                 0.0000
     16 ****         2.6712   0.4452   3.6382 C.2            1 S1                 0.0000
     17 ****         1.6017   0.0999   4.2529 N.2            1 S1                 0.0000
     18 ****         1.9766  -1.0096   4.9100 N.am           1 S1                 0.0000
     19 ****         3.2578  -1.3105   4.6857 C.2            1 S1                 0.0000
     20 ****         3.8240  -2.2829   5.1801 O.2            1 S1                 0.0000
     21 ****         3.7392  -0.3671   3.8570 N.pl3          1 S1                -1.0000
     22 ****         1.3148  -1.5081   5.4864 H              1 S1                 0.0000
     23 ****        -3.4893  -1.7750   2.2580 H              1 S1                 0.0000
     24 ****        -3.3710  -1.5534   0.5147 H              1 S1                 0.0000
     25 ****        -3.4013  -0.1506   1.5823 H              1 S1                 0.0000
     26 ****        -1.2087  -0.8702   2.5748 H              1 S1                 0.0000
     27 ****        -1.1639  -2.2506   1.5069 H              1 S1                 0.0000
     28 ****        -1.2306   0.6474   0.5412 H              1 S1                 0.0000
     29 ****         0.1478   0.4050  -1.7851 H              1 S1                 0.0000
     30 ****        -2.8742   0.2349  -2.2518 H              1 S1                 0.0000
     31 ****        -2.0574   1.5120  -1.3852 H              1 S1                 0.0000
     32 ****        -2.5821   2.2023  -3.7187 H              1 S1                 0.0000
     33 ****        -0.8610   2.2186  -3.4183 H              1 S1                 0.0000
     34 ****        -2.4188   0.0264  -4.8729 H              1 S1                 0.0000
     35 ****        -1.3061   1.1580  -5.6044 H              1 S1                 0.0000
     36 ****        -0.2402  -1.0787  -5.2333 H              1 S1                 0.0000
     37 ****         0.5917   0.1831  -4.3565 H              1 S1                 0.0000
     38 ****         0.2839  -1.7855  -2.8931 H              1 S1                 0.0000
     39 ****        -1.4378  -1.7841  -3.1903 H              1 S1                 0.0000
     40 ****         0.5882   1.7370   0.8704 H              1 S1                 0.0000
     41 ****         3.2820   0.4449   0.9391 H              1 S1                 0.0000
     42 ****         2.8991   2.1114   0.6147 H              1 S1                 0.0000
     43 ****         3.8203   2.0555   2.8416 H              1 S1                 0.0000
     44 ****         2.1266   2.4150   3.0048 H              1 S1                 0.0000
     45 ****        -2.0135  -1.2163  -0.7928 LP             1 S1                 0.0000
     46 ****        -0.4825  -1.7836  -0.8165 LP             1 S1                 0.0000
     47 ****         0.9446  -2.1967   0.6823 LP             1 S1                 0.0000
     48 ****         2.3660  -1.2536   0.9828 LP             1 S1                 0.0000
     49 ****         0.7072   0.5468   4.2453 LP             1 S1                 0.0000
     50 ****         3.3217  -2.8988   5.7870 LP             1 S1                 0.0000
     51 ****         4.7870  -2.4582   4.9755 LP             1 S1                 0.0000
     52 ****         4.6650  -0.2829   3.4884 LP             1 S1                 0.0000
@<TRIPOS>BOND
    1    1    2 1     
    2    1   23 1     
    3    1   24 1     
    4    1   25 1     
    5    2    3 1     
    6    2   26 1     
    7    2   27 1     
    8    3    4 1     
    9    3   11 1     
   10    3   28 1     
   11    4    5 1     
   12    5   10 1     
   13    5    6 1     
   14    5   29 1     
   15    6    7 1     
   16    6   30 1     
   17    6   31 1     
   18    7    8 1     
   19    7   32 1     
   20    7   33 1     
   21    8    9 1     
   22    8   34 1     
   23    8   35 1     
   24    9   10 1     
   25    9   36 1     
   26    9   37 1     
   27   10   38 1     
   28   10   39 1     
   29   11   12 2     
   30   11   13 am    
   31   13   14 1     
   32   13   40 1     
   33   14   15 1     
   34   14   41 1     
   35   14   42 1     
   36   15   16 1     
   37   15   43 1     
   38   15   44 1     
   39   16   21 1     
   40   16   17 2     
   41   17   18 1     
   42   18   22 1     
   43   18   19 am    
   44   19   20 2     
   45   19   21 1     
   46    4   45 1     
   47    4   46 1     
   48   12   47 1     
   49   12   48 1     
   50   17   49 1     
   51   20   50 1     
   52   20   51 1     
   53   21   52 1     
@<TRIPOS>SUBSTRUCTURE
      1 S1             1
@<TRIPOS>SET
LONE_PAIRS      STATIC     ATOMS    <user>   **** ""
8 45 46 47 48 49 50 51 52
DONOR_HYDROGENS      STATIC     ATOMS    <user>   **** ""
2 40 22
ATOM$BLUE        STATIC     ATOMS    COLORGROUP SYSTEM
8 45 46 47 48 49 50 51 52
ATOM$RED        STATIC     ATOMS    COLORGROUP SYSTEM
2 40 22
