#       Name:                AV-unprocessed.smi:1762
#       Creating user name   scv26
#       Creation time:       Fri Mar 27 08:34:32 2020


#       File generated by GOLD software.
#

@<TRIPOS>MOLECULE
AV-unprocessed.smi:1762
    58    59     1
SMALL
NO_CHARGES


@<TRIPOS>ATOM
      1 ****        -3.1829  -3.3904  -2.4887 C.3            1 S1                 0.0000
      2 ****        -3.6114  -1.9130  -2.4270 C.3            1 S1                 0.0000
      3 ****        -3.2842  -1.2348  -1.0813 C.3            1 S1                 0.0000
      4 ****        -1.8260  -0.9631  -0.9418 N.4            1 S1                 1.0000
      5 ****        -1.4074  -0.3583   0.3698 C.3            1 S1                 0.0000
      6 ****         0.1311  -0.3239   0.4960 C.2            1 S1                 0.0000
      7 ****         0.8019  -1.3016   0.1623 O.2            1 S1                 0.0000
      8 ****         0.6736   0.8054   0.9748 N.am           1 S1                 0.0000
      9 ****         2.1031   1.0167   1.1564 C.3            1 S1                 0.0000
     10 ****         2.3937   2.4801   1.5163 C.3            1 S1                 0.0000
     11 ****         3.8760   2.7401   1.7091 C.ar           1 S1                 0.0000
     12 ****         4.4317   2.8181   3.0040 C.ar           1 S1                 0.0000
     13 ****         5.8148   3.0530   3.1272 C.ar           1 S1                 0.0000
     14 ****         6.5849   3.2001   1.9575 C.ar           1 S1                 0.0000
     15 ****         5.9349   3.1047   0.7108 C.ar           1 S1                 0.0000
     16 ****         4.6093   2.8793   0.5814 N.ar           1 S1                 0.0000
     17 ****        -2.0478  -1.0387   1.6274 C.3            1 S1                 0.0000
     18 ****        -1.7082  -0.3186   2.9476 C.3            1 S1                 0.0000
     19 ****        -1.7395  -2.5458   1.7522 C.3            1 S1                 0.0000
     20 ****        -1.3722  -0.1713  -2.1204 C.3            1 S1                 0.0000
     21 ****        -1.6860  -0.9064  -3.4341 C.3            1 S1                 0.0000
     22 ****        -1.2865  -0.0811  -4.6623 C.3            1 S1                 0.0000
     23 ****        -3.0850  -1.1523  -3.5111 O.3            1 S1                 0.0000
     24 ****        -3.7122  -3.9773  -1.7376 H              1 S1                 0.0000
     25 ****        -2.1165  -3.5214  -2.3066 H              1 S1                 0.0000
     26 ****        -3.4123  -3.8215  -3.4635 H              1 S1                 0.0000
     27 ****        -4.6949  -1.8970  -2.5499 H              1 S1                 0.0000
     28 ****        -3.8300  -0.2936  -0.9983 H              1 S1                 0.0000
     29 ****        -3.6553  -1.8865  -0.2931 H              1 S1                 0.0000
     30 ****        -1.7610   0.6747   0.3540 H              1 S1                 0.0000
     31 ****         0.0600   1.5659   1.2299 H              1 S1                 0.0000
     32 ****         2.4654   0.3560   1.9455 H              1 S1                 0.0000
     33 ****         2.6318   0.7471   0.2405 H              1 S1                 0.0000
     34 ****         2.0195   3.1397   0.7318 H              1 S1                 0.0000
     35 ****         1.8604   2.7540   2.4278 H              1 S1                 0.0000
     36 ****         3.8155   2.6989   3.8833 H              1 S1                 0.0000
     37 ****         6.2769   3.1184   4.1012 H              1 S1                 0.0000
     38 ****         7.6482   3.3804   2.0141 H              1 S1                 0.0000
     39 ****         6.4949   3.2114  -0.2065 H              1 S1                 0.0000
     40 ****        -3.1289  -0.9330   1.5481 H              1 S1                 0.0000
     41 ****        -0.6578  -0.4288   3.2185 H              1 S1                 0.0000
     42 ****        -2.2965  -0.7225   3.7722 H              1 S1                 0.0000
     43 ****        -1.9280   0.7474   2.8834 H              1 S1                 0.0000
     44 ****        -0.6851  -2.7257   1.9623 H              1 S1                 0.0000
     45 ****        -1.9912  -3.0934   0.8443 H              1 S1                 0.0000
     46 ****        -2.3109  -2.9918   2.5668 H              1 S1                 0.0000
     47 ****        -1.8595   0.8052  -2.1094 H              1 S1                 0.0000
     48 ****        -0.2993   0.0158  -2.0875 H              1 S1                 0.0000
     49 ****        -1.1387  -1.8486  -3.4685 H              1 S1                 0.0000
     50 ****        -0.2172   0.1319  -4.6621 H              1 S1                 0.0000
     51 ****        -1.8176   0.8709  -4.6889 H              1 S1                 0.0000
     52 ****        -1.5174  -0.6168  -5.5835 H              1 S1                 0.0000
     53 ****        -1.3612  -1.8587  -0.9948 H              1 S1                 0.0000
     54 ****         0.3503  -2.1206  -0.1915 LP             1 S1                 0.0000
     55 ****         1.7982  -1.2763   0.2452 LP             1 S1                 0.0000
     56 ****         4.1831   2.8173  -0.3211 LP             1 S1                 0.0000
     57 ****        -3.5565  -0.2707  -3.5321 LP             1 S1                 0.0000
     58 ****        -3.2687  -1.6488  -4.3594 LP             1 S1                 0.0000
@<TRIPOS>BOND
    1    1    2 1     
    2    1   24 1     
    3    1   25 1     
    4    1   26 1     
    5    2   23 1     
    6    2    3 1     
    7    2   27 1     
    8    3    4 1     
    9    3   28 1     
   10    3   29 1     
   11    4    5 1     
   12    4   20 1     
   13    4   53 1     
   14    5    6 1     
   15    5   17 1     
   16    5   30 1     
   17    6    7 2     
   18    6    8 am    
   19    8    9 1     
   20    8   31 1     
   21    9   10 1     
   22    9   32 1     
   23    9   33 1     
   24   10   11 1     
   25   10   34 1     
   26   10   35 1     
   27   11   16 ar    
   28   11   12 ar    
   29   12   13 ar    
   30   12   36 1     
   31   13   14 ar    
   32   13   37 1     
   33   14   15 ar    
   34   14   38 1     
   35   15   16 ar    
   36   15   39 1     
   37   17   18 1     
   38   17   19 1     
   39   17   40 1     
   40   18   41 1     
   41   18   42 1     
   42   18   43 1     
   43   19   44 1     
   44   19   45 1     
   45   19   46 1     
   46   20   21 1     
   47   20   47 1     
   48   20   48 1     
   49   21   22 1     
   50   21   23 1     
   51   21   49 1     
   52   22   50 1     
   53   22   51 1     
   54   22   52 1     
   55    7   54 1     
   56    7   55 1     
   57   16   56 1     
   58   23   57 1     
   59   23   58 1     
@<TRIPOS>SUBSTRUCTURE
      1 S1             1
@<TRIPOS>SET
LONE_PAIRS      STATIC     ATOMS    <user>   **** ""
5 54 55 56 57 58
DONOR_HYDROGENS      STATIC     ATOMS    <user>   **** ""
2 53 31
ATOM$BLUE        STATIC     ATOMS    COLORGROUP SYSTEM
5 54 55 56 57 58
ATOM$RED        STATIC     ATOMS    COLORGROUP SYSTEM
2 53 31
