AV-unprocessed.smi:2881|AV-procd|sdf|11061|dock9
  -GOLD-   2272015533D 1   1.00000     0.00000
 Structure written by MMmdl.
 40 42  0  0  0  0  0  0  0  0  1 V2000
  146.4539  134.4271  162.8029 C   0  0  0  0  0  0  0  0  0  0  0  0
  147.0947  135.2777  161.7595 C   0  0  0  0  0  0  0  0  0  0  0  0
  147.7115  134.9550  160.5841 C   0  0  0  0  0  0  0  0  0  0  0  0
  148.1049  136.2110  160.0342 C   0  0  0  0  0  0  0  0  0  0  0  0
  148.8080  136.4698  158.7282 C   0  0  0  0  0  0  0  0  0  0  0  0
  149.9691  137.4356  158.9598 C   0  0  0  0  0  0  0  0  0  0  0  0
  150.8445  137.1632  159.7811 O   0  0  0  0  0  0  0  0  0  0  0  0
  149.9786  138.5420  158.2006 N   0  0  0  0  0  0  0  0  0  0  0  0
  151.0630  139.5217  158.1371 C   0  0  2  0  0  0  0  0  0  0  0  0
  150.6183  140.9333  158.5929 C   0  0  2  0  0  0  0  0  0  0  0  0
  149.3224  141.3757  157.8801 C   0  0  0  0  0  0  0  0  0  0  0  0
  149.7977  141.6089  156.4352 C   0  0  0  0  0  0  0  0  0  0  0  0
  151.3077  141.2982  156.5126 C   0  0  1  0  0  0  0  0  0  0  0  0
  151.6458  141.8248  157.9025 C   0  0  0  0  0  0  0  0  0  0  0  0
  151.5839  139.7849  156.6939 C   0  0  2  0  0  0  0  0  0  0  0  0
  151.0570  138.8614  155.5698 C   0  0  0  0  0  0  0  0  0  0  0  0
  150.9337  139.5774  154.3595 O   0  0  0  0  0  0  0  0  0  0  0  0
  147.7644  137.2303  160.8117 N   0  0  0  0  0  0  0  0  0  0  0  0
  147.1483  136.6489  161.8577 N   0  0  0  0  0  0  0  0  0  0  0  0
  146.7759  137.1931  162.6230 H   0  0  0  0  0  0  0  0  0  0  0  0
  146.6470  133.3704  162.6164 H   0  0  0  0  0  0  0  0  0  0  0  0
  145.3739  134.5752  162.8125 H   0  0  0  0  0  0  0  0  0  0  0  0
  146.8390  134.6693  163.7936 H   0  0  0  0  0  0  0  0  0  0  0  0
  147.8546  133.9677  160.1698 H   0  0  0  0  0  0  0  0  0  0  0  0
  149.1831  135.5433  158.2905 H   0  0  0  0  0  0  0  0  0  0  0  0
  148.1165  136.8999  158.0029 H   0  0  0  0  0  0  0  0  0  0  0  0
  149.2105  138.6766  157.5588 H   0  0  0  0  0  0  0  0  0  0  0  0
  151.8964  139.2012  158.7653 H   0  0  0  0  0  0  0  0  0  0  0  0
  150.5744  141.0442  159.6768 H   0  0  0  0  0  0  0  0  0  0  0  0
  148.5123  140.6493  157.9454 H   0  0  0  0  0  0  0  0  0  0  0  0
  148.9533  142.3080  158.3098 H   0  0  0  0  0  0  0  0  0  0  0  0
  149.2655  140.9931  155.7118 H   0  0  0  0  0  0  0  0  0  0  0  0
  149.6373  142.6495  156.1507 H   0  0  0  0  0  0  0  0  0  0  0  0
  151.8860  141.7508  155.7066 H   0  0  0  0  0  0  0  0  0  0  0  0
  151.4470  142.8914  158.0238 H   0  0  0  0  0  0  0  0  0  0  0  0
  152.6732  141.6188  158.2081 H   0  0  0  0  0  0  0  0  0  0  0  0
  152.6675  139.6544  156.7175 H   0  0  0  0  0  0  0  0  0  0  0  0
  151.7528  138.0388  155.4032 H   0  0  0  0  0  0  0  0  0  0  0  0
  150.0962  138.4124  155.8191 H   0  0  0  0  0  0  0  0  0  0  0  0
  150.7224  138.9663  153.6702 H   0  0  0  0  0  0  0  0  0  0  0  0
  1  2  1  0  0  0  0
  1 21  1  0  0  0  0
  1 22  1  0  0  0  0
  1 23  1  0  0  0  0
  2 19  1  0  0  0  0
  2  3  2  0  0  0  0
  3  4  1  0  0  0  0
  3 24  1  0  0  0  0
  4  5  1  0  0  0  0
  4 18  2  0  0  0  0
  5  6  1  0  0  0  0
  5 25  1  0  0  0  0
  5 26  1  0  0  0  0
  6  7  2  0  0  0  0
  6  8  1  0  0  0  0
  8  9  1  0  0  0  0
  8 27  1  0  0  0  0
  9 15  1  0  0  0  0
  9 10  1  0  0  0  0
  9 28  1  0  0  0  0
 10 14  1  0  0  0  0
 10 11  1  0  0  0  0
 10 29  1  0  0  0  0
 11 12  1  0  0  0  0
 11 30  1  0  0  0  0
 11 31  1  0  0  0  0
 12 13  1  0  0  0  0
 12 32  1  0  0  0  0
 12 33  1  0  0  0  0
 13 14  1  0  0  0  0
 13 15  1  0  0  0  0
 13 34  1  0  0  0  0
 14 35  1  0  0  0  0
 14 36  1  0  0  0  0
 15 16  1  0  0  0  0
 15 37  1  0  0  0  0
 16 17  1  0  0  0  0
 16 38  1  0  0  0  0
 16 39  1  0  0  0  0
 17 40  1  0  0  0  0
 18 19  1  0  0  0  0
 19 20  1  0  0  0  0
M  END
> <s_m_source_file>
AV-unprocessed.smi

> <i_m_source_file_index>
2881

> <i_lp_mmshare_version>
43012

> <i_f3d_flags>
0

> <s_epik_input>
W0NIM11jMVtjSF1jKG5bbkhdMSlbQ0gyXUMoPU8pW05IXVtDQEhdKFtDQEBIXTIzKVtDQEhdKFtDSDJdW09IXSlbQ0BASF0oW0NIMl0zKVtDSDJdW0NIMl0y

> <s_epik_cmdline>
J2VwaWtfcHl0aG9uJywgJy1waCcsICc3LjAnLCAnLXRuJywgJzgnLCAnLW1hJywgJzIwMCcsICctbWV0YWxfYmluZGluZycsICctaW1hZScsICc8aW5maWxlLm1hZT4nLCAnLW9tYWUnLCAnPG91dGZpbGUubWFlPic=

> <r_lp_tautomer_probability>
0.5

> <r_epik_Ionization_Penalty>
9.4349e-05

> <r_epik_Ionization_Penalty_Charging>
0

> <r_epik_Ionization_Penalty_Neutral>
9.4349e-05

> <r_epik_State_Penalty>
0.41068

> <r_epik_Charging_Adjusted_Penalty>
0.41068

> <i_epik_Tot_Q>
0

> <i_epik_Tot_abs_Q>
0

> <r_epik_Metal_State_Penalty>
0.4107

> <b_epik_Metal_Only>
0

> <s_lp_Force_Field>
OPLS_2005

> <r_lp_Energy>
48.5283

> <b_lp_Chiralities_Consistent>
1

> <s_lp_Variant>
AV-unprocessed.smi:2881-7

> <Gold.Version>
5.8.1

> <Gold.Id.Protein>
6NUR|6NUR_protein|mol2

> <Gold.PLP.Fitness>
40.7204

> <Gold.PLP.PLP>
-31.4263

> <Gold.PLP.part.hbond>
-3.9655

> <Gold.PLP.part.metal>
0.0000

> <Gold.PLP.part.buried>
-5.2109

> <Gold.PLP.part.nonpolar>
-23.0621

> <Gold.PLP.part.repulsive>
0.2879

> <Gold.PLP.ligand.clash>
0.0000

> <Gold.PLP.ligand.torsion>
0.6310

> <Gold.PLP.Chemscore.Hbond>
3.5140

> <Gold.PLP.Chemscore.CHOScore>
0.0000

> <Gold.PLP.Chemscore.Metal>
0.0000

> <Gold.Chemscore.Hbonds>
donor molecule, donor type, donor heavy atom, donor atom, acceptor molecule, acceptor atom, score
      P1  H  6896  6909       L1     7  0.89
      P1  H  6931  6943       L1    18  0.67
      P1  H  6934  6947       L1    18  0.86
      P1  H  7989  7998       L1    17  1.00

> <Gold.PLP.Chemscore.Internal.Correction>
0.0144

> <Gold.Rescore>
     Score         DG    S(hbond)    S(metal)    S(lipo)     H(rot)  DE(clash)    DE(int)     intcor
     17.12     -17.81       2.77        0.00      76.12       2.28       0.31       0.38       ----

> <Gold.Chemscore.Fitness>
17.1218

> <Gold.Chemscore.DG>
-17.8141

> <Gold.Chemscore.ZeroCoef>
-5.4800

> <Gold.Chemscore.Hbond>
2.7703

> <Gold.Chemscore.Metal>
0.0000

> <Gold.Chemscore.Lipo>
76.1231

> <Gold.Chemscore.Internal_Hbond>
0.0000

> <Gold.Chemscore.DEClash>
0.3146

> <Gold.Chemscore.DEInternal>
0.3777

> <Gold.Chemscore.Rot>
2.2755

> <Gold.Chemscore.Internal.Correction>
   9.000000E+99

> <Gold.Chemscore.Hbonds>
donor molecule, donor type, donor heavy atom, donor atom, acceptor molecule, acceptor atom, score
      P1  H  6896  6909       L1     7  0.81
      P1  H  6931  6943       L1    18  0.09
      P1  H  6934  6947       L1    18  0.34
      P1  H  7989  7998       L1    17  0.35

> <Gold.Chemscore.Hbond.Weighted>
-9.2529

> <Gold.Chemscore.Metal.Weighted>
-0.0000

> <Gold.Chemscore.Lipo.Weighted>
-8.9064

> <Gold.Chemscore.Internal_Hbond.Weighted>
0.0000

> <Gold.Chemscore.DEClash.Weighted>
0.3146

> <Gold.Chemscore.DEInternal.Weighted>
0.3777

> <Gold.Chemscore.Rot.Weighted>
5.8252

> <Gold.Chemscore.Internal.Correction.Weighted>
   9.000000E+99

> <Gold.Protein.RotatedTorsions>
[ 6907 6896 6895 6894 ] final  105.75 input  -60.11 | X-H torsion
[ 7974 7965 7964 7962 ] final -100.67 input  175.53 | X-H torsion
[ 8008 7997 7996 7995 ] final   63.58 input   59.86 | X-H torsion
[ 10167 10162 10161 10158 ] final -159.48 input  -65.29 | X-H torsion
[ 10718 10713 10712 10709 ] final   55.95 input   66.30 | X-H torsion
[ 10763 10752 10751 10750 ] final  143.09 input  -60.55 | X-H torsion
[ 11005 11000 10999 10996 ] final  -15.56 input  -57.11 | X-H torsion

> <Gold.Protein.ActiveResidues>
 VAL166  LYS551  ARG553  GLY616  TRP617  ASP618  TYR619  PRO620  LYS621  CYS622 
 ASP623  PHE694  ASN695  SER759  ASP760  ASP761  ALA762  ILE779  LEU786  VAL792 
 PHE793  MET794  SER795  GLU796  ALA797  LYS798  CYS799  TRP800  GLU811  SER814 

> <Gold.Protein.RotatedAtoms>
  152.5219  133.9483  159.7659 H   0  0  0  0  0  0  0  0  0  0  0  0  # atno 6907 bound_to 6896
  150.9798  133.6248  159.2731 H   0  0  0  0  0  0  0  0  0  0  0  0  # atno 6908 bound_to 6896
  151.3430  135.0873  159.9430 H   0  0  0  0  0  0  0  0  0  0  0  0  # atno 6909 bound_to 6896
  145.2916  140.9354  143.2874 H   0  0  0  0  0  0  0  0  0  0  0  0  # atno 7974 bound_to 7965
  155.6325  140.3496  155.4688 H   0  0  0  0  0  0  0  0  0  0  0  0  # atno 8008 bound_to 7997
  155.9991  140.1209  157.0588 H   0  0  0  0  0  0  0  0  0  0  0  0  # atno 8009 bound_to 7997
  154.4243  140.1104  156.5658 H   0  0  0  0  0  0  0  0  0  0  0  0  # atno 8010 bound_to 7997
  139.6612  143.9910  152.2226 H   0  0  0  0  0  0  0  0  0  0  0  0  # atno 10167 bound_to 10162
  157.5389  130.8683  149.8793 H   0  0  0  0  0  0  0  0  0  0  0  0  # atno 10718 bound_to 10713
  153.9665  135.2955  155.3430 H   0  0  0  0  0  0  0  0  0  0  0  0  # atno 10763 bound_to 10752
  154.7346  135.5052  153.9023 H   0  0  0  0  0  0  0  0  0  0  0  0  # atno 10764 bound_to 10752
  153.0921  135.6710  153.9946 H   0  0  0  0  0  0  0  0  0  0  0  0  # atno 10765 bound_to 10752
  140.7979  133.8237  155.9442 H   0  0  0  0  0  0  0  0  0  0  0  0  # atno 11005 bound_to 11000
  144.9168  139.4460  143.6560 LP  0  0  0  0  0  0  0  0  0  0  0  0  # atno 17320 bound_to 7965
  146.3183  139.8006  142.8966 LP  0  0  0  0  0  0  0  0  0  0  0  0  # atno 17321 bound_to 7965
  139.9649  144.6533  150.8044 LP  0  0  0  0  0  0  0  0  0  0  0  0  # atno 17342 bound_to 10162
  140.7580  143.3099  151.2870 LP  0  0  0  0  0  0  0  0  0  0  0  0  # atno 17343 bound_to 10162
  156.0480  130.3723  150.1269 LP  0  0  0  0  0  0  0  0  0  0  0  0  # atno 17370 bound_to 10713
  156.9450  130.9756  151.3509 LP  0  0  0  0  0  0  0  0  0  0  0  0  # atno 17371 bound_to 10713
  140.9324  134.2005  157.4854 LP  0  0  0  0  0  0  0  0  0  0  0  0  # atno 17394 bound_to 11000
  139.8724  134.9838  156.5214 LP  0  0  0  0  0  0  0  0  0  0  0  0  # atno 17395 bound_to 11000

$$$$
