AV-unprocessed.smi:2334|AV-procd|sdf|9322|dock6
  -GOLD-   2272012543D 1   1.00000     0.00000
 Structure written by MMmdl.
 50 52  0  0  0  0  0  0  0  0  2 V2000
  149.1633  141.1076  154.3954 C   0  0  0  0  0  0  0  0  0  0  0  0
  149.8377  140.9524  155.7486 C   0  0  0  0  0  0  0  0  0  0  0  0
  150.1454  142.0985  156.3962 N   0  3  0  0  0  0  0  0  0  0  0  0
  150.7446  142.1412  157.6049 C   0  0  0  0  0  0  0  0  0  0  0  0
  151.0019  143.4094  158.1442 N   0  0  0  0  0  0  0  0  0  0  0  0
  151.9791  144.1898  157.4040 C   0  0  0  0  0  0  0  0  0  0  0  0
  152.4206  145.3078  158.3529 C   0  0  0  0  0  0  0  0  0  0  0  0
  152.0430  144.8109  159.7534 C   0  0  0  0  0  0  0  0  0  0  0  0
  151.4474  143.4193  159.5277 C   0  0  0  0  0  0  0  0  0  0  0  0
  151.0764  140.9285  158.2487 C   0  0  0  0  0  0  0  0  0  0  0  0
  150.7761  139.7056  157.6168 C   0  0  0  0  0  0  0  0  0  0  0  0
  150.1579  139.7037  156.3406 C   0  0  0  0  0  0  0  0  0  0  0  0
  149.8078  138.5020  155.6634 N   0  0  0  0  0  0  0  0  0  0  0  0
  149.7122  137.2591  156.1666 C   0  0  0  0  0  0  0  0  0  0  0  0
  149.9537  136.9542  157.3341 O   0  0  0  0  0  0  0  0  0  0  0  0
  149.3346  136.3853  155.2172 N   0  0  0  0  0  0  0  0  0  0  0  0
  149.1083  134.9353  155.3177 C   0  0  0  0  0  0  0  0  0  0  0  0
  148.1378  134.7487  156.5043 C   0  0  0  0  0  0  0  0  0  0  0  0
  148.4757  134.3838  154.0140 C   0  0  0  0  0  0  0  0  0  0  0  0
  148.4436  132.8448  153.9862 C   0  0  0  0  0  0  0  0  0  0  0  0
  149.7513  132.3246  154.1912 O   0  0  0  0  0  0  0  0  0  0  0  0
  150.2856  132.6604  155.4657 C   0  0  0  0  0  0  0  0  0  0  0  0
  150.4387  134.1870  155.5898 C   0  0  0  0  0  0  0  0  0  0  0  0
  148.9403  140.1557  153.9154 H   0  0  0  0  0  0  0  0  0  0  0  0
  149.8066  141.6754  153.7225 H   0  0  0  0  0  0  0  0  0  0  0  0
  148.2255  141.6529  154.5055 H   0  0  0  0  0  0  0  0  0  0  0  0
  152.8339  143.5701  157.1293 H   0  0  0  0  0  0  0  0  0  0  0  0
  151.5464  144.5910  156.4870 H   0  0  0  0  0  0  0  0  0  0  0  0
  153.4879  145.5111  158.2598 H   0  0  0  0  0  0  0  0  0  0  0  0
  151.8862  146.2319  158.1292 H   0  0  0  0  0  0  0  0  0  0  0  0
  152.8983  144.7792  160.4292 H   0  0  0  0  0  0  0  0  0  0  0  0
  151.2969  145.4744  160.1926 H   0  0  0  0  0  0  0  0  0  0  0  0
  150.6187  143.2232  160.2090 H   0  0  0  0  0  0  0  0  0  0  0  0
  152.2084  142.6566  159.6955 H   0  0  0  0  0  0  0  0  0  0  0  0
  151.5541  140.9259  159.2174 H   0  0  0  0  0  0  0  0  0  0  0  0
  151.0148  138.7885  158.1329 H   0  0  0  0  0  0  0  0  0  0  0  0
  149.6790  138.5880  154.6659 H   0  0  0  0  0  0  0  0  0  0  0  0
  149.1765  136.7720  154.2982 H   0  0  0  0  0  0  0  0  0  0  0  0
  147.8885  133.7033  156.6810 H   0  0  0  0  0  0  0  0  0  0  0  0
  147.1990  135.2772  156.3344 H   0  0  0  0  0  0  0  0  0  0  0  0
  148.5658  135.1364  157.4296 H   0  0  0  0  0  0  0  0  0  0  0  0
  147.4690  134.7810  153.8791 H   0  0  0  0  0  0  0  0  0  0  0  0
  149.0442  134.7083  153.1431 H   0  0  0  0  0  0  0  0  0  0  0  0
  147.7576  132.4450  154.7336 H   0  0  0  0  0  0  0  0  0  0  0  0
  148.0813  132.5003  153.0176 H   0  0  0  0  0  0  0  0  0  0  0  0
  149.6545  132.2553  156.2574 H   0  0  0  0  0  0  0  0  0  0  0  0
  151.2595  132.1819  155.5703 H   0  0  0  0  0  0  0  0  0  0  0  0
  151.2043  134.4905  154.8767 H   0  0  0  0  0  0  0  0  0  0  0  0
  150.8282  134.4451  156.5752 H   0  0  0  0  0  0  0  0  0  0  0  0
  149.9098  142.9828  155.9453 H   0  0  0  0  0  0  0  0  0  0  0  0
  1  2  1  0  0  0  0
  1 24  1  0  0  0  0
  1 25  1  0  0  0  0
  1 26  1  0  0  0  0
  2 12  1  0  0  0  0
  2  3  2  0  0  0  0
  3  4  1  0  0  0  0
  3 50  1  0  0  0  0
  4  5  1  0  0  0  0
  4 10  2  0  0  0  0
  5  9  1  0  0  0  0
  5  6  1  0  0  0  0
  6  7  1  0  0  0  0
  6 27  1  0  0  0  0
  6 28  1  0  0  0  0
  7  8  1  0  0  0  0
  7 29  1  0  0  0  0
  7 30  1  0  0  0  0
  8  9  1  0  0  0  0
  8 31  1  0  0  0  0
  8 32  1  0  0  0  0
  9 33  1  0  0  0  0
  9 34  1  0  0  0  0
 10 11  1  0  0  0  0
 10 35  1  0  0  0  0
 11 12  2  0  0  0  0
 11 36  1  0  0  0  0
 12 13  1  0  0  0  0
 13 14  1  0  0  0  0
 13 37  1  0  0  0  0
 14 15  2  0  0  0  0
 14 16  1  0  0  0  0
 16 17  1  0  0  0  0
 16 38  1  0  0  0  0
 17 23  1  0  0  0  0
 17 18  1  0  0  0  0
 17 19  1  0  0  0  0
 18 39  1  0  0  0  0
 18 40  1  0  0  0  0
 18 41  1  0  0  0  0
 19 20  1  0  0  0  0
 19 42  1  0  0  0  0
 19 43  1  0  0  0  0
 20 21  1  0  0  0  0
 20 44  1  0  0  0  0
 20 45  1  0  0  0  0
 21 22  1  0  0  0  0
 22 23  1  0  0  0  0
 22 46  1  0  0  0  0
 22 47  1  0  0  0  0
 23 48  1  0  0  0  0
 23 49  1  0  0  0  0
M  CHG  1   3   1
M  END
> <s_m_source_file>
AV-unprocessed.smi

> <i_m_source_file_index>
2334

> <i_lp_mmshare_version>
43012

> <i_f3d_flags>
0

> <s_epik_input>
W0NIMl0xW0NIMl1bQ0gyXVtDSDJdTjFjKG5jMltDSDNdKVtjSF1bY0hdYzJbTkhdQyg9TylbTkhdQzMoW0NIM10pW0NIMl1bQ0gyXU9bQ0gyXVtDSDJdMw==

> <s_epik_cmdline>
J2VwaWtfcHl0aG9uJywgJy1waCcsICc3LjAnLCAnLXRuJywgJzgnLCAnLW1hJywgJzIwMCcsICctbWV0YWxfYmluZGluZycsICctaW1hZScsICc8aW5maWxlLm1hZT4nLCAnLW9tYWUnLCAnPG91dGZpbGUubWFlPic=

> <r_lp_tautomer_probability>
0.999994

> <r_epik_Ionization_Penalty>
0.526488

> <r_epik_Ionization_Penalty_Charging>
0.526468

> <r_epik_Ionization_Penalty_Neutral>
1.9901e-05

> <r_epik_State_Penalty>
0.534906

> <r_epik_Charging_Adjusted_Penalty>
1.06137

> <i_epik_Tot_Q>
1

> <i_epik_Tot_abs_Q>
1

> <r_epik_Metal_State_Penalty>
0.740533

> <b_epik_Metal_Only>
0

> <s_lp_Force_Field>
OPLS_2005

> <r_lp_Energy>
48.5671

> <b_lp_Chiralities_Consistent>
1

> <s_lp_Variant>
AV-unprocessed.smi:2334-2

> <Gold.Version>
5.8.1

> <Gold.Id.Protein>
6NUR|6NUR_protein|mol2

> <Gold.PLP.Fitness>
39.8402

> <Gold.PLP.PLP>
-34.3936

> <Gold.PLP.part.hbond>
-1.0000

> <Gold.PLP.part.metal>
0.0000

> <Gold.PLP.part.buried>
-2.9007

> <Gold.PLP.part.nonpolar>
-29.9139

> <Gold.PLP.part.repulsive>
0.3030

> <Gold.PLP.ligand.clash>
0.0000

> <Gold.PLP.ligand.torsion>
0.2838

> <Gold.PLP.Chemscore.Hbond>
2.0000

> <Gold.PLP.Chemscore.CHOScore>
0.0000

> <Gold.PLP.Chemscore.Metal>
0.0000

> <Gold.Chemscore.Hbonds>
donor molecule, donor type, donor heavy atom, donor atom, acceptor molecule, acceptor atom, score
      L1  H     3    50       P1  8028  1.98

> <Gold.PLP.Chemscore.Internal.Correction>
0.0142

> <Gold.Rescore>
     Score         DG    S(hbond)    S(metal)    S(lipo)     H(rot)  DE(clash)    DE(int)     intcor
     14.54     -17.45       0.96        0.00     100.68       1.18       0.40       2.51       ----

> <Gold.Chemscore.Fitness>
14.5426

> <Gold.Chemscore.DG>
-17.4508

> <Gold.Chemscore.ZeroCoef>
-5.4800

> <Gold.Chemscore.Hbond>
0.9607

> <Gold.Chemscore.Metal>
0.0000

> <Gold.Chemscore.Lipo>
100.6810

> <Gold.Chemscore.Internal_Hbond>
0.0000

> <Gold.Chemscore.DEClash>
0.4004

> <Gold.Chemscore.DEInternal>
2.5078

> <Gold.Chemscore.Rot>
1.1788

> <Gold.Chemscore.Internal.Correction>
   9.000000E+99

> <Gold.Chemscore.Hbonds>
donor molecule, donor type, donor heavy atom, donor atom, acceptor molecule, acceptor atom, score
      L1  H     3    50       P1  8028  0.91
      L1  H    16    38       P1  7948  0.02

> <Gold.Chemscore.Hbond.Weighted>
-3.2089

> <Gold.Chemscore.Metal.Weighted>
-0.0000

> <Gold.Chemscore.Lipo.Weighted>
-11.7797

> <Gold.Chemscore.Internal_Hbond.Weighted>
0.0000

> <Gold.Chemscore.DEClash.Weighted>
0.4004

> <Gold.Chemscore.DEInternal.Weighted>
2.5078

> <Gold.Chemscore.Rot.Weighted>
3.0178

> <Gold.Chemscore.Internal.Correction.Weighted>
   9.000000E+99

> <Gold.Protein.RotatedTorsions>
[ 6907 6896 6895 6894 ] final  166.31 input  -60.11 | X-H torsion
[ 7974 7965 7964 7962 ] final  -43.85 input  175.53 | X-H torsion
[ 8008 7997 7996 7995 ] final  118.95 input   59.86 | X-H torsion
[ 10167 10162 10161 10158 ] final -107.61 input  -65.29 | X-H torsion
[ 10718 10713 10712 10709 ] final   18.56 input   66.30 | X-H torsion
[ 10763 10752 10751 10750 ] final -142.28 input  -60.55 | X-H torsion
[ 11005 11000 10999 10996 ] final   -5.29 input  -57.11 | X-H torsion

> <Gold.Protein.ActiveResidues>
 VAL166  LYS551  ARG553  GLY616  TRP617  ASP618  TYR619  PRO620  LYS621  CYS622 
 ASP623  PHE694  ASN695  SER759  ASP760  ASP761  ALA762  ILE779  LEU786  VAL792 
 PHE793  MET794  SER795  GLU796  ALA797  LYS798  CYS799  TRP800  GLU811  SER814 

> <Gold.Protein.RotatedAtoms>
  151.8808  133.3495  159.3765 H   0  0  0  0  0  0  0  0  0  0  0  0  # atno 6907 bound_to 6896
  150.7128  134.5020  159.5575 H   0  0  0  0  0  0  0  0  0  0  0  0  # atno 6908 bound_to 6896
  152.2571  134.8073  160.0487 H   0  0  0  0  0  0  0  0  0  0  0  0  # atno 6909 bound_to 6896
  145.9979  140.7108  142.9285 H   0  0  0  0  0  0  0  0  0  0  0  0  # atno 7974 bound_to 7965
  156.2572  140.2863  156.0915 H   0  0  0  0  0  0  0  0  0  0  0  0  # atno 8008 bound_to 7997
  155.1458  140.0396  157.2827 H   0  0  0  0  0  0  0  0  0  0  0  0  # atno 8009 bound_to 7997
  154.6497  140.2541  155.7235 H   0  0  0  0  0  0  0  0  0  0  0  0  # atno 8010 bound_to 7997
  140.1751  143.4012  152.1325 H   0  0  0  0  0  0  0  0  0  0  0  0  # atno 10167 bound_to 10162
  157.0981  130.6456  149.5865 H   0  0  0  0  0  0  0  0  0  0  0  0  # atno 10718 bound_to 10713
  154.8515  135.3500  154.6002 H   0  0  0  0  0  0  0  0  0  0  0  0  # atno 10763 bound_to 10752
  153.6611  135.6989  153.5182 H   0  0  0  0  0  0  0  0  0  0  0  0  # atno 10764 bound_to 10752
  153.2817  135.4261  155.1042 H   0  0  0  0  0  0  0  0  0  0  0  0  # atno 10765 bound_to 10752
  140.6896  133.9083  155.8609 H   0  0  0  0  0  0  0  0  0  0  0  0  # atno 11005 bound_to 11000
  144.6909  140.3182  143.7237 LP  0  0  0  0  0  0  0  0  0  0  0  0  # atno 17320 bound_to 7965
  145.7532  139.1800  143.2309 LP  0  0  0  0  0  0  0  0  0  0  0  0  # atno 17321 bound_to 7965
  139.5321  144.7170  151.5020 LP  0  0  0  0  0  0  0  0  0  0  0  0  # atno 17342 bound_to 10162
  140.6557  143.8605  150.6832 LP  0  0  0  0  0  0  0  0  0  0  0  0  # atno 17343 bound_to 10162
  155.9880  130.4922  150.7153 LP  0  0  0  0  0  0  0  0  0  0  0  0  # atno 17370 bound_to 10713
  157.4664  131.0888  151.0690 LP  0  0  0  0  0  0  0  0  0  0  0  0  # atno 17371 bound_to 10713
  141.0252  134.0833  157.4076 LP  0  0  0  0  0  0  0  0  0  0  0  0  # atno 17394 bound_to 11000
  139.8927  135.0126  156.6862 LP  0  0  0  0  0  0  0  0  0  0  0  0  # atno 17395 bound_to 11000

$$$$
