AV-unprocessed.smi:2629|AV-procd|sdf|10244|dock10
  -GOLD-   2272014253D 1   1.00000     0.00000
 Structure written by MMmdl.
 24 25  0  0  0  0  0  0  0  0  3 V2000
  152.6114  137.6471  154.6930 O   0  0  0  0  0  0  0  0  0  0  0  0
  152.3286  138.5894  155.4290 C   0  0  0  0  0  0  0  0  0  0  0  0
  152.9430  138.6845  156.8041 N   0  0  0  0  0  0  0  0  0  0  0  0
  152.6423  139.6540  157.5441 N   0  3  0  0  0  0  0  0  0  0  0  0
  151.7424  140.7141  157.1979 C   0  0  0  0  0  0  0  0  0  0  0  0
  151.4902  141.7283  158.1023 N   0  0  0  0  0  0  0  0  0  0  0  0
  150.8884  142.9932  157.7113 C   0  0  0  0  0  0  0  0  0  0  0  0
  151.9323  144.1205  157.7927 C   0  0  0  0  0  0  0  0  0  0  0  0
  152.4899  144.1606  159.1036 O   0  0  0  0  0  0  0  0  0  0  0  0
  153.1408  142.9413  159.4509 C   0  0  0  0  0  0  0  0  0  0  0  0
  152.1262  141.7854  159.4090 C   0  0  0  0  0  0  0  0  0  0  0  0
  151.1718  140.6379  155.9359 C   0  0  0  0  0  0  0  0  0  0  0  0
  150.3668  141.3469  155.2932 O   0  5  0  0  0  0  0  0  0  0  0  0
  151.4826  139.5771  155.0882 N   0  0  0  0  0  0  0  0  0  0  0  0
  153.0731  139.6862  158.4617 H   0  0  0  0  0  0  0  0  0  0  0  0
  150.0491  143.2057  158.3743 H   0  0  0  0  0  0  0  0  0  0  0  0
  150.4856  142.9201  156.7003 H   0  0  0  0  0  0  0  0  0  0  0  0
  152.7223  143.9715  157.0549 H   0  0  0  0  0  0  0  0  0  0  0  0
  151.4674  145.0817  157.5734 H   0  0  0  0  0  0  0  0  0  0  0  0
  153.9713  142.7533  158.7685 H   0  0  0  0  0  0  0  0  0  0  0  0
  153.5638  143.0355  160.4510 H   0  0  0  0  0  0  0  0  0  0  0  0
  152.6204  140.8379  159.6270 H   0  0  0  0  0  0  0  0  0  0  0  0
  151.3586  141.9273  160.1704 H   0  0  0  0  0  0  0  0  0  0  0  0
  151.0420  139.5658  154.1797 H   0  0  0  0  0  0  0  0  0  0  0  0
  1  2  2  0  0  0  0
  2 14  1  0  0  0  0
  2  3  1  0  0  0  0
  3  4  2  0  0  0  0
  4 15  1  0  0  0  0
  4  5  1  0  0  0  0
  5 12  2  0  0  0  0
  5  6  1  0  0  0  0
  6 11  1  0  0  0  0
  6  7  1  0  0  0  0
  7  8  1  0  0  0  0
  7 16  1  0  0  0  0
  7 17  1  0  0  0  0
  8  9  1  0  0  0  0
  8 18  1  0  0  0  0
  8 19  1  0  0  0  0
  9 10  1  0  0  0  0
 10 11  1  0  0  0  0
 10 20  1  0  0  0  0
 10 21  1  0  0  0  0
 11 22  1  0  0  0  0
 11 23  1  0  0  0  0
 12 13  1  0  0  0  0
 12 14  1  0  0  0  0
 14 24  1  0  0  0  0
M  CHG  1   4   1
M  CHG  1  13  -1
M  END
> <s_m_source_file>
AV-unprocessed.smi

> <i_m_source_file_index>
2629

> <i_lp_mmshare_version>
43012

> <i_f3d_flags>
0

> <s_epik_input>
Tz1jMVtuSF1uYyhjKD1PKVtuSF0xKU4yW0NIMl1bQ0gyXU9bQ0gyXVtDSDJdMg==

> <s_epik_cmdline>
J2VwaWtfcHl0aG9uJywgJy1waCcsICc3LjAnLCAnLXRuJywgJzgnLCAnLW1hJywgJzIwMCcsICctbWV0YWxfYmluZGluZycsICctaW1hZScsICc8aW5maWxlLm1hZT4nLCAnLW9tYWUnLCAnPG91dGZpbGUubWFlPic=

> <r_lp_tautomer_probability>
1

> <r_epik_Ionization_Penalty>
6.1095

> <r_epik_Ionization_Penalty_Charging>
6.1095

> <r_epik_Ionization_Penalty_Neutral>
3.71443e-10

> <r_epik_State_Penalty>
-0

> <r_epik_Charging_Adjusted_Penalty>
6.1095

> <i_epik_Tot_Q>
0

> <i_epik_Tot_abs_Q>
2

> <r_epik_Metal_State_Penalty>
6.62767

> <b_epik_Metal_Only>
0

> <s_lp_Force_Field>
OPLS_2005

> <r_lp_Energy>
17.9127

> <b_lp_Chiralities_Consistent>
1

> <s_lp_Variant>
AV-unprocessed.smi:2629-1

> <Gold.Version>
5.8.1

> <Gold.Id.Protein>
6NUR|6NUR_protein|mol2

> <Gold.PLP.Fitness>
28.5760

> <Gold.PLP.PLP>
-26.7223

> <Gold.PLP.part.hbond>
-3.0000

> <Gold.PLP.part.metal>
0.0000

> <Gold.PLP.part.buried>
-4.7703

> <Gold.PLP.part.nonpolar>
-20.9923

> <Gold.PLP.part.repulsive>
1.9456

> <Gold.PLP.ligand.clash>
0.0000

> <Gold.PLP.ligand.torsion>
0.0616

> <Gold.PLP.Chemscore.Hbond>
0.6350

> <Gold.PLP.Chemscore.CHOScore>
0.0000

> <Gold.PLP.Chemscore.Metal>
0.0000

> <Gold.Chemscore.Hbonds>
donor molecule, donor type, donor heavy atom, donor atom, acceptor molecule, acceptor atom, score
      P1  H  7989  7998       L1    13  0.10
      P1  H  7997  8009       L1     3  0.01
      P1  H 10752 10764       L1     1  0.51

> <Gold.PLP.Chemscore.Internal.Correction>
0.0720

> <Gold.Rescore>
     Score         DG    S(hbond)    S(metal)    S(lipo)     H(rot)  DE(clash)    DE(int)     intcor
     11.23     -14.04       0.89        0.00      47.82       0.00       1.65       1.16       ----

> <Gold.Chemscore.Fitness>
11.2321

> <Gold.Chemscore.DG>
-14.0393

> <Gold.Chemscore.ZeroCoef>
-5.4800

> <Gold.Chemscore.Hbond>
0.8877

> <Gold.Chemscore.Metal>
0.0000

> <Gold.Chemscore.Lipo>
47.8157

> <Gold.Chemscore.Internal_Hbond>
0.0000

> <Gold.Chemscore.DEClash>
1.6470

> <Gold.Chemscore.DEInternal>
1.1602

> <Gold.Chemscore.Rot>
0.0000

> <Gold.Chemscore.Internal.Correction>
   9.000000E+99

> <Gold.Chemscore.Hbonds>
donor molecule, donor type, donor heavy atom, donor atom, acceptor molecule, acceptor atom, score
      P1  H 10752 10764       L1     1  0.46

> <Gold.Chemscore.Hbond.Weighted>
-2.9649

> <Gold.Chemscore.Metal.Weighted>
-0.0000

> <Gold.Chemscore.Lipo.Weighted>
-5.5944

> <Gold.Chemscore.Internal_Hbond.Weighted>
0.0000

> <Gold.Chemscore.DEClash.Weighted>
1.6470

> <Gold.Chemscore.DEInternal.Weighted>
1.1602

> <Gold.Chemscore.Rot.Weighted>
0.0000

> <Gold.Chemscore.Internal.Correction.Weighted>
   9.000000E+99

> <Gold.Protein.RotatedTorsions>
[ 6907 6896 6895 6894 ] final  -46.66 input  -60.11 | X-H torsion
[ 7974 7965 7964 7962 ] final  -26.43 input  175.53 | X-H torsion
[ 8008 7997 7996 7995 ] final -136.91 input   59.86 | X-H torsion
[ 10167 10162 10161 10158 ] final  135.06 input  -65.29 | X-H torsion
[ 10718 10713 10712 10709 ] final   54.40 input   66.30 | X-H torsion
[ 10763 10752 10751 10750 ] final  -69.99 input  -60.55 | X-H torsion
[ 11005 11000 10999 10996 ] final  -84.70 input  -57.11 | X-H torsion

> <Gold.Protein.ActiveResidues>
 VAL166  LYS551  ARG553  GLY616  TRP617  ASP618  TYR619  PRO620  LYS621  CYS622 
 ASP623  PHE694  ASN695  SER759  ASP760  ASP761  ALA762  ILE779  LEU786  VAL792 
 PHE793  MET794  SER795  GLU796  ALA797  LYS798  CYS799  TRP800  GLU811  SER814 

> <Gold.Protein.RotatedAtoms>
  150.9089  134.8505  159.7411 H   0  0  0  0  0  0  0  0  0  0  0  0  # atno 6907 bound_to 6896
  152.4933  134.4389  159.9547 H   0  0  0  0  0  0  0  0  0  0  0  0  # atno 6908 bound_to 6896
  151.4433  133.3598  159.2820 H   0  0  0  0  0  0  0  0  0  0  0  0  # atno 6909 bound_to 6896
  146.1425  140.5019  142.8646 H   0  0  0  0  0  0  0  0  0  0  0  0  # atno 7974 bound_to 7965
  155.4031  140.0507  157.3035 H   0  0  0  0  0  0  0  0  0  0  0  0  # atno 8008 bound_to 7997
  154.4981  140.2146  155.9364 H   0  0  0  0  0  0  0  0  0  0  0  0  # atno 8009 bound_to 7997
  156.1432  140.3150  155.8534 H   0  0  0  0  0  0  0  0  0  0  0  0  # atno 8010 bound_to 7997
  139.5232  144.6536  151.5229 H   0  0  0  0  0  0  0  0  0  0  0  0  # atno 10167 bound_to 10162
  157.5253  130.8593  149.8614 H   0  0  0  0  0  0  0  0  0  0  0  0  # atno 10718 bound_to 10713
  154.4113  135.6008  153.5954 H   0  0  0  0  0  0  0  0  0  0  0  0  # atno 10763 bound_to 10752
  152.9790  135.5930  154.4066 H   0  0  0  0  0  0  0  0  0  0  0  0  # atno 10764 bound_to 10752
  154.3879  135.2841  155.2151 H   0  0  0  0  0  0  0  0  0  0  0  0  # atno 10765 bound_to 10752
  141.1648  133.7360  156.8907 H   0  0  0  0  0  0  0  0  0  0  0  0  # atno 11005 bound_to 11000
  144.7809  140.5838  143.6606 LP  0  0  0  0  0  0  0  0  0  0  0  0  # atno 17320 bound_to 7965
  145.5013  139.1483  143.3656 LP  0  0  0  0  0  0  0  0  0  0  0  0  # atno 17321 bound_to 7965
  140.6352  143.8999  150.6640 LP  0  0  0  0  0  0  0  0  0  0  0  0  # atno 17342 bound_to 10162
  140.2315  143.3732  152.1561 LP  0  0  0  0  0  0  0  0  0  0  0  0  # atno 17343 bound_to 10162
  156.0383  130.3745  150.1502 LP  0  0  0  0  0  0  0  0  0  0  0  0  # atno 17370 bound_to 10713
  156.9689  130.9828  151.3463 LP  0  0  0  0  0  0  0  0  0  0  0  0  # atno 17371 bound_to 10713
  140.1651  134.9139  157.2763 LP  0  0  0  0  0  0  0  0  0  0  0  0  # atno 17394 bound_to 11000
  140.2567  134.3619  155.7422 LP  0  0  0  0  0  0  0  0  0  0  0  0  # atno 17395 bound_to 11000

$$$$
