AV-unprocessed.smi:2999|AV-procd|sdf|11421|dock9
  -GOLD-   2272016343D 1   1.00000     0.00000
 Structure written by MMmdl.
 38 40  0  0  0  0  0  0  0  0  2 V2000
  145.7743  139.4779  153.4379 O   0  0  0  0  0  0  0  0  0  0  0  0
  146.7510  138.8286  153.0639 C   0  0  0  0  0  0  0  0  0  0  0  0
  146.6919  137.9026  152.0962 N   0  0  0  0  0  0  0  0  0  0  0  0
  145.4825  137.5297  151.3698 C   0  0  0  0  0  0  0  0  0  0  0  0
  145.0377  136.0903  151.6865 C   0  0  2  0  0  0  0  0  0  0  0  0
  144.0933  135.5316  150.6008 C   0  0  0  0  0  0  0  0  0  0  0  0
  143.5885  134.1846  150.9604 N   0  3  1  0  0  0  0  0  0  0  0  0
  144.5843  133.1071  150.7525 C   0  0  0  0  0  0  0  0  0  0  0  0
  144.6511  132.6124  149.3267 C   0  0  0  0  0  0  0  0  0  0  0  0
  143.9673  131.7775  150.3864 C   0  0  0  0  0  0  0  0  0  0  0  0
  142.9979  134.1849  152.3196 C   0  0  0  0  0  0  0  0  0  0  0  0
  143.9674  134.7919  153.3500 C   0  0  0  0  0  0  0  0  0  0  0  0
  144.3475  136.0972  152.9328 O   0  0  0  0  0  0  0  0  0  0  0  0
  147.9956  138.9434  153.5540 N   0  0  0  0  0  0  0  0  0  0  0  0
  148.4514  139.8265  154.5637 C   0  0  0  0  0  0  0  0  0  0  0  0
  149.5129  139.4787  155.2935 N   0  0  0  0  0  0  0  0  0  0  0  0
  149.8395  140.4525  156.2416 C   0  0  0  0  0  0  0  0  0  0  0  0
  149.0108  141.5468  156.2168 C   0  0  0  0  0  0  0  0  0  0  0  0
  147.7752  141.3989  154.9966 S   0  0  0  0  0  0  0  0  0  0  0  0
  147.5417  137.4172  151.8472 H   0  0  0  0  0  0  0  0  0  0  0  0
  144.6927  138.2331  151.6344 H   0  0  0  0  0  0  0  0  0  0  0  0
  145.6542  137.6467  150.2984 H   0  0  0  0  0  0  0  0  0  0  0  0
  145.9199  135.4532  151.7649 H   0  0  0  0  0  0  0  0  0  0  0  0
  143.2367  136.1967  150.4827 H   0  0  0  0  0  0  0  0  0  0  0  0
  144.5942  135.4972  149.6326 H   0  0  0  0  0  0  0  0  0  0  0  0
  145.4838  133.1418  151.3639 H   0  0  0  0  0  0  0  0  0  0  0  0
  144.0187  133.0931  148.5823 H   0  0  0  0  0  0  0  0  0  0  0  0
  145.6146  132.2624  148.9617 H   0  0  0  0  0  0  0  0  0  0  0  0
  144.4803  130.8774  150.7190 H   0  0  0  0  0  0  0  0  0  0  0  0
  142.8818  131.7064  150.3471 H   0  0  0  0  0  0  0  0  0  0  0  0
  142.0808  134.7749  152.2951 H   0  0  0  0  0  0  0  0  0  0  0  0
  142.7086  133.1738  152.6088 H   0  0  0  0  0  0  0  0  0  0  0  0
  143.4811  134.8622  154.3230 H   0  0  0  0  0  0  0  0  0  0  0  0
  144.8505  134.1655  153.4842 H   0  0  0  0  0  0  0  0  0  0  0  0
  148.6973  138.3329  153.1616 H   0  0  0  0  0  0  0  0  0  0  0  0
  150.6819  140.2852  156.8963 H   0  0  0  0  0  0  0  0  0  0  0  0
  149.0519  142.4274  156.8403 H   0  0  0  0  0  0  0  0  0  0  0  0
  142.8348  133.9797  150.3197 H   0  0  0  0  0  0  0  0  0  0  0  0
  1  2  2  0  0  0  0
  2  3  1  0  0  0  0
  2 14  1  0  0  0  0
  3  4  1  0  0  0  0
  3 20  1  0  0  0  0
  4  5  1  0  0  0  0
  4 21  1  0  0  0  0
  4 22  1  0  0  0  0
  5 13  1  0  0  0  0
  5  6  1  0  0  0  0
  5 23  1  0  0  0  0
  6  7  1  0  0  0  0
  6 24  1  0  0  0  0
  6 25  1  0  0  0  0
  7  8  1  0  0  0  0
  7 11  1  0  0  0  0
  7 38  1  0  0  0  0
  8 10  1  0  0  0  0
  8  9  1  0  0  0  0
  8 26  1  0  0  0  0
  9 10  1  0  0  0  0
  9 27  1  0  0  0  0
  9 28  1  0  0  0  0
 10 29  1  0  0  0  0
 10 30  1  0  0  0  0
 11 12  1  0  0  0  0
 11 31  1  0  0  0  0
 11 32  1  0  0  0  0
 12 13  1  0  0  0  0
 12 33  1  0  0  0  0
 12 34  1  0  0  0  0
 14 15  1  0  0  0  0
 14 35  1  0  0  0  0
 15 19  1  0  0  0  0
 15 16  2  0  0  0  0
 16 17  1  0  0  0  0
 17 18  2  0  0  0  0
 17 36  1  0  0  0  0
 18 19  1  0  0  0  0
 18 37  1  0  0  0  0
M  CHG  1   7   1
M  END
> <s_m_source_file>
AV-unprocessed.smi

> <i_m_source_file_index>
2999

> <i_lp_mmshare_version>
43012

> <i_f3d_flags>
0

> <s_epik_input>
czFbY0hdW2NIXW5jMVtOSF1DKD1PKVtOSF1bQ0gyXVtDQEBIXTJbQ0gyXU4oW0NIMl1bQ0gyXU8yKVtDSF0zW0NIMl1bQ0gyXTM=

> <s_epik_cmdline>
J2VwaWtfcHl0aG9uJywgJy1waCcsICc3LjAnLCAnLXRuJywgJzgnLCAnLW1hJywgJzIwMCcsICctbWV0YWxfYmluZGluZycsICctaW1hZScsICc8aW5maWxlLm1hZT4nLCAnLW9tYWUnLCAnPG91dGZpbGUubWFlPic=

> <r_lp_tautomer_probability>
0.999

> <r_epik_Ionization_Penalty>
1.55235

> <r_epik_Ionization_Penalty_Charging>
1.55221

> <r_epik_Ionization_Penalty_Neutral>
0.000139685

> <r_epik_State_Penalty>
1.64652

> <r_epik_Charging_Adjusted_Penalty>
3.19873

> <i_epik_Tot_Q>
1

> <i_epik_Tot_abs_Q>
1

> <r_epik_Metal_State_Penalty>
1.68612

> <b_epik_Metal_Only>
0

> <s_lp_Force_Field>
OPLS_2005

> <r_lp_Energy>
21.4475

> <b_lp_Chiralities_Consistent>
1

> <s_lp_Variant>
AV-unprocessed.smi:2999-5

> <Gold.Version>
5.8.1

> <Gold.Id.Protein>
6NUR|6NUR_protein|mol2

> <Gold.PLP.Fitness>
46.1421

> <Gold.PLP.PLP>
-32.7569

> <Gold.PLP.part.hbond>
-3.6692

> <Gold.PLP.part.metal>
0.0000

> <Gold.PLP.part.buried>
2.4620

> <Gold.PLP.part.nonpolar>
-34.8153

> <Gold.PLP.part.repulsive>
2.6753

> <Gold.PLP.ligand.clash>
0.0000

> <Gold.PLP.ligand.torsion>
0.9943

> <Gold.PLP.Chemscore.Hbond>
3.7122

> <Gold.PLP.Chemscore.CHOScore>
0.9910

> <Gold.PLP.Chemscore.Metal>
0.0000

> <Gold.Chemscore.Hbonds>
donor molecule, donor type, donor heavy atom, donor atom, acceptor molecule, acceptor atom, score
      L1  H     3    20       P1  7948  1.00
      L1  H     7    38       P1 10186  1.98
      L1  C    18    37       P1  8028  0.66

> <Gold.PLP.Chemscore.Internal.Correction>
1.2643

> <Gold.Rescore>
     Score         DG    S(hbond)    S(metal)    S(lipo)     H(rot)  DE(clash)    DE(int)     intcor
     15.53     -19.94       2.73        0.00      80.25       1.58       3.26       1.16       ----

> <Gold.Chemscore.Fitness>
15.5263

> <Gold.Chemscore.DG>
-19.9374

> <Gold.Chemscore.ZeroCoef>
-5.4800

> <Gold.Chemscore.Hbond>
2.7279

> <Gold.Chemscore.Metal>
0.0000

> <Gold.Chemscore.Lipo>
80.2518

> <Gold.Chemscore.Internal_Hbond>
0.0000

> <Gold.Chemscore.DEClash>
3.2552

> <Gold.Chemscore.DEInternal>
1.1559

> <Gold.Chemscore.Rot>
1.5795

> <Gold.Chemscore.Internal.Correction>
   9.000000E+99

> <Gold.Chemscore.Hbonds>
donor molecule, donor type, donor heavy atom, donor atom, acceptor molecule, acceptor atom, score
      L1  H     3    20       P1  7948  1.00
      L1  H     7    38       P1 10186  0.85
      L1  H    14    35       P1  7948  0.03

> <Gold.Chemscore.Hbond.Weighted>
-9.1113

> <Gold.Chemscore.Metal.Weighted>
-0.0000

> <Gold.Chemscore.Lipo.Weighted>
-9.3895

> <Gold.Chemscore.Internal_Hbond.Weighted>
0.0000

> <Gold.Chemscore.DEClash.Weighted>
3.2552

> <Gold.Chemscore.DEInternal.Weighted>
1.1559

> <Gold.Chemscore.Rot.Weighted>
4.0434

> <Gold.Chemscore.Internal.Correction.Weighted>
   9.000000E+99

> <Gold.Protein.RotatedTorsions>
[ 6907 6896 6895 6894 ] final -100.03 input  -60.11 | X-H torsion
[ 7974 7965 7964 7962 ] final  -91.49 input  175.53 | X-H torsion
[ 8008 7997 7996 7995 ] final -164.28 input   59.86 | X-H torsion
[ 10167 10162 10161 10158 ] final  -52.74 input  -65.29 | X-H torsion
[ 10718 10713 10712 10709 ] final  -31.15 input   66.30 | X-H torsion
[ 10763 10752 10751 10750 ] final    8.88 input  -60.55 | X-H torsion
[ 11005 11000 10999 10996 ] final  108.59 input  -57.11 | X-H torsion

> <Gold.Protein.ActiveResidues>
 VAL166  LYS551  ARG553  GLY616  TRP617  ASP618  TYR619  PRO620  LYS621  CYS622 
 ASP623  PHE694  ASN695  SER759  ASP760  ASP761  ALA762  ILE779  LEU786  VAL792 
 PHE793  MET794  SER795  GLU796  ALA797  LYS798  CYS799  TRP800  GLU811  SER814 

> <Gold.Protein.RotatedAtoms>
  150.7101  134.0950  159.3945 H   0  0  0  0  0  0  0  0  0  0  0  0  # atno 6907 bound_to 6896
  151.8936  135.0404  160.0509 H   0  0  0  0  0  0  0  0  0  0  0  0  # atno 6908 bound_to 6896
  152.2472  133.5149  159.5340 H   0  0  0  0  0  0  0  0  0  0  0  0  # atno 6909 bound_to 6896
  145.4125  140.9546  143.2226 H   0  0  0  0  0  0  0  0  0  0  0  0  # atno 7974 bound_to 7965
  155.8334  140.0937  157.1779 H   0  0  0  0  0  0  0  0  0  0  0  0  # atno 8008 bound_to 7997
  154.3980  140.1414  156.3702 H   0  0  0  0  0  0  0  0  0  0  0  0  # atno 8009 bound_to 7997
  155.8142  140.3448  155.5478 H   0  0  0  0  0  0  0  0  0  0  0  0  # atno 8010 bound_to 7997
  140.6522  143.2573  151.4691 H   0  0  0  0  0  0  0  0  0  0  0  0  # atno 10167 bound_to 10162
  156.3909  130.4373  149.7395 H   0  0  0  0  0  0  0  0  0  0  0  0  # atno 10718 bound_to 10713
  153.2201  135.6880  153.8010 H   0  0  0  0  0  0  0  0  0  0  0  0  # atno 10763 bound_to 10752
  153.7212  135.3267  155.3268 H   0  0  0  0  0  0  0  0  0  0  0  0  # atno 10764 bound_to 10752
  154.8265  135.4613  154.1045 H   0  0  0  0  0  0  0  0  0  0  0  0  # atno 10765 bound_to 10752
  139.8847  134.9435  156.5996 H   0  0  0  0  0  0  0  0  0  0  0  0  # atno 11005 bound_to 11000
  144.8299  139.5645  143.6948 LP  0  0  0  0  0  0  0  0  0  0  0  0  # atno 17320 bound_to 7965
  146.2698  139.6607  142.9304 LP  0  0  0  0  0  0  0  0  0  0  0  0  # atno 17321 bound_to 7965
  139.5738  144.1866  152.1875 LP  0  0  0  0  0  0  0  0  0  0  0  0  # atno 17342 bound_to 10162
  140.1170  144.5407  150.6887 LP  0  0  0  0  0  0  0  0  0  0  0  0  # atno 17343 bound_to 10162
  156.4449  130.7879  151.2900 LP  0  0  0  0  0  0  0  0  0  0  0  0  # atno 17370 bound_to 10713
  157.7499  131.0113  150.3341 LP  0  0  0  0  0  0  0  0  0  0  0  0  # atno 17371 bound_to 10713
  140.7893  133.8595  155.8633 LP  0  0  0  0  0  0  0  0  0  0  0  0  # atno 17394 bound_to 11000
  140.9691  134.1555  157.4591 LP  0  0  0  0  0  0  0  0  0  0  0  0  # atno 17395 bound_to 11000

$$$$
