#       Name:                AV-unprocessed.smi:280
#       Creating user name   scv26
#       Creation time:       Thu Mar 26 21:38:24 2020


#       File generated by GOLD software.
#

@<TRIPOS>MOLECULE
AV-unprocessed.smi:280
    68    71     1
SMALL
NO_CHARGES


@<TRIPOS>ATOM
      1 ****        -0.4491  -0.6938  -2.8408 C.3            1 S1                 0.0000
      2 ****        -1.8818  -0.9035  -2.3025 C.3            1 S1                 0.0000
      3 ****        -1.9110  -1.8957  -1.1199 C.3            1 S1                 0.0000
      4 ****        -1.3776  -1.2813   0.0965 N.pl3          1 S1                 0.0000
      5 ****        -0.0922  -1.5549   0.4537 C.ar           1 S1                 0.0000
      6 ****         0.3026  -2.8542   0.4046 N.ar           1 S1                 0.0000
      7 ****         1.5466  -3.2045   0.7387 C.ar           1 S1                 0.0000
      8 ****         2.5484  -2.4261   1.1453 N.ar           1 S1                 0.0000
      9 ****         2.1688  -1.1189   1.2017 C.ar           1 S1                 0.0000
     10 ****         0.8821  -0.5972   0.8748 C.ar           1 S1                 0.0000
     11 ****         0.8941   0.7849   1.0346 N.2            1 S1                 0.0000
     12 ****         2.1035   1.0594   1.4378 C.2            1 S1                 0.0000
     13 ****         2.9343  -0.0279   1.5761 N.pl3          1 S1                 0.0000
     14 ****         4.3257  -0.0069   2.0040 C.3            1 S1                 0.0000
     15 ****         4.5361  -0.3306   3.4965 C.3            1 S1                 0.0000
     16 ****         3.6817   0.6347   4.3440 C.3            1 S1                 0.0000
     17 ****         3.9385   0.5142   5.7290 O.3            1 S1                 0.0000
     18 ****         4.4585  -1.8127   3.8914 C.3            1 S1                 0.0000
     19 ****         5.7353  -1.7552   4.5642 O.3            1 S1                 0.0000
     20 ****         6.0036  -0.4898   3.9212 C.3            1 S1                 0.0000
     21 ****        -2.0251  -0.0311   0.4792 C.3            1 S1                 0.0000
     22 ****        -2.0068   0.9796  -0.6831 C.3            1 S1                 0.0000
     23 ****        -2.5626   0.3699  -1.9221 N.4            1 S1                 1.0000
     24 ****        -2.7425   1.3299  -3.0458 C.3            1 S1                 0.0000
     25 ****        -4.1729   1.9172  -3.1246 C.3            1 S1                 0.0000
     26 ****        -4.2871   2.8611  -4.3339 C.3            1 S1                 0.0000
     27 ****        -5.2510   0.8203  -3.2026 C.3            1 S1                 0.0000
     28 ****        -4.4253   2.7079  -1.9810 O.3            1 S1                 0.0000
     29 ****        -0.0003  -1.6486  -3.1156 H              1 S1                 0.0000
     30 ****         0.2065  -0.2313  -2.1036 H              1 S1                 0.0000
     31 ****        -0.4337  -0.0669  -3.7319 H              1 S1                 0.0000
     32 ****        -2.4664  -1.3522  -3.1068 H              1 S1                 0.0000
     33 ****        -2.9424  -2.1865  -0.9172 H              1 S1                 0.0000
     34 ****        -1.3930  -2.8151  -1.3926 H              1 S1                 0.0000
     35 ****         1.7713  -4.2588   0.6700 H              1 S1                 0.0000
     36 ****         2.4235   2.0690   1.6517 H              1 S1                 0.0000
     37 ****         4.8775  -0.7088   1.3773 H              1 S1                 0.0000
     38 ****         4.7354   0.9769   1.7718 H              1 S1                 0.0000
     39 ****         3.8642   1.6707   4.0566 H              1 S1                 0.0000
     40 ****         2.6178   0.4473   4.1987 H              1 S1                 0.0000
     41 ****         3.7860  -0.3823   5.9865 H              1 S1                 0.0000
     42 ****         3.6354  -2.0547   4.5646 H              1 S1                 0.0000
     43 ****         4.4873  -2.5037   3.0487 H              1 S1                 0.0000
     44 ****         6.6964  -0.6027   3.0856 H              1 S1                 0.0000
     45 ****         6.3602   0.2715   4.6159 H              1 S1                 0.0000
     46 ****        -3.0599  -0.2621   0.7342 H              1 S1                 0.0000
     47 ****        -1.5918   0.3911   1.3849 H              1 S1                 0.0000
     48 ****        -2.5851   1.8564  -0.3967 H              1 S1                 0.0000
     49 ****        -0.9932   1.3319  -0.8723 H              1 S1                 0.0000
     50 ****        -1.9937   2.1215  -2.9855 H              1 S1                 0.0000
     51 ****        -2.5553   0.8186  -3.9911 H              1 S1                 0.0000
     52 ****        -4.1211   2.3260  -5.2696 H              1 S1                 0.0000
     53 ****        -3.5530   3.6662  -4.2823 H              1 S1                 0.0000
     54 ****        -5.2747   3.3210  -4.3913 H              1 S1                 0.0000
     55 ****        -5.0955   0.1770  -4.0695 H              1 S1                 0.0000
     56 ****        -6.2490   1.2516  -3.2901 H              1 S1                 0.0000
     57 ****        -5.2509   0.1848  -2.3166 H              1 S1                 0.0000
     58 ****        -5.2775   3.1075  -2.0721 H              1 S1                 0.0000
     59 ****        -3.5010   0.0883  -1.6767 H              1 S1                 0.0000
     60 ****        -0.3470  -3.5569   0.1145 LP             1 S1                 0.0000
     61 ****         3.4620  -2.7587   1.3791 LP             1 S1                 0.0000
     62 ****         0.1426   1.4252   0.8756 LP             1 S1                 0.0000
     63 ****         3.3277   1.1199   6.2389 LP             1 S1                 0.0000
     64 ****         4.8885   0.7624   5.9184 LP             1 S1                 0.0000
     65 ****         6.3669  -2.4871   4.3083 LP             1 S1                 0.0000
     66 ****         5.6716  -1.7032   5.5608 LP             1 S1                 0.0000
     67 ****        -3.7266   3.4190  -1.9023 LP             1 S1                 0.0000
     68 ****        -4.4088   2.1325  -1.1634 LP             1 S1                 0.0000
@<TRIPOS>BOND
    1    1    2 1     
    2    1   29 1     
    3    1   30 1     
    4    1   31 1     
    5    2   23 1     
    6    2    3 1     
    7    2   32 1     
    8    3    4 1     
    9    3   33 1     
   10    3   34 1     
   11    4    5 1     
   12    4   21 1     
   13    5   10 ar    
   14    5    6 ar    
   15    6    7 ar    
   16    7    8 ar    
   17    7   35 1     
   18    8    9 ar    
   19    9   13 1     
   20    9   10 ar    
   21   10   11 1     
   22   11   12 2     
   23   12   13 1     
   24   12   36 1     
   25   13   14 1     
   26   14   15 1     
   27   14   37 1     
   28   14   38 1     
   29   15   20 1     
   30   15   16 1     
   31   15   18 1     
   32   16   17 1     
   33   16   39 1     
   34   16   40 1     
   35   17   41 1     
   36   18   19 1     
   37   18   42 1     
   38   18   43 1     
   39   19   20 1     
   40   20   44 1     
   41   20   45 1     
   42   21   22 1     
   43   21   46 1     
   44   21   47 1     
   45   22   23 1     
   46   22   48 1     
   47   22   49 1     
   48   23   24 1     
   49   23   59 1     
   50   24   25 1     
   51   24   50 1     
   52   24   51 1     
   53   25   26 1     
   54   25   27 1     
   55   25   28 1     
   56   26   52 1     
   57   26   53 1     
   58   26   54 1     
   59   27   55 1     
   60   27   56 1     
   61   27   57 1     
   62   28   58 1     
   63    6   60 1     
   64    8   61 1     
   65   11   62 1     
   66   17   63 1     
   67   17   64 1     
   68   19   65 1     
   69   19   66 1     
   70   28   67 1     
   71   28   68 1     
@<TRIPOS>SUBSTRUCTURE
      1 S1             1
@<TRIPOS>SET
LONE_PAIRS      STATIC     ATOMS    <user>   **** ""
9 60 61 62 63 64 65 66 67 68
DONOR_HYDROGENS      STATIC     ATOMS    <user>   **** ""
3 41 59 58
ATOM$BLUE        STATIC     ATOMS    COLORGROUP SYSTEM
9 60 61 62 63 64 65 66 67 68
ATOM$RED        STATIC     ATOMS    COLORGROUP SYSTEM
3 41 59 58
