AV-unprocessed.smi:694|AV-procd|sdf|3376|dock7
  -GOLD-   22720 0353D 1   1.00000     0.00000
 Structure written by MMmdl.
 43 44  0  0  0  0  0  0  0  0  2 V2000
  151.5707  144.2801  157.5623 C   0  0  0  0  0  0  0  0  0  0  0  0
  151.6504  142.8380  157.7663 N   0  0  0  0  0  0  0  0  0  0  0  0
  152.5062  142.2919  158.8116 C   0  0  0  0  0  0  0  0  0  0  0  0
  151.0223  141.9669  156.8495 C   0  0  0  0  0  0  0  0  0  0  0  0
  151.4163  140.6194  156.6642 C   0  0  0  0  0  0  0  0  0  0  0  0
  150.7412  139.8146  155.7237 C   0  0  0  0  0  0  0  0  0  0  0  0
  149.6749  140.3509  154.9719 C   0  0  0  0  0  0  0  0  0  0  0  0
  149.0425  139.4939  154.0280 N   0  0  0  0  0  0  0  0  0  0  0  0
  147.8026  139.5618  153.5111 C   0  0  0  0  0  0  0  0  0  0  0  0
  146.9381  140.3772  153.8294 O   0  0  0  0  0  0  0  0  0  0  0  0
  147.6111  138.6085  152.5883 N   0  0  0  0  0  0  0  0  0  0  0  0
  146.3820  138.4168  151.8248 C   0  0  0  0  0  0  0  0  0  0  0  0
  145.6780  137.0914  152.1782 C   0  0  2  0  0  0  0  0  0  0  0  0
  145.7542  136.0279  151.0697 C   0  0  0  0  0  0  0  0  0  0  0  0
  144.4672  135.1929  151.1730 C   0  0  0  0  0  0  0  0  0  0  0  0
  143.6327  135.8215  152.2937 C   0  0  0  0  0  0  0  0  0  0  0  0
  144.1749  137.2437  152.4354 C   0  0  1  0  0  0  0  0  0  0  0  0
  143.9010  137.7721  153.7167 O   0  0  0  0  0  0  0  0  0  0  0  0
  149.3175  141.7025  155.1955 C   0  0  0  0  0  0  0  0  0  0  0  0
  149.9916  142.4377  156.1061 N   0  3  0  0  0  0  0  0  0  0  0  0
  150.5321  144.6121  157.5764 H   0  0  0  0  0  0  0  0  0  0  0  0
  152.0114  144.5565  156.6039 H   0  0  0  0  0  0  0  0  0  0  0  0
  152.1032  144.8223  158.3441 H   0  0  0  0  0  0  0  0  0  0  0  0
  153.3173  141.7069  158.3770 H   0  0  0  0  0  0  0  0  0  0  0  0
  151.9317  141.6508  159.4811 H   0  0  0  0  0  0  0  0  0  0  0  0
  152.9523  143.0841  159.4132 H   0  0  0  0  0  0  0  0  0  0  0  0
  152.2289  140.1866  157.2283 H   0  0  0  0  0  0  0  0  0  0  0  0
  151.0472  138.7881  155.5824 H   0  0  0  0  0  0  0  0  0  0  0  0
  149.6166  138.7375  153.6855 H   0  0  0  0  0  0  0  0  0  0  0  0
  148.3719  137.9753  152.3896 H   0  0  0  0  0  0  0  0  0  0  0  0
  145.7078  139.2593  151.9877 H   0  0  0  0  0  0  0  0  0  0  0  0
  146.6382  138.4328  150.7650 H   0  0  0  0  0  0  0  0  0  0  0  0
  146.1346  136.6692  153.0756 H   0  0  0  0  0  0  0  0  0  0  0  0
  145.7969  136.5016  150.0881 H   0  0  0  0  0  0  0  0  0  0  0  0
  146.6485  135.4117  151.1697 H   0  0  0  0  0  0  0  0  0  0  0  0
  143.9234  135.2336  150.2285 H   0  0  0  0  0  0  0  0  0  0  0  0
  144.6791  134.1435  151.3810 H   0  0  0  0  0  0  0  0  0  0  0  0
  142.5626  135.7997  152.0841 H   0  0  0  0  0  0  0  0  0  0  0  0
  143.7985  135.2649  153.2176 H   0  0  0  0  0  0  0  0  0  0  0  0
  143.7252  137.8840  151.6749 H   0  0  0  0  0  0  0  0  0  0  0  0
  143.9228  138.7154  153.6646 H   0  0  0  0  0  0  0  0  0  0  0  0
  148.5305  142.2375  154.6872 H   0  0  0  0  0  0  0  0  0  0  0  0
  149.7085  143.4086  156.2392 H   0  0  0  0  0  0  0  0  0  0  0  0
  1  2  1  0  0  0  0
  1 21  1  0  0  0  0
  1 22  1  0  0  0  0
  1 23  1  0  0  0  0
  2  3  1  0  0  0  0
  2  4  1  0  0  0  0
  3 24  1  0  0  0  0
  3 25  1  0  0  0  0
  3 26  1  0  0  0  0
  4 20  1  0  0  0  0
  4  5  2  0  0  0  0
  5  6  1  0  0  0  0
  5 27  1  0  0  0  0
  6  7  2  0  0  0  0
  6 28  1  0  0  0  0
  7  8  1  0  0  0  0
  7 19  1  0  0  0  0
  8  9  1  0  0  0  0
  8 29  1  0  0  0  0
  9 10  2  0  0  0  0
  9 11  1  0  0  0  0
 11 12  1  0  0  0  0
 11 30  1  0  0  0  0
 12 13  1  0  0  0  0
 12 31  1  0  0  0  0
 12 32  1  0  0  0  0
 13 17  1  0  0  0  0
 13 14  1  0  0  0  0
 13 33  1  0  0  0  0
 14 15  1  0  0  0  0
 14 34  1  0  0  0  0
 14 35  1  0  0  0  0
 15 16  1  0  0  0  0
 15 36  1  0  0  0  0
 15 37  1  0  0  0  0
 16 17  1  0  0  0  0
 16 38  1  0  0  0  0
 16 39  1  0  0  0  0
 17 18  1  0  0  0  0
 17 40  1  0  0  0  0
 18 41  1  0  0  0  0
 19 20  2  0  0  0  0
 19 42  1  0  0  0  0
 20 43  1  0  0  0  0
M  CHG  1  20   1
M  END
> <s_m_source_file>
AV-unprocessed.smi

> <i_m_source_file_index>
694

> <i_lp_mmshare_version>
43012

> <i_f3d_flags>
0

> <s_epik_input>
W0NIM11OKFtDSDNdKWMxW2NIXVtjSF1jKFtjSF1uMSlbTkhdQyg9TylbTkhdW0NIMl1bQ0BASF0yW0NIMl1bQ0gyXVtDSDJdW0NASF0yW09IXQ==

> <s_epik_cmdline>
J2VwaWtfcHl0aG9uJywgJy1waCcsICc3LjAnLCAnLXRuJywgJzgnLCAnLW1hJywgJzIwMCcsICctbWV0YWxfYmluZGluZycsICctaW1hZScsICc8aW5maWxlLm1hZT4nLCAnLW9tYWUnLCAnPG91dGZpbGUubWFlPic=

> <r_lp_tautomer_probability>
0.999994

> <r_epik_Ionization_Penalty>
0.266135

> <r_epik_Ionization_Penalty_Charging>
0.266113

> <r_epik_Ionization_Penalty_Neutral>
2.14137e-05

> <r_epik_State_Penalty>
0.258052

> <r_epik_Charging_Adjusted_Penalty>
0.524165

> <i_epik_Tot_Q>
1

> <i_epik_Tot_abs_Q>
1

> <r_epik_Metal_State_Penalty>
0.544313

> <b_epik_Metal_Only>
0

> <s_lp_Force_Field>
OPLS_2005

> <r_lp_Energy>
32.5934

> <b_lp_Chiralities_Consistent>
1

> <s_lp_Variant>
AV-unprocessed.smi:694-1

> <Gold.Version>
5.8.1

> <Gold.Id.Protein>
6NUR|6NUR_protein|mol2

> <Gold.PLP.Fitness>
49.7708

> <Gold.PLP.PLP>
-39.8647

> <Gold.PLP.part.hbond>
-5.0000

> <Gold.PLP.part.metal>
0.0000

> <Gold.PLP.part.buried>
1.8187

> <Gold.PLP.part.nonpolar>
-37.2196

> <Gold.PLP.part.repulsive>
0.4456

> <Gold.PLP.ligand.clash>
0.0000

> <Gold.PLP.ligand.torsion>
0.9993

> <Gold.PLP.Chemscore.Hbond>
3.9600

> <Gold.PLP.Chemscore.CHOScore>
0.0000

> <Gold.PLP.Chemscore.Metal>
0.0000

> <Gold.Chemscore.Hbonds>
donor molecule, donor type, donor heavy atom, donor atom, acceptor molecule, acceptor atom, score
      L1  H    11    30       P1  7948  0.99
      L1  H    18    41       P1 10175  0.75
      L1  H    20    43       P1  8028  1.95

> <Gold.PLP.Chemscore.Internal.Correction>
0.0247

> <Gold.Rescore>
     Score         DG    S(hbond)    S(metal)    S(lipo)     H(rot)  DE(clash)    DE(int)     intcor
     18.69     -19.71       2.88        0.00      77.76       1.75       0.01       1.01       ----

> <Gold.Chemscore.Fitness>
18.6850

> <Gold.Chemscore.DG>
-19.7094

> <Gold.Chemscore.ZeroCoef>
-5.4800

> <Gold.Chemscore.Hbond>
2.8766

> <Gold.Chemscore.Metal>
0.0000

> <Gold.Chemscore.Lipo>
77.7591

> <Gold.Chemscore.Internal_Hbond>
0.0000

> <Gold.Chemscore.DEClash>
0.0137

> <Gold.Chemscore.DEInternal>
1.0107

> <Gold.Chemscore.Rot>
1.7485

> <Gold.Chemscore.Internal.Correction>
   9.000000E+99

> <Gold.Chemscore.Hbonds>
donor molecule, donor type, donor heavy atom, donor atom, acceptor molecule, acceptor atom, score
      L1  H    11    30       P1  7948  0.94
      L1  H    18    41       P1 10175  0.72
      L1  H    20    43       P1  8028  0.92

> <Gold.Chemscore.Hbond.Weighted>
-9.6078

> <Gold.Chemscore.Metal.Weighted>
-0.0000

> <Gold.Chemscore.Lipo.Weighted>
-9.0978

> <Gold.Chemscore.Internal_Hbond.Weighted>
0.0000

> <Gold.Chemscore.DEClash.Weighted>
0.0137

> <Gold.Chemscore.DEInternal.Weighted>
1.0107

> <Gold.Chemscore.Rot.Weighted>
4.4762

> <Gold.Chemscore.Internal.Correction.Weighted>
   9.000000E+99

> <Gold.Protein.RotatedTorsions>
[ 6907 6896 6895 6894 ] final  123.18 input  -60.11 | X-H torsion
[ 7974 7965 7964 7962 ] final  126.68 input  175.53 | X-H torsion
[ 8008 7997 7996 7995 ] final  162.13 input   59.86 | X-H torsion
[ 10167 10162 10161 10158 ] final   94.48 input  -65.29 | X-H torsion
[ 10718 10713 10712 10709 ] final  -33.08 input   66.30 | X-H torsion
[ 10763 10752 10751 10750 ] final   78.13 input  -60.55 | X-H torsion
[ 11005 11000 10999 10996 ] final  -52.39 input  -57.11 | X-H torsion

> <Gold.Protein.ActiveResidues>
 VAL166  LYS551  ARG553  GLY616  TRP617  ASP618  TYR619  PRO620  LYS621  CYS622 
 ASP623  PHE694  ASN695  SER759  ASP760  ASP761  ALA762  ILE779  LEU786  VAL792 
 PHE793  MET794  SER795  GLU796  ALA797  LYS798  CYS799  TRP800  GLU811  SER814 

> <Gold.Protein.RotatedAtoms>
  152.4183  133.7073  159.6458 H   0  0  0  0  0  0  0  0  0  0  0  0  # atno 6907 bound_to 6896
  150.8059  133.8500  159.3211 H   0  0  0  0  0  0  0  0  0  0  0  0  # atno 6908 bound_to 6896
  151.6224  135.1033  160.0156 H   0  0  0  0  0  0  0  0  0  0  0  0  # atno 6909 bound_to 6896
  145.0590  139.3820  143.5015 H   0  0  0  0  0  0  0  0  0  0  0  0  # atno 7974 bound_to 7965
  156.2053  140.1758  156.7812 H   0  0  0  0  0  0  0  0  0  0  0  0  # atno 8008 bound_to 7997
  154.5647  140.0693  156.8903 H   0  0  0  0  0  0  0  0  0  0  0  0  # atno 8009 bound_to 7997
  155.2783  140.3347  155.4262 H   0  0  0  0  0  0  0  0  0  0  0  0  # atno 8010 bound_to 7997
  139.8080  144.6786  150.9678 H   0  0  0  0  0  0  0  0  0  0  0  0  # atno 10167 bound_to 10162
  156.3670  130.4333  149.7576 H   0  0  0  0  0  0  0  0  0  0  0  0  # atno 10718 bound_to 10713
  153.0851  135.4888  154.8580 H   0  0  0  0  0  0  0  0  0  0  0  0  # atno 10763 bound_to 10752
  154.7200  135.3037  154.9065 H   0  0  0  0  0  0  0  0  0  0  0  0  # atno 10764 bound_to 10752
  153.9732  135.6798  153.4801 H   0  0  0  0  0  0  0  0  0  0  0  0  # atno 10765 bound_to 10752
  141.0922  133.6631  156.4017 H   0  0  0  0  0  0  0  0  0  0  0  0  # atno 11005 bound_to 11000
  146.3523  140.0279  142.8653 LP  0  0  0  0  0  0  0  0  0  0  0  0  # atno 17320 bound_to 7965
  145.1432  140.9583  143.4476 LP  0  0  0  0  0  0  0  0  0  0  0  0  # atno 17321 bound_to 7965
  140.7818  143.4214  151.0835 LP  0  0  0  0  0  0  0  0  0  0  0  0  # atno 17342 bound_to 10162
  139.7882  143.8256  152.3148 LP  0  0  0  0  0  0  0  0  0  0  0  0  # atno 17343 bound_to 10162
  156.4719  130.8000  151.3018 LP  0  0  0  0  0  0  0  0  0  0  0  0  # atno 17370 bound_to 10713
  157.7480  131.0033  150.3034 LP  0  0  0  0  0  0  0  0  0  0  0  0  # atno 17371 bound_to 10713
  140.5226  134.6290  157.5323 LP  0  0  0  0  0  0  0  0  0  0  0  0  # atno 17394 bound_to 11000
  139.9750  134.7230  155.9967 LP  0  0  0  0  0  0  0  0  0  0  0  0  # atno 17395 bound_to 11000

$$$$
