AV-unprocessed.smi:721|AV-procd|sdf|3503|dock6
  -GOLD-   22720 0493D 1   1.00000     0.00000
 Structure written by MMmdl.
 29 30  0  0  0  0  0  0  0  0  1 V2000
  153.1342  143.0075  162.5189 Cl  0  0  0  0  0  0  0  0  0  0  0  0
  152.4901  143.0689  160.9195 C   0  0  0  0  0  0  0  0  0  0  0  0
  152.3995  141.9180  160.1117 C   0  0  0  0  0  0  0  0  0  0  0  0
  151.8943  141.9706  158.8594 N   0  0  0  0  0  0  0  0  0  0  0  0
  151.4830  143.1629  158.4188 C   0  0  0  0  0  0  0  0  0  0  0  0
  150.9710  143.1745  157.1339 N   0  0  0  0  0  0  0  0  0  0  0  0
  151.2895  142.1987  156.1002 C   0  0  0  0  0  0  0  0  0  0  0  0
  150.2133  141.1124  155.9721 C   0  0  0  0  0  0  0  0  0  0  0  0
  150.3808  140.4373  154.7367 O   0  0  0  0  0  0  0  0  0  0  0  0
  149.2972  139.5762  154.4348 C   0  0  0  0  0  0  0  0  0  0  0  0
  148.0103  140.3708  154.4851 C   0  0  0  0  0  0  0  0  0  0  0  0
  147.1453  140.5072  153.2531 C   0  0  0  0  0  0  0  0  0  0  0  0
  147.9013  141.7020  153.7770 C   0  0  0  0  0  0  0  0  0  0  0  0
  151.5249  144.3158  159.0990 N   0  0  0  0  0  0  0  0  0  0  0  0
  152.0274  144.2727  160.3523 C   0  0  0  0  0  0  0  0  0  0  0  0
  152.7319  140.9541  160.4677 H   0  0  0  0  0  0  0  0  0  0  0  0
  150.4235  143.9801  156.8671 H   0  0  0  0  0  0  0  0  0  0  0  0
  151.4136  142.7136  155.1471 H   0  0  0  0  0  0  0  0  0  0  0  0
  152.2529  141.7437  156.3308 H   0  0  0  0  0  0  0  0  0  0  0  0
  150.2612  140.4113  156.8067 H   0  0  0  0  0  0  0  0  0  0  0  0
  149.2273  141.5787  155.9967 H   0  0  0  0  0  0  0  0  0  0  0  0
  149.4132  139.1509  153.4368 H   0  0  0  0  0  0  0  0  0  0  0  0
  149.2517  138.7526  155.1495 H   0  0  0  0  0  0  0  0  0  0  0  0
  147.4817  140.2911  155.4333 H   0  0  0  0  0  0  0  0  0  0  0  0
  147.5016  140.0502  152.3320 H   0  0  0  0  0  0  0  0  0  0  0  0
  146.0666  140.4910  153.3944 H   0  0  0  0  0  0  0  0  0  0  0  0
  147.3267  142.4854  154.2669 H   0  0  0  0  0  0  0  0  0  0  0  0
  148.7591  142.0432  153.2006 H   0  0  0  0  0  0  0  0  0  0  0  0
  152.0598  145.2021  160.9015 H   0  0  0  0  0  0  0  0  0  0  0  0
  1  2  1  0  0  0  0
  2 15  1  0  0  0  0
  2  3  2  0  0  0  0
  3  4  1  0  0  0  0
  3 16  1  0  0  0  0
  4  5  2  0  0  0  0
  5  6  1  0  0  0  0
  5 14  1  0  0  0  0
  6  7  1  0  0  0  0
  6 17  1  0  0  0  0
  7  8  1  0  0  0  0
  7 18  1  0  0  0  0
  7 19  1  0  0  0  0
  8  9  1  0  0  0  0
  8 20  1  0  0  0  0
  8 21  1  0  0  0  0
  9 10  1  0  0  0  0
 10 11  1  0  0  0  0
 10 22  1  0  0  0  0
 10 23  1  0  0  0  0
 11 13  1  0  0  0  0
 11 12  1  0  0  0  0
 11 24  1  0  0  0  0
 12 13  1  0  0  0  0
 12 25  1  0  0  0  0
 12 26  1  0  0  0  0
 13 27  1  0  0  0  0
 13 28  1  0  0  0  0
 14 15  2  0  0  0  0
 15 29  1  0  0  0  0
M  END
> <s_m_source_file>
AV-unprocessed.smi

> <i_m_source_file_index>
721

> <i_lp_mmshare_version>
43012

> <i_f3d_flags>
0

> <s_epik_input>
Q2xjMVtjSF1uYyhuW2NIXTEpW05IXVtDSDJdW0NIMl1PW0NIMl1bQ0hdMltDSDJdW0NIMl0y

> <s_epik_cmdline>
J2VwaWtfcHl0aG9uJywgJy1waCcsICc3LjAnLCAnLXRuJywgJzgnLCAnLW1hJywgJzIwMCcsICctbWV0YWxfYmluZGluZycsICctaW1hZScsICc8aW5maWxlLm1hZT4nLCAnLW9tYWUnLCAnPG91dGZpbGUubWFlPic=

> <r_lp_tautomer_probability>
1

> <r_epik_Ionization_Penalty>
7.18353e-06

> <r_epik_Ionization_Penalty_Charging>
0

> <r_epik_Ionization_Penalty_Neutral>
7.18353e-06

> <r_epik_State_Penalty>
-0

> <r_epik_Charging_Adjusted_Penalty>
0

> <i_epik_Tot_Q>
0

> <i_epik_Tot_abs_Q>
0

> <r_epik_Metal_State_Penalty>
-0

> <b_epik_Metal_Only>
0

> <s_lp_Force_Field>
OPLS_2005

> <r_lp_Energy>
6.1156

> <b_lp_Chiralities_Consistent>
1

> <s_lp_Variant>
AV-unprocessed.smi:721-1

> <Gold.Version>
5.8.1

> <Gold.Id.Protein>
6NUR|6NUR_protein|mol2

> <Gold.PLP.Fitness>
38.3475

> <Gold.PLP.PLP>
-33.5467

> <Gold.PLP.part.hbond>
-2.0000

> <Gold.PLP.part.metal>
0.0000

> <Gold.PLP.part.buried>
-6.4688

> <Gold.PLP.part.nonpolar>
-24.3141

> <Gold.PLP.part.repulsive>
0.1829

> <Gold.PLP.ligand.clash>
0.0000

> <Gold.PLP.ligand.torsion>
0.7834

> <Gold.PLP.Chemscore.Hbond>
1.9360

> <Gold.PLP.Chemscore.CHOScore>
0.0000

> <Gold.PLP.Chemscore.Metal>
0.0000

> <Gold.Chemscore.Hbonds>
donor molecule, donor type, donor heavy atom, donor atom, acceptor molecule, acceptor atom, score
      L1  H     6    17       P1  8028  0.86
      P1  H  7989  7998       L1     9  1.00

> <Gold.PLP.Chemscore.Internal.Correction>
0.5597

> <Gold.Rescore>
     Score         DG    S(hbond)    S(metal)    S(lipo)     H(rot)  DE(clash)    DE(int)     intcor
     16.29     -17.72       1.97        0.00      87.13       1.77       0.56       0.86       ----

> <Gold.Chemscore.Fitness>
16.2946

> <Gold.Chemscore.DG>
-17.7170

> <Gold.Chemscore.ZeroCoef>
-5.4800

> <Gold.Chemscore.Hbond>
1.9698

> <Gold.Chemscore.Metal>
0.0000

> <Gold.Chemscore.Lipo>
87.1349

> <Gold.Chemscore.Internal_Hbond>
0.0000

> <Gold.Chemscore.DEClash>
0.5638

> <Gold.Chemscore.DEInternal>
0.8586

> <Gold.Chemscore.Rot>
1.7722

> <Gold.Chemscore.Internal.Correction>
   9.000000E+99

> <Gold.Chemscore.Hbonds>
donor molecule, donor type, donor heavy atom, donor atom, acceptor molecule, acceptor atom, score
      L1  H     6    17       P1  8028  0.80
      P1  H  7989  7998       L1     9  0.94

> <Gold.Chemscore.Hbond.Weighted>
-6.5790

> <Gold.Chemscore.Metal.Weighted>
-0.0000

> <Gold.Chemscore.Lipo.Weighted>
-10.1948

> <Gold.Chemscore.Internal_Hbond.Weighted>
0.0000

> <Gold.Chemscore.DEClash.Weighted>
0.5638

> <Gold.Chemscore.DEInternal.Weighted>
0.8586

> <Gold.Chemscore.Rot.Weighted>
4.5367

> <Gold.Chemscore.Internal.Correction.Weighted>
   9.000000E+99

> <Gold.Protein.RotatedTorsions>
[ 6907 6896 6895 6894 ] final -109.72 input  -60.11 | X-H torsion
[ 7974 7965 7964 7962 ] final  -35.20 input  175.53 | X-H torsion
[ 8008 7997 7996 7995 ] final  -95.71 input   59.86 | X-H torsion
[ 10167 10162 10161 10158 ] final   93.24 input  -65.29 | X-H torsion
[ 10718 10713 10712 10709 ] final   93.81 input   66.30 | X-H torsion
[ 10763 10752 10751 10750 ] final   28.57 input  -60.55 | X-H torsion
[ 11005 11000 10999 10996 ] final  155.04 input  -57.11 | X-H torsion

> <Gold.Protein.ActiveResidues>
 VAL166  LYS551  ARG553  GLY616  TRP617  ASP618  TYR619  PRO620  LYS621  CYS622 
 ASP623  PHE694  ASN695  SER759  ASP760  ASP761  ALA762  ILE779  LEU786  VAL792 
 PHE793  MET794  SER795  GLU796  ALA797  LYS798  CYS799  TRP800  GLU811  SER814 

> <Gold.Protein.RotatedAtoms>
  150.7579  133.9487  159.3478 H   0  0  0  0  0  0  0  0  0  0  0  0  # atno 6907 bound_to 6896
  151.7403  135.0854  160.0324 H   0  0  0  0  0  0  0  0  0  0  0  0  # atno 6908 bound_to 6896
  152.3533  133.6169  159.5996 H   0  0  0  0  0  0  0  0  0  0  0  0  # atno 6909 bound_to 6896
  146.0766  140.6130  142.8927 H   0  0  0  0  0  0  0  0  0  0  0  0  # atno 7974 bound_to 7965
  154.7649  140.0477  157.1004 H   0  0  0  0  0  0  0  0  0  0  0  0  # atno 8008 bound_to 7997
  154.9891  140.3111  155.4894 H   0  0  0  0  0  0  0  0  0  0  0  0  # atno 8009 bound_to 7997
  156.2911  140.2222  156.4995 H   0  0  0  0  0  0  0  0  0  0  0  0  # atno 8010 bound_to 7997
  139.8199  144.6736  150.9532 H   0  0  0  0  0  0  0  0  0  0  0  0  # atno 10167 bound_to 10162
  157.6952  131.0491  150.4090 H   0  0  0  0  0  0  0  0  0  0  0  0  # atno 10718 bound_to 10713
  153.0484  135.6510  154.0757 H   0  0  0  0  0  0  0  0  0  0  0  0  # atno 10763 bound_to 10752
  154.0451  135.2900  155.3350 H   0  0  0  0  0  0  0  0  0  0  0  0  # atno 10764 bound_to 10752
  154.6756  135.5339  153.8262 H   0  0  0  0  0  0  0  0  0  0  0  0  # atno 10765 bound_to 10752
  140.1545  134.8652  157.2496 H   0  0  0  0  0  0  0  0  0  0  0  0  # atno 11005 bound_to 11000
  144.7266  140.4543  143.6969 LP  0  0  0  0  0  0  0  0  0  0  0  0  # atno 17320 bound_to 7965
  145.6294  139.1534  143.2978 LP  0  0  0  0  0  0  0  0  0  0  0  0  # atno 17321 bound_to 7965
  140.7814  143.4102  151.1006 LP  0  0  0  0  0  0  0  0  0  0  0  0  # atno 17342 bound_to 10162
  139.7763  143.8421  152.3130 LP  0  0  0  0  0  0  0  0  0  0  0  0  # atno 17343 bound_to 10162
  156.4476  130.4005  149.6656 LP  0  0  0  0  0  0  0  0  0  0  0  0  # atno 17370 bound_to 10713
  156.3817  130.7582  151.2576 LP  0  0  0  0  0  0  0  0  0  0  0  0  # atno 17371 bound_to 10713
  140.2564  134.3622  155.7422 LP  0  0  0  0  0  0  0  0  0  0  0  0  # atno 17394 bound_to 11000
  141.2203  133.7345  156.9014 LP  0  0  0  0  0  0  0  0  0  0  0  0  # atno 17395 bound_to 11000

$$$$
