#       Name:                AV-unprocessed.smi:210
#       Creating user name   scv26
#       Creation time:       Thu Mar 26 19:53:41 2020


#       File generated by GOLD software.
#

@<TRIPOS>MOLECULE
AV-unprocessed.smi:210
    66    70     1
SMALL
NO_CHARGES


@<TRIPOS>ATOM
      1 ****        -6.9531  -1.9676   0.6980 C.3            1 S1                 0.0000
      2 ****        -5.6445  -1.7757   0.1899 O.3            1 S1                 0.0000
      3 ****        -4.6685  -1.6747   1.2149 C.3            1 S1                 0.0000
      4 ****        -4.6255  -0.3126   1.9233 C.3            1 S1                 0.0000
      5 ****        -3.0934  -0.4589   1.9210 C.3            1 S1                 0.0000
      6 ****        -2.3186   0.7753   1.7171 N.pl3          1 S1                 0.0000
      7 ****        -2.8924   1.9665   1.0946 C.3            1 S1                 0.0000
      8 ****        -0.9667   0.6223   1.6849 C.ar           1 S1                 0.0000
      9 ****        -0.3919  -0.1246   2.6644 N.ar           1 S1                 0.0000
     10 ****         0.9297  -0.3142   2.6897 C.ar           1 S1                 0.0000
     11 ****         1.8530   0.1380   1.8408 N.ar           1 S1                 0.0000
     12 ****         1.2882   0.8768   0.8439 C.ar           1 S1                 0.0000
     13 ****        -0.0982   1.1727   0.6929 C.ar           1 S1                 0.0000
     14 ****        -0.2825   1.9526  -0.4448 N.2            1 S1                 0.0000
     15 ****         0.9187   2.1217  -0.9231 C.2            1 S1                 0.0000
     16 ****         1.9199   1.4853  -0.2272 N.pl3          1 S1                 0.0000
     17 ****         3.3248   1.5338  -0.5102 C.3            1 S1                 0.0000
     18 ****         3.8422   1.6801  -1.9456 C.3            1 S1                 0.0000
     19 ****         5.0765   0.8260  -1.5738 C.3            1 S1                 0.0000
     20 ****         5.5663  -0.1793  -2.6348 C.3            1 S1                 0.0000
     21 ****         4.5167  -0.9640  -3.1644 O.3            1 S1                 0.0000
     22 ****         6.3002   1.6493  -1.1283 C.3            1 S1                 0.0000
     23 ****         7.2358   0.8545  -0.4280 O.3            1 S1                 0.0000
     24 ****         4.1942   0.2756  -0.4291 C.3            1 S1                 0.0000
     25 ****        -3.2485  -1.3754   0.6893 C.3            1 S1                 0.0000
     26 ****        -3.0216  -0.9067  -0.7618 C.3            1 S1                 0.0000
     27 ****        -2.5645  -2.3322  -1.0866 C.3            1 S1                 0.0000
     28 ****        -2.2714  -2.5231   0.4055 C.3            1 S1                 0.0000
     29 ****        -7.6572  -2.0564  -0.1292 H              1 S1                 0.0000
     30 ****        -7.2666  -1.1257   1.3162 H              1 S1                 0.0000
     31 ****        -7.0148  -2.8803   1.2917 H              1 S1                 0.0000
     32 ****        -4.6776  -2.5159   1.9116 H              1 S1                 0.0000
     33 ****        -5.0279   0.4752   1.2861 H              1 S1                 0.0000
     34 ****        -5.0816  -0.3022   2.9134 H              1 S1                 0.0000
     35 ****        -2.7803  -1.0305   2.7967 H              1 S1                 0.0000
     36 ****        -2.2112   2.8155   1.1568 H              1 S1                 0.0000
     37 ****        -3.8015   2.2695   1.6129 H              1 S1                 0.0000
     38 ****        -3.1342   1.7897   0.0469 H              1 S1                 0.0000
     39 ****         1.3003  -0.9161   3.5062 H              1 S1                 0.0000
     40 ****         1.1055   2.7131  -1.8076 H              1 S1                 0.0000
     41 ****         3.7299   2.3214   0.1274 H              1 S1                 0.0000
     42 ****         3.1819   1.2057  -2.6731 H              1 S1                 0.0000
     43 ****         4.0659   2.7058  -2.2405 H              1 S1                 0.0000
     44 ****         6.0492   0.3370  -3.4652 H              1 S1                 0.0000
     45 ****         6.3060  -0.8625  -2.2164 H              1 S1                 0.0000
     46 ****         4.8811  -1.5676  -3.7935 H              1 S1                 0.0000
     47 ****         6.7992   2.1044  -1.9846 H              1 S1                 0.0000
     48 ****         6.0083   2.4713  -0.4746 H              1 S1                 0.0000
     49 ****         7.9542   1.4050  -0.1558 H              1 S1                 0.0000
     50 ****         4.7041   0.1448   0.5258 H              1 S1                 0.0000
     51 ****         3.6414  -0.6261  -0.6977 H              1 S1                 0.0000
     52 ****        -3.9133  -0.5782  -1.2958 H              1 S1                 0.0000
     53 ****        -2.2067  -0.1919  -0.8725 H              1 S1                 0.0000
     54 ****        -3.3798  -2.9653  -1.4405 H              1 S1                 0.0000
     55 ****        -1.6904  -2.3956  -1.7349 H              1 S1                 0.0000
     56 ****        -1.2414  -2.2755   0.6670 H              1 S1                 0.0000
     57 ****        -2.5690  -3.4914   0.8089 H              1 S1                 0.0000
     58 ****        -5.6308  -0.9334  -0.3489 LP             1 S1                 0.0000
     59 ****        -5.4125  -2.5510  -0.3975 LP             1 S1                 0.0000
     60 ****        -0.9645  -0.5363   3.3733 LP             1 S1                 0.0000
     61 ****         2.8332  -0.0415   1.9245 LP             1 S1                 0.0000
     62 ****        -1.1431   2.3045  -0.8129 LP             1 S1                 0.0000
     63 ****         3.8469  -0.3725  -3.6133 LP             1 S1                 0.0000
     64 ****         4.0713  -1.4728  -2.4277 LP             1 S1                 0.0000
     65 ****         7.5754   0.1282  -1.0256 LP             1 S1                 0.0000
     66 ****         6.7992   0.4486   0.3749 LP             1 S1                 0.0000
@<TRIPOS>BOND
    1    1    2 1     
    2    1   29 1     
    3    1   30 1     
    4    1   31 1     
    5    2    3 1     
    6    3   25 1     
    7    3    4 1     
    8    3   32 1     
    9    4    5 1     
   10    4   33 1     
   11    4   34 1     
   12    5    6 1     
   13    5   25 1     
   14    5   35 1     
   15    6    7 1     
   16    6    8 1     
   17    7   36 1     
   18    7   37 1     
   19    7   38 1     
   20    8   13 ar    
   21    8    9 ar    
   22    9   10 ar    
   23   10   11 ar    
   24   10   39 1     
   25   11   12 ar    
   26   12   16 1     
   27   12   13 ar    
   28   13   14 1     
   29   14   15 2     
   30   15   16 1     
   31   15   40 1     
   32   16   17 1     
   33   17   24 1     
   34   17   18 1     
   35   17   41 1     
   36   18   19 1     
   37   18   42 1     
   38   18   43 1     
   39   19   20 1     
   40   19   22 1     
   41   19   24 1     
   42   20   21 1     
   43   20   44 1     
   44   20   45 1     
   45   21   46 1     
   46   22   23 1     
   47   22   47 1     
   48   22   48 1     
   49   23   49 1     
   50   24   50 1     
   51   24   51 1     
   52   25   28 1     
   53   25   26 1     
   54   26   27 1     
   55   26   52 1     
   56   26   53 1     
   57   27   28 1     
   58   27   54 1     
   59   27   55 1     
   60   28   56 1     
   61   28   57 1     
   62    2   58 1     
   63    2   59 1     
   64    9   60 1     
   65   11   61 1     
   66   14   62 1     
   67   21   63 1     
   68   21   64 1     
   69   23   65 1     
   70   23   66 1     
@<TRIPOS>SUBSTRUCTURE
      1 S1             1
@<TRIPOS>SET
LONE_PAIRS      STATIC     ATOMS    <user>   **** ""
9 58 59 60 61 62 63 64 65 66
DONOR_HYDROGENS      STATIC     ATOMS    <user>   **** ""
2 46 49
ATOM$BLUE        STATIC     ATOMS    COLORGROUP SYSTEM
9 58 59 60 61 62 63 64 65 66
ATOM$RED        STATIC     ATOMS    COLORGROUP SYSTEM
2 46 49
