AV-unprocessed.smi:1232|AV-procd|sdf|5167|dock1
  -GOLD-   22720 4243D 1   1.00000     0.00000
 Structure written by MMmdl.
 53 54  0  0  0  0  0  0  0  0  1 V2000
  146.1820  135.8973  153.2255 C   0  0  0  0  0  0  0  0  0  0  0  0
  146.9939  135.4771  154.4456 C   0  0  0  0  0  0  0  0  0  0  0  0
  146.4676  135.4481  155.5578 O   0  0  0  0  0  0  0  0  0  0  0  0
  148.2794  135.1585  154.2233 N   0  0  0  0  0  0  0  0  0  0  0  0
  149.2467  134.7592  155.2482 C   0  0  2  0  0  0  0  0  0  0  0  0
  150.4135  135.7641  155.2311 C   0  0  0  0  0  0  0  0  0  0  0  0
  151.2941  135.7143  156.0916 O   0  0  0  0  0  0  0  0  0  0  0  0
  150.4049  136.6677  154.2388 N   0  0  0  0  0  0  0  0  0  0  0  0
  151.4491  137.6596  154.0055 C   0  0  0  0  0  0  0  0  0  0  0  0
  151.5044  138.7631  155.0537 C   0  0  0  0  0  0  0  0  0  0  0  0
  150.5782  139.8274  155.0710 C   0  0  0  0  0  0  0  0  0  0  0  0
  150.6966  140.8209  156.0607 C   0  0  0  0  0  0  0  0  0  0  0  0
  151.7358  140.7233  157.0156 C   0  0  0  0  0  0  0  0  0  0  0  0
  151.8776  141.7161  158.0082 N   0  0  0  0  0  0  0  0  0  0  0  0
  150.9099  142.8105  158.0270 C   0  0  0  0  0  0  0  0  0  0  0  0
  151.3849  143.9242  158.9743 C   0  0  0  0  0  0  0  0  0  0  0  0
  151.6291  143.3813  160.2680 O   0  0  0  0  0  0  0  0  0  0  0  0
  152.6523  142.3891  160.2500 C   0  0  1  0  0  0  0  0  0  0  0  0
  152.9047  141.9318  161.6906 C   0  0  0  0  0  0  0  0  0  0  0  0
  152.2156  141.2239  159.3410 C   0  0  0  0  0  0  0  0  0  0  0  0
  152.6112  139.6876  157.0094 N   0  0  0  0  0  0  0  0  0  0  0  0
  152.4955  138.7403  156.0550 C   0  0  0  0  0  0  0  0  0  0  0  0
  149.7607  133.3251  154.9270 C   0  0  0  0  0  0  0  0  0  0  0  0
  148.6080  132.3785  154.5379 C   0  0  0  0  0  0  0  0  0  0  0  0
  150.5611  132.6947  156.0859 C   0  0  0  0  0  0  0  0  0  0  0  0
  146.4801  136.8942  152.8999 H   0  0  0  0  0  0  0  0  0  0  0  0
  145.1165  135.9169  153.4572 H   0  0  0  0  0  0  0  0  0  0  0  0
  146.3385  135.2024  152.3999 H   0  0  0  0  0  0  0  0  0  0  0  0
  148.6238  135.2176  153.2762 H   0  0  0  0  0  0  0  0  0  0  0  0
  148.7643  134.7617  156.2282 H   0  0  0  0  0  0  0  0  0  0  0  0
  149.6417  136.6418  153.5782 H   0  0  0  0  0  0  0  0  0  0  0  0
  152.4108  137.1465  153.9979 H   0  0  0  0  0  0  0  0  0  0  0  0
  151.3226  138.0964  153.0133 H   0  0  0  0  0  0  0  0  0  0  0  0
  149.7863  139.8905  154.3397 H   0  0  0  0  0  0  0  0  0  0  0  0
  149.9873  141.6348  156.0834 H   0  0  0  0  0  0  0  0  0  0  0  0
  150.7812  143.2179  157.0235 H   0  0  0  0  0  0  0  0  0  0  0  0
  149.9407  142.4308  158.3534 H   0  0  0  0  0  0  0  0  0  0  0  0
  152.2885  144.4016  158.5916 H   0  0  0  0  0  0  0  0  0  0  0  0
  150.6239  144.7004  159.0523 H   0  0  0  0  0  0  0  0  0  0  0  0
  153.5713  142.8315  159.8613 H   0  0  0  0  0  0  0  0  0  0  0  0
  153.6903  141.1771  161.7304 H   0  0  0  0  0  0  0  0  0  0  0  0
  152.0048  141.5028  162.1324 H   0  0  0  0  0  0  0  0  0  0  0  0
  153.2163  142.7690  162.3155 H   0  0  0  0  0  0  0  0  0  0  0  0
  151.3401  140.7268  159.7612 H   0  0  0  0  0  0  0  0  0  0  0  0
  153.0123  140.4822  159.3037 H   0  0  0  0  0  0  0  0  0  0  0  0
  153.2224  137.9421  156.0905 H   0  0  0  0  0  0  0  0  0  0  0  0
  150.4299  133.3822  154.0664 H   0  0  0  0  0  0  0  0  0  0  0  0
  147.8817  132.2889  155.3466 H   0  0  0  0  0  0  0  0  0  0  0  0
  148.9797  131.3778  154.3152 H   0  0  0  0  0  0  0  0  0  0  0  0
  148.0768  132.7232  153.6507 H   0  0  0  0  0  0  0  0  0  0  0  0
  149.9656  132.6496  156.9982 H   0  0  0  0  0  0  0  0  0  0  0  0
  151.4718  133.2509  156.3084 H   0  0  0  0  0  0  0  0  0  0  0  0
  150.8680  131.6774  155.8415 H   0  0  0  0  0  0  0  0  0  0  0  0
  1  2  1  0  0  0  0
  1 26  1  0  0  0  0
  1 27  1  0  0  0  0
  1 28  1  0  0  0  0
  2  3  2  0  0  0  0
  2  4  1  0  0  0  0
  4  5  1  0  0  0  0
  4 29  1  0  0  0  0
  5  6  1  0  0  0  0
  5 23  1  0  0  0  0
  5 30  1  0  0  0  0
  6  7  2  0  0  0  0
  6  8  1  0  0  0  0
  8  9  1  0  0  0  0
  8 31  1  0  0  0  0
  9 10  1  0  0  0  0
  9 32  1  0  0  0  0
  9 33  1  0  0  0  0
 10 22  1  0  0  0  0
 10 11  2  0  0  0  0
 11 12  1  0  0  0  0
 11 34  1  0  0  0  0
 12 13  2  0  0  0  0
 12 35  1  0  0  0  0
 13 14  1  0  0  0  0
 13 21  1  0  0  0  0
 14 20  1  0  0  0  0
 14 15  1  0  0  0  0
 15 16  1  0  0  0  0
 15 36  1  0  0  0  0
 15 37  1  0  0  0  0
 16 17  1  0  0  0  0
 16 38  1  0  0  0  0
 16 39  1  0  0  0  0
 17 18  1  0  0  0  0
 18 19  1  0  0  0  0
 18 20  1  0  0  0  0
 18 40  1  0  0  0  0
 19 41  1  0  0  0  0
 19 42  1  0  0  0  0
 19 43  1  0  0  0  0
 20 44  1  0  0  0  0
 20 45  1  0  0  0  0
 21 22  2  0  0  0  0
 22 46  1  0  0  0  0
 23 24  1  0  0  0  0
 23 25  1  0  0  0  0
 23 47  1  0  0  0  0
 24 48  1  0  0  0  0
 24 49  1  0  0  0  0
 24 50  1  0  0  0  0
 25 51  1  0  0  0  0
 25 52  1  0  0  0  0
 25 53  1  0  0  0  0
M  END
> <s_m_source_file>
AV-unprocessed.smi

> <i_m_source_file_index>
1232

> <i_lp_mmshare_version>
43012

> <i_f3d_flags>
0

> <s_epik_input>
W0NIM11DKD1PKVtOSF1bQ0BASF0oW0NIXShbQ0gzXSlbQ0gzXSlDKD1PKVtOSF1bQ0gyXWMxW2NIXVtjSF1jKG5bY0hdMSlOMltDSDJdW0NIMl1PW0NAQEhdKFtDSDNdKVtDSDJdMg==

> <s_epik_cmdline>
J2VwaWtfcHl0aG9uJywgJy1waCcsICc3LjAnLCAnLXRuJywgJzgnLCAnLW1hJywgJzIwMCcsICctbWV0YWxfYmluZGluZycsICctaW1hZScsICc8aW5maWxlLm1hZT4nLCAnLW9tYWUnLCAnPG91dGZpbGUubWFlPic=

> <r_lp_tautomer_probability>
1

> <r_epik_Ionization_Penalty>
0.00557618

> <r_epik_Ionization_Penalty_Charging>
0

> <r_epik_Ionization_Penalty_Neutral>
0.00557618

> <r_epik_State_Penalty>
0.00408363

> <r_epik_Charging_Adjusted_Penalty>
0.00408363

> <i_epik_Tot_Q>
0

> <i_epik_Tot_abs_Q>
0

> <r_epik_Metal_State_Penalty>
-0

> <b_epik_Metal_Only>
0

> <s_lp_Force_Field>
OPLS_2005

> <r_lp_Energy>
17.3881

> <b_lp_Chiralities_Consistent>
1

> <s_lp_Variant>
AV-unprocessed.smi:1232-1

> <Gold.Version>
5.8.1

> <Gold.Id.Protein>
6NUR|6NUR_protein|mol2

> <Gold.PLP.Fitness>
55.7749

> <Gold.PLP.PLP>
-45.3401

> <Gold.PLP.part.hbond>
-5.0000

> <Gold.PLP.part.metal>
0.0000

> <Gold.PLP.part.buried>
-2.3727

> <Gold.PLP.part.nonpolar>
-36.8085

> <Gold.PLP.part.repulsive>
0.1798

> <Gold.PLP.ligand.clash>
0.0000

> <Gold.PLP.ligand.torsion>
0.8522

> <Gold.PLP.Chemscore.Hbond>
3.8880

> <Gold.PLP.Chemscore.CHOScore>
0.0000

> <Gold.PLP.Chemscore.Metal>
0.0000

> <Gold.Chemscore.Hbonds>
donor molecule, donor type, donor heavy atom, donor atom, acceptor molecule, acceptor atom, score
      L1  H     4    29       P1  7948  0.99
      L1  H     8    31       P1  7948  0.98
      P1  H  7997  8008       L1    21  0.95
      P1  H 10752 10765       L1     7  0.71

> <Gold.PLP.Chemscore.Internal.Correction>
0.4751

> <Gold.Rescore>
     Score         DG    S(hbond)    S(metal)    S(lipo)     H(rot)  DE(clash)    DE(int)     intcor
     21.33     -22.84       3.00        0.00     109.50       2.13       0.46       1.05       ----

> <Gold.Chemscore.Fitness>
21.3331

> <Gold.Chemscore.DG>
-22.8445

> <Gold.Chemscore.ZeroCoef>
-5.4800

> <Gold.Chemscore.Hbond>
2.9971

> <Gold.Chemscore.Metal>
0.0000

> <Gold.Chemscore.Lipo>
109.4991

> <Gold.Chemscore.Internal_Hbond>
0.0000

> <Gold.Chemscore.DEClash>
0.4623

> <Gold.Chemscore.DEInternal>
1.0491

> <Gold.Chemscore.Rot>
2.1317

> <Gold.Chemscore.Internal.Correction>
   9.000000E+99

> <Gold.Chemscore.Hbonds>
donor molecule, donor type, donor heavy atom, donor atom, acceptor molecule, acceptor atom, score
      L1  H     4    29       P1  7948  0.77
      L1  H     8    31       P1  7948  0.56
      P1  H  7997  8008       L1    21  0.20
      P1  H 10752 10765       L1     7  0.16

> <Gold.Chemscore.Hbond.Weighted>
-10.0103

> <Gold.Chemscore.Metal.Weighted>
-0.0000

> <Gold.Chemscore.Lipo.Weighted>
-12.8114

> <Gold.Chemscore.Internal_Hbond.Weighted>
0.0000

> <Gold.Chemscore.DEClash.Weighted>
0.4623

> <Gold.Chemscore.DEInternal.Weighted>
1.0491

> <Gold.Chemscore.Rot.Weighted>
5.4572

> <Gold.Chemscore.Internal.Correction.Weighted>
   9.000000E+99

> <Gold.Protein.RotatedTorsions>
[ 6907 6896 6895 6894 ] final    9.90 input  -60.11 | X-H torsion
[ 7974 7965 7964 7962 ] final  -46.88 input  175.53 | X-H torsion
[ 8008 7997 7996 7995 ] final  -73.66 input   59.86 | X-H torsion
[ 10167 10162 10161 10158 ] final   80.33 input  -65.29 | X-H torsion
[ 10718 10713 10712 10709 ] final -146.25 input   66.30 | X-H torsion
[ 10763 10752 10751 10750 ] final -167.33 input  -60.55 | X-H torsion
[ 11005 11000 10999 10996 ] final -168.03 input  -57.11 | X-H torsion

> <Gold.Protein.ActiveResidues>
 VAL166  LYS551  ARG553  GLY616  TRP617  ASP618  TYR619  PRO620  LYS621  CYS622 
 ASP623  PHE694  ASN695  SER759  ASP760  ASP761  ALA762  ILE779  LEU786  VAL792 
 PHE793  MET794  SER795  GLU796  ALA797  LYS798  CYS799  TRP800  GLU811  SER814 

> <Gold.Protein.RotatedAtoms>
  151.7297  135.0877  160.0297 H   0  0  0  0  0  0  0  0  0  0  0  0  # atno 6907 bound_to 6896
  152.3549  133.6221  159.5980 H   0  0  0  0  0  0  0  0  0  0  0  0  # atno 6908 bound_to 6896
  150.7564  133.9432  159.3504 H   0  0  0  0  0  0  0  0  0  0  0  0  # atno 6909 bound_to 6896
  145.9673  140.7418  142.9427 H   0  0  0  0  0  0  0  0  0  0  0  0  # atno 7974 bound_to 7965
  154.5266  140.0775  156.8269 H   0  0  0  0  0  0  0  0  0  0  0  0  # atno 8008 bound_to 7997
  155.3463  140.3410  155.4221 H   0  0  0  0  0  0  0  0  0  0  0  0  # atno 8009 bound_to 7997
  156.1738  140.1628  156.8387 H   0  0  0  0  0  0  0  0  0  0  0  0  # atno 8010 bound_to 7997
  139.9509  144.6026  150.8162 H   0  0  0  0  0  0  0  0  0  0  0  0  # atno 10167 bound_to 10162
  156.3925  130.7893  151.2096 H   0  0  0  0  0  0  0  0  0  0  0  0  # atno 10718 bound_to 10713
  154.6743  135.2944  154.9700 H   0  0  0  0  0  0  0  0  0  0  0  0  # atno 10763 bound_to 10752
  154.0716  135.6617  153.4829 H   0  0  0  0  0  0  0  0  0  0  0  0  # atno 10764 bound_to 10752
  153.0506  135.5176  154.7754 H   0  0  0  0  0  0  0  0  0  0  0  0  # atno 10765 bound_to 10752
  140.5466  134.5470  157.5112 H   0  0  0  0  0  0  0  0  0  0  0  0  # atno 11005 bound_to 11000
  144.6828  140.2691  143.7308 LP  0  0  0  0  0  0  0  0  0  0  0  0  # atno 17320 bound_to 7965
  145.7955  139.1943  143.2078 LP  0  0  0  0  0  0  0  0  0  0  0  0  # atno 17321 bound_to 7965
  140.7583  143.3104  151.2858 LP  0  0  0  0  0  0  0  0  0  0  0  0  # atno 17342 bound_to 10162
  139.6629  144.0157  152.2704 LP  0  0  0  0  0  0  0  0  0  0  0  0  # atno 17343 bound_to 10162
  157.7500  131.0311  150.4167 LP  0  0  0  0  0  0  0  0  0  0  0  0  # atno 17370 bound_to 10713
  156.4431  130.3996  149.6684 LP  0  0  0  0  0  0  0  0  0  0  0  0  # atno 17371 bound_to 10713
  139.9476  134.7673  156.0524 LP  0  0  0  0  0  0  0  0  0  0  0  0  # atno 17394 bound_to 11000
  141.1196  133.6617  156.3181 LP  0  0  0  0  0  0  0  0  0  0  0  0  # atno 17395 bound_to 11000

$$$$
