AV-unprocessed.smi:1380|AV-procd|sdf|5601|dock6
  -GOLD-   22720 5203D 1   1.00000     0.00000
 Structure written by MMmdl.
 34 35  0  0  0  0  0  0  0  0  2 V2000
  144.1358  137.0301  152.1306 O   0  0  0  0  0  0  0  0  0  0  0  0
  145.2549  136.5822  151.8818 C   0  0  0  0  0  0  0  0  0  0  0  0
  146.3888  137.0657  152.4081 N   0  0  0  0  0  0  0  0  0  0  0  0
  146.4660  138.1832  153.3450 C   0  0  0  0  0  0  0  0  0  0  0  0
  147.0754  139.4568  152.7238 C   0  0  0  0  0  0  0  0  0  0  0  0
  148.0905  140.1457  153.6194 C   0  0  0  0  0  0  0  0  0  0  0  0
  149.1761  139.4229  154.1608 C   0  0  0  0  0  0  0  0  0  0  0  0
  150.1067  140.0879  154.9865 C   0  0  0  0  0  0  0  0  0  0  0  0
  149.9297  141.4612  155.2524 C   0  0  0  0  0  0  0  0  0  0  0  0
  148.8784  142.1201  154.7169 N   0  3  0  0  0  0  0  0  0  0  0  0
  147.9656  141.5195  153.9224 C   0  0  0  0  0  0  0  0  0  0  0  0
  145.4882  135.5665  151.0398 N   0  0  0  0  0  0  0  0  0  0  0  0
  144.4601  134.8660  150.2815 C   0  0  0  0  0  0  0  0  0  0  0  0
  144.3026  133.3973  150.6268 C   0  0  0  0  0  0  0  0  0  0  0  0
  145.2551  132.3583  150.0814 C   0  0  0  0  0  0  0  0  0  0  0  0
  143.8326  132.4136  149.5809 C   0  0  0  0  0  0  0  0  0  0  0  0
  147.2604  136.6287  152.1459 H   0  0  0  0  0  0  0  0  0  0  0  0
  145.4767  138.3966  153.7529 H   0  0  0  0  0  0  0  0  0  0  0  0
  147.0810  137.8597  154.1850 H   0  0  0  0  0  0  0  0  0  0  0  0
  147.5518  139.2140  151.7730 H   0  0  0  0  0  0  0  0  0  0  0  0
  146.2797  140.1629  152.4841 H   0  0  0  0  0  0  0  0  0  0  0  0
  149.2962  138.3711  153.9450 H   0  0  0  0  0  0  0  0  0  0  0  0
  150.9436  139.5516  155.4097 H   0  0  0  0  0  0  0  0  0  0  0  0
  150.5920  142.0481  155.8722 H   0  0  0  0  0  0  0  0  0  0  0  0
  147.1723  142.1526  153.5513 H   0  0  0  0  0  0  0  0  0  0  0  0
  146.4418  135.2643  150.9038 H   0  0  0  0  0  0  0  0  0  0  0  0
  143.5099  135.3636  150.4766 H   0  0  0  0  0  0  0  0  0  0  0  0
  144.6467  134.9744  149.2115 H   0  0  0  0  0  0  0  0  0  0  0  0
  143.9244  133.2229  151.6324 H   0  0  0  0  0  0  0  0  0  0  0  0
  146.0381  132.6922  149.4036 H   0  0  0  0  0  0  0  0  0  0  0  0
  145.5276  131.5345  150.7377 H   0  0  0  0  0  0  0  0  0  0  0  0
  143.1563  131.6236  149.9009 H   0  0  0  0  0  0  0  0  0  0  0  0
  143.6720  132.7841  148.5703 H   0  0  0  0  0  0  0  0  0  0  0  0
  148.7687  143.1136  154.9219 H   0  0  0  0  0  0  0  0  0  0  0  0
  1  2  2  0  0  0  0
  2  3  1  0  0  0  0
  2 12  1  0  0  0  0
  3  4  1  0  0  0  0
  3 17  1  0  0  0  0
  4  5  1  0  0  0  0
  4 18  1  0  0  0  0
  4 19  1  0  0  0  0
  5  6  1  0  0  0  0
  5 20  1  0  0  0  0
  5 21  1  0  0  0  0
  6 11  1  0  0  0  0
  6  7  2  0  0  0  0
  7  8  1  0  0  0  0
  7 22  1  0  0  0  0
  8  9  2  0  0  0  0
  8 23  1  0  0  0  0
  9 10  1  0  0  0  0
  9 24  1  0  0  0  0
 10 11  2  0  0  0  0
 10 34  1  0  0  0  0
 11 25  1  0  0  0  0
 12 13  1  0  0  0  0
 12 26  1  0  0  0  0
 13 14  1  0  0  0  0
 13 27  1  0  0  0  0
 13 28  1  0  0  0  0
 14 16  1  0  0  0  0
 14 15  1  0  0  0  0
 14 29  1  0  0  0  0
 15 16  1  0  0  0  0
 15 30  1  0  0  0  0
 15 31  1  0  0  0  0
 16 32  1  0  0  0  0
 16 33  1  0  0  0  0
M  CHG  1  10   1
M  END
> <s_m_source_file>
AV-unprocessed.smi

> <i_m_source_file_index>
1380

> <i_lp_mmshare_version>
43012

> <i_f3d_flags>
0

> <s_epik_input>
W0NIMl0xW0NIMl1bQ0hdMVtDSDJdW05IXUMoPU8pW05IXVtDSDJdW0NIMl1jMltjSF1bY0hdW2NIXW5bY0hdMg==

> <s_epik_cmdline>
J2VwaWtfcHl0aG9uJywgJy1waCcsICc3LjAnLCAnLXRuJywgJzgnLCAnLW1hJywgJzIwMCcsICctbWV0YWxfYmluZGluZycsICctaW1hZScsICc8aW5maWxlLm1hZT4nLCAnLW9tYWUnLCAnPG91dGZpbGUubWFlPic=

> <r_epik_Ionization_Penalty>
2.21218

> <r_epik_Ionization_Penalty_Charging>
2.21212

> <r_epik_Ionization_Penalty_Neutral>
5.76468e-05

> <r_epik_State_Penalty>
2.35642

> <r_epik_Charging_Adjusted_Penalty>
4.56854

> <i_epik_Tot_Q>
1

> <i_epik_Tot_abs_Q>
1

> <r_epik_Metal_State_Penalty>
2.37048

> <b_epik_Metal_Only>
0

> <s_lp_Force_Field>
OPLS_2005

> <r_lp_Energy>
16.6962

> <b_lp_Chiralities_Consistent>
1

> <s_lp_Variant>
AV-unprocessed.smi:1380-2

> <Gold.Version>
5.8.1

> <Gold.Id.Protein>
6NUR|6NUR_protein|mol2

> <Gold.PLP.Fitness>
41.2262

> <Gold.PLP.PLP>
-33.0584

> <Gold.PLP.part.hbond>
-2.0000

> <Gold.PLP.part.metal>
0.0000

> <Gold.PLP.part.buried>
-2.9753

> <Gold.PLP.part.nonpolar>
-28.4991

> <Gold.PLP.part.repulsive>
0.8507

> <Gold.PLP.ligand.clash>
0.0000

> <Gold.PLP.ligand.torsion>
0.6969

> <Gold.PLP.Chemscore.Hbond>
3.0000

> <Gold.PLP.Chemscore.CHOScore>
0.0000

> <Gold.PLP.Chemscore.Metal>
0.0000

> <Gold.Chemscore.Hbonds>
donor molecule, donor type, donor heavy atom, donor atom, acceptor molecule, acceptor atom, score
      L1  H     3    17       P1  7948  1.00
      L1  H    10    34       P1  8028  2.00

> <Gold.PLP.Chemscore.Internal.Correction>
0.5617

> <Gold.Rescore>
     Score         DG    S(hbond)    S(metal)    S(lipo)     H(rot)  DE(clash)    DE(int)     intcor
     16.18     -17.11       1.99        0.00      81.95       1.80       0.15       0.78       ----

> <Gold.Chemscore.Fitness>
16.1806

> <Gold.Chemscore.DG>
-17.1094

> <Gold.Chemscore.ZeroCoef>
-5.4800

> <Gold.Chemscore.Hbond>
1.9944

> <Gold.Chemscore.Metal>
0.0000

> <Gold.Chemscore.Lipo>
81.9492

> <Gold.Chemscore.Internal_Hbond>
0.0000

> <Gold.Chemscore.DEClash>
0.1495

> <Gold.Chemscore.DEInternal>
0.7792

> <Gold.Chemscore.Rot>
1.8047

> <Gold.Chemscore.Internal.Correction>
   9.000000E+99

> <Gold.Chemscore.Hbonds>
donor molecule, donor type, donor heavy atom, donor atom, acceptor molecule, acceptor atom, score
      L1  H     3    17       P1  7948  1.00
      L1  H    10    34       P1  8028  1.00

> <Gold.Chemscore.Hbond.Weighted>
-6.6612

> <Gold.Chemscore.Metal.Weighted>
-0.0000

> <Gold.Chemscore.Lipo.Weighted>
-9.5881

> <Gold.Chemscore.Internal_Hbond.Weighted>
0.0000

> <Gold.Chemscore.DEClash.Weighted>
0.1495

> <Gold.Chemscore.DEInternal.Weighted>
0.7792

> <Gold.Chemscore.Rot.Weighted>
4.6199

> <Gold.Chemscore.Internal.Correction.Weighted>
   9.000000E+99

> <Gold.Protein.RotatedTorsions>
[ 6907 6896 6895 6894 ] final -159.33 input  -60.11 | X-H torsion
[ 7974 7965 7964 7962 ] final   13.91 input  175.53 | X-H torsion
[ 8008 7997 7996 7995 ] final  113.27 input   59.86 | X-H torsion
[ 10167 10162 10161 10158 ] final  -58.43 input  -65.29 | X-H torsion
[ 10718 10713 10712 10709 ] final  115.42 input   66.30 | X-H torsion
[ 10763 10752 10751 10750 ] final   53.29 input  -60.55 | X-H torsion
[ 11005 11000 10999 10996 ] final   50.78 input  -57.11 | X-H torsion

> <Gold.Protein.ActiveResidues>
 VAL166  LYS551  ARG553  GLY616  TRP617  ASP618  TYR619  PRO620  LYS621  CYS622 
 ASP623  PHE694  ASN695  SER759  ASP760  ASP761  ALA762  ILE779  LEU786  VAL792 
 PHE793  MET794  SER795  GLU796  ALA797  LYS798  CYS799  TRP800  GLU811  SER814 

> <Gold.Protein.RotatedAtoms>
  151.3319  133.3997  159.2663 H   0  0  0  0  0  0  0  0  0  0  0  0  # atno 6907 bound_to 6896
  150.9948  134.9275  159.7931 H   0  0  0  0  0  0  0  0  0  0  0  0  # atno 6908 bound_to 6896
  152.5258  134.3284  159.9226 H   0  0  0  0  0  0  0  0  0  0  0  0  # atno 6909 bound_to 6896
  146.2318  139.9119  142.8523 H   0  0  0  0  0  0  0  0  0  0  0  0  # atno 7974 bound_to 7965
  156.2247  140.2983  156.0037 H   0  0  0  0  0  0  0  0  0  0  0  0  # atno 8008 bound_to 7997
  155.2389  140.0421  157.2989 H   0  0  0  0  0  0  0  0  0  0  0  0  # atno 8009 bound_to 7997
  154.5896  140.2398  155.7947 H   0  0  0  0  0  0  0  0  0  0  0  0  # atno 8010 bound_to 7997
  140.6198  143.2415  151.5509 H   0  0  0  0  0  0  0  0  0  0  0  0  # atno 10167 bound_to 10162
  157.6223  131.1012  150.7327 H   0  0  0  0  0  0  0  0  0  0  0  0  # atno 10718 bound_to 10713
  152.9794  135.5784  154.4717 H   0  0  0  0  0  0  0  0  0  0  0  0  # atno 10763 bound_to 10752
  154.4279  135.2773  155.1934 H   0  0  0  0  0  0  0  0  0  0  0  0  # atno 10764 bound_to 10752
  154.3655  135.6179  153.5766 H   0  0  0  0  0  0  0  0  0  0  0  0  # atno 10765 bound_to 10752
  140.0988  134.5109  155.8782 H   0  0  0  0  0  0  0  0  0  0  0  0  # atno 11005 bound_to 11000
  145.2221  140.9939  143.4039 LP  0  0  0  0  0  0  0  0  0  0  0  0  # atno 17320 bound_to 7965
  144.9601  139.3989  143.6360 LP  0  0  0  0  0  0  0  0  0  0  0  0  # atno 17321 bound_to 7965
  139.5429  144.2599  152.1386 LP  0  0  0  0  0  0  0  0  0  0  0  0  # atno 17342 bound_to 10162
  140.1817  144.4838  150.6525 LP  0  0  0  0  0  0  0  0  0  0  0  0  # atno 17343 bound_to 10162
  156.7682  130.4820  149.5423 LP  0  0  0  0  0  0  0  0  0  0  0  0  # atno 17370 bound_to 10713
  156.1375  130.6221  151.0421 LP  0  0  0  0  0  0  0  0  0  0  0  0  # atno 17371 bound_to 10713
  141.2100  133.6689  156.6476 LP  0  0  0  0  0  0  0  0  0  0  0  0  # atno 17394 bound_to 11000
  140.3249  134.7977  157.4281 LP  0  0  0  0  0  0  0  0  0  0  0  0  # atno 17395 bound_to 11000

$$$$
