#       Name:                AV-unprocessed.smi:1196
#       Creating user name   scv26
#       Creation time:       Fri Mar 27 04:01:25 2020


#       File generated by GOLD software.
#

@<TRIPOS>MOLECULE
AV-unprocessed.smi:1196
    44    45     1
SMALL
NO_CHARGES


@<TRIPOS>ATOM
      1 ****        -3.1899  -1.5165  -1.5619 C.3            1 S1                 0.0000
      2 ****        -2.6100  -0.8430  -0.3079 C.3            1 S1                 0.0000
      3 ****        -3.1223  -1.5144   0.9809 C.3            1 S1                 0.0000
      4 ****        -2.7115  -0.7993   2.1766 N.pl3          1 S1                 0.0000
      5 ****        -3.2706   0.3333   2.7296 C.2            1 S1                 0.0000
      6 ****        -2.5442   0.6423   3.8438 C.2            1 S1                 0.0000
      7 ****        -1.5464  -0.3714   3.8887 C.2            1 S1                 0.0000
      8 ****        -1.6508  -1.2345   2.8913 N.2            1 S1                 0.0000
      9 ****        -1.1498  -0.8834  -0.3493 N.am           1 S1                 0.0000
     10 ****        -0.3608   0.0124  -0.9613 C.2            1 S1                 0.0000
     11 ****        -0.7973   0.9776  -1.5896 O.2            1 S1                 0.0000
     12 ****         1.1460  -0.2337  -0.8390 C.3            1 S1                 0.0000
     13 ****         1.9979   1.0281  -1.0790 C.3            1 S1                 0.0000
     14 ****         3.5014   0.7940  -0.8218 C.3            1 S1                 0.0000
     15 ****         4.0964  -0.0393  -1.8526 N.pl3          1 S1                -1.0000
     16 ****         5.1047   0.6520  -2.4342 C.2            1 S1                 0.0000
     17 ****         5.8501   0.2780  -3.3369 O.2            1 S1                 0.0000
     18 ****         5.2171   1.8699  -1.8939 N.am           1 S1                 0.0000
     19 ****         4.3125   2.0701  -0.9411 C.2            1 S1                 0.0000
     20 ****         4.1475   3.0867  -0.2680 O.2            1 S1                 0.0000
     21 ****        -4.2797  -1.4862  -1.5541 H              1 S1                 0.0000
     22 ****        -2.8871  -2.5620  -1.6273 H              1 S1                 0.0000
     23 ****        -2.8555  -1.0149  -2.4708 H              1 S1                 0.0000
     24 ****        -2.9408   0.1974  -0.2989 H              1 S1                 0.0000
     25 ****        -4.2124  -1.5503   0.9749 H              1 S1                 0.0000
     26 ****        -2.7784  -2.5484   1.0425 H              1 S1                 0.0000
     27 ****        -4.1275   0.8199   2.2875 H              1 S1                 0.0000
     28 ****        -2.7004   1.4678   4.5221 H              1 S1                 0.0000
     29 ****        -0.7559  -0.5053   4.6124 H              1 S1                 0.0000
     30 ****        -0.7024  -1.6405   0.1474 H              1 S1                 0.0000
     31 ****         1.3562  -0.6276   0.1564 H              1 S1                 0.0000
     32 ****         1.4238  -1.0132  -1.5491 H              1 S1                 0.0000
     33 ****         1.8467   1.3923  -2.0972 H              1 S1                 0.0000
     34 ****         1.6430   1.8211  -0.4183 H              1 S1                 0.0000
     35 ****         3.6503   0.3874   0.1794 H              1 S1                 0.0000
     36 ****         5.8994   2.5551  -2.1819 H              1 S1                 0.0000
     37 ****        -1.0739  -2.0305   2.7077 LP             1 S1                 0.0000
     38 ****        -1.7841   1.1224  -1.6616 LP             1 S1                 0.0000
     39 ****        -0.1649   1.6164  -2.0277 LP             1 S1                 0.0000
     40 ****         3.8096  -0.9669  -2.0920 LP             1 S1                 0.0000
     41 ****         5.7443  -0.6372  -3.7259 LP             1 S1                 0.0000
     42 ****         6.5625   0.8888  -3.6824 LP             1 S1                 0.0000
     43 ****         3.4290   3.1151   0.4269 LP             1 S1                 0.0000
     44 ****         4.7320   3.8845  -0.4158 LP             1 S1                 0.0000
@<TRIPOS>BOND
    1    1    2 1     
    2    1   21 1     
    3    1   22 1     
    4    1   23 1     
    5    2    3 1     
    6    2    9 1     
    7    2   24 1     
    8    3    4 1     
    9    3   25 1     
   10    3   26 1     
   11    4    8 1     
   12    4    5 1     
   13    5    6 2     
   14    5   27 1     
   15    6    7 1     
   16    6   28 1     
   17    7    8 2     
   18    7   29 1     
   19    9   10 am    
   20    9   30 1     
   21   10   11 2     
   22   10   12 1     
   23   12   13 1     
   24   12   31 1     
   25   12   32 1     
   26   13   14 1     
   27   13   33 1     
   28   13   34 1     
   29   14   19 1     
   30   14   15 1     
   31   14   35 1     
   32   15   16 1     
   33   16   17 2     
   34   16   18 am    
   35   18   19 am    
   36   18   36 1     
   37   19   20 2     
   38    8   37 1     
   39   11   38 1     
   40   11   39 1     
   41   15   40 1     
   42   17   41 1     
   43   17   42 1     
   44   20   43 1     
   45   20   44 1     
@<TRIPOS>SUBSTRUCTURE
      1 S1             1
@<TRIPOS>SET
LONE_PAIRS      STATIC     ATOMS    <user>   **** ""
8 37 38 39 40 41 42 43 44
DONOR_HYDROGENS      STATIC     ATOMS    <user>   **** ""
2 30 36
ATOM$BLUE        STATIC     ATOMS    COLORGROUP SYSTEM
8 37 38 39 40 41 42 43 44
ATOM$RED        STATIC     ATOMS    COLORGROUP SYSTEM
2 30 36
