AV-unprocessed.smi:104|AV-procd|sdf|1007|dock5
  -GOLD-   2262018 03D 1   1.00000     0.00000
 Structure written by MMmdl.
 47 49  0  0  0  0  0  0  0  0  1 V2000
  151.6661  138.5671  158.5364 C   0  0  0  0  0  0  0  0  0  0  0  0
  150.3996  137.7516  158.3139 C   0  0  0  0  0  0  0  0  0  0  0  0
  150.2909  136.9801  157.3606 O   0  0  0  0  0  0  0  0  0  0  0  0
  149.4730  137.9790  159.2577 O   0  0  0  0  0  0  0  0  0  0  0  0
  148.2682  137.2306  159.2572 C   0  0  0  0  0  0  0  0  0  0  0  0
  148.5653  135.7889  159.7066 C   0  0  2  0  0  0  0  0  0  0  0  0
  149.0916  135.0793  158.5821 O   0  0  0  0  0  0  0  0  0  0  0  0
  148.2348  134.0457  158.2008 C   0  0  2  0  0  0  0  0  0  0  0  0
  148.1758  133.9616  156.7057 N   0  0  0  0  0  0  0  0  0  0  0  0
  147.8177  134.9449  155.8132 C   0  0  0  0  0  0  0  0  0  0  0  0
  147.3039  136.6870  156.3846 Br  0  0  0  0  0  0  0  0  0  0  0  0
  147.8676  134.6492  154.5449 N   0  0  0  0  0  0  0  0  0  0  0  0
  148.3161  133.3343  154.5567 C   0  0  0  0  0  0  0  0  0  0  0  0
  148.6126  132.3872  153.5443 C   0  0  0  0  0  0  0  0  0  0  0  0
  148.4810  132.6496  152.2368 N   0  0  0  0  0  0  0  0  0  0  0  0
  149.0536  131.1617  153.9126 N   0  0  0  0  0  0  0  0  0  0  0  0
  149.1969  130.8758  155.2104 C   0  0  0  0  0  0  0  0  0  0  0  0
  148.9571  131.6550  156.2674 N   0  0  0  0  0  0  0  0  0  0  0  0
  148.5109  132.8910  155.8981 C   0  0  0  0  0  0  0  0  0  0  0  0
  146.8697  134.3288  158.8388 C   0  0  2  0  0  0  0  0  0  0  0  0
  146.0911  135.2196  158.0393 O   0  0  0  0  0  0  0  0  0  0  0  0
  144.8267  135.5261  158.3776 C   0  0  0  0  0  0  0  0  0  0  0  0
  144.1737  136.4676  157.3754 C   0  0  0  0  0  0  0  0  0  0  0  0
  144.2137  135.1035  159.3575 O   0  0  0  0  0  0  0  0  0  0  0  0
  147.3216  134.9856  160.1290 C   0  0  2  0  0  0  0  0  0  0  0  0
  146.2763  135.7404  160.7328 O   0  0  0  0  0  0  0  0  0  0  0  0
  146.5600  136.6535  161.6766 C   0  0  0  0  0  0  0  0  0  0  0  0
  145.3094  137.1847  162.3639 C   0  0  0  0  0  0  0  0  0  0  0  0
  147.6828  137.0537  161.9832 O   0  0  0  0  0  0  0  0  0  0  0  0
  152.1804  138.2273  159.4354 H   0  0  0  0  0  0  0  0  0  0  0  0
  151.4222  139.6230  158.6536 H   0  0  0  0  0  0  0  0  0  0  0  0
  152.3442  138.4611  157.6894 H   0  0  0  0  0  0  0  0  0  0  0  0
  147.5707  137.7096  159.9446 H   0  0  0  0  0  0  0  0  0  0  0  0
  147.8034  137.2347  158.2711 H   0  0  0  0  0  0  0  0  0  0  0  0
  149.2924  135.8006  160.5191 H   0  0  0  0  0  0  0  0  0  0  0  0
  148.6629  133.0974  158.5270 H   0  0  0  0  0  0  0  0  0  0  0  0
  148.1571  133.5577  151.9359 H   0  0  0  0  0  0  0  0  0  0  0  0
  148.7047  131.9390  151.5550 H   0  0  0  0  0  0  0  0  0  0  0  0
  149.5541  129.8816  155.4353 H   0  0  0  0  0  0  0  0  0  0  0  0
  146.3465  133.3917  159.0339 H   0  0  0  0  0  0  0  0  0  0  0  0
  144.8919  137.2066  157.0197 H   0  0  0  0  0  0  0  0  0  0  0  0
  143.3362  136.9939  157.8340 H   0  0  0  0  0  0  0  0  0  0  0  0
  143.8028  135.9043  156.5190 H   0  0  0  0  0  0  0  0  0  0  0  0
  147.6373  134.1874  160.8033 H   0  0  0  0  0  0  0  0  0  0  0  0
  144.8161  136.3874  162.9198 H   0  0  0  0  0  0  0  0  0  0  0  0
  144.6097  137.5789  161.6268 H   0  0  0  0  0  0  0  0  0  0  0  0
  145.5648  137.9847  163.0589 H   0  0  0  0  0  0  0  0  0  0  0  0
  1  2  1  0  0  0  0
  1 30  1  0  0  0  0
  1 31  1  0  0  0  0
  1 32  1  0  0  0  0
  2  3  2  0  0  0  0
  2  4  1  0  0  0  0
  4  5  1  0  0  0  0
  5  6  1  0  0  0  0
  5 33  1  0  0  0  0
  5 34  1  0  0  0  0
  6 25  1  0  0  0  0
  6  7  1  0  0  0  0
  6 35  1  0  0  0  0
  7  8  1  0  0  0  0
  8  9  1  0  0  0  0
  8 20  1  0  0  0  0
  8 36  1  0  0  0  0
  9 19  1  0  0  0  0
  9 10  1  0  0  0  0
 10 11  1  0  0  0  0
 10 12  2  0  0  0  0
 12 13  1  0  0  0  0
 13 19  2  0  0  0  0
 13 14  1  0  0  0  0
 14 15  1  0  0  0  0
 14 16  2  0  0  0  0
 15 37  1  0  0  0  0
 15 38  1  0  0  0  0
 16 17  1  0  0  0  0
 17 18  2  0  0  0  0
 17 39  1  0  0  0  0
 18 19  1  0  0  0  0
 20 21  1  0  0  0  0
 20 25  1  0  0  0  0
 20 40  1  0  0  0  0
 21 22  1  0  0  0  0
 22 23  1  0  0  0  0
 22 24  2  0  0  0  0
 23 41  1  0  0  0  0
 23 42  1  0  0  0  0
 23 43  1  0  0  0  0
 25 26  1  0  0  0  0
 25 44  1  0  0  0  0
 26 27  1  0  0  0  0
 27 28  1  0  0  0  0
 27 29  2  0  0  0  0
 28 45  1  0  0  0  0
 28 46  1  0  0  0  0
 28 47  1  0  0  0  0
M  END
> <s_m_source_file>
AV-unprocessed.smi

> <i_m_source_file_index>
104

> <i_lp_mmshare_version>
43012

> <i_f3d_flags>
0

> <s_epik_input>
W0NIM11DKD1PKU9bQ0gyXVtDQEBIXTFPW0NASF0oW0NAQEhdKE9DKD1PKVtDSDNdKVtDQEhdMU9DKD1PKVtDSDNdKW4oYyhCciluMiljKGMyMyluW2NIXW5jM1tOSDJd

> <s_epik_cmdline>
J2VwaWtfcHl0aG9uJywgJy1waCcsICc3LjAnLCAnLXRuJywgJzgnLCAnLW1hJywgJzIwMCcsICctbWV0YWxfYmluZGluZycsICctaW1hZScsICc8aW5maWxlLm1hZT4nLCAnLW9tYWUnLCAnPG91dGZpbGUubWFlPic=

> <r_lp_tautomer_probability>
1

> <r_epik_Ionization_Penalty>
7.36622e-05

> <r_epik_Ionization_Penalty_Charging>
0

> <r_epik_Ionization_Penalty_Neutral>
7.36622e-05

> <r_epik_State_Penalty>
-0

> <r_epik_Charging_Adjusted_Penalty>
0

> <i_epik_Tot_Q>
0

> <i_epik_Tot_abs_Q>
0

> <r_epik_Metal_State_Penalty>
-0

> <b_epik_Metal_Only>
0

> <s_epik_Chemistry_Notes>
This compound has an ester and may undergo hydrolysis at high or low pH. This compound contains an acetal/aminal-like group ( X-CH(R)-Y where X, Y are N, S, or O) that may be acid/base labile, releasing an aldehyde.

> <s_lp_Force_Field>
OPLS_2005

> <r_lp_Energy>
19.209

> <b_lp_Chiralities_Consistent>
1

> <s_lp_Variant>
AV-unprocessed.smi:104-15

> <Gold.Version>
5.8.1

> <Gold.Id.Protein>
6NUR|6NUR_protein|mol2

> <Gold.PLP.Fitness>
33.7818

> <Gold.PLP.PLP>
-24.8340

> <Gold.PLP.part.hbond>
-5.3228

> <Gold.PLP.part.metal>
0.0000

> <Gold.PLP.part.buried>
-3.2316

> <Gold.PLP.part.nonpolar>
-16.4479

> <Gold.PLP.part.repulsive>
0.2140

> <Gold.PLP.ligand.clash>
0.0073

> <Gold.PLP.ligand.torsion>
0.4883

> <Gold.PLP.Chemscore.Hbond>
3.2079

> <Gold.PLP.Chemscore.CHOScore>
0.0000

> <Gold.PLP.Chemscore.Metal>
0.0000

> <Gold.Chemscore.Hbonds>
donor molecule, donor type, donor heavy atom, donor atom, acceptor molecule, acceptor atom, score
      L1  H    15    38       P1 10747  1.00
      P1  H  6896  6909       L1     7  1.00
      P1  H  6931  6943       L1    29  1.00
      P1  H  6934  6947       L1    29  0.12

> <Gold.PLP.Chemscore.Internal.Correction>
0.3081

> <Gold.Rescore>
     Score         DG    S(hbond)    S(metal)    S(lipo)     H(rot)  DE(clash)    DE(int)     intcor
     -5.81      -5.71       2.37        0.00      28.72       4.31       0.21      11.32       ----

> <Gold.Chemscore.Fitness>
-5.8139

> <Gold.Chemscore.DG>
-5.7147

> <Gold.Chemscore.ZeroCoef>
-5.4800

> <Gold.Chemscore.Hbond>
2.3653

> <Gold.Chemscore.Metal>
0.0000

> <Gold.Chemscore.Lipo>
28.7202

> <Gold.Chemscore.Internal_Hbond>
0.0000

> <Gold.Chemscore.DEClash>
0.2107

> <Gold.Chemscore.DEInternal>
11.3178

> <Gold.Chemscore.Rot>
4.3070

> <Gold.Chemscore.Internal.Correction>
   9.000000E+99

> <Gold.Chemscore.Hbonds>
donor molecule, donor type, donor heavy atom, donor atom, acceptor molecule, acceptor atom, score
      L1  H    15    38       P1 10747  0.99
      P1  H  6896  6909       L1     7  0.15
      P1  H  6931  6943       L1    29  0.97

> <Gold.Chemscore.Hbond.Weighted>
-7.9003

> <Gold.Chemscore.Metal.Weighted>
-0.0000

> <Gold.Chemscore.Lipo.Weighted>
-3.3603

> <Gold.Chemscore.Internal_Hbond.Weighted>
0.0000

> <Gold.Chemscore.DEClash.Weighted>
0.2107

> <Gold.Chemscore.DEInternal.Weighted>
11.3178

> <Gold.Chemscore.Rot.Weighted>
11.0259

> <Gold.Chemscore.Internal.Correction.Weighted>
   9.000000E+99

> <Gold.Protein.RotatedTorsions>
[ 6907 6896 6895 6894 ] final   24.49 input  -60.11 | X-H torsion
[ 7974 7965 7964 7962 ] final  144.26 input  175.53 | X-H torsion
[ 8008 7997 7996 7995 ] final   10.16 input   59.86 | X-H torsion
[ 10167 10162 10161 10158 ] final  -78.71 input  -65.29 | X-H torsion
[ 10718 10713 10712 10709 ] final   52.84 input   66.30 | X-H torsion
[ 10763 10752 10751 10750 ] final -109.03 input  -60.55 | X-H torsion
[ 11005 11000 10999 10996 ] final -164.27 input  -57.11 | X-H torsion

> <Gold.Protein.ActiveResidues>
 VAL166  LYS551  ARG553  GLY616  TRP617  ASP618  TYR619  PRO620  LYS621  CYS622 
 ASP623  PHE694  ASN695  SER759  ASP760  ASP761  ALA762  ILE779  LEU786  VAL792 
 PHE793  MET794  SER795  GLU796  ALA797  LYS798  CYS799  TRP800  GLU811  SER814 

> <Gold.Protein.RotatedAtoms>
  151.9582  135.0136  160.0545 H   0  0  0  0  0  0  0  0  0  0  0  0  # atno 6907 bound_to 6896
  152.1892  133.4756  159.5007 H   0  0  0  0  0  0  0  0  0  0  0  0  # atno 6908 bound_to 6896
  150.6932  134.1652  159.4234 H   0  0  0  0  0  0  0  0  0  0  0  0  # atno 6909 bound_to 6896
  144.8851  139.5641  143.5825 H   0  0  0  0  0  0  0  0  0  0  0  0  # atno 7974 bound_to 7965
  154.7897  140.2833  155.6001 H   0  0  0  0  0  0  0  0  0  0  0  0  # atno 8008 bound_to 7997
  156.2962  140.2607  156.2670 H   0  0  0  0  0  0  0  0  0  0  0  0  # atno 8009 bound_to 7997
  154.9685  140.0376  157.2213 H   0  0  0  0  0  0  0  0  0  0  0  0  # atno 8010 bound_to 7997
  140.4658  143.2440  151.8280 H   0  0  0  0  0  0  0  0  0  0  0  0  # atno 10167 bound_to 10162
  157.5112  130.8502  149.8437 H   0  0  0  0  0  0  0  0  0  0  0  0  # atno 10718 bound_to 10713
  154.8170  135.4616  154.0670 H   0  0  0  0  0  0  0  0  0  0  0  0  # atno 10763 bound_to 10752
  153.2055  135.6875  153.8184 H   0  0  0  0  0  0  0  0  0  0  0  0  # atno 10764 bound_to 10752
  153.7654  135.3278  155.3320 H   0  0  0  0  0  0  0  0  0  0  0  0  # atno 10765 bound_to 10752
  140.5888  134.5066  157.5190 H   0  0  0  0  0  0  0  0  0  0  0  0  # atno 11005 bound_to 11000
  146.3019  139.7454  142.9085 LP  0  0  0  0  0  0  0  0  0  0  0  0  # atno 17320 bound_to 7965
  145.3884  141.0369  143.3138 LP  0  0  0  0  0  0  0  0  0  0  0  0  # atno 17321 bound_to 7965
  139.4812  144.4952  151.9133 LP  0  0  0  0  0  0  0  0  0  0  0  0  # atno 17342 bound_to 10162
  140.4037  144.2459  150.5892 LP  0  0  0  0  0  0  0  0  0  0  0  0  # atno 17343 bound_to 10162
  156.0290  130.3770  150.1741 LP  0  0  0  0  0  0  0  0  0  0  0  0  # atno 17370 bound_to 10713
  156.9930  130.9899  151.3410 LP  0  0  0  0  0  0  0  0  0  0  0  0  # atno 17371 bound_to 10713
  139.9283  134.8012  156.1003 LP  0  0  0  0  0  0  0  0  0  0  0  0  # atno 17394 bound_to 11000
  141.0948  133.6700  156.2622 LP  0  0  0  0  0  0  0  0  0  0  0  0  # atno 17395 bound_to 11000

$$$$
