AV-unprocessed.smi:3255|AV-procd|sdf|12459|dock8
  -GOLD-   2272018353D 1   1.00000     0.00000
 Structure written by MMmdl.
 39 40  0  0  0  0  0  0  0  0  2 V2000
  157.7053  138.5315  161.5658 C   0  0  0  0  0  0  0  0  0  0  0  0
  156.2123  138.2044  161.4201 C   0  0  2  0  0  0  0  0  0  0  0  0
  155.4587  139.4553  161.3426 N   0  0  0  0  0  0  0  0  0  0  0  0
  154.7808  139.8913  160.2716 C   0  0  0  0  0  0  0  0  0  0  0  0
  154.7192  139.2897  159.1990 O   0  0  0  0  0  0  0  0  0  0  0  0
  154.1520  141.0497  160.5162 N   0  0  0  0  0  0  0  0  0  0  0  0
  153.2992  141.7578  159.5651 C   0  0  0  0  0  0  0  0  0  0  0  0
  153.4365  143.2887  159.6829 C   0  0  0  0  0  0  0  0  0  0  0  0
  152.2602  144.0139  159.1914 N   0  0  0  0  0  0  0  0  0  0  0  0
  151.4402  144.8491  159.9060 C   0  0  0  0  0  0  0  0  0  0  0  0
  150.4699  145.2808  159.0387 C   0  0  0  0  0  0  0  0  0  0  0  0
  150.7443  144.6992  157.8301 N   0  3  0  0  0  0  0  0  0  0  0  0
  151.8374  143.9351  157.9230 C   0  0  0  0  0  0  0  0  0  0  0  0
  155.7016  137.3321  162.5861 C   0  0  1  0  0  0  0  0  0  0  0  0
  155.7377  137.9940  163.9631 C   0  0  0  0  0  0  0  0  0  0  0  0
  154.7496  137.1588  164.7507 C   0  0  0  0  0  0  0  0  0  0  0  0
  153.7681  136.6659  163.6839 C   0  0  0  0  0  0  0  0  0  0  0  0
  154.3190  137.0483  162.4268 O   0  0  0  0  0  0  0  0  0  0  0  0
  158.3064  137.6223  161.5903 H   0  0  0  0  0  0  0  0  0  0  0  0
  157.9042  139.0854  162.4839 H   0  0  0  0  0  0  0  0  0  0  0  0
  158.0590  139.1346  160.7289 H   0  0  0  0  0  0  0  0  0  0  0  0
  156.0894  137.6440  160.4917 H   0  0  0  0  0  0  0  0  0  0  0  0
  155.4451  140.0245  162.1762 H   0  0  0  0  0  0  0  0  0  0  0  0
  154.2647  141.4693  161.4278 H   0  0  0  0  0  0  0  0  0  0  0  0
  153.6010  141.4489  158.5640 H   0  0  0  0  0  0  0  0  0  0  0  0
  152.2568  141.4523  159.6718 H   0  0  0  0  0  0  0  0  0  0  0  0
  153.6095  143.5804  160.7197 H   0  0  0  0  0  0  0  0  0  0  0  0
  154.2976  143.6337  159.1093 H   0  0  0  0  0  0  0  0  0  0  0  0
  151.5970  145.0610  160.9537 H   0  0  0  0  0  0  0  0  0  0  0  0
  149.6268  145.9394  159.1878 H   0  0  0  0  0  0  0  0  0  0  0  0
  152.2809  143.3558  157.1329 H   0  0  0  0  0  0  0  0  0  0  0  0
  156.2494  136.3883  162.6232 H   0  0  0  0  0  0  0  0  0  0  0  0
  156.7331  137.9991  164.4069 H   0  0  0  0  0  0  0  0  0  0  0  0
  155.3853  139.0246  163.8993 H   0  0  0  0  0  0  0  0  0  0  0  0
  155.2578  136.3093  165.2089 H   0  0  0  0  0  0  0  0  0  0  0  0
  154.2618  137.7277  165.5427 H   0  0  0  0  0  0  0  0  0  0  0  0
  153.6537  135.5824  163.7298 H   0  0  0  0  0  0  0  0  0  0  0  0
  152.7822  137.1161  163.8017 H   0  0  0  0  0  0  0  0  0  0  0  0
  150.1980  144.8244  156.9872 H   0  0  0  0  0  0  0  0  0  0  0  0
  1  2  1  0  0  0  0
  1 19  1  0  0  0  0
  1 20  1  0  0  0  0
  1 21  1  0  0  0  0
  2  3  1  0  0  0  0
  2 14  1  0  0  0  0
  2 22  1  0  0  0  0
  3  4  1  0  0  0  0
  3 23  1  0  0  0  0
  4  5  2  0  0  0  0
  4  6  1  0  0  0  0
  6  7  1  0  0  0  0
  6 24  1  0  0  0  0
  7  8  1  0  0  0  0
  7 25  1  0  0  0  0
  7 26  1  0  0  0  0
  8  9  1  0  0  0  0
  8 27  1  0  0  0  0
  8 28  1  0  0  0  0
  9 13  1  0  0  0  0
  9 10  1  0  0  0  0
 10 11  2  0  0  0  0
 10 29  1  0  0  0  0
 11 12  1  0  0  0  0
 11 30  1  0  0  0  0
 12 13  2  0  0  0  0
 12 39  1  0  0  0  0
 13 31  1  0  0  0  0
 14 18  1  0  0  0  0
 14 15  1  0  0  0  0
 14 32  1  0  0  0  0
 15 16  1  0  0  0  0
 15 33  1  0  0  0  0
 15 34  1  0  0  0  0
 16 17  1  0  0  0  0
 16 35  1  0  0  0  0
 16 36  1  0  0  0  0
 17 18  1  0  0  0  0
 17 37  1  0  0  0  0
 17 38  1  0  0  0  0
M  CHG  1  12   1
M  END
> <s_m_source_file>
AV-unprocessed.smi

> <i_m_source_file_index>
3255

> <i_lp_mmshare_version>
43012

> <i_f3d_flags>
0

> <s_epik_input>
TzFbQ0gyXVtDSDJdW0NIMl1bQ0BIXTFbQ0BIXShbQ0gzXSlbTkhdQyg9TylbTkhdW0NIMl1bQ0gyXW4yW2NIXVtjSF1uW2NIXTI=

> <s_epik_cmdline>
J2VwaWtfcHl0aG9uJywgJy1waCcsICc3LjAnLCAnLXRuJywgJzgnLCAnLW1hJywgJzIwMCcsICctbWV0YWxfYmluZGluZycsICctaW1hZScsICc8aW5maWxlLm1hZT4nLCAnLW9tYWUnLCAnPG91dGZpbGUubWFlPic=

> <r_lp_tautomer_probability>
1

> <r_epik_Ionization_Penalty>
0.256241

> <r_epik_Ionization_Penalty_Charging>
0

> <r_epik_Ionization_Penalty_Neutral>
0.256241

> <r_epik_State_Penalty>
0.247735

> <r_epik_Charging_Adjusted_Penalty>
0.247735

> <i_epik_Tot_Q>
1

> <i_epik_Tot_abs_Q>
1

> <r_epik_Metal_State_Penalty>
0.537184

> <b_epik_Metal_Only>
0

> <s_lp_Force_Field>
OPLS_2005

> <r_lp_Energy>
17.3031

> <b_lp_Chiralities_Consistent>
1

> <s_lp_Variant>
AV-unprocessed.smi:3255-3

> <Gold.Version>
5.8.1

> <Gold.Id.Protein>
6NUR|6NUR_protein|mol2

> <Gold.PLP.Fitness>
44.5504

> <Gold.PLP.PLP>
-36.1840

> <Gold.PLP.part.hbond>
-2.7759

> <Gold.PLP.part.metal>
0.0000

> <Gold.PLP.part.buried>
-4.8238

> <Gold.PLP.part.nonpolar>
-29.5616

> <Gold.PLP.part.repulsive>
0.1613

> <Gold.PLP.ligand.clash>
0.0000

> <Gold.PLP.ligand.torsion>
0.3330

> <Gold.PLP.Chemscore.Hbond>
3.0000

> <Gold.PLP.Chemscore.CHOScore>
0.0000

> <Gold.PLP.Chemscore.Metal>
0.0000

> <Gold.Chemscore.Hbonds>
donor molecule, donor type, donor heavy atom, donor atom, acceptor molecule, acceptor atom, score
      L1  H    12    39       P1  8028  2.00
      P1  H  7997  8008       L1     5  0.98

> <Gold.PLP.Chemscore.Internal.Correction>
0.0324

> <Gold.Rescore>
     Score         DG    S(hbond)    S(metal)    S(lipo)     H(rot)  DE(clash)    DE(int)     intcor
     14.54     -15.00       1.81        0.00      79.17       2.26       0.14       0.32       ----

> <Gold.Chemscore.Fitness>
14.5394

> <Gold.Chemscore.DG>
-15.0006

> <Gold.Chemscore.ZeroCoef>
-5.4800

> <Gold.Chemscore.Hbond>
1.8124

> <Gold.Chemscore.Metal>
0.0000

> <Gold.Chemscore.Lipo>
79.1719

> <Gold.Chemscore.Internal_Hbond>
0.0000

> <Gold.Chemscore.DEClash>
0.1427

> <Gold.Chemscore.DEInternal>
0.3185

> <Gold.Chemscore.Rot>
2.2640

> <Gold.Chemscore.Internal.Correction>
   9.000000E+99

> <Gold.Chemscore.Hbonds>
donor molecule, donor type, donor heavy atom, donor atom, acceptor molecule, acceptor atom, score
      L1  H    12    39       P1  8028  0.40
      P1  H  7997  8008       L1     5  0.92

> <Gold.Chemscore.Hbond.Weighted>
-6.0533

> <Gold.Chemscore.Metal.Weighted>
-0.0000

> <Gold.Chemscore.Lipo.Weighted>
-9.2631

> <Gold.Chemscore.Internal_Hbond.Weighted>
0.0000

> <Gold.Chemscore.DEClash.Weighted>
0.1427

> <Gold.Chemscore.DEInternal.Weighted>
0.3185

> <Gold.Chemscore.Rot.Weighted>
5.7958

> <Gold.Chemscore.Internal.Correction.Weighted>
   9.000000E+99

> <Gold.Protein.RotatedTorsions>
[ 6907 6896 6895 6894 ] final    4.93 input  -60.11 | X-H torsion
[ 7974 7965 7964 7962 ] final  -87.70 input  175.53 | X-H torsion
[ 8008 7997 7996 7995 ] final -125.42 input   59.86 | X-H torsion
[ 10167 10162 10161 10158 ] final -130.56 input  -65.29 | X-H torsion
[ 10718 10713 10712 10709 ] final  -44.53 input   66.30 | X-H torsion
[ 10763 10752 10751 10750 ] final  -16.31 input  -60.55 | X-H torsion
[ 11005 11000 10999 10996 ] final   26.94 input  -57.11 | X-H torsion

> <Gold.Protein.ActiveResidues>
 VAL166  LYS551  ARG553  GLY616  TRP617  ASP618  TYR619  PRO620  LYS621  CYS622 
 ASP623  PHE694  ASN695  SER759  ASP760  ASP761  ALA762  ILE779  LEU786  VAL792 
 PHE793  MET794  SER795  GLU796  ALA797  LYS798  CYS799  TRP800  GLU811  SER814 

> <Gold.Protein.RotatedAtoms>
  151.6493  135.1003  160.0157 H   0  0  0  0  0  0  0  0  0  0  0  0  # atno 6907 bound_to 6896
  152.4010  133.6813  159.6324 H   0  0  0  0  0  0  0  0  0  0  0  0  # atno 6908 bound_to 6896
  150.7910  133.8708  159.3299 H   0  0  0  0  0  0  0  0  0  0  0  0  # atno 6909 bound_to 6896
  145.4631  140.9561  143.1959 H   0  0  0  0  0  0  0  0  0  0  0  0  # atno 7974 bound_to 7965
  155.2130  140.0419  157.2936 H   0  0  0  0  0  0  0  0  0  0  0  0  # atno 8008 bound_to 7997
  154.5999  140.2449  155.7778 H   0  0  0  0  0  0  0  0  0  0  0  0  # atno 8009 bound_to 7997
  156.2314  140.2937  156.0208 H   0  0  0  0  0  0  0  0  0  0  0  0  # atno 8010 bound_to 7997
  139.9280  143.6304  152.2537 H   0  0  0  0  0  0  0  0  0  0  0  0  # atno 10167 bound_to 10162
  156.2376  130.4177  149.8799 H   0  0  0  0  0  0  0  0  0  0  0  0  # atno 10718 bound_to 10713
  153.5566  135.7010  153.5566 H   0  0  0  0  0  0  0  0  0  0  0  0  # atno 10763 bound_to 10752
  153.3467  135.4006  155.1614 H   0  0  0  0  0  0  0  0  0  0  0  0  # atno 10764 bound_to 10752
  154.8654  135.3755  154.5080 H   0  0  0  0  0  0  0  0  0  0  0  0  # atno 10765 bound_to 10752
  140.3316  134.2431  155.7701 H   0  0  0  0  0  0  0  0  0  0  0  0  # atno 11005 bound_to 11000
  144.7991  139.6176  143.7080 LP  0  0  0  0  0  0  0  0  0  0  0  0  # atno 17320 bound_to 7965
  146.2440  139.6059  142.9472 LP  0  0  0  0  0  0  0  0  0  0  0  0  # atno 17321 bound_to 7965
  139.6805  144.7656  151.1616 LP  0  0  0  0  0  0  0  0  0  0  0  0  # atno 17342 bound_to 10162
  140.7645  143.5731  150.8974 LP  0  0  0  0  0  0  0  0  0  0  0  0  # atno 17343 bound_to 10162
  156.6391  130.8697  151.3510 LP  0  0  0  0  0  0  0  0  0  0  0  0  # atno 17370 bound_to 10713
  157.7161  130.9499  150.1262 LP  0  0  0  0  0  0  0  0  0  0  0  0  # atno 17371 bound_to 10713
  141.2062  133.7840  157.0192 LP  0  0  0  0  0  0  0  0  0  0  0  0  # atno 17394 bound_to 11000
  140.0856  134.9623  157.1694 LP  0  0  0  0  0  0  0  0  0  0  0  0  # atno 17395 bound_to 11000

$$$$
