AV-unprocessed.smi:1993|AV-procd|sdf|8071|dock8
  -GOLD-   2272010283D 1   1.00000     0.00000
 Structure written by MMmdl.
 50 51  0  0  0  0  0  0  0  0  1 V2000
  147.8994  128.3000  152.1098 C   0  0  0  0  0  0  0  0  0  0  0  0
  147.0077  129.3584  152.7495 C   0  0  0  0  0  0  0  0  0  0  0  0
  146.3324  129.0807  153.7401 O   0  0  0  0  0  0  0  0  0  0  0  0
  147.0179  130.5713  152.1746 N   0  0  0  0  0  0  0  0  0  0  0  0
  146.2528  131.7332  152.6304 C   0  0  1  0  0  0  0  0  0  0  0  0
  146.6693  132.0485  154.0793 C   0  0  0  0  0  0  0  0  0  0  0  0
  147.8556  132.2210  154.3651 O   0  0  0  0  0  0  0  0  0  0  0  0
  145.6769  132.1350  154.9777 N   0  0  0  0  0  0  0  0  0  0  0  0
  145.8509  132.4661  156.3864 C   0  0  0  0  0  0  0  0  0  0  0  0
  144.9415  133.6015  156.8380 C   0  0  0  0  0  0  0  0  0  0  0  0
  145.1875  134.9137  156.3816 C   0  0  0  0  0  0  0  0  0  0  0  0
  144.3391  135.9555  156.7985 C   0  0  0  0  0  0  0  0  0  0  0  0
  143.2718  135.6423  157.6598 C   0  0  0  0  0  0  0  0  0  0  0  0
  143.0223  134.3926  158.1033 N   0  0  0  0  0  0  0  0  0  0  0  0
  143.8387  133.3871  157.7043 C   0  0  0  0  0  0  0  0  0  0  0  0
  143.5466  132.0944  158.1688 N   0  0  0  0  0  0  0  0  0  0  0  0
  142.2555  132.0051  158.8361 C   0  0  0  0  0  0  0  0  0  0  0  0
  141.9287  130.5357  159.1509 C   0  0  0  0  0  0  0  0  0  0  0  0
  142.9818  129.9668  159.9246 O   0  0  0  0  0  0  0  0  0  0  0  0
  144.2299  129.9969  159.2373 C   0  0  0  0  0  0  0  0  0  0  0  0
  144.6135  131.4543  158.9284 C   0  0  0  0  0  0  0  0  0  0  0  0
  146.5761  132.9434  151.7042 C   0  0  0  0  0  0  0  0  0  0  0  0
  145.9513  134.2654  152.1963 C   0  0  0  0  0  0  0  0  0  0  0  0
  146.1316  132.6895  150.2502 C   0  0  0  0  0  0  0  0  0  0  0  0
  147.8183  128.3301  151.0227 H   0  0  0  0  0  0  0  0  0  0  0  0
  147.6154  127.3018  152.4446 H   0  0  0  0  0  0  0  0  0  0  0  0
  148.9408  128.4692  152.3840 H   0  0  0  0  0  0  0  0  0  0  0  0
  147.6104  130.7085  151.3687 H   0  0  0  0  0  0  0  0  0  0  0  0
  145.1833  131.5163  152.5840 H   0  0  0  0  0  0  0  0  0  0  0  0
  144.7326  131.9716  154.6602 H   0  0  0  0  0  0  0  0  0  0  0  0
  145.6405  131.5763  156.9803 H   0  0  0  0  0  0  0  0  0  0  0  0
  146.8934  132.7174  156.5879 H   0  0  0  0  0  0  0  0  0  0  0  0
  146.0134  135.1207  155.7171 H   0  0  0  0  0  0  0  0  0  0  0  0
  144.5021  136.9695  156.4650 H   0  0  0  0  0  0  0  0  0  0  0  0
  142.5988  136.4151  158.0006 H   0  0  0  0  0  0  0  0  0  0  0  0
  142.2777  132.5895  159.7570 H   0  0  0  0  0  0  0  0  0  0  0  0
  141.4797  132.4321  158.2018 H   0  0  0  0  0  0  0  0  0  0  0  0
  140.9973  130.4694  159.7131 H   0  0  0  0  0  0  0  0  0  0  0  0
  141.7887  129.9644  158.2318 H   0  0  0  0  0  0  0  0  0  0  0  0
  144.9920  129.5312  159.8620 H   0  0  0  0  0  0  0  0  0  0  0  0
  144.1656  129.4089  158.3204 H   0  0  0  0  0  0  0  0  0  0  0  0
  145.5431  131.4867  158.3591 H   0  0  0  0  0  0  0  0  0  0  0  0
  144.7833  131.9956  159.8601 H   0  0  0  0  0  0  0  0  0  0  0  0
  147.6581  133.0862  151.6851 H   0  0  0  0  0  0  0  0  0  0  0  0
  144.8654  134.1891  152.2510 H   0  0  0  0  0  0  0  0  0  0  0  0
  146.1883  135.0854  151.5182 H   0  0  0  0  0  0  0  0  0  0  0  0
  146.3179  134.5566  153.1808 H   0  0  0  0  0  0  0  0  0  0  0  0
  145.0591  132.5001  150.1933 H   0  0  0  0  0  0  0  0  0  0  0  0
  146.6443  131.8348  149.8090 H   0  0  0  0  0  0  0  0  0  0  0  0
  146.3495  133.5501  149.6170 H   0  0  0  0  0  0  0  0  0  0  0  0
  1  2  1  0  0  0  0
  1 25  1  0  0  0  0
  1 26  1  0  0  0  0
  1 27  1  0  0  0  0
  2  3  2  0  0  0  0
  2  4  1  0  0  0  0
  4  5  1  0  0  0  0
  4 28  1  0  0  0  0
  5  6  1  0  0  0  0
  5 22  1  0  0  0  0
  5 29  1  0  0  0  0
  6  7  2  0  0  0  0
  6  8  1  0  0  0  0
  8  9  1  0  0  0  0
  8 30  1  0  0  0  0
  9 10  1  0  0  0  0
  9 31  1  0  0  0  0
  9 32  1  0  0  0  0
 10 15  1  0  0  0  0
 10 11  2  0  0  0  0
 11 12  1  0  0  0  0
 11 33  1  0  0  0  0
 12 13  2  0  0  0  0
 12 34  1  0  0  0  0
 13 14  1  0  0  0  0
 13 35  1  0  0  0  0
 14 15  2  0  0  0  0
 15 16  1  0  0  0  0
 16 21  1  0  0  0  0
 16 17  1  0  0  0  0
 17 18  1  0  0  0  0
 17 36  1  0  0  0  0
 17 37  1  0  0  0  0
 18 19  1  0  0  0  0
 18 38  1  0  0  0  0
 18 39  1  0  0  0  0
 19 20  1  0  0  0  0
 20 21  1  0  0  0  0
 20 40  1  0  0  0  0
 20 41  1  0  0  0  0
 21 42  1  0  0  0  0
 21 43  1  0  0  0  0
 22 23  1  0  0  0  0
 22 24  1  0  0  0  0
 22 44  1  0  0  0  0
 23 45  1  0  0  0  0
 23 46  1  0  0  0  0
 23 47  1  0  0  0  0
 24 48  1  0  0  0  0
 24 49  1  0  0  0  0
 24 50  1  0  0  0  0
M  END
> <s_m_source_file>
AV-unprocessed.smi

> <i_m_source_file_index>
1993

> <i_lp_mmshare_version>
43012

> <i_f3d_flags>
0

> <s_epik_input>
W0NIM11DKD1PKVtOSF1bQ0BASF0oW0NIXShbQ0gzXSlbQ0gzXSlDKD1PKVtOSF1bQ0gyXWMxW2NIXVtjSF1bY0hdbmMxTjJbQ0gyXVtDSDJdT1tDSDJdW0NIMl0y

> <s_epik_cmdline>
J2VwaWtfcHl0aG9uJywgJy1waCcsICc3LjAnLCAnLXRuJywgJzgnLCAnLW1hJywgJzIwMCcsICctbWV0YWxfYmluZGluZycsICctaW1hZScsICc8aW5maWxlLm1hZT4nLCAnLW9tYWUnLCAnPG91dGZpbGUubWFlPic=

> <r_lp_tautomer_probability>
1

> <r_epik_Ionization_Penalty>
0.00485175

> <r_epik_Ionization_Penalty_Charging>
0

> <r_epik_Ionization_Penalty_Neutral>
0.00485175

> <r_epik_State_Penalty>
0.00351951

> <r_epik_Charging_Adjusted_Penalty>
0.00351951

> <i_epik_Tot_Q>
0

> <i_epik_Tot_abs_Q>
0

> <r_epik_Metal_State_Penalty>
-0

> <b_epik_Metal_Only>
0

> <s_lp_Force_Field>
OPLS_2005

> <r_lp_Energy>
18.9648

> <b_lp_Chiralities_Consistent>
1

> <s_lp_Variant>
AV-unprocessed.smi:1993-2

> <Gold.Version>
5.8.1

> <Gold.Id.Protein>
6NUR|6NUR_protein|mol2

> <Gold.PLP.Fitness>
34.1854

> <Gold.PLP.PLP>
-25.8425

> <Gold.PLP.part.hbond>
-3.0000

> <Gold.PLP.part.metal>
0.0000

> <Gold.PLP.part.buried>
-6.2837

> <Gold.PLP.part.nonpolar>
-18.3972

> <Gold.PLP.part.repulsive>
0.4009

> <Gold.PLP.ligand.clash>
0.0000

> <Gold.PLP.ligand.torsion>
0.3241

> <Gold.PLP.Chemscore.Hbond>
2.9413

> <Gold.PLP.Chemscore.CHOScore>
0.0000

> <Gold.PLP.Chemscore.Metal>
0.0000

> <Gold.Chemscore.Hbonds>
donor molecule, donor type, donor heavy atom, donor atom, acceptor molecule, acceptor atom, score
      L1  H     4    28       P1 10747  1.00
      L1  H     8    30       P1 10957  0.91
      P1  H 11000 11005       L1    14  0.80

> <Gold.PLP.Chemscore.Internal.Correction>
0.1675

> <Gold.Rescore>
     Score         DG    S(hbond)    S(metal)    S(lipo)     H(rot)  DE(clash)    DE(int)     intcor
     10.88     -11.48       1.66        0.00      51.71       2.18       0.01       0.59       ----

> <Gold.Chemscore.Fitness>
10.8801

> <Gold.Chemscore.DG>
-11.4827

> <Gold.Chemscore.ZeroCoef>
-5.4800

> <Gold.Chemscore.Hbond>
1.6578

> <Gold.Chemscore.Metal>
0.0000

> <Gold.Chemscore.Lipo>
51.7067

> <Gold.Chemscore.Internal_Hbond>
0.0000

> <Gold.Chemscore.DEClash>
0.0105

> <Gold.Chemscore.DEInternal>
0.5921

> <Gold.Chemscore.Rot>
2.1813

> <Gold.Chemscore.Internal.Correction>
   9.000000E+99

> <Gold.Chemscore.Hbonds>
donor molecule, donor type, donor heavy atom, donor atom, acceptor molecule, acceptor atom, score
      L1  H     4    28       P1 10747  1.00
      L1  H     8    30       P1 10957  0.19
      P1  H 11000 11005       L1    14  0.17

> <Gold.Chemscore.Hbond.Weighted>
-5.5372

> <Gold.Chemscore.Metal.Weighted>
-0.0000

> <Gold.Chemscore.Lipo.Weighted>
-6.0497

> <Gold.Chemscore.Internal_Hbond.Weighted>
0.0000

> <Gold.Chemscore.DEClash.Weighted>
0.0105

> <Gold.Chemscore.DEInternal.Weighted>
0.5921

> <Gold.Chemscore.Rot.Weighted>
5.5842

> <Gold.Chemscore.Internal.Correction.Weighted>
   9.000000E+99

> <Gold.Protein.RotatedTorsions>
[ 6907 6896 6895 6894 ] final   45.08 input  -60.11 | X-H torsion
[ 7974 7965 7964 7962 ] final   34.12 input  175.53 | X-H torsion
[ 8008 7997 7996 7995 ] final   30.70 input   59.86 | X-H torsion
[ 10167 10162 10161 10158 ] final -165.34 input  -65.29 | X-H torsion
[ 10718 10713 10712 10709 ] final    4.78 input   66.30 | X-H torsion
[ 10763 10752 10751 10750 ] final -110.04 input  -60.55 | X-H torsion
[ 11005 11000 10999 10996 ] final -118.92 input  -57.11 | X-H torsion

> <Gold.Protein.ActiveResidues>
 VAL166  LYS551  ARG553  GLY616  TRP617  ASP618  TYR619  PRO620  LYS621  CYS622 
 ASP623  PHE694  ASN695  SER759  ASP760  ASP761  ALA762  ILE779  LEU786  VAL792 
 PHE793  MET794  SER795  GLU796  ALA797  LYS798  CYS799  TRP800  GLU811  SER814 

> <Gold.Protein.RotatedAtoms>
  152.2402  134.8236  160.0461 H   0  0  0  0  0  0  0  0  0  0  0  0  # atno 6907 bound_to 6896
  151.8953  133.3520  159.3820 H   0  0  0  0  0  0  0  0  0  0  0  0  # atno 6908 bound_to 6896
  150.7051  134.4809  159.5514 H   0  0  0  0  0  0  0  0  0  0  0  0  # atno 6909 bound_to 6896
  146.1374  139.6309  142.9186 H   0  0  0  0  0  0  0  0  0  0  0  0  # atno 7974 bound_to 7965
  155.0946  140.3223  155.4564 H   0  0  0  0  0  0  0  0  0  0  0  0  # atno 8008 bound_to 7997
  156.2733  140.2072  156.6020 H   0  0  0  0  0  0  0  0  0  0  0  0  # atno 8009 bound_to 7997
  154.6876  140.0519  157.0318 H   0  0  0  0  0  0  0  0  0  0  0  0  # atno 8010 bound_to 7997
  139.6188  144.0665  152.1913 H   0  0  0  0  0  0  0  0  0  0  0  0  # atno 10167 bound_to 10162
  156.8976  130.5710  149.5648 H   0  0  0  0  0  0  0  0  0  0  0  0  # atno 10718 bound_to 10713
  154.8226  135.4579  154.0825 H   0  0  0  0  0  0  0  0  0  0  0  0  # atno 10763 bound_to 10752
  153.2165  135.6888  153.8057 H   0  0  0  0  0  0  0  0  0  0  0  0  # atno 10764 bound_to 10752
  153.7490  135.3301  155.3294 H   0  0  0  0  0  0  0  0  0  0  0  0  # atno 10765 bound_to 10752
  141.0252  134.0064  157.3224 H   0  0  0  0  0  0  0  0  0  0  0  0  # atno 11005 bound_to 11000
  145.5124  141.0435  143.2480 LP  0  0  0  0  0  0  0  0  0  0  0  0  # atno 17320 bound_to 7965
  144.7755  139.6640  143.7177 LP  0  0  0  0  0  0  0  0  0  0  0  0  # atno 17321 bound_to 7965
  140.0302  144.6087  150.7494 LP  0  0  0  0  0  0  0  0  0  0  0  0  # atno 17342 bound_to 10162
  140.7369  143.2758  151.3745 LP  0  0  0  0  0  0  0  0  0  0  0  0  # atno 17343 bound_to 10162
  156.0598  130.5652  150.9168 LP  0  0  0  0  0  0  0  0  0  0  0  0  # atno 17370 bound_to 10713
  157.6046  131.0939  150.8902 LP  0  0  0  0  0  0  0  0  0  0  0  0  # atno 17371 bound_to 10713
  139.9171  135.0198  156.7924 LP  0  0  0  0  0  0  0  0  0  0  0  0  # atno 17394 bound_to 11000
  140.6503  133.9737  155.7752 LP  0  0  0  0  0  0  0  0  0  0  0  0  # atno 17395 bound_to 11000

$$$$
