AV-unprocessed.smi:3115|AV-procd|sdf|11859|dock6
  -GOLD-   2272017243D 1   1.00000     0.00000
 Structure written by MMmdl.
 33 34  0  0  0  0  0  0  0  0  2 V2000
  152.7231  142.4339  161.8502 C   0  0  0  0  0  0  0  0  0  0  0  0
  152.8365  142.8747  160.3872 C   0  0  1  0  0  0  0  0  0  0  0  0
  152.1198  141.9013  159.4312 C   0  0  0  0  0  0  0  0  0  0  0  0
  152.1766  142.4066  158.0648 N   0  0  0  0  0  0  0  0  0  0  0  0
  151.6478  141.5180  157.1180 C   0  0  0  0  0  0  0  0  0  0  0  0
  150.3253  141.7093  156.6645 C   0  0  0  0  0  0  0  0  0  0  0  0
  149.8008  140.8172  155.7069 C   0  0  0  0  0  0  0  0  0  0  0  0
  148.3856  140.9781  155.1926 C   0  0  0  0  0  0  0  0  0  0  0  0
  147.7353  142.1409  155.8176 N   0  3  0  0  0  0  0  0  0  0  0  0
  150.6171  139.7658  155.2433 C   0  0  0  0  0  0  0  0  0  0  0  0
  151.9235  139.6554  155.7579 C   0  0  0  0  0  0  0  0  0  0  0  0
  152.4321  140.5069  156.6734 N   0  0  0  0  0  0  0  0  0  0  0  0
  151.6461  143.7593  157.9512 C   0  0  0  0  0  0  0  0  0  0  0  0
  152.3660  144.6909  158.9410 C   0  0  0  0  0  0  0  0  0  0  0  0
  152.2483  144.1675  160.2612 O   0  0  0  0  0  0  0  0  0  0  0  0
  153.1701  141.4508  161.9996 H   0  0  0  0  0  0  0  0  0  0  0  0
  151.6810  142.3796  162.1660 H   0  0  0  0  0  0  0  0  0  0  0  0
  153.2351  143.1353  162.5093 H   0  0  0  0  0  0  0  0  0  0  0  0
  153.8941  142.9366  160.1240 H   0  0  0  0  0  0  0  0  0  0  0  0
  152.5870  140.9167  159.4775 H   0  0  0  0  0  0  0  0  0  0  0  0
  151.0792  141.7799  159.7364 H   0  0  0  0  0  0  0  0  0  0  0  0
  149.7291  142.5270  157.0431 H   0  0  0  0  0  0  0  0  0  0  0  0
  148.3920  141.1059  154.1096 H   0  0  0  0  0  0  0  0  0  0  0  0
  147.8065  140.0797  155.4091 H   0  0  0  0  0  0  0  0  0  0  0  0
  146.8757  142.3508  155.3309 H   0  0  0  0  0  0  0  0  0  0  0  0
  148.3548  142.9371  155.7695 H   0  0  0  0  0  0  0  0  0  0  0  0
  150.2555  139.0586  154.5112 H   0  0  0  0  0  0  0  0  0  0  0  0
  152.5767  138.8618  155.4260 H   0  0  0  0  0  0  0  0  0  0  0  0
  151.7762  144.1234  156.9314 H   0  0  0  0  0  0  0  0  0  0  0  0
  150.5753  143.7555  158.1600 H   0  0  0  0  0  0  0  0  0  0  0  0
  153.4184  144.8038  158.6760 H   0  0  0  0  0  0  0  0  0  0  0  0
  151.9213  145.6856  158.9121 H   0  0  0  0  0  0  0  0  0  0  0  0
  147.5336  141.9311  156.7847 H   0  0  0  0  0  0  0  0  0  0  0  0
  1  2  1  0  0  0  0
  1 16  1  0  0  0  0
  1 17  1  0  0  0  0
  1 18  1  0  0  0  0
  2 15  1  0  0  0  0
  2  3  1  0  0  0  0
  2 19  1  0  0  0  0
  3  4  1  0  0  0  0
  3 20  1  0  0  0  0
  3 21  1  0  0  0  0
  4  5  1  0  0  0  0
  4 13  1  0  0  0  0
  5 12  1  0  0  0  0
  5  6  2  0  0  0  0
  6  7  1  0  0  0  0
  6 22  1  0  0  0  0
  7  8  1  0  0  0  0
  7 10  2  0  0  0  0
  8  9  1  0  0  0  0
  8 23  1  0  0  0  0
  8 24  1  0  0  0  0
  9 25  1  0  0  0  0
  9 26  1  0  0  0  0
  9 33  1  0  0  0  0
 10 11  1  0  0  0  0
 10 27  1  0  0  0  0
 11 12  2  0  0  0  0
 11 28  1  0  0  0  0
 13 14  1  0  0  0  0
 13 29  1  0  0  0  0
 13 30  1  0  0  0  0
 14 15  1  0  0  0  0
 14 31  1  0  0  0  0
 14 32  1  0  0  0  0
M  CHG  1   9   1
M  END
> <s_m_source_file>
AV-unprocessed.smi

> <i_m_source_file_index>
3115

> <i_lp_mmshare_version>
43012

> <i_f3d_flags>
0

> <s_epik_input>
W0NIM11bQ0BASF0xW0NIMl1OKFtDSDJdW0NIMl1PMSljMltjSF1jKFtDSDJdW05IMl0pW2NIXVtjSF1uMg==

> <s_epik_cmdline>
J2VwaWtfcHl0aG9uJywgJy1waCcsICc3LjAnLCAnLXRuJywgJzgnLCAnLW1hJywgJzIwMCcsICctbWV0YWxfYmluZGluZycsICctaW1hZScsICc8aW5maWxlLm1hZT4nLCAnLW9tYWUnLCAnPG91dGZpbGUubWFlPic=

> <r_lp_tautomer_probability>
1

> <r_epik_Ionization_Penalty>
0.0768907

> <r_epik_Ionization_Penalty_Charging>
0.0768864

> <r_epik_Ionization_Penalty_Neutral>
4.339e-06

> <r_epik_State_Penalty>
0.0093217

> <r_epik_Charging_Adjusted_Penalty>
0.0862081

> <i_epik_Tot_Q>
1

> <i_epik_Tot_abs_Q>
1

> <r_epik_Metal_State_Penalty>
0.0096683

> <b_epik_Metal_Only>
0

> <s_lp_Force_Field>
OPLS_2005

> <r_lp_Energy>
14.3897

> <b_lp_Chiralities_Consistent>
1

> <s_lp_Variant>
AV-unprocessed.smi:3115-2

> <Gold.Version>
5.8.1

> <Gold.Id.Protein>
6NUR|6NUR_protein|mol2

> <Gold.PLP.Fitness>
40.0075

> <Gold.PLP.PLP>
-32.3187

> <Gold.PLP.part.hbond>
-2.0000

> <Gold.PLP.part.metal>
0.0000

> <Gold.PLP.part.buried>
-1.7142

> <Gold.PLP.part.nonpolar>
-28.6188

> <Gold.PLP.part.repulsive>
0.1322

> <Gold.PLP.ligand.clash>
0.0000

> <Gold.PLP.ligand.torsion>
0.6797

> <Gold.PLP.Chemscore.Hbond>
2.9833

> <Gold.PLP.Chemscore.CHOScore>
0.0000

> <Gold.PLP.Chemscore.Metal>
0.0000

> <Gold.Chemscore.Hbonds>
donor molecule, donor type, donor heavy atom, donor atom, acceptor molecule, acceptor atom, score
      L1  H     9    26       P1  8028  2.00
      P1  H  7997  8008       L1    12  0.91

> <Gold.PLP.Chemscore.Internal.Correction>
0.0983

> <Gold.Rescore>
     Score         DG    S(hbond)    S(metal)    S(lipo)     H(rot)  DE(clash)    DE(int)     intcor
     16.55     -17.38       1.45        0.00      88.85       1.30       0.15       0.68       ----

> <Gold.Chemscore.Fitness>
16.5503

> <Gold.Chemscore.DG>
-17.3831

> <Gold.Chemscore.ZeroCoef>
-5.4800

> <Gold.Chemscore.Hbond>
1.4512

> <Gold.Chemscore.Metal>
0.0000

> <Gold.Chemscore.Lipo>
88.8495

> <Gold.Chemscore.Internal_Hbond>
0.0000

> <Gold.Chemscore.DEClash>
0.1534

> <Gold.Chemscore.DEInternal>
0.6793

> <Gold.Chemscore.Rot>
1.3045

> <Gold.Chemscore.Internal.Correction>
   9.000000E+99

> <Gold.Chemscore.Hbonds>
donor molecule, donor type, donor heavy atom, donor atom, acceptor molecule, acceptor atom, score
      L1  H     9    26       P1  8028  0.96
      P1  H  7997  8008       L1    12  0.23

> <Gold.Chemscore.Hbond.Weighted>
-4.8472

> <Gold.Chemscore.Metal.Weighted>
-0.0000

> <Gold.Chemscore.Lipo.Weighted>
-10.3954

> <Gold.Chemscore.Internal_Hbond.Weighted>
0.0000

> <Gold.Chemscore.DEClash.Weighted>
0.1534

> <Gold.Chemscore.DEInternal.Weighted>
0.6793

> <Gold.Chemscore.Rot.Weighted>
3.3395

> <Gold.Chemscore.Internal.Correction.Weighted>
   9.000000E+99

> <Gold.Protein.RotatedTorsions>
[ 6907 6896 6895 6894 ] final  -86.84 input  -60.11 | X-H torsion
[ 7974 7965 7964 7962 ] final -151.38 input  175.53 | X-H torsion
[ 8008 7997 7996 7995 ] final  -48.39 input   59.86 | X-H torsion
[ 10167 10162 10161 10158 ] final -122.41 input  -65.29 | X-H torsion
[ 10718 10713 10712 10709 ] final  -79.69 input   66.30 | X-H torsion
[ 10763 10752 10751 10750 ] final    4.35 input  -60.55 | X-H torsion
[ 11005 11000 10999 10996 ] final  102.55 input  -57.11 | X-H torsion

> <Gold.Protein.ActiveResidues>
 VAL166  LYS551  ARG553  GLY616  TRP617  ASP618  TYR619  PRO620  LYS621  CYS622 
 ASP623  PHE694  ASN695  SER759  ASP760  ASP761  ALA762  ILE779  LEU786  VAL792 
 PHE793  MET794  SER795  GLU796  ALA797  LYS798  CYS799  TRP800  GLU811  SER814 

> <Gold.Protein.RotatedAtoms>
  150.6866  134.2989  159.4697 H   0  0  0  0  0  0  0  0  0  0  0  0  # atno 6907 bound_to 6896
  152.0887  134.9419  160.0581 H   0  0  0  0  0  0  0  0  0  0  0  0  # atno 6908 bound_to 6896
  152.0744  133.4087  159.4510 H   0  0  0  0  0  0  0  0  0  0  0  0  # atno 6909 bound_to 6896
  144.7853  140.4805  143.5810 H   0  0  0  0  0  0  0  0  0  0  0  0  # atno 7974 bound_to 7965
  154.4028  140.1323  156.4330 H   0  0  0  0  0  0  0  0  0  0  0  0  # atno 8008 bound_to 7997
  155.7532  140.3487  155.5141 H   0  0  0  0  0  0  0  0  0  0  0  0  # atno 8009 bound_to 7997
  155.8929  140.1006  157.1395 H   0  0  0  0  0  0  0  0  0  0  0  0  # atno 8010 bound_to 7997
  140.0145  143.5407  152.2248 H   0  0  0  0  0  0  0  0  0  0  0  0  # atno 10167 bound_to 10162
  156.0087  130.4553  150.3687 H   0  0  0  0  0  0  0  0  0  0  0  0  # atno 10718 bound_to 10713
  153.2723  135.6933  153.7468 H   0  0  0  0  0  0  0  0  0  0  0  0  # atno 10763 bound_to 10752
  153.6487  135.3380  155.3094 H   0  0  0  0  0  0  0  0  0  0  0  0  # atno 10764 bound_to 10752
  154.8468  135.4449  154.1749 H   0  0  0  0  0  0  0  0  0  0  0  0  # atno 10765 bound_to 10752
  139.8778  134.9228  156.5076 H   0  0  0  0  0  0  0  0  0  0  0  0  # atno 11005 bound_to 11000
  145.5939  139.1498  143.3167 LP  0  0  0  0  0  0  0  0  0  0  0  0  # atno 17320 bound_to 7965
  146.2082  140.6063  142.9072 LP  0  0  0  0  0  0  0  0  0  0  0  0  # atno 17321 bound_to 7965
  139.6182  144.7624  151.2799 LP  0  0  0  0  0  0  0  0  0  0  0  0  # atno 17342 bound_to 10162
  140.7368  143.6697  150.8092 LP  0  0  0  0  0  0  0  0  0  0  0  0  # atno 17343 bound_to 10162
  157.1772  131.0383  151.2766 LP  0  0  0  0  0  0  0  0  0  0  0  0  # atno 17370 bound_to 10713
  157.4177  130.7420  149.6889 LP  0  0  0  0  0  0  0  0  0  0  0  0  # atno 17371 bound_to 10713
  140.8544  133.8107  155.9201 LP  0  0  0  0  0  0  0  0  0  0  0  0  # atno 17394 bound_to 11000
  140.9112  134.2258  157.4984 LP  0  0  0  0  0  0  0  0  0  0  0  0  # atno 17395 bound_to 11000

$$$$
