AV-unprocessed.smi:225|AV-procd|sdf|1723|dock3
  -GOLD-   2262020203D 1   1.00000     0.00000
 Structure written by MMmdl.
 56 59  0  0  0  0  0  0  0  0  1 V2000
  149.1780  141.1142  153.2299 O   0  0  0  0  0  0  0  0  0  0  0  0
  149.4074  141.3963  154.5929 C   0  0  0  0  0  0  0  0  0  0  0  0
  149.7264  140.0905  155.3405 C   0  0  0  0  0  0  0  0  0  0  0  0
  150.2880  140.3214  156.6747 N   0  0  0  0  0  0  0  0  0  0  0  0
  151.3849  141.2841  156.7861 C   0  0  0  0  0  0  0  0  0  0  0  0
  151.1767  142.3212  157.9102 C   0  0  0  0  0  0  0  0  0  0  0  0
  151.1370  143.7490  157.3302 C   0  0  0  0  0  0  0  0  0  0  0  0
  150.9250  144.8042  158.4285 C   0  0  0  0  0  0  0  0  0  0  0  0
  152.0013  144.6972  159.5193 C   0  0  0  0  0  0  0  0  0  0  0  0
  152.0554  143.2775  160.1039 C   0  0  0  0  0  0  0  0  0  0  0  0
  152.2656  142.2284  159.0004 C   0  0  0  0  0  0  0  0  0  0  0  0
  150.4378  139.2459  157.4908 C   0  0  0  0  0  0  0  0  0  0  0  0
  151.6821  138.8219  157.8400 N   0  0  0  0  0  0  0  0  0  0  0  0
  151.8344  137.7710  158.6513 C   0  0  0  0  0  0  0  0  0  0  0  0
  150.8950  137.0150  159.2224 N   0  0  0  0  0  0  0  0  0  0  0  0
  149.6444  137.4380  158.8802 C   0  0  0  0  0  0  0  0  0  0  0  0
  149.3293  138.5324  158.0263 C   0  0  0  0  0  0  0  0  0  0  0  0
  147.9511  138.6519  157.8999 N   0  0  0  0  0  0  0  0  0  0  0  0
  147.4778  137.6890  158.6424 C   0  0  0  0  0  0  0  0  0  0  0  0
  148.4250  136.9162  159.2754 N   0  0  0  0  0  0  0  0  0  0  0  0
  148.1816  135.7883  160.1611 C   0  0  0  0  0  0  0  0  0  0  0  0
  147.2268  136.1215  161.3312 C   0  0  1  0  0  0  0  0  0  0  0  0
  147.4605  137.4532  161.7555 O   0  0  0  0  0  0  0  0  0  0  0  0
  145.7458  135.9767  160.9882 C   0  0  0  0  0  0  0  0  0  0  0  0
  145.1335  135.5177  162.3040 C   0  0  0  0  0  0  0  0  0  0  0  0
  146.1153  134.6255  162.8015 O   0  0  0  0  0  0  0  0  0  0  0  0
  147.3990  135.1844  162.5437 C   0  0  0  0  0  0  0  0  0  0  0  0
  149.6551  140.3313  153.0011 H   0  0  0  0  0  0  0  0  0  0  0  0
  150.2394  142.0963  154.6750 H   0  0  0  0  0  0  0  0  0  0  0  0
  148.5246  141.8889  155.0001 H   0  0  0  0  0  0  0  0  0  0  0  0
  148.8319  139.4710  155.4188 H   0  0  0  0  0  0  0  0  0  0  0  0
  150.4328  139.5117  154.7467 H   0  0  0  0  0  0  0  0  0  0  0  0
  152.3412  140.7803  156.9353 H   0  0  0  0  0  0  0  0  0  0  0  0
  151.4687  141.8010  155.8293 H   0  0  0  0  0  0  0  0  0  0  0  0
  150.2114  142.1396  158.3825 H   0  0  0  0  0  0  0  0  0  0  0  0
  152.0675  143.9587  156.8008 H   0  0  0  0  0  0  0  0  0  0  0  0
  150.3385  143.8292  156.5918 H   0  0  0  0  0  0  0  0  0  0  0  0
  150.9375  145.8031  157.9916 H   0  0  0  0  0  0  0  0  0  0  0  0
  149.9384  144.6745  158.8746 H   0  0  0  0  0  0  0  0  0  0  0  0
  152.9739  144.9575  159.0997 H   0  0  0  0  0  0  0  0  0  0  0  0
  151.8023  145.4195  160.3116 H   0  0  0  0  0  0  0  0  0  0  0  0
  152.8577  143.2091  160.8389 H   0  0  0  0  0  0  0  0  0  0  0  0
  151.1281  143.0654  160.6377 H   0  0  0  0  0  0  0  0  0  0  0  0
  152.2698  141.2335  159.4466 H   0  0  0  0  0  0  0  0  0  0  0  0
  153.2492  142.3704  158.5509 H   0  0  0  0  0  0  0  0  0  0  0  0
  152.8548  137.4981  158.8762 H   0  0  0  0  0  0  0  0  0  0  0  0
  146.4169  137.5180  158.7515 H   0  0  0  0  0  0  0  0  0  0  0  0
  147.7730  134.9719  159.5643 H   0  0  0  0  0  0  0  0  0  0  0  0
  149.1405  135.4356  160.5439 H   0  0  0  0  0  0  0  0  0  0  0  0
  147.0920  137.5620  162.6188 H   0  0  0  0  0  0  0  0  0  0  0  0
  145.2917  136.8876  160.5952 H   0  0  0  0  0  0  0  0  0  0  0  0
  145.6047  135.1893  160.2468 H   0  0  0  0  0  0  0  0  0  0  0  0
  145.0081  136.3535  162.9941 H   0  0  0  0  0  0  0  0  0  0  0  0
  144.1694  135.0259  162.1742 H   0  0  0  0  0  0  0  0  0  0  0  0
  148.1098  134.3800  162.3523 H   0  0  0  0  0  0  0  0  0  0  0  0
  147.7445  135.7198  163.4297 H   0  0  0  0  0  0  0  0  0  0  0  0
  1  2  1  0  0  0  0
  1 28  1  0  0  0  0
  2  3  1  0  0  0  0
  2 29  1  0  0  0  0
  2 30  1  0  0  0  0
  3  4  1  0  0  0  0
  3 31  1  0  0  0  0
  3 32  1  0  0  0  0
  4  5  1  0  0  0  0
  4 12  1  0  0  0  0
  5  6  1  0  0  0  0
  5 33  1  0  0  0  0
  5 34  1  0  0  0  0
  6 11  1  0  0  0  0
  6  7  1  0  0  0  0
  6 35  1  0  0  0  0
  7  8  1  0  0  0  0
  7 36  1  0  0  0  0
  7 37  1  0  0  0  0
  8  9  1  0  0  0  0
  8 38  1  0  0  0  0
  8 39  1  0  0  0  0
  9 10  1  0  0  0  0
  9 40  1  0  0  0  0
  9 41  1  0  0  0  0
 10 11  1  0  0  0  0
 10 42  1  0  0  0  0
 10 43  1  0  0  0  0
 11 44  1  0  0  0  0
 11 45  1  0  0  0  0
 12 17  1  0  0  0  0
 12 13  2  0  0  0  0
 13 14  1  0  0  0  0
 14 15  2  0  0  0  0
 14 46  1  0  0  0  0
 15 16  1  0  0  0  0
 16 20  1  0  0  0  0
 16 17  2  0  0  0  0
 17 18  1  0  0  0  0
 18 19  2  0  0  0  0
 19 20  1  0  0  0  0
 19 47  1  0  0  0  0
 20 21  1  0  0  0  0
 21 22  1  0  0  0  0
 21 48  1  0  0  0  0
 21 49  1  0  0  0  0
 22 27  1  0  0  0  0
 22 23  1  0  0  0  0
 22 24  1  0  0  0  0
 23 50  1  0  0  0  0
 24 25  1  0  0  0  0
 24 51  1  0  0  0  0
 24 52  1  0  0  0  0
 25 26  1  0  0  0  0
 25 53  1  0  0  0  0
 25 54  1  0  0  0  0
 26 27  1  0  0  0  0
 27 55  1  0  0  0  0
 27 56  1  0  0  0  0
M  END
> <s_m_source_file>
AV-unprocessed.smi

> <i_m_source_file_index>
225

> <i_lp_mmshare_version>
43012

> <i_f3d_flags>
0

> <s_epik_input>
W0NIMl0xW0NIMl1bQ0gyXVtDSDJdW0NIMl1bQ0hdMVtDSDJdTihbQ0gyXVtDSDJdW09IXSljKG5bY0hdbjIpYyhjMjMpbltjSF1uM1tDSDJdW0NAQF00KFtPSF0pW0NIMl1bQ0gyXU9bQ0gyXTQ=

> <s_epik_cmdline>
J2VwaWtfcHl0aG9uJywgJy1waCcsICc3LjAnLCAnLXRuJywgJzgnLCAnLW1hJywgJzIwMCcsICctbWV0YWxfYmluZGluZycsICctaW1hZScsICc8aW5maWxlLm1hZT4nLCAnLW9tYWUnLCAnPG91dGZpbGUubWFlPic=

> <r_lp_tautomer_probability>
1

> <r_epik_Ionization_Penalty>
0.00405109

> <r_epik_Ionization_Penalty_Charging>
0

> <r_epik_Ionization_Penalty_Neutral>
0.00405109

> <r_epik_State_Penalty>
0.00270467

> <r_epik_Charging_Adjusted_Penalty>
0.00270467

> <i_epik_Tot_Q>
0

> <i_epik_Tot_abs_Q>
0

> <r_epik_Metal_State_Penalty>
-0

> <b_epik_Metal_Only>
0

> <s_lp_Force_Field>
OPLS_2005

> <r_lp_Energy>
35.3167

> <b_lp_Chiralities_Consistent>
1

> <s_lp_Variant>
AV-unprocessed.smi:225-1

> <Gold.Version>
5.8.1

> <Gold.Id.Protein>
6NUR|6NUR_protein|mol2

> <Gold.PLP.Fitness>
62.2637

> <Gold.PLP.PLP>
-53.7325

> <Gold.PLP.part.hbond>
-6.6234

> <Gold.PLP.part.metal>
0.0000

> <Gold.PLP.part.buried>
-7.3936

> <Gold.PLP.part.nonpolar>
-38.8957

> <Gold.PLP.part.repulsive>
0.0053

> <Gold.PLP.ligand.clash>
0.0000

> <Gold.PLP.ligand.torsion>
2.2168

> <Gold.PLP.Chemscore.Hbond>
3.8746

> <Gold.PLP.Chemscore.CHOScore>
0.0000

> <Gold.PLP.Chemscore.Metal>
0.0000

> <Gold.Chemscore.Hbonds>
donor molecule, donor type, donor heavy atom, donor atom, acceptor molecule, acceptor atom, score
      L1  H     1    28       P1  7957  0.22
      P1  H  6896  6907       L1    15  0.99
      P1  H  6931  6943       L1    23  0.80
      P1  H  6934  6947       L1    23  0.72
      P1  H  8011  8017       L1     1  1.00

> <Gold.PLP.Chemscore.Internal.Correction>
1.3412

> <Gold.Rescore>
     Score         DG    S(hbond)    S(metal)    S(lipo)     H(rot)  DE(clash)    DE(int)     intcor
     17.85     -20.40       3.28        0.00     116.19       3.76       0.22       2.34       ----

> <Gold.Chemscore.Fitness>
17.8476

> <Gold.Chemscore.DG>
-20.4026

> <Gold.Chemscore.ZeroCoef>
-5.4800

> <Gold.Chemscore.Hbond>
3.2829

> <Gold.Chemscore.Metal>
0.0000

> <Gold.Chemscore.Lipo>
116.1925

> <Gold.Chemscore.Internal_Hbond>
0.0000

> <Gold.Chemscore.DEClash>
0.2174

> <Gold.Chemscore.DEInternal>
2.3376

> <Gold.Chemscore.Rot>
3.7644

> <Gold.Chemscore.Internal.Correction>
   9.000000E+99

> <Gold.Chemscore.Hbonds>
donor molecule, donor type, donor heavy atom, donor atom, acceptor molecule, acceptor atom, score
      L1  H     1    28       P1  7957  0.22
      P1  H  6896  6907       L1    15  0.91
      P1  H  6931  6943       L1    23  0.28
      P1  H  6934  6947       L1    23  0.32
      P1  H  8011  8017       L1     1  0.45

> <Gold.Chemscore.Hbond.Weighted>
-10.9650

> <Gold.Chemscore.Metal.Weighted>
-0.0000

> <Gold.Chemscore.Lipo.Weighted>
-13.5945

> <Gold.Chemscore.Internal_Hbond.Weighted>
0.0000

> <Gold.Chemscore.DEClash.Weighted>
0.2174

> <Gold.Chemscore.DEInternal.Weighted>
2.3376

> <Gold.Chemscore.Rot.Weighted>
9.6369

> <Gold.Chemscore.Internal.Correction.Weighted>
   9.000000E+99

> <Gold.Protein.RotatedTorsions>
[ 6907 6896 6895 6894 ] final  -15.87 input  -60.11 | X-H torsion
[ 7974 7965 7964 7962 ] final  165.11 input  175.53 | X-H torsion
[ 8008 7997 7996 7995 ] final -173.95 input   59.86 | X-H torsion
[ 10167 10162 10161 10158 ] final   44.63 input  -65.29 | X-H torsion
[ 10718 10713 10712 10709 ] final  117.58 input   66.30 | X-H torsion
[ 10763 10752 10751 10750 ] final -171.20 input  -60.55 | X-H torsion
[ 11005 11000 10999 10996 ] final   57.24 input  -57.11 | X-H torsion

> <Gold.Protein.ActiveResidues>
 VAL166  LYS551  ARG553  GLY616  TRP617  ASP618  TYR619  PRO620  LYS621  CYS622 
 ASP623  PHE694  ASN695  SER759  ASP760  ASP761  ALA762  ILE779  LEU786  VAL792 
 PHE793  MET794  SER795  GLU796  ALA797  LYS798  CYS799  TRP800  GLU811  SER814 

> <Gold.Protein.RotatedAtoms>
  151.3173  135.0809  159.9293 H   0  0  0  0  0  0  0  0  0  0  0  0  # atno 6907 bound_to 6896
  152.5264  133.9675  159.7756 H   0  0  0  0  0  0  0  0  0  0  0  0  # atno 6908 bound_to 6896
  150.9989  133.6023  159.2728 H   0  0  0  0  0  0  0  0  0  0  0  0  # atno 6909 bound_to 6896
  144.7516  139.8423  143.6364 H   0  0  0  0  0  0  0  0  0  0  0  0  # atno 7974 bound_to 7965
  155.9639  140.1150  157.0872 H   0  0  0  0  0  0  0  0  0  0  0  0  # atno 8008 bound_to 7997
  154.4139  140.1176  156.5283 H   0  0  0  0  0  0  0  0  0  0  0  0  # atno 8009 bound_to 7997
  155.6685  140.3473  155.4811 H   0  0  0  0  0  0  0  0  0  0  0  0  # atno 8010 bound_to 7997
  140.3323  144.2573  150.6166 H   0  0  0  0  0  0  0  0  0  0  0  0  # atno 10167 bound_to 10162
  157.6087  131.1039  150.7635 H   0  0  0  0  0  0  0  0  0  0  0  0  # atno 10718 bound_to 10713
  154.6331  135.2889  155.0193 H   0  0  0  0  0  0  0  0  0  0  0  0  # atno 10763 bound_to 10752
  154.1346  135.6528  153.4933 H   0  0  0  0  0  0  0  0  0  0  0  0  # atno 10764 bound_to 10752
  153.0289  135.5318  154.7167 H   0  0  0  0  0  0  0  0  0  0  0  0  # atno 10765 bound_to 10752
  140.0468  134.5795  155.9313 H   0  0  0  0  0  0  0  0  0  0  0  0  # atno 11005 bound_to 11000
  146.1474  139.4547  143.0070 LP  0  0  0  0  0  0  0  0  0  0  0  0  # atno 17320 bound_to 7965
  145.6924  141.0160  143.1548 LP  0  0  0  0  0  0  0  0  0  0  0  0  # atno 17321 bound_to 7965
  140.5385  143.2228  151.8123 LP  0  0  0  0  0  0  0  0  0  0  0  0  # atno 17342 bound_to 10162
  139.4854  144.4630  151.9518 LP  0  0  0  0  0  0  0  0  0  0  0  0  # atno 17343 bound_to 10162
  156.8018  130.4923  149.5369 LP  0  0  0  0  0  0  0  0  0  0  0  0  # atno 17370 bound_to 10713
  156.1182  130.6090  151.0153 LP  0  0  0  0  0  0  0  0  0  0  0  0  # atno 17371 bound_to 10713
  141.1911  133.6570  156.5440 LP  0  0  0  0  0  0  0  0  0  0  0  0  # atno 17394 bound_to 11000
  140.3981  134.7381  157.4763 LP  0  0  0  0  0  0  0  0  0  0  0  0  # atno 17395 bound_to 11000

$$$$
