AV-unprocessed.smi:1394|AV-procd|sdf|5667|dock9
  -GOLD-   22720 5293D 1   1.00000     0.00000
 Structure written by MMmdl.
 41 42  0  0  0  0  0  0  0  0  1 V2000
  148.2989  140.1829  154.0367 C   0  0  0  0  0  0  0  0  0  0  0  0
  147.1712  140.9302  154.7689 C   0  0  2  0  0  0  0  0  0  0  0  0
  146.7787  142.2266  154.0299 C   0  0  0  0  0  0  0  0  0  0  0  0
  145.6032  142.9370  154.7202 C   0  0  0  0  0  0  0  0  0  0  0  0
  145.9101  143.2217  156.1979 C   0  0  0  0  0  0  0  0  0  0  0  0
  146.3068  141.9351  156.9436 C   0  0  0  0  0  0  0  0  0  0  0  0
  147.4832  141.2058  156.2635 C   0  0  2  0  0  0  0  0  0  0  0  0
  148.7100  141.9866  156.4358 N   0  0  0  0  0  0  0  0  0  0  0  0
  149.8180  141.5935  157.0826 C   0  0  0  0  0  0  0  0  0  0  0  0
  149.9347  140.4898  157.6167 O   0  0  0  0  0  0  0  0  0  0  0  0
  150.9620  142.6171  157.1144 C   0  0  0  0  0  0  0  0  0  0  0  0
  151.7157  142.6213  158.3798 N   0  0  0  0  0  0  0  0  0  0  0  0
  151.4762  143.6978  159.2521 C   0  0  0  0  0  0  0  0  0  0  0  0
  152.1065  143.8060  160.4291 C   0  0  0  0  0  0  0  0  0  0  0  0
  153.0517  142.7790  160.7932 C   0  0  0  0  0  0  0  0  0  0  0  0
  153.3081  141.7345  159.9720 C   0  0  0  0  0  0  0  0  0  0  0  0
  154.2995  140.6352  160.3461 C   0  0  0  0  0  0  0  0  0  0  0  0
  153.7650  139.4303  160.1435 F   0  0  0  0  0  0  0  0  0  0  0  0
  155.4044  140.7309  159.6059 F   0  0  0  0  0  0  0  0  0  0  0  0
  154.6597  140.7091  161.6285 F   0  0  0  0  0  0  0  0  0  0  0  0
  152.6112  141.6283  158.6735 C   0  0  0  0  0  0  0  0  0  0  0  0
  152.8179  140.7016  157.8883 O   0  0  0  0  0  0  0  0  0  0  0  0
  149.1955  140.7958  153.9419 H   0  0  0  0  0  0  0  0  0  0  0  0
  147.9893  139.8987  153.0308 H   0  0  0  0  0  0  0  0  0  0  0  0
  148.5724  139.2698  154.5662 H   0  0  0  0  0  0  0  0  0  0  0  0
  146.3008  140.2723  154.7448 H   0  0  0  0  0  0  0  0  0  0  0  0
  147.6347  142.9007  153.9793 H   0  0  0  0  0  0  0  0  0  0  0  0
  146.5082  141.9994  152.9982 H   0  0  0  0  0  0  0  0  0  0  0  0
  145.3763  143.8693  154.2021 H   0  0  0  0  0  0  0  0  0  0  0  0
  144.7088  142.3172  154.6466 H   0  0  0  0  0  0  0  0  0  0  0  0
  146.7142  143.9550  156.2699 H   0  0  0  0  0  0  0  0  0  0  0  0
  145.0404  143.6734  156.6759 H   0  0  0  0  0  0  0  0  0  0  0  0
  146.5538  142.1657  157.9805 H   0  0  0  0  0  0  0  0  0  0  0  0
  145.4460  141.2663  156.9805 H   0  0  0  0  0  0  0  0  0  0  0  0
  147.5993  140.2456  156.7693 H   0  0  0  0  0  0  0  0  0  0  0  0
  148.7114  142.9108  156.0292 H   0  0  0  0  0  0  0  0  0  0  0  0
  151.6363  142.4092  156.2821 H   0  0  0  0  0  0  0  0  0  0  0  0
  150.5519  143.6064  156.9039 H   0  0  0  0  0  0  0  0  0  0  0  0
  150.7589  144.4257  158.9011 H   0  0  0  0  0  0  0  0  0  0  0  0
  151.9134  144.6409  161.0866 H   0  0  0  0  0  0  0  0  0  0  0  0
  153.5559  142.8611  161.7444 H   0  0  0  0  0  0  0  0  0  0  0  0
  1  2  1  0  0  0  0
  1 23  1  0  0  0  0
  1 24  1  0  0  0  0
  1 25  1  0  0  0  0
  2  7  1  0  0  0  0
  2  3  1  0  0  0  0
  2 26  1  0  0  0  0
  3  4  1  0  0  0  0
  3 27  1  0  0  0  0
  3 28  1  0  0  0  0
  4  5  1  0  0  0  0
  4 29  1  0  0  0  0
  4 30  1  0  0  0  0
  5  6  1  0  0  0  0
  5 31  1  0  0  0  0
  5 32  1  0  0  0  0
  6  7  1  0  0  0  0
  6 33  1  0  0  0  0
  6 34  1  0  0  0  0
  7  8  1  0  0  0  0
  7 35  1  0  0  0  0
  8  9  1  0  0  0  0
  8 36  1  0  0  0  0
  9 10  2  0  0  0  0
  9 11  1  0  0  0  0
 11 12  1  0  0  0  0
 11 37  1  0  0  0  0
 11 38  1  0  0  0  0
 12 21  1  0  0  0  0
 12 13  1  0  0  0  0
 13 14  2  0  0  0  0
 13 39  1  0  0  0  0
 14 15  1  0  0  0  0
 14 40  1  0  0  0  0
 15 16  2  0  0  0  0
 15 41  1  0  0  0  0
 16 17  1  0  0  0  0
 16 21  1  0  0  0  0
 17 18  1  0  0  0  0
 17 19  1  0  0  0  0
 17 20  1  0  0  0  0
 21 22  2  0  0  0  0
M  END
> <s_m_source_file>
AV-unprocessed.smi

> <i_m_source_file_index>
1394

> <i_lp_mmshare_version>
43012

> <i_f3d_flags>
0

> <s_epik_input>
W0NIM11bQ0BASF0xW0NIMl1bQ0gyXVtDSDJdW0NIMl1bQ0BIXTFbTkhdQyg9TylbQ0gyXW4yW2NIXVtjSF1bY0hdYyhDKEYpKEYpRiljMj1P

> <s_epik_cmdline>
J2VwaWtfcHl0aG9uJywgJy1waCcsICc3LjAnLCAnLXRuJywgJzgnLCAnLW1hJywgJzIwMCcsICctbWV0YWxfYmluZGluZycsICctaW1hZScsICc8aW5maWxlLm1hZT4nLCAnLW9tYWUnLCAnPG91dGZpbGUubWFlPic=

> <r_lp_tautomer_probability>
1

> <r_epik_Ionization_Penalty>
2.11487e-08

> <r_epik_Ionization_Penalty_Charging>
2.10183e-09

> <r_epik_Ionization_Penalty_Neutral>
1.90469e-08

> <r_epik_State_Penalty>
-0

> <r_epik_Charging_Adjusted_Penalty>
2.10183e-09

> <i_epik_Tot_Q>
0

> <i_epik_Tot_abs_Q>
0

> <r_epik_Metal_State_Penalty>
-0

> <b_epik_Metal_Only>
0

> <s_lp_Force_Field>
OPLS_2005

> <r_lp_Energy>
20.183

> <b_lp_Chiralities_Consistent>
1

> <s_lp_Variant>
AV-unprocessed.smi:1394-3

> <Gold.Version>
5.8.1

> <Gold.Id.Protein>
6NUR|6NUR_protein|mol2

> <Gold.PLP.Fitness>
47.8084

> <Gold.PLP.PLP>
-44.3236

> <Gold.PLP.part.hbond>
-2.0000

> <Gold.PLP.part.metal>
0.0000

> <Gold.PLP.part.buried>
-2.5481

> <Gold.PLP.part.nonpolar>
-38.0169

> <Gold.PLP.part.repulsive>
0.0224

> <Gold.PLP.ligand.clash>
0.0000

> <Gold.PLP.ligand.torsion>
0.8878

> <Gold.PLP.Chemscore.Hbond>
1.6365

> <Gold.PLP.Chemscore.CHOScore>
0.0000

> <Gold.PLP.Chemscore.Metal>
0.0000

> <Gold.Chemscore.Hbonds>
donor molecule, donor type, donor heavy atom, donor atom, acceptor molecule, acceptor atom, score
      L1  H     8    36       P1  8028  1.00
      P1  H  7997  8008       L1    22  0.70

> <Gold.PLP.Chemscore.Internal.Correction>
0.3510

> <Gold.Rescore>
     Score         DG    S(hbond)    S(metal)    S(lipo)     H(rot)  DE(clash)    DE(int)     intcor
     14.48     -18.34       1.75        0.00      93.29       1.52       0.43       3.42       ----

> <Gold.Chemscore.Fitness>
14.4842

> <Gold.Chemscore.DG>
-18.3360

> <Gold.Chemscore.ZeroCoef>
-5.4800

> <Gold.Chemscore.Hbond>
1.7493

> <Gold.Chemscore.Metal>
0.0000

> <Gold.Chemscore.Lipo>
93.2920

> <Gold.Chemscore.Internal_Hbond>
0.0000

> <Gold.Chemscore.DEClash>
0.4323

> <Gold.Chemscore.DEInternal>
3.4195

> <Gold.Chemscore.Rot>
1.5242

> <Gold.Chemscore.Internal.Correction>
   9.000000E+99

> <Gold.Chemscore.Hbonds>
donor molecule, donor type, donor heavy atom, donor atom, acceptor molecule, acceptor atom, score
      L1  H     8    36       P1  8028  1.00
      P1  H  7997  8008       L1    22  0.66

> <Gold.Chemscore.Hbond.Weighted>
-5.8428

> <Gold.Chemscore.Metal.Weighted>
-0.0000

> <Gold.Chemscore.Lipo.Weighted>
-10.9152

> <Gold.Chemscore.Internal_Hbond.Weighted>
0.0000

> <Gold.Chemscore.DEClash.Weighted>
0.4323

> <Gold.Chemscore.DEInternal.Weighted>
3.4195

> <Gold.Chemscore.Rot.Weighted>
3.9019

> <Gold.Chemscore.Internal.Correction.Weighted>
   9.000000E+99

> <Gold.Protein.RotatedTorsions>
[ 6907 6896 6895 6894 ] final  -86.71 input  -60.11 | X-H torsion
[ 7974 7965 7964 7962 ] final  103.38 input  175.53 | X-H torsion
[ 8008 7997 7996 7995 ] final  -78.21 input   59.86 | X-H torsion
[ 10167 10162 10161 10158 ] final   50.63 input  -65.29 | X-H torsion
[ 10718 10713 10712 10709 ] final -121.23 input   66.30 | X-H torsion
[ 10763 10752 10751 10750 ] final  -85.35 input  -60.55 | X-H torsion
[ 11005 11000 10999 10996 ] final -161.39 input  -57.11 | X-H torsion

> <Gold.Protein.ActiveResidues>
 VAL166  LYS551  ARG553  GLY616  TRP617  ASP618  TYR619  PRO620  LYS621  CYS622 
 ASP623  PHE694  ASN695  SER759  ASP760  ASP761  ALA762  ILE779  LEU786  VAL792 
 PHE793  MET794  SER795  GLU796  ALA797  LYS798  CYS799  TRP800  GLU811  SER814 

> <Gold.Protein.RotatedAtoms>
  150.6866  134.3008  159.4705 H   0  0  0  0  0  0  0  0  0  0  0  0  # atno 6907 bound_to 6896
  152.0904  134.9408  160.0581 H   0  0  0  0  0  0  0  0  0  0  0  0  # atno 6908 bound_to 6896
  152.0727  133.4079  159.4503 H   0  0  0  0  0  0  0  0  0  0  0  0  # atno 6909 bound_to 6896
  145.3467  139.2449  143.3580 H   0  0  0  0  0  0  0  0  0  0  0  0  # atno 7974 bound_to 7965
  154.5668  140.0698  156.8903 H   0  0  0  0  0  0  0  0  0  0  0  0  # atno 8008 bound_to 7997
  155.2709  140.3365  155.4247 H   0  0  0  0  0  0  0  0  0  0  0  0  # atno 8009 bound_to 7997
  156.2086  140.1750  156.7729 H   0  0  0  0  0  0  0  0  0  0  0  0  # atno 8010 bound_to 7997
  140.2704  144.3272  150.6292 H   0  0  0  0  0  0  0  0  0  0  0  0  # atno 10167 bound_to 10162
  156.1321  130.6403  150.9637 H   0  0  0  0  0  0  0  0  0  0  0  0  # atno 10718 bound_to 10713
  154.6101  135.5488  153.7464 H   0  0  0  0  0  0  0  0  0  0  0  0  # atno 10763 bound_to 10752
  153.0191  135.6387  154.1590 H   0  0  0  0  0  0  0  0  0  0  0  0  # atno 10764 bound_to 10752
  154.1528  135.2901  155.3110 H   0  0  0  0  0  0  0  0  0  0  0  0  # atno 10765 bound_to 10752
  140.6209  134.4751  157.5223 H   0  0  0  0  0  0  0  0  0  0  0  0  # atno 11005 bound_to 11000
  146.2985  140.4075  142.8713 LP  0  0  0  0  0  0  0  0  0  0  0  0  # atno 17320 bound_to 7965
  144.8749  140.7322  143.6023 LP  0  0  0  0  0  0  0  0  0  0  0  0  # atno 17321 bound_to 7965
  140.5894  143.2168  151.7281 LP  0  0  0  0  0  0  0  0  0  0  0  0  # atno 17342 bound_to 10162
  139.4990  144.3962  152.0229 LP  0  0  0  0  0  0  0  0  0  0  0  0  # atno 17343 bound_to 10162
  157.6498  131.0899  150.8076 LP  0  0  0  0  0  0  0  0  0  0  0  0  # atno 17370 bound_to 10713
  156.8160  130.4968  149.5349 LP  0  0  0  0  0  0  0  0  0  0  0  0  # atno 17371 bound_to 10713
  139.9154  134.8258  156.1385 LP  0  0  0  0  0  0  0  0  0  0  0  0  # atno 17394 bound_to 11000
  141.0743  133.6782  156.2204 LP  0  0  0  0  0  0  0  0  0  0  0  0  # atno 17395 bound_to 11000

$$$$
