AV-unprocessed.smi:55|AV-procd|sdf|575|dock7
  -GOLD-   2262016483D 1   1.00000     0.00000
 Structure written by MMmdl.
 30 31  0  0  0  0  0  0  0  0  2 V2000
  150.4231  142.7647  158.9546 C   0  0  0  0  0  0  0  0  0  0  0  0
  150.8056  141.8695  157.7889 C   0  0  0  0  0  0  0  0  0  0  0  0
  150.0692  141.8047  156.6571 C   0  0  0  0  0  0  0  0  0  0  0  0
  150.4230  140.9872  155.5964 N   0  0  0  0  0  0  0  0  0  0  0  0
  149.5948  140.9200  154.3290 C   0  0  2  0  0  0  0  0  0  0  0  0
  148.3278  141.7782  154.4658 C   0  0  0  0  0  0  0  0  0  0  0  0
  147.2424  140.8326  153.9886 C   0  0  2  0  0  0  0  0  0  0  0  0
  146.0030  141.1338  154.5966 O   0  0  0  0  0  0  0  0  0  0  0  0
  147.7910  139.4724  154.4188 C   0  0  1  0  0  0  0  0  0  0  0  0
  147.1868  138.2917  153.6437 C   0  0  0  0  0  0  0  0  0  0  0  0
  147.4649  138.4205  152.2657 O   0  0  0  0  0  0  0  0  0  0  0  0
  149.1739  139.6047  154.1022 O   0  0  0  0  0  0  0  0  0  0  0  0
  151.5919  140.1872  155.6895 C   0  0  0  0  0  0  0  0  0  0  0  0
  151.8813  139.4732  154.7288 O   0  0  0  0  0  0  0  0  0  0  0  0
  152.3400  140.2449  156.8279 N   0  5  0  0  0  0  0  0  0  0  0  0
  152.0145  141.0424  157.8852 C   0  0  0  0  0  0  0  0  0  0  0  0
  152.7003  141.0862  158.9063 O   0  0  0  0  0  0  0  0  0  0  0  0
  150.2595  141.2264  153.5196 H   0  0  0  0  0  0  0  0  0  0  0  0
  147.1524  140.8841  152.9026 H   0  0  0  0  0  0  0  0  0  0  0  0
  147.6650  139.3480  155.4963 H   0  0  0  0  0  0  0  0  0  0  0  0
  149.5082  143.3196  158.7453 H   0  0  0  0  0  0  0  0  0  0  0  0
  151.2161  143.4849  159.1574 H   0  0  0  0  0  0  0  0  0  0  0  0
  150.2591  142.1698  159.8536 H   0  0  0  0  0  0  0  0  0  0  0  0
  149.1811  142.4141  156.5926 H   0  0  0  0  0  0  0  0  0  0  0  0
  148.1778  142.0492  155.5127 H   0  0  0  0  0  0  0  0  0  0  0  0
  148.4031  142.6896  153.8721 H   0  0  0  0  0  0  0  0  0  0  0  0
  145.3163  140.9900  153.9635 H   0  0  0  0  0  0  0  0  0  0  0  0
  147.6328  137.3553  153.9798 H   0  0  0  0  0  0  0  0  0  0  0  0
  146.1118  138.2164  153.8100 H   0  0  0  0  0  0  0  0  0  0  0  0
  147.8235  137.6036  151.9542 H   0  0  0  0  0  0  0  0  0  0  0  0
  1  2  1  0  0  0  0
  1 21  1  0  0  0  0
  1 22  1  0  0  0  0
  1 23  1  0  0  0  0
  2 16  1  0  0  0  0
  2  3  2  0  0  0  0
  3  4  1  0  0  0  0
  3 24  1  0  0  0  0
  4  5  1  0  0  0  0
  4 13  1  0  0  0  0
  5 18  1  0  0  0  0
  5 12  1  0  0  0  0
  5  6  1  0  0  0  0
  6  7  1  0  0  0  0
  6 25  1  0  0  0  0
  6 26  1  0  0  0  0
  7 19  1  0  0  0  0
  7  8  1  0  0  0  0
  7  9  1  0  0  0  0
  8 27  1  0  0  0  0
  9 20  1  0  0  0  0
  9 10  1  0  0  0  0
  9 12  1  0  0  0  0
 10 11  1  0  0  0  0
 10 28  1  0  0  0  0
 10 29  1  0  0  0  0
 11 30  1  0  0  0  0
 13 14  2  0  0  0  0
 13 15  1  0  0  0  0
 15 16  1  0  0  0  0
 16 17  2  0  0  0  0
M  CHG  1  15  -1
M  END
> <s_m_source_file>
AV-unprocessed.smi

> <i_m_source_file_index>
55

> <i_lp_mmshare_version>
43012

> <i_f3d_flags>
0

> <s_epik_input>
Tz1jMVtuSF1jKD1PKW4oW2NIXWMxW0NIM10pW0NAQEhdMltDSDJdW0NAQEhdKFtPSF0pW0NAQEhdKE8yKVtDSDJdW09IXQ==

> <s_epik_cmdline>
J2VwaWtfcHl0aG9uJywgJy1waCcsICc3LjAnLCAnLXRuJywgJzgnLCAnLW1hJywgJzIwMCcsICctbWV0YWxfYmluZGluZycsICctaW1hZScsICc8aW5maWxlLm1hZT4nLCAnLW9tYWUnLCAnPG91dGZpbGUubWFlPic=

> <r_lp_tautomer_probability>
0.999537

> <r_epik_Ionization_Penalty>
3.66603

> <r_epik_Ionization_Penalty_Charging>
1.09773e-07

> <r_epik_Ionization_Penalty_Neutral>
3.66603

> <r_epik_State_Penalty>
3.66562

> <r_epik_Charging_Adjusted_Penalty>
3.66562

> <i_epik_Tot_Q>
-1

> <i_epik_Tot_abs_Q>
1

> <r_epik_Metal_State_Penalty>
0.234536

> <b_epik_Metal_Only>
1

> <s_epik_Chemistry_Notes>
This compound contains an acetal/aminal-like group ( X-CH(R)-Y where X, Y are N, S, or O) that may be acid/base labile, releasing an aldehyde.

> <s_lp_Force_Field>
OPLS_2005

> <r_lp_Energy>
36.1714

> <b_lp_Chiralities_Consistent>
1

> <s_lp_Variant>
AV-unprocessed.smi:55-15

> <Gold.Version>
5.8.1

> <Gold.Id.Protein>
6NUR|6NUR_protein|mol2

> <Gold.PLP.Fitness>
41.2735

> <Gold.PLP.PLP>
-26.1232

> <Gold.PLP.part.hbond>
-4.4362

> <Gold.PLP.part.metal>
0.0000

> <Gold.PLP.part.buried>
-0.1341

> <Gold.PLP.part.nonpolar>
-21.4129

> <Gold.PLP.part.repulsive>
0.9207

> <Gold.PLP.ligand.clash>
0.0000

> <Gold.PLP.ligand.torsion>
0.0321

> <Gold.PLP.Chemscore.Hbond>
4.0661

> <Gold.PLP.Chemscore.CHOScore>
1.0000

> <Gold.PLP.Chemscore.Metal>
0.0000

> <Gold.Chemscore.Hbonds>
donor molecule, donor type, donor heavy atom, donor atom, acceptor molecule, acceptor atom, score
      L1  H     8    27       P1 10175  0.44
      L1  H    11    30       P1  7948  1.00
      P1  H  7989  7998       L1    14  0.69
      P1  H  7997  8009       L1    15  2.00
      L1  C     3    24       P1  8028  1.00

> <Gold.PLP.Chemscore.Internal.Correction>
0.0163

> <Gold.Rescore>
     Score         DG    S(hbond)    S(metal)    S(lipo)     H(rot)  DE(clash)    DE(int)     intcor
      7.92     -10.39       2.09        0.00      41.04       2.69       1.08       1.39       ----

> <Gold.Chemscore.Fitness>
7.9171

> <Gold.Chemscore.DG>
-10.3864

> <Gold.Chemscore.ZeroCoef>
-5.4800

> <Gold.Chemscore.Hbond>
2.0909

> <Gold.Chemscore.Metal>
0.0000

> <Gold.Chemscore.Lipo>
41.0403

> <Gold.Chemscore.Internal_Hbond>
0.0000

> <Gold.Chemscore.DEClash>
1.0794

> <Gold.Chemscore.DEInternal>
1.3900

> <Gold.Chemscore.Rot>
2.6871

> <Gold.Chemscore.Internal.Correction>
   9.000000E+99

> <Gold.Chemscore.Hbonds>
donor molecule, donor type, donor heavy atom, donor atom, acceptor molecule, acceptor atom, score
      L1  H     8    27       P1 10175  0.37
      L1  H    11    30       P1  7948  0.99
      P1  H  7989  7998       L1    14  0.07
      P1  H  7997  8009       L1    15  0.68

> <Gold.Chemscore.Hbond.Weighted>
-6.9837

> <Gold.Chemscore.Metal.Weighted>
-0.0000

> <Gold.Chemscore.Lipo.Weighted>
-4.8017

> <Gold.Chemscore.Internal_Hbond.Weighted>
0.0000

> <Gold.Chemscore.DEClash.Weighted>
1.0794

> <Gold.Chemscore.DEInternal.Weighted>
1.3900

> <Gold.Chemscore.Rot.Weighted>
6.8791

> <Gold.Chemscore.Internal.Correction.Weighted>
   9.000000E+99

> <Gold.Protein.RotatedTorsions>
[ 6907 6896 6895 6894 ] final  115.97 input  -60.11 | X-H torsion
[ 7974 7965 7964 7962 ] final   68.17 input  175.53 | X-H torsion
[ 8008 7997 7996 7995 ] final -172.21 input   59.86 | X-H torsion
[ 10167 10162 10161 10158 ] final  -72.16 input  -65.29 | X-H torsion
[ 10718 10713 10712 10709 ] final -149.02 input   66.30 | X-H torsion
[ 10763 10752 10751 10750 ] final  -43.19 input  -60.55 | X-H torsion
[ 11005 11000 10999 10996 ] final  -99.91 input  -57.11 | X-H torsion

> <Gold.Protein.ActiveResidues>
 VAL166  LYS551  ARG553  GLY616  TRP617  ASP618  TYR619  PRO620  LYS621  CYS622 
 ASP623  PHE694  ASN695  SER759  ASP760  ASP761  ALA762  ILE779  LEU786  VAL792 
 PHE793  MET794  SER795  GLU796  ALA797  LYS798  CYS799  TRP800  GLU811  SER814 

> <Gold.Protein.RotatedAtoms>
  152.4708  133.8025  159.6959 H   0  0  0  0  0  0  0  0  0  0  0  0  # atno 6907 bound_to 6896
  150.8696  133.7515  159.2972 H   0  0  0  0  0  0  0  0  0  0  0  0  # atno 6908 bound_to 6896
  151.5055  135.1066  159.9892 H   0  0  0  0  0  0  0  0  0  0  0  0  # atno 6909 bound_to 6896
  145.8058  139.3006  143.1128 H   0  0  0  0  0  0  0  0  0  0  0  0  # atno 7974 bound_to 7965
  155.9416  140.1110  157.1051 H   0  0  0  0  0  0  0  0  0  0  0  0  # atno 8008 bound_to 7997
  154.4090  140.1218  156.5001 H   0  0  0  0  0  0  0  0  0  0  0  0  # atno 8009 bound_to 7997
  155.6954  140.3472  155.4913 H   0  0  0  0  0  0  0  0  0  0  0  0  # atno 8010 bound_to 7997
  140.5215  143.2331  151.7422 H   0  0  0  0  0  0  0  0  0  0  0  0  # atno 10167 bound_to 10162
  156.4277  130.8060  151.2286 H   0  0  0  0  0  0  0  0  0  0  0  0  # atno 10718 bound_to 10713
  153.9915  135.6704  153.4754 H   0  0  0  0  0  0  0  0  0  0  0  0  # atno 10763 bound_to 10752
  153.0703  135.4978  154.8286 H   0  0  0  0  0  0  0  0  0  0  0  0  # atno 10764 bound_to 10752
  154.7106  135.3096  154.9165 H   0  0  0  0  0  0  0  0  0  0  0  0  # atno 10765 bound_to 10752
  141.1291  133.8358  157.1033 H   0  0  0  0  0  0  0  0  0  0  0  0  # atno 11005 bound_to 11000
  145.9830  140.8667  143.0105 LP  0  0  0  0  0  0  0  0  0  0  0  0  # atno 17320 bound_to 7965
  144.6763  140.2107  143.7377 LP  0  0  0  0  0  0  0  0  0  0  0  0  # atno 17321 bound_to 7965
  139.4925  144.4248  151.9938 LP  0  0  0  0  0  0  0  0  0  0  0  0  # atno 17342 bound_to 10162
  140.3345  144.3277  150.5980 LP  0  0  0  0  0  0  0  0  0  0  0  0  # atno 17343 bound_to 10162
  157.7508  131.0208  150.3723 LP  0  0  0  0  0  0  0  0  0  0  0  0  # atno 17370 bound_to 10713
  156.4054  130.3924  149.6929 LP  0  0  0  0  0  0  0  0  0  0  0  0  # atno 17371 bound_to 10713
  140.0320  134.9896  157.0798 LP  0  0  0  0  0  0  0  0  0  0  0  0  # atno 17394 bound_to 11000
  140.4270  134.1820  155.7166 LP  0  0  0  0  0  0  0  0  0  0  0  0  # atno 17395 bound_to 11000

$$$$
