AV-unprocessed.smi:2926|AV-procd|sdf|11228|dock6
  -GOLD-   2272016123D 1   1.00000     0.00000
 Structure written by MMmdl.
 31 31  0  0  0  0  0  0  0  0  2 V2000
  151.7146  138.8722  156.1220 C   0  0  0  0  0  0  0  0  0  0  0  0
  150.6267  138.1461  155.2939 C   0  0  0  0  0  0  0  0  0  0  0  0
  150.2589  139.0306  154.0807 C   0  0  0  0  0  0  0  0  0  0  0  0
  149.3929  137.7198  156.1524 C   0  0  1  0  0  0  0  0  0  0  0  0
  148.2483  137.0514  155.3556 C   0  0  0  0  0  0  0  0  0  0  0  0
  148.6655  135.8632  154.7100 O   0  0  0  0  0  0  0  0  0  0  0  0
  149.8184  136.8193  157.2183 N   0  5  0  0  0  0  0  0  0  0  0  0
  149.6176  137.2555  158.7674 S   0  0  0  0  0  0  0  0  0  0  0  0
  150.7643  136.8833  159.6127 O   0  0  0  0  0  0  0  0  0  0  0  0
  149.1085  138.6310  158.8940 O   0  0  0  0  0  0  0  0  0  0  0  0
  148.2173  136.1561  159.2599 C   0  0  0  0  0  0  0  0  0  0  0  0
  147.8585  136.3656  160.7062 C   0  0  0  0  0  0  0  0  0  0  0  0
  147.8231  135.4068  161.7568 C   0  0  0  0  0  0  0  0  0  0  0  0
  147.4361  136.1363  162.8431 C   0  0  0  0  0  0  0  0  0  0  0  0
  147.2351  137.4329  162.4975 O   0  0  0  0  0  0  0  0  0  0  0  0
  147.5029  137.5689  161.1305 N   0  0  0  0  0  0  0  0  0  0  0  0
  148.9780  138.6387  156.5695 H   0  0  0  0  0  0  0  0  0  0  0  0
  151.3436  139.7978  156.5664 H   0  0  0  0  0  0  0  0  0  0  0  0
  152.5630  139.1387  155.4913 H   0  0  0  0  0  0  0  0  0  0  0  0
  152.1150  138.2542  156.9274 H   0  0  0  0  0  0  0  0  0  0  0  0
  151.0840  137.2401  154.8930 H   0  0  0  0  0  0  0  0  0  0  0  0
  149.7637  139.9568  154.3789 H   0  0  0  0  0  0  0  0  0  0  0  0
  149.6137  138.5159  153.3675 H   0  0  0  0  0  0  0  0  0  0  0  0
  151.1552  139.3128  153.5275 H   0  0  0  0  0  0  0  0  0  0  0  0
  147.4168  136.8097  156.0187 H   0  0  0  0  0  0  0  0  0  0  0  0
  147.8462  137.7349  154.6084 H   0  0  0  0  0  0  0  0  0  0  0  0
  148.8922  136.0725  153.8173 H   0  0  0  0  0  0  0  0  0  0  0  0
  147.3715  136.3957  158.6150 H   0  0  0  0  0  0  0  0  0  0  0  0
  148.4966  135.1220  159.0592 H   0  0  0  0  0  0  0  0  0  0  0  0
  148.0560  134.3527  161.7177 H   0  0  0  0  0  0  0  0  0  0  0  0
  147.2641  135.8888  163.8801 H   0  0  0  0  0  0  0  0  0  0  0  0
  1  2  1  0  0  0  0
  1 18  1  0  0  0  0
  1 19  1  0  0  0  0
  1 20  1  0  0  0  0
  2  3  1  0  0  0  0
  2  4  1  0  0  0  0
  2 21  1  0  0  0  0
  3 22  1  0  0  0  0
  3 23  1  0  0  0  0
  3 24  1  0  0  0  0
  4 17  1  0  0  0  0
  4  5  1  0  0  0  0
  4  7  1  0  0  0  0
  5  6  1  0  0  0  0
  5 25  1  0  0  0  0
  5 26  1  0  0  0  0
  6 27  1  0  0  0  0
  7  8  1  0  0  0  0
  8  9  2  0  0  0  0
  8 10  2  0  0  0  0
  8 11  1  0  0  0  0
 11 12  1  0  0  0  0
 11 28  1  0  0  0  0
 11 29  1  0  0  0  0
 12 16  2  0  0  0  0
 12 13  1  0  0  0  0
 13 14  2  0  0  0  0
 13 30  1  0  0  0  0
 14 15  1  0  0  0  0
 14 31  1  0  0  0  0
 15 16  1  0  0  0  0
M  CHG  1   7  -1
M  END
> <s_m_source_file>
AV-unprocessed.smi

> <i_m_source_file_index>
2926

> <i_lp_mmshare_version>
43012

> <i_f3d_flags>
0

> <s_epik_input>
W0NIM11bQ0hdKFtDSDNdKVtDQEBIXShbQ0gyXVtPSF0pW05IXVMoPU8pKD1PKVtDSDJdYzFbY0hdW2NIXW9uMQ==

> <s_epik_cmdline>
J2VwaWtfcHl0aG9uJywgJy1waCcsICc3LjAnLCAnLXRuJywgJzgnLCAnLW1hJywgJzIwMCcsICctbWV0YWxfYmluZGluZycsICctaW1hZScsICc8aW5maWxlLm1hZT4nLCAnLW9tYWUnLCAnPG91dGZpbGUubWFlPic=

> <r_lp_tautomer_probability>
1

> <r_epik_Ionization_Penalty>
4.75719

> <r_epik_Ionization_Penalty_Charging>
4.75718

> <r_epik_Ionization_Penalty_Neutral>
1.48962e-06

> <r_epik_State_Penalty>
4.75699

> <r_epik_Charging_Adjusted_Penalty>
9.51417

> <i_epik_Tot_Q>
-1

> <i_epik_Tot_abs_Q>
1

> <r_epik_Metal_State_Penalty>
0.961449

> <b_epik_Metal_Only>
1

> <s_lp_Force_Field>
OPLS_2005

> <r_lp_Energy>
4.17098

> <b_lp_Chiralities_Consistent>
1

> <s_lp_Variant>
AV-unprocessed.smi:2926-3

> <Gold.Version>
5.8.1

> <Gold.Id.Protein>
6NUR|6NUR_protein|mol2

> <Gold.PLP.Fitness>
33.8546

> <Gold.PLP.PLP>
-24.9595

> <Gold.PLP.part.hbond>
-7.4315

> <Gold.PLP.part.metal>
0.0000

> <Gold.PLP.part.buried>
-1.0783

> <Gold.PLP.part.nonpolar>
-16.6730

> <Gold.PLP.part.repulsive>
0.0000

> <Gold.PLP.ligand.clash>
0.0000

> <Gold.PLP.ligand.torsion>
0.5520

> <Gold.PLP.Chemscore.Hbond>
2.9760

> <Gold.PLP.Chemscore.CHOScore>
0.0000

> <Gold.PLP.Chemscore.Metal>
0.0000

> <Gold.Chemscore.Hbonds>
donor molecule, donor type, donor heavy atom, donor atom, acceptor molecule, acceptor atom, score
      L1  H     6    27       P1  7948  1.00
      P1  H  6896  6909       L1     9  1.00
      P1  H  6934  6947       L1    16  0.84

> <Gold.PLP.Chemscore.Internal.Correction>
1.0710

> <Gold.Rescore>
     Score         DG    S(hbond)    S(metal)    S(lipo)     H(rot)  DE(clash)    DE(int)     intcor
     10.91     -12.79       2.40        0.00      50.46       2.58       0.18       1.70       ----

> <Gold.Chemscore.Fitness>
10.9086

> <Gold.Chemscore.DG>
-12.7880

> <Gold.Chemscore.ZeroCoef>
-5.4800

> <Gold.Chemscore.Hbond>
2.3960

> <Gold.Chemscore.Metal>
0.0000

> <Gold.Chemscore.Lipo>
50.4628

> <Gold.Chemscore.Internal_Hbond>
0.0000

> <Gold.Chemscore.DEClash>
0.1809

> <Gold.Chemscore.DEInternal>
1.6985

> <Gold.Chemscore.Rot>
2.5776

> <Gold.Chemscore.Internal.Correction>
   9.000000E+99

> <Gold.Chemscore.Hbonds>
donor molecule, donor type, donor heavy atom, donor atom, acceptor molecule, acceptor atom, score
      L1  H     6    27       P1  7948  0.98
      P1  H  6896  6909       L1     9  1.00
      P1  H  6934  6947       L1    16  0.20

> <Gold.Chemscore.Hbond.Weighted>
-8.0025

> <Gold.Chemscore.Metal.Weighted>
-0.0000

> <Gold.Chemscore.Lipo.Weighted>
-5.9041

> <Gold.Chemscore.Internal_Hbond.Weighted>
0.0000

> <Gold.Chemscore.DEClash.Weighted>
0.1809

> <Gold.Chemscore.DEInternal.Weighted>
1.6985

> <Gold.Chemscore.Rot.Weighted>
6.5987

> <Gold.Chemscore.Internal.Correction.Weighted>
   9.000000E+99

> <Gold.Protein.RotatedTorsions>
[ 6907 6896 6895 6894 ] final  110.15 input  -60.11 | X-H torsion
[ 7974 7965 7964 7962 ] final  -73.38 input  175.53 | X-H torsion
[ 8008 7997 7996 7995 ] final  114.38 input   59.86 | X-H torsion
[ 10167 10162 10161 10158 ] final   41.19 input  -65.29 | X-H torsion
[ 10718 10713 10712 10709 ] final  -30.11 input   66.30 | X-H torsion
[ 10763 10752 10751 10750 ] final -149.43 input  -60.55 | X-H torsion
[ 11005 11000 10999 10996 ] final   62.72 input  -57.11 | X-H torsion

> <Gold.Protein.ActiveResidues>
 VAL166  LYS551  ARG553  GLY616  TRP617  ASP618  TYR619  PRO620  LYS621  CYS622 
 ASP623  PHE694  ASN695  SER759  ASP760  ASP761  ALA762  ILE779  LEU786  VAL792 
 PHE793  MET794  SER795  GLU796  ALA797  LYS798  CYS799  TRP800  GLU811  SER814 

> <Gold.Protein.RotatedAtoms>
  152.5033  133.8842  159.7361 H   0  0  0  0  0  0  0  0  0  0  0  0  # atno 6907 bound_to 6896
  150.9297  133.6773  159.2820 H   0  0  0  0  0  0  0  0  0  0  0  0  # atno 6908 bound_to 6896
  151.4122  135.0991  159.9641 H   0  0  0  0  0  0  0  0  0  0  0  0  # atno 6909 bound_to 6896
  145.6529  140.9277  143.0975 H   0  0  0  0  0  0  0  0  0  0  0  0  # atno 7974 bound_to 7965
  156.2317  140.2960  156.0207 H   0  0  0  0  0  0  0  0  0  0  0  0  # atno 8008 bound_to 7997
  155.2205  140.0415  157.2964 H   0  0  0  0  0  0  0  0  0  0  0  0  # atno 8009 bound_to 7997
  154.6008  140.2426  155.7803 H   0  0  0  0  0  0  0  0  0  0  0  0  # atno 8010 bound_to 7997
  140.3668  144.2157  150.6135 H   0  0  0  0  0  0  0  0  0  0  0  0  # atno 10167 bound_to 10162
  156.4040  130.4395  149.7301 H   0  0  0  0  0  0  0  0  0  0  0  0  # atno 10718 bound_to 10713
  154.8178  135.3309  154.7127 H   0  0  0  0  0  0  0  0  0  0  0  0  # atno 10763 bound_to 10752
  153.7765  135.6921  153.4901 H   0  0  0  0  0  0  0  0  0  0  0  0  # atno 10764 bound_to 10752
  153.2009  135.4516  155.0213 H   0  0  0  0  0  0  0  0  0  0  0  0  # atno 10765 bound_to 10752
  140.0073  134.6350  155.9835 H   0  0  0  0  0  0  0  0  0  0  0  0  # atno 11005 bound_to 11000
  144.7116  139.8350  143.7412 LP  0  0  0  0  0  0  0  0  0  0  0  0  # atno 17320 bound_to 7965
  146.1189  139.4203  143.0241 LP  0  0  0  0  0  0  0  0  0  0  0  0  # atno 17321 bound_to 7965
  140.5073  143.2300  151.8589 LP  0  0  0  0  0  0  0  0  0  0  0  0  # atno 17342 bound_to 10162
  139.4808  144.4991  151.9084 LP  0  0  0  0  0  0  0  0  0  0  0  0  # atno 17343 bound_to 10162
  156.4306  130.7813  151.2833 LP  0  0  0  0  0  0  0  0  0  0  0  0  # atno 17370 bound_to 10713
  157.7505  131.0155  150.3507 LP  0  0  0  0  0  0  0  0  0  0  0  0  # atno 17371 bound_to 10713
  141.1686  133.6537  156.4568 LP  0  0  0  0  0  0  0  0  0  0  0  0  # atno 17394 bound_to 11000
  140.4618  134.6834  157.5089 LP  0  0  0  0  0  0  0  0  0  0  0  0  # atno 17395 bound_to 11000

$$$$
