#       Name:                AV-unprocessed.smi:287
#       Creating user name   scv26
#       Creation time:       Thu Mar 26 22:04:01 2020


#       File generated by GOLD software.
#

@<TRIPOS>MOLECULE
AV-unprocessed.smi:287
    70    73     1
SMALL
NO_CHARGES


@<TRIPOS>ATOM
      1 ****         0.0810   5.3005  -4.5155 C.3            1 S1                 0.0000
      2 ****        -0.5034   4.8869  -3.2084 C.2            1 S1                 0.0000
      3 ****        -1.4438   3.9687  -2.8416 C.2            1 S1                 0.0000
      4 ****        -1.5820   4.0427  -1.4232 C.2            1 S1                 0.0000
      5 ****        -2.5117   3.1990  -0.5599 C.3            1 S1                 0.0000
      6 ****        -3.9129   3.1103  -1.1922 C.3            1 S1                 0.0000
      7 ****        -2.7324   3.7685   0.7161 O.3            1 S1                 0.0000
      8 ****        -1.9534   1.7790  -0.3165 C.3            1 S1                 0.0000
      9 ****        -0.5297   1.7701  -0.0066 N.pl3          1 S1                 0.0000
     10 ****         0.1089   0.6210   0.2985 C.ar           1 S1                 0.0000
     11 ****         1.4039   0.7571   0.6706 N.ar           1 S1                 0.0000
     12 ****         2.1251  -0.3180   0.9983 C.ar           1 S1                 0.0000
     13 ****         1.7499  -1.5975   1.0215 N.ar           1 S1                 0.0000
     14 ****         0.4471  -1.7472   0.6441 C.ar           1 S1                 0.0000
     15 ****        -0.4392  -0.6964   0.2670 C.ar           1 S1                 0.0000
     16 ****        -1.6790  -1.2385  -0.0561 N.2            1 S1                 0.0000
     17 ****        -1.5300  -2.5224   0.1230 C.2            1 S1                 0.0000
     18 ****        -0.2824  -2.9156   0.5491 N.pl3          1 S1                 0.0000
     19 ****         0.1801  -4.3065   0.8424 C.3            1 S1                 0.0000
     20 ****         1.4343  -4.4812   0.2576 O.3            1 S1                 0.0000
     21 ****         2.2873  -5.1844   1.1536 C.3            1 S1                 0.0000
     22 ****         3.7550  -4.8717   0.8228 C.3            1 S1                 0.0000
     23 ****         4.2093  -5.7133  -0.2154 O.3            1 S1                 0.0000
     24 ****         1.8404  -4.6543   2.5173 C.3            1 S1                 0.0000
     25 ****         2.2216  -5.4925   3.5935 O.3            1 S1                 0.0000
     26 ****         0.3274  -4.5275   2.3566 C.3            1 S1                 0.0000
     27 ****        -0.3535  -5.7018   2.7600 O.3            1 S1                 0.0000
     28 ****        -0.6858   5.0100  -1.0355 C.2            1 S1                 0.0000
     29 ****        -0.2871   5.5828   0.2844 C.3            1 S1                 0.0000
     30 ****        -0.0322   5.5299  -2.1113 O.3            1 S1                 0.0000
     31 ****        -0.5625  -4.9537   0.3728 H              1 S1                 0.0000
     32 ****         2.0802  -6.2547   1.0880 H              1 S1                 0.0000
     33 ****         2.2676  -3.6654   2.6838 H              1 S1                 0.0000
     34 ****        -0.0675  -3.6821   2.9224 H              1 S1                 0.0000
     35 ****        -0.3200   4.6968  -5.3299 H              1 S1                 0.0000
     36 ****         1.1648   5.1830  -4.5094 H              1 S1                 0.0000
     37 ****        -0.1456   6.3457  -4.7263 H              1 S1                 0.0000
     38 ****        -1.9750   3.3162  -3.5185 H              1 S1                 0.0000
     39 ****        -3.8827   2.6291  -2.1702 H              1 S1                 0.0000
     40 ****        -4.3517   4.1000  -1.3262 H              1 S1                 0.0000
     41 ****        -4.5951   2.5291  -0.5703 H              1 S1                 0.0000
     42 ****        -3.3242   3.2095   1.1957 H              1 S1                 0.0000
     43 ****        -2.5212   1.2721   0.4650 H              1 S1                 0.0000
     44 ****        -2.0783   1.1964  -1.2302 H              1 S1                 0.0000
     45 ****        -0.0831   2.6756   0.0175 H              1 S1                 0.0000
     46 ****         3.1484  -0.1252   1.2843 H              1 S1                 0.0000
     47 ****        -2.3346  -3.2230  -0.0477 H              1 S1                 0.0000
     48 ****         3.8846  -3.8240   0.5489 H              1 S1                 0.0000
     49 ****         4.3852  -5.0588   1.6927 H              1 S1                 0.0000
     50 ****         5.1111  -5.5007  -0.4021 H              1 S1                 0.0000
     51 ****         3.1652  -5.5381   3.6188 H              1 S1                 0.0000
     52 ****        -0.1280  -5.8790   3.6608 H              1 S1                 0.0000
     53 ****        -1.1096   6.1466   0.7243 H              1 S1                 0.0000
     54 ****         0.5643   6.2564   0.1818 H              1 S1                 0.0000
     55 ****        -0.0067   4.7918   0.9803 H              1 S1                 0.0000
     56 ****        -3.1354   4.6780   0.6144 LP             1 S1                 0.0000
     57 ****        -1.8645   3.8415   1.2076 LP             1 S1                 0.0000
     58 ****         1.8214   1.6653   0.7001 LP             1 S1                 0.0000
     59 ****         2.3494  -2.3540   1.2832 LP             1 S1                 0.0000
     60 ****        -2.4997  -0.7534  -0.3578 LP             1 S1                 0.0000
     61 ****         1.8327  -3.5873   0.0519 LP             1 S1                 0.0000
     62 ****         1.3365  -5.0052  -0.5885 LP             1 S1                 0.0000
     63 ****         3.6528  -5.5697  -1.0337 LP             1 S1                 0.0000
     64 ****         4.1406  -6.6690   0.0709 LP             1 S1                 0.0000
     65 ****         1.8432  -6.4082   3.4582 LP             1 S1                 0.0000
     66 ****         1.8791  -5.1141   4.4534 LP             1 S1                 0.0000
     67 ****        -0.0744  -6.4699   2.1837 LP             1 S1                 0.0000
     68 ****        -1.3408  -5.5656   2.6786 LP             1 S1                 0.0000
     69 ****        -0.2142   6.5106  -2.1831 LP             1 S1                 0.0000
     70 ****         0.9523   5.3793  -2.0211 LP             1 S1                 0.0000
@<TRIPOS>BOND
    1    1    2 1     
    2    1   35 1     
    3    1   36 1     
    4    1   37 1     
    5    2   30 1     
    6    2    3 2     
    7    3    4 1     
    8    3   38 1     
    9    4    5 1     
   10    4   28 2     
   11    5    6 1     
   12    5    7 1     
   13    5    8 1     
   14    6   39 1     
   15    6   40 1     
   16    6   41 1     
   17    7   42 1     
   18    8    9 1     
   19    8   43 1     
   20    8   44 1     
   21    9   10 1     
   22    9   45 1     
   23   10   15 ar    
   24   10   11 ar    
   25   11   12 ar    
   26   12   13 ar    
   27   12   46 1     
   28   13   14 ar    
   29   14   18 1     
   30   14   15 ar    
   31   15   16 1     
   32   16   17 2     
   33   17   18 1     
   34   17   47 1     
   35   18   19 1     
   36   19   31 1     
   37   19   26 1     
   38   19   20 1     
   39   20   21 1     
   40   21   32 1     
   41   21   22 1     
   42   21   24 1     
   43   22   23 1     
   44   22   48 1     
   45   22   49 1     
   46   23   50 1     
   47   24   33 1     
   48   24   25 1     
   49   24   26 1     
   50   25   51 1     
   51   26   34 1     
   52   26   27 1     
   53   27   52 1     
   54   28   29 1     
   55   28   30 1     
   56   29   53 1     
   57   29   54 1     
   58   29   55 1     
   59    7   56 1     
   60    7   57 1     
   61   11   58 1     
   62   13   59 1     
   63   16   60 1     
   64   20   61 1     
   65   20   62 1     
   66   23   63 1     
   67   23   64 1     
   68   25   65 1     
   69   25   66 1     
   70   27   67 1     
   71   27   68 1     
   72   30   69 1     
   73   30   70 1     
@<TRIPOS>SUBSTRUCTURE
      1 S1             1
@<TRIPOS>SET
LONE_PAIRS      STATIC     ATOMS    <user>   **** ""
15 56 57 58 59 60 61 62 63 64 65 66 67 68 69 70
DONOR_HYDROGENS      STATIC     ATOMS    <user>   **** ""
5 42 45 50 51 52
ATOM$BLUE        STATIC     ATOMS    COLORGROUP SYSTEM
15 56 57 58 59 60 61 62 63 64 65 66 67 68 69 70
ATOM$RED        STATIC     ATOMS    COLORGROUP SYSTEM
5 42 45 50 51 52
