AV-unprocessed.smi:1824|AV-procd|sdf|7394|dock4
  -GOLD-   22720 9 63D 1   1.00000     0.00000
 Structure written by MMmdl.
 44 46  0  0  0  0  0  0  0  0  1 V2000
  149.0559  136.2303  159.7946 C   0  0  0  0  0  0  0  0  0  0  0  0
  150.0060  137.0574  158.9221 C   0  0  1  0  0  0  0  0  0  0  0  0
  149.4282  138.4453  158.5857 C   0  0  0  0  0  0  0  0  0  0  0  0
  150.3654  139.2586  157.8189 N   0  0  0  0  0  0  0  0  0  0  0  0
  149.7884  140.5658  157.5045 C   0  0  0  0  0  0  0  0  0  0  0  0
  150.5646  141.3943  156.4588 C   0  0  2  0  0  0  0  0  0  0  0  0
  150.9679  140.5436  155.4023 O   0  0  0  0  0  0  0  0  0  0  0  0
  151.8207  142.0520  157.0639 C   0  0  0  0  0  0  0  0  0  0  0  0
  151.5010  142.9894  158.1261 N   0  0  0  0  0  0  0  0  0  0  0  0
  150.6600  144.0395  158.0591 C   0  0  0  0  0  0  0  0  0  0  0  0
  150.5126  144.7729  159.1590 N   0  0  0  0  0  0  0  0  0  0  0  0
  151.3572  144.1240  160.0430 C   0  0  0  0  0  0  0  0  0  0  0  0
  151.6601  144.4027  161.3950 C   0  0  0  0  0  0  0  0  0  0  0  0
  152.5660  143.5894  162.1073 C   0  0  0  0  0  0  0  0  0  0  0  0
  152.8451  143.8712  163.4020 F   0  0  0  0  0  0  0  0  0  0  0  0
  153.1819  142.4864  161.4792 C   0  0  0  0  0  0  0  0  0  0  0  0
  154.0496  141.7100  162.1704 F   0  0  0  0  0  0  0  0  0  0  0  0
  152.8964  142.1894  160.1327 C   0  0  0  0  0  0  0  0  0  0  0  0
  151.9918  143.0035  159.4266 C   0  0  0  0  0  0  0  0  0  0  0  0
  151.6201  139.3587  158.5596 C   0  0  0  0  0  0  0  0  0  0  0  0
  152.2019  137.9733  158.9013 C   0  0  1  0  0  0  0  0  0  0  0  0
  153.4719  138.0733  159.7523 C   0  0  0  0  0  0  0  0  0  0  0  0
  151.2319  137.2251  159.6285 O   0  0  0  0  0  0  0  0  0  0  0  0
  148.1028  136.0674  159.2907 H   0  0  0  0  0  0  0  0  0  0  0  0
  148.8534  136.7308  160.7416 H   0  0  0  0  0  0  0  0  0  0  0  0
  149.4842  135.2530  160.0189 H   0  0  0  0  0  0  0  0  0  0  0  0
  150.2016  136.5088  157.9992 H   0  0  0  0  0  0  0  0  0  0  0  0
  148.5022  138.3215  158.0229 H   0  0  0  0  0  0  0  0  0  0  0  0
  149.1637  138.9617  159.5101 H   0  0  0  0  0  0  0  0  0  0  0  0
  148.7893  140.3914  157.1029 H   0  0  0  0  0  0  0  0  0  0  0  0
  149.6336  141.1467  158.4155 H   0  0  0  0  0  0  0  0  0  0  0  0
  149.9206  142.1762  156.0537 H   0  0  0  0  0  0  0  0  0  0  0  0
  150.3753  139.8084  155.3685 H   0  0  0  0  0  0  0  0  0  0  0  0
  152.4838  141.2903  157.4760 H   0  0  0  0  0  0  0  0  0  0  0  0
  152.3878  142.5755  156.2925 H   0  0  0  0  0  0  0  0  0  0  0  0
  150.1233  144.2771  157.1520 H   0  0  0  0  0  0  0  0  0  0  0  0
  151.1944  145.2441  161.8859 H   0  0  0  0  0  0  0  0  0  0  0  0
  153.3657  141.3456  159.6491 H   0  0  0  0  0  0  0  0  0  0  0  0
  152.3568  139.9094  157.9753 H   0  0  0  0  0  0  0  0  0  0  0  0
  151.4614  139.9246  159.4789 H   0  0  0  0  0  0  0  0  0  0  0  0
  152.4396  137.4401  157.9792 H   0  0  0  0  0  0  0  0  0  0  0  0
  154.2508  138.6299  159.2306 H   0  0  0  0  0  0  0  0  0  0  0  0
  153.8672  137.0831  159.9798 H   0  0  0  0  0  0  0  0  0  0  0  0
  153.2745  138.5787  160.6980 H   0  0  0  0  0  0  0  0  0  0  0  0
  1  2  1  0  0  0  0
  1 24  1  0  0  0  0
  1 25  1  0  0  0  0
  1 26  1  0  0  0  0
  2 23  1  0  0  0  0
  2  3  1  0  0  0  0
  2 27  1  0  0  0  0
  3  4  1  0  0  0  0
  3 28  1  0  0  0  0
  3 29  1  0  0  0  0
  4  5  1  0  0  0  0
  4 20  1  0  0  0  0
  5  6  1  0  0  0  0
  5 30  1  0  0  0  0
  5 31  1  0  0  0  0
  6  7  1  0  0  0  0
  6  8  1  0  0  0  0
  6 32  1  0  0  0  0
  7 33  1  0  0  0  0
  8  9  1  0  0  0  0
  8 34  1  0  0  0  0
  8 35  1  0  0  0  0
  9 19  1  0  0  0  0
  9 10  1  0  0  0  0
 10 11  2  0  0  0  0
 10 36  1  0  0  0  0
 11 12  1  0  0  0  0
 12 19  2  0  0  0  0
 12 13  1  0  0  0  0
 13 14  2  0  0  0  0
 13 37  1  0  0  0  0
 14 15  1  0  0  0  0
 14 16  1  0  0  0  0
 16 17  1  0  0  0  0
 16 18  2  0  0  0  0
 18 19  1  0  0  0  0
 18 38  1  0  0  0  0
 20 21  1  0  0  0  0
 20 39  1  0  0  0  0
 20 40  1  0  0  0  0
 21 22  1  0  0  0  0
 21 23  1  0  0  0  0
 21 41  1  0  0  0  0
 22 42  1  0  0  0  0
 22 43  1  0  0  0  0
 22 44  1  0  0  0  0
M  END
> <s_m_source_file>
AV-unprocessed.smi

> <i_m_source_file_index>
1824

> <i_lp_mmshare_version>
43012

> <i_f3d_flags>
0

> <s_epik_input>
W0NIM11bQ0BASF0xW0NIMl1OKFtDSDJdW0NASF0oTzEpW0NIM10pW0NIMl1bQ0BIXShbT0hdKVtDSDJdbihbY0hdbjIpYyhjMjMpW2NIXWMoRiljKEYpW2NIXTM=

> <s_epik_cmdline>
J2VwaWtfcHl0aG9uJywgJy1waCcsICc3LjAnLCAnLXRuJywgJzgnLCAnLW1hJywgJzIwMCcsICctbWV0YWxfYmluZGluZycsICctaW1hZScsICc8aW5maWxlLm1hZT4nLCAnLW9tYWUnLCAnPG91dGZpbGUubWFlPic=

> <r_epik_Ionization_Penalty>
0.273778

> <r_epik_Ionization_Penalty_Charging>
0

> <r_epik_Ionization_Penalty_Neutral>
0.273778

> <r_epik_State_Penalty>
0.246794

> <r_epik_Charging_Adjusted_Penalty>
0.246794

> <i_epik_Tot_Q>
0

> <i_epik_Tot_abs_Q>
0

> <r_epik_Metal_State_Penalty>
0.238234

> <b_epik_Metal_Only>
0

> <s_lp_Force_Field>
OPLS_2005

> <r_lp_Energy>
27.3836

> <b_lp_Chiralities_Consistent>
1

> <s_lp_Variant>
AV-unprocessed.smi:1824-2

> <Gold.Version>
5.8.1

> <Gold.Id.Protein>
6NUR|6NUR_protein|mol2

> <Gold.PLP.Fitness>
56.7254

> <Gold.PLP.PLP>
-48.3057

> <Gold.PLP.part.hbond>
-2.0000

> <Gold.PLP.part.metal>
0.0000

> <Gold.PLP.part.buried>
-8.0357

> <Gold.PLP.part.nonpolar>
-37.7356

> <Gold.PLP.part.repulsive>
0.1193

> <Gold.PLP.ligand.clash>
0.0000

> <Gold.PLP.ligand.torsion>
0.2367

> <Gold.PLP.Chemscore.Hbond>
1.9440

> <Gold.PLP.Chemscore.CHOScore>
1.0000

> <Gold.PLP.Chemscore.Metal>
0.0000

> <Gold.Chemscore.Hbonds>
donor molecule, donor type, donor heavy atom, donor atom, acceptor molecule, acceptor atom, score
      P1  H  7989  7998       L1     7  0.92
      L1  C    10    36       P1  8028  0.83

> <Gold.PLP.Chemscore.Internal.Correction>
0.0612

> <Gold.Rescore>
     Score         DG    S(hbond)    S(metal)    S(lipo)     H(rot)  DE(clash)    DE(int)     intcor
     16.43     -18.05       1.86        0.00     103.88       2.26       1.27       0.35       ----

> <Gold.Chemscore.Fitness>
16.4262

> <Gold.Chemscore.DG>
-18.0546

> <Gold.Chemscore.ZeroCoef>
-5.4800

> <Gold.Chemscore.Hbond>
1.8596

> <Gold.Chemscore.Metal>
0.0000

> <Gold.Chemscore.Lipo>
103.8792

> <Gold.Chemscore.Internal_Hbond>
0.0000

> <Gold.Chemscore.DEClash>
1.2741

> <Gold.Chemscore.DEInternal>
0.3544

> <Gold.Chemscore.Rot>
2.2619

> <Gold.Chemscore.Internal.Correction>
   9.000000E+99

> <Gold.Chemscore.Hbonds>
donor molecule, donor type, donor heavy atom, donor atom, acceptor molecule, acceptor atom, score
      P1  H  7989  7998       L1     7  0.55

> <Gold.Chemscore.Hbond.Weighted>
-6.2112

> <Gold.Chemscore.Metal.Weighted>
-0.0000

> <Gold.Chemscore.Lipo.Weighted>
-12.1539

> <Gold.Chemscore.Internal_Hbond.Weighted>
0.0000

> <Gold.Chemscore.DEClash.Weighted>
1.2741

> <Gold.Chemscore.DEInternal.Weighted>
0.3544

> <Gold.Chemscore.Rot.Weighted>
5.7904

> <Gold.Chemscore.Internal.Correction.Weighted>
   9.000000E+99

> <Gold.Protein.RotatedTorsions>
[ 6907 6896 6895 6894 ] final  -38.95 input  -60.11 | X-H torsion
[ 7974 7965 7964 7962 ] final  -91.27 input  175.53 | X-H torsion
[ 8008 7997 7996 7995 ] final  -49.48 input   59.86 | X-H torsion
[ 10167 10162 10161 10158 ] final  152.55 input  -65.29 | X-H torsion
[ 10718 10713 10712 10709 ] final  -12.87 input   66.30 | X-H torsion
[ 10763 10752 10751 10750 ] final -120.60 input  -60.55 | X-H torsion
[ 11005 11000 10999 10996 ] final  -98.13 input  -57.11 | X-H torsion

> <Gold.Protein.ActiveResidues>
 VAL166  LYS551  ARG553  GLY616  TRP617  ASP618  TYR619  PRO620  LYS621  CYS622 
 ASP623  PHE694  ASN695  SER759  ASP760  ASP761  ALA762  ILE779  LEU786  VAL792 
 PHE793  MET794  SER795  GLU796  ALA797  LYS798  CYS799  TRP800  GLU811  SER814 

> <Gold.Protein.RotatedAtoms>
  150.9962  134.9285  159.7927 H   0  0  0  0  0  0  0  0  0  0  0  0  # atno 6907 bound_to 6896
  152.5265  134.3216  159.9160 H   0  0  0  0  0  0  0  0  0  0  0  0  # atno 6908 bound_to 6896
  151.3221  133.3994  159.2690 H   0  0  0  0  0  0  0  0  0  0  0  0  # atno 6909 bound_to 6896
  145.4153  140.9548  143.2211 H   0  0  0  0  0  0  0  0  0  0  0  0  # atno 7974 bound_to 7965
  154.4045  140.1296  156.4509 H   0  0  0  0  0  0  0  0  0  0  0  0  # atno 8008 bound_to 7997
  155.7367  140.3490  155.5065 H   0  0  0  0  0  0  0  0  0  0  0  0  # atno 8009 bound_to 7997
  155.9077  140.1030  157.1293 H   0  0  0  0  0  0  0  0  0  0  0  0  # atno 8010 bound_to 7997
  139.4832  144.5348  151.7663 H   0  0  0  0  0  0  0  0  0  0  0  0  # atno 10167 bound_to 10162
  156.6383  130.4921  149.6104 H   0  0  0  0  0  0  0  0  0  0  0  0  # atno 10718 bound_to 10713
  154.8648  135.4197  154.2485 H   0  0  0  0  0  0  0  0  0  0  0  0  # atno 10763 bound_to 10752
  153.3436  135.6995  153.6852 H   0  0  0  0  0  0  0  0  0  0  0  0  # atno 10764 bound_to 10752
  153.5820  135.3571  155.2851 H   0  0  0  0  0  0  0  0  0  0  0  0  # atno 10765 bound_to 10752
  141.1355  133.8222  157.0799 H   0  0  0  0  0  0  0  0  0  0  0  0  # atno 11005 bound_to 11000
  144.8281  139.5675  143.6956 LP  0  0  0  0  0  0  0  0  0  0  0  0  # atno 17320 bound_to 7965
  146.2684  139.6575  142.9313 LP  0  0  0  0  0  0  0  0  0  0  0  0  # atno 17321 bound_to 7965
  140.4879  144.1353  150.5944 LP  0  0  0  0  0  0  0  0  0  0  0  0  # atno 17342 bound_to 10162
  140.4204  143.2614  151.9722 LP  0  0  0  0  0  0  0  0  0  0  0  0  # atno 17343 bound_to 10162
  156.2179  130.6719  151.1338 LP  0  0  0  0  0  0  0  0  0  0  0  0  # atno 17370 bound_to 10713
  157.7179  131.0699  150.6255 LP  0  0  0  0  0  0  0  0  0  0  0  0  # atno 17371 bound_to 10713
  140.0458  134.9831  157.1046 LP  0  0  0  0  0  0  0  0  0  0  0  0  # atno 17394 bound_to 11000
  140.4065  134.2027  155.7163 LP  0  0  0  0  0  0  0  0  0  0  0  0  # atno 17395 bound_to 11000

$$$$
