#       Name:                AV-unprocessed.smi:264
#       Creating user name   scv26
#       Creation time:       Thu Mar 26 21:20:29 2020


#       File generated by GOLD software.
#

@<TRIPOS>MOLECULE
AV-unprocessed.smi:264
    64    68     1
SMALL
NO_CHARGES


@<TRIPOS>ATOM
      1 ****        -1.6282  -2.7455   5.6820 C.3            1 S1                 0.0000
      2 ****        -2.5925  -1.8635   4.8735 C.3            1 S1                 0.0000
      3 ****        -3.5937  -2.7159   4.3227 O.3            1 S1                 0.0000
      4 ****        -4.0261  -2.1808   3.0846 C.3            1 S1                 0.0000
      5 ****        -2.7273  -1.6796   2.4724 C.3            1 S1                 0.0000
      6 ****        -1.9893  -1.0862   3.6691 C.3            1 S1                 0.0000
      7 ****        -2.3839   0.2702   3.7940 O.3            1 S1                 0.0000
      8 ****        -0.4447  -1.1225   3.5275 C.3            1 S1                 0.0000
      9 ****         0.0458  -0.4270   2.3468 N.pl3          1 S1                 0.0000
     10 ****         0.3127   0.9189   2.2368 C.2            1 S1                 0.0000
     11 ****         0.7459   1.3073   1.0687 N.2            1 S1                 0.0000
     12 ****         0.7947   0.1383   0.3182 C.ar           1 S1                 0.0000
     13 ****         1.1696  -0.1644  -1.0215 C.ar           1 S1                 0.0000
     14 ****         1.6203   0.7785  -1.8879 N.3            1 S1                 0.0000
     15 ****         2.8624   1.4306  -1.4918 C.3            1 S1                 0.0000
     16 ****         3.0842   2.6900  -2.3404 C.3            1 S1                 0.0000
     17 ****         3.0560   2.3549  -3.7269 O.3            1 S1                 0.0000
     18 ****         1.8366   1.7456  -4.1628 C.3            1 S1                 0.0000
     19 ****         0.6773   2.7499  -4.1622 C.3            1 S1                 0.0000
     20 ****         0.0320   2.5666  -5.5290 C.3            1 S1                 0.0000
     21 ****         1.1494   2.3060  -6.3569 O.3            1 S1                 0.0000
     22 ****         1.9796   1.3917  -5.6557 C.3            1 S1                 0.0000
     23 ****         1.5639   0.4802  -3.3169 C.3            1 S1                 0.0000
     24 ****         1.0622  -1.4602  -1.4217 N.ar           1 S1                 0.0000
     25 ****         0.6331  -2.3971  -0.5714 C.ar           1 S1                 0.0000
     26 ****         0.2611  -2.2603   0.7024 N.ar           1 S1                 0.0000
     27 ****         0.3538  -0.9616   1.1078 C.ar           1 S1                 0.0000
     28 ****        -0.8400  -2.1532   6.1469 H              1 S1                 0.0000
     29 ****        -1.1614  -3.5069   5.0565 H              1 S1                 0.0000
     30 ****        -2.1605  -3.2623   6.4808 H              1 S1                 0.0000
     31 ****        -3.0866  -1.1754   5.5619 H              1 S1                 0.0000
     32 ****        -4.5200  -2.9343   2.4707 H              1 S1                 0.0000
     33 ****        -4.7239  -1.3605   3.2587 H              1 S1                 0.0000
     34 ****        -2.1768  -2.5351   2.0795 H              1 S1                 0.0000
     35 ****        -2.8796  -0.9766   1.6521 H              1 S1                 0.0000
     36 ****        -3.3253   0.3014   3.8714 H              1 S1                 0.0000
     37 ****         0.0274  -0.6755   4.4033 H              1 S1                 0.0000
     38 ****        -0.0885  -2.1515   3.4764 H              1 S1                 0.0000
     39 ****         0.1688   1.6090   3.0554 H              1 S1                 0.0000
     40 ****         2.8570   1.7016  -0.4366 H              1 S1                 0.0000
     41 ****         3.6894   0.7338  -1.6352 H              1 S1                 0.0000
     42 ****         2.3322   3.4455  -2.1100 H              1 S1                 0.0000
     43 ****         4.0528   3.1314  -2.1061 H              1 S1                 0.0000
     44 ****        -0.0277   2.6066  -3.3426 H              1 S1                 0.0000
     45 ****         1.0606   3.7690  -4.0945 H              1 S1                 0.0000
     46 ****        -0.6437   1.7096  -5.5352 H              1 S1                 0.0000
     47 ****        -0.5190   3.4475  -5.8586 H              1 S1                 0.0000
     48 ****         3.0093   1.4483  -6.0098 H              1 S1                 0.0000
     49 ****         1.6180   0.3820  -5.8577 H              1 S1                 0.0000
     50 ****         2.3114  -0.2812  -3.5452 H              1 S1                 0.0000
     51 ****         0.5896   0.0628  -3.5765 H              1 S1                 0.0000
     52 ****         0.5817  -3.4001  -0.9685 H              1 S1                 0.0000
     53 ****        -4.3687  -2.7728   4.9522 LP             1 S1                 0.0000
     54 ****        -3.2137  -3.6296   4.1785 LP             1 S1                 0.0000
     55 ****        -2.0945   0.7819   2.9851 LP             1 S1                 0.0000
     56 ****        -1.9647   0.6701   4.6091 LP             1 S1                 0.0000
     57 ****         0.9874   2.2337   0.7797 LP             1 S1                 0.0000
     58 ****         0.8947   1.4589  -1.7851 LP             1 S1                 0.0000
     59 ****         3.8062   1.7197  -3.9105 LP             1 S1                 0.0000
     60 ****         3.1927   3.1935  -4.2542 LP             1 S1                 0.0000
     61 ****         1.6480   3.1537  -6.5380 LP             1 S1                 0.0000
     62 ****         0.8497   1.9041  -7.2222 LP             1 S1                 0.0000
     63 ****         1.3059  -1.7130  -2.3580 LP             1 S1                 0.0000
     64 ****        -0.0461  -3.0130   1.2848 LP             1 S1                 0.0000
@<TRIPOS>BOND
    1    1    2 1     
    2    1   28 1     
    3    1   29 1     
    4    1   30 1     
    5    2    6 1     
    6    2    3 1     
    7    2   31 1     
    8    3    4 1     
    9    4    5 1     
   10    4   32 1     
   11    4   33 1     
   12    5    6 1     
   13    5   34 1     
   14    5   35 1     
   15    6    7 1     
   16    6    8 1     
   17    7   36 1     
   18    8    9 1     
   19    8   37 1     
   20    8   38 1     
   21    9   27 1     
   22    9   10 1     
   23   10   11 2     
   24   10   39 1     
   25   11   12 1     
   26   12   27 ar    
   27   12   13 ar    
   28   13   14 1     
   29   13   24 ar    
   30   14   23 1     
   31   14   15 1     
   32   15   16 1     
   33   15   40 1     
   34   15   41 1     
   35   16   17 1     
   36   16   42 1     
   37   16   43 1     
   38   17   18 1     
   39   18   22 1     
   40   18   19 1     
   41   18   23 1     
   42   19   20 1     
   43   19   44 1     
   44   19   45 1     
   45   20   21 1     
   46   20   46 1     
   47   20   47 1     
   48   21   22 1     
   49   22   48 1     
   50   22   49 1     
   51   23   50 1     
   52   23   51 1     
   53   24   25 ar    
   54   25   26 ar    
   55   25   52 1     
   56   26   27 ar    
   57    3   53 1     
   58    3   54 1     
   59    7   55 1     
   60    7   56 1     
   61   11   57 1     
   62   14   58 1     
   63   17   59 1     
   64   17   60 1     
   65   21   61 1     
   66   21   62 1     
   67   24   63 1     
   68   26   64 1     
@<TRIPOS>SUBSTRUCTURE
      1 S1             1
@<TRIPOS>SET
LONE_PAIRS      STATIC     ATOMS    <user>   **** ""
12 53 54 55 56 57 58 59 60 61 62 63 64
DONOR_HYDROGENS      STATIC     ATOMS    <user>   **** ""
1 36
ATOM$BLUE        STATIC     ATOMS    COLORGROUP SYSTEM
12 53 54 55 56 57 58 59 60 61 62 63 64
ATOM$RED        STATIC     ATOMS    COLORGROUP SYSTEM
1 36
