#       Name:                AV-unprocessed.smi:1964
#       Creating user name   scv26
#       Creation time:       Fri Mar 27 10:10:01 2020


#       File generated by GOLD software.
#

@<TRIPOS>MOLECULE
AV-unprocessed.smi:1964
    53    55     1
SMALL
NO_CHARGES


@<TRIPOS>ATOM
      1 ****        -0.9019  -0.8293  -2.7440 C.3            1 S1                 0.0000
      2 ****        -1.9986  -0.7239  -1.6697 C.3            1 S1                 0.0000
      3 ****        -1.6908  -1.6332  -0.4604 C.3            1 S1                 0.0000
      4 ****        -2.8036  -1.5630   0.5983 C.3            1 S1                 0.0000
      5 ****        -3.0619  -0.1170   1.0492 C.3            1 S1                 0.0000
      6 ****        -3.3691   0.7948  -0.1525 C.3            1 S1                 0.0000
      7 ****        -2.2582   0.7358  -1.2213 C.3            1 S1                 0.0000
      8 ****        -1.0313   1.3304  -0.7021 N.am           1 S1                 0.0000
      9 ****        -0.6375   2.6091  -0.8111 C.2            1 S1                 0.0000
     10 ****        -1.2987   3.4686  -1.3915 O.2            1 S1                 0.0000
     11 ****         0.7055   2.9932  -0.1628 C.3            1 S1                 0.0000
     12 ****         1.3323   1.9053   0.6263 N.am           1 S1                 0.0000
     13 ****         1.0157   1.7987   2.0052 C.2            1 S1                 0.0000
     14 ****         0.2560   2.6036   2.5463 O.2            1 S1                 0.0000
     15 ****         1.6365   0.6790   2.7088 C.2            1 S1                 0.0000
     16 ****         1.3769   0.5633   4.1057 C.1            1 S1                 0.0000
     17 ****         1.1773   0.4469   5.2397 N.1            1 S1                 0.0000
     18 ****         2.4152  -0.2070   2.0545 C.2            1 S1                 0.0000
     19 ****         2.6607  -0.1190   0.7017 N.am           1 S1                 0.0000
     20 ****         3.5770  -1.0079   0.0452 C.3            1 S1                 0.0000
     21 ****         3.1305  -1.8079  -1.1638 C.3            1 S1                 0.0000
     22 ****         3.3560  -2.5009   0.1567 C.3            1 S1                 0.0000
     23 ****         2.1702   0.9773  -0.0398 C.2            1 S1                 0.0000
     24 ****         2.4462   1.1156  -1.2339 O.2            1 S1                 0.0000
     25 ****         0.0710  -0.5192  -2.3618 H              1 S1                 0.0000
     26 ****        -1.1356  -0.2031  -3.6052 H              1 S1                 0.0000
     27 ****        -0.8022  -1.8546  -3.1004 H              1 S1                 0.0000
     28 ****        -2.9207  -1.0897  -2.1244 H              1 S1                 0.0000
     29 ****        -1.5725  -2.6651  -0.7926 H              1 S1                 0.0000
     30 ****        -0.7389  -1.3483  -0.0092 H              1 S1                 0.0000
     31 ****        -3.7221  -1.9857   0.1892 H              1 S1                 0.0000
     32 ****        -2.5370  -2.1781   1.4582 H              1 S1                 0.0000
     33 ****        -3.8926  -0.0915   1.7549 H              1 S1                 0.0000
     34 ****        -2.1913   0.2598   1.5880 H              1 S1                 0.0000
     35 ****        -4.3149   0.4886  -0.6014 H              1 S1                 0.0000
     36 ****        -3.5142   1.8214   0.1864 H              1 S1                 0.0000
     37 ****        -2.5859   1.3062  -2.0924 H              1 S1                 0.0000
     38 ****        -0.4151   0.7030  -0.2064 H              1 S1                 0.0000
     39 ****         1.3761   3.3366  -0.9516 H              1 S1                 0.0000
     40 ****         0.5472   3.8820   0.4498 H              1 S1                 0.0000
     41 ****         2.8550  -1.0248   2.6073 H              1 S1                 0.0000
     42 ****         4.6157  -0.6825   0.0401 H              1 S1                 0.0000
     43 ****         2.1000  -1.7068  -1.4989 H              1 S1                 0.0000
     44 ****         3.8618  -1.9746  -1.9519 H              1 S1                 0.0000
     45 ****         4.2371  -3.1327   0.2485 H              1 S1                 0.0000
     46 ****         2.4744  -2.8515   0.6902 H              1 S1                 0.0000
     47 ****        -2.1744   3.2278  -1.8100 LP             1 S1                 0.0000
     48 ****        -0.9606   4.4081  -1.4449 LP             1 S1                 0.0000
     49 ****        -0.1480   3.3464   2.0125 LP             1 S1                 0.0000
     50 ****         0.0433   2.5140   3.5193 LP             1 S1                 0.0000
     51 ****         1.0048   0.3463   6.2195 LP             1 S1                 0.0000
     52 ****         2.0771   1.8912  -1.7458 LP             1 S1                 0.0000
     53 ****         3.0391   0.4520  -1.6902 LP             1 S1                 0.0000
@<TRIPOS>BOND
    1    1    2 1     
    2    1   25 1     
    3    1   26 1     
    4    1   27 1     
    5    2    7 1     
    6    2    3 1     
    7    2   28 1     
    8    3    4 1     
    9    3   29 1     
   10    3   30 1     
   11    4    5 1     
   12    4   31 1     
   13    4   32 1     
   14    5    6 1     
   15    5   33 1     
   16    5   34 1     
   17    6    7 1     
   18    6   35 1     
   19    6   36 1     
   20    7    8 1     
   21    7   37 1     
   22    8    9 am    
   23    8   38 1     
   24    9   10 2     
   25    9   11 1     
   26   11   12 1     
   27   11   39 1     
   28   11   40 1     
   29   12   23 am    
   30   12   13 am    
   31   13   14 2     
   32   13   15 1     
   33   15   16 1     
   34   15   18 2     
   35   16   17 3     
   36   18   19 1     
   37   18   41 1     
   38   19   20 1     
   39   19   23 am    
   40   20   22 1     
   41   20   21 1     
   42   20   42 1     
   43   21   22 1     
   44   21   43 1     
   45   21   44 1     
   46   22   45 1     
   47   22   46 1     
   48   23   24 2     
   49   10   47 1     
   50   10   48 1     
   51   14   49 1     
   52   14   50 1     
   53   17   51 1     
   54   24   52 1     
   55   24   53 1     
@<TRIPOS>SUBSTRUCTURE
      1 S1             1
@<TRIPOS>SET
LONE_PAIRS      STATIC     ATOMS    <user>   **** ""
7 47 48 49 50 51 52 53
DONOR_HYDROGENS      STATIC     ATOMS    <user>   **** ""
1 38
ATOM$BLUE        STATIC     ATOMS    COLORGROUP SYSTEM
7 47 48 49 50 51 52 53
ATOM$RED        STATIC     ATOMS    COLORGROUP SYSTEM
1 38
