AV-unprocessed.smi:3276|AV-procd|sdf|12535|dock1
  -GOLD-   2272018453D 1   1.00000     0.00000
 Structure written by MMmdl.
 39 40  0  0  0  0  0  0  0  0  1 V2000
  150.5989  142.9391  158.6481 C   0  0  0  0  0  0  0  0  0  0  0  0
  150.9254  141.8267  157.6748 C   0  0  0  0  0  0  0  0  0  0  0  0
  150.8298  142.0130  156.2794 C   0  0  0  0  0  0  0  0  0  0  0  0
  151.1177  141.0189  155.4119 N   0  0  0  0  0  0  0  0  0  0  0  0
  151.5013  139.8354  155.9445 C   0  0  0  0  0  0  0  0  0  0  0  0
  151.8146  138.7273  154.9551 C   0  0  0  0  0  0  0  0  0  0  0  0
  151.5976  139.6410  157.3462 C   0  0  0  0  0  0  0  0  0  0  0  0
  151.9998  138.3987  157.8619 N   0  0  0  0  0  0  0  0  0  0  0  0
  151.3240  137.8096  159.0121 C   0  0  0  0  0  0  0  0  0  0  0  0
  149.8915  137.3656  158.6826 C   0  0  0  0  0  0  0  0  0  0  0  0
  149.5795  136.2215  159.4586 O   0  0  0  0  0  0  0  0  0  0  0  0
  148.3322  135.6417  159.1129 C   0  0  0  0  0  0  0  0  0  0  0  0
  147.2813  136.0122  160.1684 C   0  0  1  0  0  0  0  0  0  0  0  0
  146.3997  134.8533  160.6436 C   0  0  0  0  0  0  0  0  0  0  0  0
  146.0621  135.2836  162.0531 C   0  0  0  0  0  0  0  0  0  0  0  0
  147.3723  135.9258  162.4971 C   0  0  0  0  0  0  0  0  0  0  0  0
  147.8989  136.5549  161.3336 O   0  0  0  0  0  0  0  0  0  0  0  0
  151.3085  140.6462  158.2087 N   0  0  0  0  0  0  0  0  0  0  0  0
  150.4725  143.8899  158.1296 H   0  0  0  0  0  0  0  0  0  0  0  0
  151.4002  143.0547  159.3787 H   0  0  0  0  0  0  0  0  0  0  0  0
  149.6751  142.7148  159.1818 H   0  0  0  0  0  0  0  0  0  0  0  0
  150.5222  142.9581  155.8566 H   0  0  0  0  0  0  0  0  0  0  0  0
  151.1605  137.8716  155.1257 H   0  0  0  0  0  0  0  0  0  0  0  0
  152.8485  138.3999  155.0673 H   0  0  0  0  0  0  0  0  0  0  0  0
  151.6751  139.0590  153.9254 H   0  0  0  0  0  0  0  0  0  0  0  0
  152.5137  137.7757  157.2558 H   0  0  0  0  0  0  0  0  0  0  0  0
  151.9054  136.9516  159.3501 H   0  0  0  0  0  0  0  0  0  0  0  0
  151.3189  138.5185  159.8407 H   0  0  0  0  0  0  0  0  0  0  0  0
  149.1946  138.1691  158.9248 H   0  0  0  0  0  0  0  0  0  0  0  0
  149.7837  137.1524  157.6180 H   0  0  0  0  0  0  0  0  0  0  0  0
  148.0151  135.9893  158.1285 H   0  0  0  0  0  0  0  0  0  0  0  0
  148.4299  134.5564  159.0615 H   0  0  0  0  0  0  0  0  0  0  0  0
  146.6376  136.7962  159.7673 H   0  0  0  0  0  0  0  0  0  0  0  0
  145.5190  134.7051  160.0181 H   0  0  0  0  0  0  0  0  0  0  0  0
  146.9569  133.9160  160.6715 H   0  0  0  0  0  0  0  0  0  0  0  0
  145.2631  136.0263  162.0397 H   0  0  0  0  0  0  0  0  0  0  0  0
  145.7540  134.4563  162.6930 H   0  0  0  0  0  0  0  0  0  0  0  0
  147.2378  136.6379  163.3116 H   0  0  0  0  0  0  0  0  0  0  0  0
  148.0759  135.1603  162.8268 H   0  0  0  0  0  0  0  0  0  0  0  0
  1  2  1  0  0  0  0
  1 19  1  0  0  0  0
  1 20  1  0  0  0  0
  1 21  1  0  0  0  0
  2 18  1  0  0  0  0
  2  3  2  0  0  0  0
  3  4  1  0  0  0  0
  3 22  1  0  0  0  0
  4  5  2  0  0  0  0
  5  6  1  0  0  0  0
  5  7  1  0  0  0  0
  6 23  1  0  0  0  0
  6 24  1  0  0  0  0
  6 25  1  0  0  0  0
  7  8  1  0  0  0  0
  7 18  2  0  0  0  0
  8  9  1  0  0  0  0
  8 26  1  0  0  0  0
  9 10  1  0  0  0  0
  9 27  1  0  0  0  0
  9 28  1  0  0  0  0
 10 11  1  0  0  0  0
 10 29  1  0  0  0  0
 10 30  1  0  0  0  0
 11 12  1  0  0  0  0
 12 13  1  0  0  0  0
 12 31  1  0  0  0  0
 12 32  1  0  0  0  0
 13 17  1  0  0  0  0
 13 14  1  0  0  0  0
 13 33  1  0  0  0  0
 14 15  1  0  0  0  0
 14 34  1  0  0  0  0
 14 35  1  0  0  0  0
 15 16  1  0  0  0  0
 15 36  1  0  0  0  0
 15 37  1  0  0  0  0
 16 17  1  0  0  0  0
 16 38  1  0  0  0  0
 16 39  1  0  0  0  0
M  END
> <s_m_source_file>
AV-unprocessed.smi

> <i_m_source_file_index>
3276

> <i_lp_mmshare_version>
43012

> <i_f3d_flags>
0

> <s_epik_input>
W0NIM11jMVtjSF1uYyhbQ0gzXSljKG4xKVtOSF1bQ0gyXVtDSDJdT1tDSDJdW0NAQEhdMltDSDJdW0NIMl1bQ0gyXU8y

> <s_epik_cmdline>
J2VwaWtfcHl0aG9uJywgJy1waCcsICc3LjAnLCAnLXRuJywgJzgnLCAnLW1hJywgJzIwMCcsICctbWV0YWxfYmluZGluZycsICctaW1hZScsICc8aW5maWxlLm1hZT4nLCAnLW9tYWUnLCAnPG91dGZpbGUubWFlPic=

> <r_lp_tautomer_probability>
1

> <r_epik_Ionization_Penalty>
0.000506

> <r_epik_Ionization_Penalty_Charging>
0

> <r_epik_Ionization_Penalty_Neutral>
0.000506

> <r_epik_State_Penalty>
-0

> <r_epik_Charging_Adjusted_Penalty>
0

> <i_epik_Tot_Q>
0

> <i_epik_Tot_abs_Q>
0

> <r_epik_Metal_State_Penalty>
-0

> <b_epik_Metal_Only>
0

> <s_lp_Force_Field>
OPLS_2005

> <r_lp_Energy>
26.2022

> <b_lp_Chiralities_Consistent>
1

> <s_lp_Variant>
AV-unprocessed.smi:3276-2

> <Gold.Version>
5.8.1

> <Gold.Id.Protein>
6NUR|6NUR_protein|mol2

> <Gold.PLP.Fitness>
42.5087

> <Gold.PLP.PLP>
-33.7992

> <Gold.PLP.part.hbond>
-3.1253

> <Gold.PLP.part.metal>
0.0000

> <Gold.PLP.part.buried>
-4.8117

> <Gold.PLP.part.nonpolar>
-26.1016

> <Gold.PLP.part.repulsive>
0.1217

> <Gold.PLP.ligand.clash>
0.0000

> <Gold.PLP.ligand.torsion>
1.5724

> <Gold.PLP.Chemscore.Hbond>
2.8640

> <Gold.PLP.Chemscore.CHOScore>
1.0000

> <Gold.PLP.Chemscore.Metal>
0.0000

> <Gold.Chemscore.Hbonds>
donor molecule, donor type, donor heavy atom, donor atom, acceptor molecule, acceptor atom, score
      P1  H  6896  6907       L1    11  1.00
      P1  H  6931  6943       L1    17  0.78
      P1  H  7989  7998       L1     4  0.66
      L1  C     3    22       P1  8028  1.00

> <Gold.PLP.Chemscore.Internal.Correction>
0.2623

> <Gold.Rescore>
     Score         DG    S(hbond)    S(metal)    S(lipo)     H(rot)  DE(clash)    DE(int)     intcor
     17.82     -19.23       2.60        0.00      80.12       1.68       0.04       1.37       ----

> <Gold.Chemscore.Fitness>
17.8212

> <Gold.Chemscore.DG>
-19.2298

> <Gold.Chemscore.ZeroCoef>
-5.4800

> <Gold.Chemscore.Hbond>
2.5992

> <Gold.Chemscore.Metal>
0.0000

> <Gold.Chemscore.Lipo>
80.1223

> <Gold.Chemscore.Internal_Hbond>
0.0000

> <Gold.Chemscore.DEClash>
0.0377

> <Gold.Chemscore.DEInternal>
1.3710

> <Gold.Chemscore.Rot>
1.6820

> <Gold.Chemscore.Internal.Correction>
   9.000000E+99

> <Gold.Chemscore.Hbonds>
donor molecule, donor type, donor heavy atom, donor atom, acceptor molecule, acceptor atom, score
      P1  H  6896  6907       L1    11  0.69
      P1  H  6931  6943       L1    17  0.54
      P1  H  7989  7998       L1     4  0.32

> <Gold.Chemscore.Hbond.Weighted>
-8.6813

> <Gold.Chemscore.Metal.Weighted>
-0.0000

> <Gold.Chemscore.Lipo.Weighted>
-9.3743

> <Gold.Chemscore.Internal_Hbond.Weighted>
0.0000

> <Gold.Chemscore.DEClash.Weighted>
0.0377

> <Gold.Chemscore.DEInternal.Weighted>
1.3710

> <Gold.Chemscore.Rot.Weighted>
4.3058

> <Gold.Chemscore.Internal.Correction.Weighted>
   9.000000E+99

> <Gold.Protein.RotatedTorsions>
[ 6907 6896 6895 6894 ] final  -50.48 input  -60.11 | X-H torsion
[ 7974 7965 7964 7962 ] final  114.74 input  175.53 | X-H torsion
[ 8008 7997 7996 7995 ] final -160.95 input   59.86 | X-H torsion
[ 10167 10162 10161 10158 ] final   30.94 input  -65.29 | X-H torsion
[ 10718 10713 10712 10709 ] final  156.47 input   66.30 | X-H torsion
[ 10763 10752 10751 10750 ] final  127.58 input  -60.55 | X-H torsion
[ 11005 11000 10999 10996 ] final  147.43 input  -57.11 | X-H torsion

> <Gold.Protein.ActiveResidues>
 VAL166  LYS551  ARG553  GLY616  TRP617  ASP618  TYR619  PRO620  LYS621  CYS622 
 ASP623  PHE694  ASN695  SER759  ASP760  ASP761  ALA762  ILE779  LEU786  VAL792 
 PHE793  MET794  SER795  GLU796  ALA797  LYS798  CYS799  TRP800  GLU811  SER814 

> <Gold.Protein.RotatedAtoms>
  150.8703  134.8076  159.7149 H   0  0  0  0  0  0  0  0  0  0  0  0  # atno 6907 bound_to 6896
  152.4710  134.4957  159.9719 H   0  0  0  0  0  0  0  0  0  0  0  0  # atno 6908 bound_to 6896
  151.5046  133.3459  159.2910 H   0  0  0  0  0  0  0  0  0  0  0  0  # atno 6909 bound_to 6896
  145.2007  139.2954  143.4320 H   0  0  0  0  0  0  0  0  0  0  0  0  # atno 7974 bound_to 7965
  155.7850  140.0870  157.2039 H   0  0  0  0  0  0  0  0  0  0  0  0  # atno 8008 bound_to 7997
  154.3988  140.1500  156.3154 H   0  0  0  0  0  0  0  0  0  0  0  0  # atno 8009 bound_to 7997
  155.8616  140.3430  155.5762 H   0  0  0  0  0  0  0  0  0  0  0  0  # atno 8010 bound_to 7997
  140.4633  144.0873  150.6218 H   0  0  0  0  0  0  0  0  0  0  0  0  # atno 10167 bound_to 10162
  157.2046  131.0684  151.2005 H   0  0  0  0  0  0  0  0  0  0  0  0  # atno 10718 bound_to 10713
  153.7116  135.3267  155.3247 H   0  0  0  0  0  0  0  0  0  0  0  0  # atno 10763 bound_to 10752
  154.8383  135.4478  154.1308 H   0  0  0  0  0  0  0  0  0  0  0  0  # atno 10764 bound_to 10752
  153.2403  135.6970  153.7870 H   0  0  0  0  0  0  0  0  0  0  0  0  # atno 10765 bound_to 10752
  140.0875  134.9061  157.1598 H   0  0  0  0  0  0  0  0  0  0  0  0  # atno 11005 bound_to 11000
  146.3418  140.2251  142.8592 LP  0  0  0  0  0  0  0  0  0  0  0  0  # atno 17320 bound_to 7965
  144.9951  140.8581  143.5316 LP  0  0  0  0  0  0  0  0  0  0  0  0  # atno 17321 bound_to 7965
  140.4067  143.2677  151.9883 LP  0  0  0  0  0  0  0  0  0  0  0  0  # atno 17342 bound_to 10162
  139.4809  144.5951  151.7704 LP  0  0  0  0  0  0  0  0  0  0  0  0  # atno 17343 bound_to 10162
  157.3733  130.7193  149.6580 LP  0  0  0  0  0  0  0  0  0  0  0  0  # atno 17370 bound_to 10713
  155.9697  130.4192  150.4366 LP  0  0  0  0  0  0  0  0  0  0  0  0  # atno 17371 bound_to 10713
  140.3400  134.2715  155.7214 LP  0  0  0  0  0  0  0  0  0  0  0  0  # atno 17394 bound_to 11000
  141.2067  133.7825  157.0161 LP  0  0  0  0  0  0  0  0  0  0  0  0  # atno 17395 bound_to 11000

$$$$
