AV-unprocessed.smi:1009|AV-procd|sdf|4414|dock10
  -GOLD-   22720 2363D 1   1.00000     0.00000
 Structure written by MMmdl.
 33 33  0  0  0  0  0  0  0  0  2 V2000
  150.1043  138.7602  154.3626 C   0  0  0  0  0  0  0  0  0  0  0  0
  148.8461  138.0430  154.0598 N   0  3  0  0  0  0  0  0  0  0  0  0
  147.8043  138.9658  153.5523 C   0  0  0  0  0  0  0  0  0  0  0  0
  148.3873  137.2154  155.2030 C   0  0  0  0  0  0  0  0  0  0  0  0
  147.1386  136.3787  154.8638 C   0  0  0  0  0  0  0  0  0  0  0  0
  147.3514  135.5775  153.6653 N   0  0  0  0  0  0  0  0  0  0  0  0
  146.4817  134.6801  153.1760 C   0  0  0  0  0  0  0  0  0  0  0  0
  145.3812  134.4584  153.6809 O   0  0  0  0  0  0  0  0  0  0  0  0
  146.9278  133.9028  151.9374 C   0  0  0  0  0  0  0  0  0  0  0  0
  145.8908  132.9842  151.5032 N   0  0  0  0  0  0  0  0  0  0  0  0
  145.9569  131.6076  151.3963 C   0  0  0  0  0  0  0  0  0  0  0  0
  144.7481  131.1731  150.9305 C   0  0  0  0  0  0  0  0  0  0  0  0
  144.0112  132.3790  150.7859 C   0  0  0  0  0  0  0  0  0  0  0  0
  142.6981  132.4198  150.3253 N   0  0  0  0  0  0  0  0  0  0  0  0
  144.6839  133.4636  151.1240 N   0  0  0  0  0  0  0  0  0  0  0  0
  149.9655  139.4628  155.1857 H   0  0  0  0  0  0  0  0  0  0  0  0
  150.4511  139.3173  153.4915 H   0  0  0  0  0  0  0  0  0  0  0  0
  150.8933  138.0598  154.6392 H   0  0  0  0  0  0  0  0  0  0  0  0
  147.4976  139.6726  154.3244 H   0  0  0  0  0  0  0  0  0  0  0  0
  146.9208  138.4255  153.2142 H   0  0  0  0  0  0  0  0  0  0  0  0
  148.1782  139.5361  152.7011 H   0  0  0  0  0  0  0  0  0  0  0  0
  149.1850  136.5287  155.4907 H   0  0  0  0  0  0  0  0  0  0  0  0
  148.2082  137.8568  156.0675 H   0  0  0  0  0  0  0  0  0  0  0  0
  146.8576  135.7231  155.6884 H   0  0  0  0  0  0  0  0  0  0  0  0
  146.2871  137.0358  154.6853 H   0  0  0  0  0  0  0  0  0  0  0  0
  148.2334  135.6916  153.1859 H   0  0  0  0  0  0  0  0  0  0  0  0
  147.1495  134.5941  151.1230 H   0  0  0  0  0  0  0  0  0  0  0  0
  147.8440  133.3481  152.1463 H   0  0  0  0  0  0  0  0  0  0  0  0
  146.8508  131.0592  151.6552 H   0  0  0  0  0  0  0  0  0  0  0  0
  144.4436  130.1573  150.7262 H   0  0  0  0  0  0  0  0  0  0  0  0
  142.2020  131.5784  150.0689 H   0  0  0  0  0  0  0  0  0  0  0  0
  142.1768  133.2842  150.3015 H   0  0  0  0  0  0  0  0  0  0  0  0
  149.0638  137.4031  153.3091 H   0  0  0  0  0  0  0  0  0  0  0  0
  1  2  1  0  0  0  0
  1 16  1  0  0  0  0
  1 17  1  0  0  0  0
  1 18  1  0  0  0  0
  2  3  1  0  0  0  0
  2  4  1  0  0  0  0
  2 33  1  0  0  0  0
  3 19  1  0  0  0  0
  3 20  1  0  0  0  0
  3 21  1  0  0  0  0
  4  5  1  0  0  0  0
  4 22  1  0  0  0  0
  4 23  1  0  0  0  0
  5  6  1  0  0  0  0
  5 24  1  0  0  0  0
  5 25  1  0  0  0  0
  6  7  1  0  0  0  0
  6 26  1  0  0  0  0
  7  8  2  0  0  0  0
  7  9  1  0  0  0  0
  9 10  1  0  0  0  0
  9 27  1  0  0  0  0
  9 28  1  0  0  0  0
 10 15  1  0  0  0  0
 10 11  1  0  0  0  0
 11 12  2  0  0  0  0
 11 29  1  0  0  0  0
 12 13  1  0  0  0  0
 12 30  1  0  0  0  0
 13 14  1  0  0  0  0
 13 15  2  0  0  0  0
 14 31  1  0  0  0  0
 14 32  1  0  0  0  0
M  CHG  1   2   1
M  END
> <s_m_source_file>
AV-unprocessed.smi

> <i_m_source_file_index>
1009

> <i_lp_mmshare_version>
43012

> <i_f3d_flags>
0

> <s_epik_input>
W0NIM11OKFtDSDNdKVtDSDJdW0NIMl1bTkhdQyg9TylbQ0gyXW4xW2NIXVtjSF1jKG4xKVtOSDJd

> <s_epik_cmdline>
J2VwaWtfcHl0aG9uJywgJy1waCcsICc3LjAnLCAnLXRuJywgJzgnLCAnLW1hJywgJzIwMCcsICctbWV0YWxfYmluZGluZycsICctaW1hZScsICc8aW5maWxlLm1hZT4nLCAnLW9tYWUnLCAnPG91dGZpbGUubWFlPic=

> <r_lp_tautomer_probability>
1

> <r_epik_Ionization_Penalty>
0.00595791

> <r_epik_Ionization_Penalty_Charging>
0.00581587

> <r_epik_Ionization_Penalty_Neutral>
0.000142034

> <r_epik_State_Penalty>
0.00427192

> <r_epik_Charging_Adjusted_Penalty>
0.0100878

> <i_epik_Tot_Q>
1

> <i_epik_Tot_abs_Q>
1

> <r_epik_Metal_State_Penalty>
-0

> <b_epik_Metal_Only>
0

> <s_lp_Force_Field>
OPLS_2005

> <r_lp_Energy>
4.99311

> <b_lp_Chiralities_Consistent>
1

> <s_lp_Variant>
AV-unprocessed.smi:1009-1

> <Gold.Version>
5.8.1

> <Gold.Id.Protein>
6NUR|6NUR_protein|mol2

> <Gold.PLP.Fitness>
41.6625

> <Gold.PLP.PLP>
-23.7082

> <Gold.PLP.part.hbond>
-3.7992

> <Gold.PLP.part.metal>
0.0000

> <Gold.PLP.part.buried>
-2.3027

> <Gold.PLP.part.nonpolar>
-16.8884

> <Gold.PLP.part.repulsive>
0.3196

> <Gold.PLP.ligand.clash>
0.0000

> <Gold.PLP.ligand.torsion>
0.0313

> <Gold.PLP.Chemscore.Hbond>
5.0000

> <Gold.PLP.Chemscore.CHOScore>
0.9996

> <Gold.PLP.Chemscore.Metal>
0.0000

> <Gold.Chemscore.Hbonds>
donor molecule, donor type, donor heavy atom, donor atom, acceptor molecule, acceptor atom, score
      L1  H     2    33       P1  7948  2.00
      L1  H     6    26       P1  7948  0.93
      L1  H    14    31       P1 10952  1.00
      L1  H    14    32       P1 10186  1.00
      L1  C    11    29       P1 10747  0.92

> <Gold.PLP.Chemscore.Internal.Correction>
0.0180

> <Gold.Rescore>
     Score         DG    S(hbond)    S(metal)    S(lipo)     H(rot)  DE(clash)    DE(int)     intcor
     15.90     -17.17       3.96        0.00      40.33       2.45       0.01       1.27       ----

> <Gold.Chemscore.Fitness>
15.8958

> <Gold.Chemscore.DG>
-17.1703

> <Gold.Chemscore.ZeroCoef>
-5.4800

> <Gold.Chemscore.Hbond>
3.9649

> <Gold.Chemscore.Metal>
0.0000

> <Gold.Chemscore.Lipo>
40.3316

> <Gold.Chemscore.Internal_Hbond>
0.0000

> <Gold.Chemscore.DEClash>
0.0073

> <Gold.Chemscore.DEInternal>
1.2671

> <Gold.Chemscore.Rot>
2.4497

> <Gold.Chemscore.Internal.Correction>
   9.000000E+99

> <Gold.Chemscore.Hbonds>
donor molecule, donor type, donor heavy atom, donor atom, acceptor molecule, acceptor atom, score
      L1  H     2    33       P1  7948  1.00
      L1  H     6    26       P1  7948  0.88
      L1  H    14    31       P1 10952  0.85
      L1  H    14    32       P1 10186  0.97

> <Gold.Chemscore.Hbond.Weighted>
-13.2428

> <Gold.Chemscore.Metal.Weighted>
-0.0000

> <Gold.Chemscore.Lipo.Weighted>
-4.7188

> <Gold.Chemscore.Internal_Hbond.Weighted>
0.0000

> <Gold.Chemscore.DEClash.Weighted>
0.0073

> <Gold.Chemscore.DEInternal.Weighted>
1.2671

> <Gold.Chemscore.Rot.Weighted>
6.2713

> <Gold.Chemscore.Internal.Correction.Weighted>
   9.000000E+99

> <Gold.Protein.RotatedTorsions>
[ 6907 6896 6895 6894 ] final -117.36 input  -60.11 | X-H torsion
[ 7974 7965 7964 7962 ] final   84.05 input  175.53 | X-H torsion
[ 8008 7997 7996 7995 ] final   25.64 input   59.86 | X-H torsion
[ 10167 10162 10161 10158 ] final  108.88 input  -65.29 | X-H torsion
[ 10718 10713 10712 10709 ] final  -43.88 input   66.30 | X-H torsion
[ 10763 10752 10751 10750 ] final   83.95 input  -60.55 | X-H torsion
[ 11005 11000 10999 10996 ] final   80.58 input  -57.11 | X-H torsion

> <Gold.Protein.ActiveResidues>
 VAL166  LYS551  ARG553  GLY616  TRP617  ASP618  TYR619  PRO620  LYS621  CYS622 
 ASP623  PHE694  ASN695  SER759  ASP760  ASP761  ALA762  ILE779  LEU786  VAL792 
 PHE793  MET794  SER795  GLU796  ALA797  LYS798  CYS799  TRP800  GLU811  SER814 

> <Gold.Protein.RotatedAtoms>
  150.8130  133.8388  159.3173 H   0  0  0  0  0  0  0  0  0  0  0  0  # atno 6907 bound_to 6896
  151.6168  135.1034  160.0102 H   0  0  0  0  0  0  0  0  0  0  0  0  # atno 6908 bound_to 6896
  152.4222  133.7094  159.6527 H   0  0  0  0  0  0  0  0  0  0  0  0  # atno 6909 bound_to 6896
  145.6039  139.2357  143.2230 H   0  0  0  0  0  0  0  0  0  0  0  0  # atno 7974 bound_to 7965
  155.0149  140.3141  155.4815 H   0  0  0  0  0  0  0  0  0  0  0  0  # atno 8008 bound_to 7997
  156.2902  140.2208  156.5207 H   0  0  0  0  0  0  0  0  0  0  0  0  # atno 8009 bound_to 7997
  154.7502  140.0467  157.0875 H   0  0  0  0  0  0  0  0  0  0  0  0  # atno 8010 bound_to 7997
  139.6811  144.7118  151.1515 H   0  0  0  0  0  0  0  0  0  0  0  0  # atno 10167 bound_to 10162
  156.2444  130.4182  149.8723 H   0  0  0  0  0  0  0  0  0  0  0  0  # atno 10718 bound_to 10713
  153.1337  135.4672  154.9389 H   0  0  0  0  0  0  0  0  0  0  0  0  # atno 10763 bound_to 10752
  154.7687  135.3152  154.8236 H   0  0  0  0  0  0  0  0  0  0  0  0  # atno 10764 bound_to 10752
  153.8773  135.6898  153.4823 H   0  0  0  0  0  0  0  0  0  0  0  0  # atno 10765 bound_to 10752
  139.9129  134.7931  156.1928 H   0  0  0  0  0  0  0  0  0  0  0  0  # atno 11005 bound_to 11000
  146.1555  140.6863  142.9302 LP  0  0  0  0  0  0  0  0  0  0  0  0  # atno 17320 bound_to 7965
  144.7298  140.4637  143.6946 LP  0  0  0  0  0  0  0  0  0  0  0  0  # atno 17321 bound_to 7965
  140.7652  143.5698  150.9007 LP  0  0  0  0  0  0  0  0  0  0  0  0  # atno 17342 bound_to 10162
  139.9370  143.6426  152.3063 LP  0  0  0  0  0  0  0  0  0  0  0  0  # atno 17343 bound_to 10162
  156.6293  130.8659  151.3492 LP  0  0  0  0  0  0  0  0  0  0  0  0  # atno 17370 bound_to 10713
  157.7189  130.9532  150.1360 LP  0  0  0  0  0  0  0  0  0  0  0  0  # atno 17371 bound_to 10713
  141.0573  133.6859  156.1885 LP  0  0  0  0  0  0  0  0  0  0  0  0  # atno 17394 bound_to 11000
  140.6717  134.4861  157.5587 LP  0  0  0  0  0  0  0  0  0  0  0  0  # atno 17395 bound_to 11000

$$$$
