AV-unprocessed.smi:1005|AV-procd|sdf|4376|dock8
  -GOLD-   22720 2293D 1   1.00000     0.00000
 Structure written by MMmdl.
 57 59  0  0  0  0  0  0  0  0  3 V2000
  151.5333  144.8422  160.5653 C   0  0  0  0  0  0  0  0  0  0  0  0
  151.6133  143.6389  159.6412 C   0  0  0  0  0  0  0  0  0  0  0  0
  150.8724  143.6620  158.4383 C   0  0  0  0  0  0  0  0  0  0  0  0
  150.9703  142.5494  157.6114 C   0  0  0  0  0  0  0  0  0  0  0  0
  150.3778  142.2733  156.3775 N   0  3  0  0  0  0  0  0  0  0  0  0
  150.7800  141.0467  155.9444 C   0  0  0  0  0  0  0  0  0  0  0  0
  151.6221  140.5353  156.8827 N   0  0  0  0  0  0  0  0  0  0  0  0
  152.3270  139.2458  156.9002 C   0  0  0  0  0  0  0  0  0  0  0  0
  152.5268  138.6500  155.4924 C   0  0  2  0  0  0  0  0  0  0  0  0
  153.1241  139.6504  154.6947 O   0  0  0  0  0  0  0  0  0  0  0  0
  151.2094  138.2110  154.8169 C   0  0  0  0  0  0  0  0  0  0  0  0
  150.4247  137.2139  155.5463 N   0  0  0  0  0  0  0  0  0  0  0  0
  151.3016  136.2674  156.2272 C   0  0  0  0  0  0  0  0  0  0  0  0
  150.5079  135.2032  157.0012 C   0  0  0  0  0  0  0  0  0  0  0  0
  149.6318  134.5270  156.1064 O   0  0  0  0  0  0  0  0  0  0  0  0
  148.7128  135.4022  155.4569 C   0  0  2  0  0  0  0  0  0  0  0  0
  147.8325  134.5543  154.5218 C   0  0  0  0  0  0  0  0  0  0  0  0
  148.5798  134.0479  153.3425 N   0  3  0  0  0  0  0  0  0  0  0  0
  149.7372  133.1959  153.7013 C   0  0  0  0  0  0  0  0  0  0  0  0
  147.6939  133.3777  152.3651 C   0  0  0  0  0  0  0  0  0  0  0  0
  149.5102  136.4710  154.6804 C   0  0  0  0  0  0  0  0  0  0  0  0
  151.7667  141.4363  157.9451 C   0  0  0  0  0  0  0  0  0  0  0  0
  152.4996  141.3964  159.1294 C   0  0  0  0  0  0  0  0  0  0  0  0
  152.4180  142.5210  159.9813 C   0  0  0  0  0  0  0  0  0  0  0  0
  153.2153  142.5086  161.2745 C   0  0  0  0  0  0  0  0  0  0  0  0
  150.8298  145.5867  160.1908 H   0  0  0  0  0  0  0  0  0  0  0  0
  152.5092  145.3201  160.6542 H   0  0  0  0  0  0  0  0  0  0  0  0
  151.2017  144.5425  161.5596 H   0  0  0  0  0  0  0  0  0  0  0  0
  150.2586  144.5103  158.1721 H   0  0  0  0  0  0  0  0  0  0  0  0
  150.4842  140.5660  155.0228 H   0  0  0  0  0  0  0  0  0  0  0  0
  153.2769  139.3581  157.4235 H   0  0  0  0  0  0  0  0  0  0  0  0
  151.7261  138.5670  157.5072 H   0  0  0  0  0  0  0  0  0  0  0  0
  153.2220  137.8148  155.5696 H   0  0  0  0  0  0  0  0  0  0  0  0
  153.5732  139.2316  153.9761 H   0  0  0  0  0  0  0  0  0  0  0  0
  150.5794  139.0830  154.6410 H   0  0  0  0  0  0  0  0  0  0  0  0
  151.4560  137.8214  153.8279 H   0  0  0  0  0  0  0  0  0  0  0  0
  151.9507  135.7749  155.5011 H   0  0  0  0  0  0  0  0  0  0  0  0
  151.9562  136.7995  156.9186 H   0  0  0  0  0  0  0  0  0  0  0  0
  151.1854  134.4787  157.4535 H   0  0  0  0  0  0  0  0  0  0  0  0
  149.9355  135.6580  157.8112 H   0  0  0  0  0  0  0  0  0  0  0  0
  148.0977  135.9005  156.2069 H   0  0  0  0  0  0  0  0  0  0  0  0
  147.3924  133.7147  155.0623 H   0  0  0  0  0  0  0  0  0  0  0  0
  146.9990  135.1734  154.1862 H   0  0  0  0  0  0  0  0  0  0  0  0
  149.4140  132.3039  154.2395 H   0  0  0  0  0  0  0  0  0  0  0  0
  150.4516  133.7313  154.3254 H   0  0  0  0  0  0  0  0  0  0  0  0
  150.2691  132.8758  152.8047 H   0  0  0  0  0  0  0  0  0  0  0  0
  147.2390  132.4853  152.7973 H   0  0  0  0  0  0  0  0  0  0  0  0
  148.2534  133.0815  151.4770 H   0  0  0  0  0  0  0  0  0  0  0  0
  146.8960  134.0472  152.0413 H   0  0  0  0  0  0  0  0  0  0  0  0
  148.8043  137.1506  154.2048 H   0  0  0  0  0  0  0  0  0  0  0  0
  150.0722  135.9925  153.8766 H   0  0  0  0  0  0  0  0  0  0  0  0
  153.1148  140.5481  159.3903 H   0  0  0  0  0  0  0  0  0  0  0  0
  153.8313  141.6125  161.3552 H   0  0  0  0  0  0  0  0  0  0  0  0
  152.5465  142.5330  162.1350 H   0  0  0  0  0  0  0  0  0  0  0  0
  153.8789  143.3721  161.3260 H   0  0  0  0  0  0  0  0  0  0  0  0
  148.9485  134.8614  152.8696 H   0  0  0  0  0  0  0  0  0  0  0  0
  149.7443  142.8752  155.8669 H   0  0  0  0  0  0  0  0  0  0  0  0
  1  2  1  0  0  0  0
  1 26  1  0  0  0  0
  1 27  1  0  0  0  0
  1 28  1  0  0  0  0
  2 24  1  0  0  0  0
  2  3  2  0  0  0  0
  3  4  1  0  0  0  0
  3 29  1  0  0  0  0
  4 22  2  0  0  0  0
  4  5  1  0  0  0  0
  5  6  2  0  0  0  0
  5 57  1  0  0  0  0
  6  7  1  0  0  0  0
  6 30  1  0  0  0  0
  7  8  1  0  0  0  0
  7 22  1  0  0  0  0
  8  9  1  0  0  0  0
  8 31  1  0  0  0  0
  8 32  1  0  0  0  0
  9 10  1  0  0  0  0
  9 11  1  0  0  0  0
  9 33  1  0  0  0  0
 10 34  1  0  0  0  0
 11 12  1  0  0  0  0
 11 35  1  0  0  0  0
 11 36  1  0  0  0  0
 12 21  1  0  0  0  0
 12 13  1  0  0  0  0
 13 14  1  0  0  0  0
 13 37  1  0  0  0  0
 13 38  1  0  0  0  0
 14 15  1  0  0  0  0
 14 39  1  0  0  0  0
 14 40  1  0  0  0  0
 15 16  1  0  0  0  0
 16 17  1  0  0  0  0
 16 21  1  0  0  0  0
 16 41  1  0  0  0  0
 17 18  1  0  0  0  0
 17 42  1  0  0  0  0
 17 43  1  0  0  0  0
 18 19  1  0  0  0  0
 18 20  1  0  0  0  0
 18 56  1  0  0  0  0
 19 44  1  0  0  0  0
 19 45  1  0  0  0  0
 19 46  1  0  0  0  0
 20 47  1  0  0  0  0
 20 48  1  0  0  0  0
 20 49  1  0  0  0  0
 21 50  1  0  0  0  0
 21 51  1  0  0  0  0
 22 23  1  0  0  0  0
 23 24  2  0  0  0  0
 23 52  1  0  0  0  0
 24 25  1  0  0  0  0
 25 53  1  0  0  0  0
 25 54  1  0  0  0  0
 25 55  1  0  0  0  0
M  CHG  1   5   1
M  CHG  1  18   1
M  END
> <s_m_source_file>
AV-unprocessed.smi

> <i_m_source_file_index>
1005

> <i_lp_mmshare_version>
43012

> <i_f3d_flags>
0

> <s_epik_input>
W0NIM11jKFtjSF0xKWMoW0NIM10pW2NIXWMoYzEyKW4oW2NIXW4yKVtDSDJdW0NASF0oW09IXSlbQ0gyXU4zW0NIMl1bQ0gyXU9bQ0BIXShbQ0gyXTMpW0NIMl1OKFtDSDNdKVtDSDNd

> <s_epik_cmdline>
J2VwaWtfcHl0aG9uJywgJy1waCcsICc3LjAnLCAnLXRuJywgJzgnLCAnLW1hJywgJzIwMCcsICctbWV0YWxfYmluZGluZycsICctaW1hZScsICc8aW5maWxlLm1hZT4nLCAnLW9tYWUnLCAnPG91dGZpbGUubWFlPic=

> <r_epik_Ionization_Penalty>
1.3281

> <r_epik_Ionization_Penalty_Charging>
1.21988

> <r_epik_Ionization_Penalty_Neutral>
0.10822

> <r_epik_State_Penalty>
1.32886

> <r_epik_Charging_Adjusted_Penalty>
2.54875

> <i_epik_Tot_Q>
2

> <i_epik_Tot_abs_Q>
2

> <r_epik_Metal_State_Penalty>
5.33912

> <b_epik_Metal_Only>
0

> <s_lp_Force_Field>
OPLS_2005

> <r_lp_Energy>
45.8235

> <b_lp_Chiralities_Consistent>
1

> <s_lp_Variant>
AV-unprocessed.smi:1005-15

> <Gold.Version>
5.8.1

> <Gold.Id.Protein>
6NUR|6NUR_protein|mol2

> <Gold.PLP.Fitness>
61.3564

> <Gold.PLP.PLP>
-47.2389

> <Gold.PLP.part.hbond>
-4.0000

> <Gold.PLP.part.metal>
0.0000

> <Gold.PLP.part.buried>
-2.4269

> <Gold.PLP.part.nonpolar>
-39.6421

> <Gold.PLP.part.repulsive>
0.1868

> <Gold.PLP.ligand.clash>
0.0000

> <Gold.PLP.ligand.torsion>
0.6828

> <Gold.PLP.Chemscore.Hbond>
5.1369

> <Gold.PLP.Chemscore.CHOScore>
0.0000

> <Gold.PLP.Chemscore.Metal>
0.0000

> <Gold.Chemscore.Hbonds>
donor molecule, donor type, donor heavy atom, donor atom, acceptor molecule, acceptor atom, score
      L1  H     5    57       P1  8028  1.84
      L1  H    18    56       P1  7948  1.30
      P1  H  7989  7998       L1    10  0.15
      P1  H  7997  8009       L1    10  0.85

> <Gold.PLP.Chemscore.Internal.Correction>
0.0725

> <Gold.Rescore>
     Score         DG    S(hbond)    S(metal)    S(lipo)     H(rot)  DE(clash)    DE(int)     intcor
     18.37     -22.13       2.38        0.00     128.90       2.49       0.06       3.70       ----

> <Gold.Chemscore.Fitness>
18.3699

> <Gold.Chemscore.DG>
-22.1295

> <Gold.Chemscore.ZeroCoef>
-5.4800

> <Gold.Chemscore.Hbond>
2.3778

> <Gold.Chemscore.Metal>
0.0000

> <Gold.Chemscore.Lipo>
128.8996

> <Gold.Chemscore.Internal_Hbond>
0.0000

> <Gold.Chemscore.DEClash>
0.0638

> <Gold.Chemscore.DEInternal>
3.6959

> <Gold.Chemscore.Rot>
2.4897

> <Gold.Chemscore.Internal.Correction>
   9.000000E+99

> <Gold.Chemscore.Hbonds>
donor molecule, donor type, donor heavy atom, donor atom, acceptor molecule, acceptor atom, score
      L1  H     5    57       P1  8028  0.84
      L1  H    18    56       P1  7948  0.06
      P1  H  7989  7998       L1    10  0.03
      P1  H  7997  8009       L1    10  0.09

> <Gold.Chemscore.Hbond.Weighted>
-7.9420

> <Gold.Chemscore.Metal.Weighted>
-0.0000

> <Gold.Chemscore.Lipo.Weighted>
-15.0813

> <Gold.Chemscore.Internal_Hbond.Weighted>
0.0000

> <Gold.Chemscore.DEClash.Weighted>
0.0638

> <Gold.Chemscore.DEInternal.Weighted>
3.6959

> <Gold.Chemscore.Rot.Weighted>
6.3737

> <Gold.Chemscore.Internal.Correction.Weighted>
   9.000000E+99

> <Gold.Protein.RotatedTorsions>
[ 6907 6896 6895 6894 ] final   15.67 input  -60.11 | X-H torsion
[ 7974 7965 7964 7962 ] final  -22.11 input  175.53 | X-H torsion
[ 8008 7997 7996 7995 ] final -114.28 input   59.86 | X-H torsion
[ 10167 10162 10161 10158 ] final -126.28 input  -65.29 | X-H torsion
[ 10718 10713 10712 10709 ] final  147.09 input   66.30 | X-H torsion
[ 10763 10752 10751 10750 ] final  161.11 input  -60.55 | X-H torsion
[ 11005 11000 10999 10996 ] final  -27.60 input  -57.11 | X-H torsion

> <Gold.Protein.ActiveResidues>
 VAL166  LYS551  ARG553  GLY616  TRP617  ASP618  TYR619  PRO620  LYS621  CYS622 
 ASP623  PHE694  ASN695  SER759  ASP760  ASP761  ALA762  ILE779  LEU786  VAL792 
 PHE793  MET794  SER795  GLU796  ALA797  LYS798  CYS799  TRP800  GLU811  SER814 

> <Gold.Protein.RotatedAtoms>
  151.8218  135.0649  160.0425 H   0  0  0  0  0  0  0  0  0  0  0  0  # atno 6907 bound_to 6896
  152.2946  133.5590  159.5587 H   0  0  0  0  0  0  0  0  0  0  0  0  # atno 6908 bound_to 6896
  150.7245  134.0296  159.3771 H   0  0  0  0  0  0  0  0  0  0  0  0  # atno 6909 bound_to 6896
  146.1694  140.4434  142.8538 H   0  0  0  0  0  0  0  0  0  0  0  0  # atno 7974 bound_to 7965
  155.0338  140.0393  157.2484 H   0  0  0  0  0  0  0  0  0  0  0  0  # atno 8008 bound_to 7997
  154.7274  140.2724  155.6463 H   0  0  0  0  0  0  0  0  0  0  0  0  # atno 8009 bound_to 7997
  156.2832  140.2691  156.1964 H   0  0  0  0  0  0  0  0  0  0  0  0  # atno 8010 bound_to 7997
  139.9731  143.5823  152.2405 H   0  0  0  0  0  0  0  0  0  0  0  0  # atno 10167 bound_to 10162
  157.3253  131.0911  151.1207 H   0  0  0  0  0  0  0  0  0  0  0  0  # atno 10718 bound_to 10713
  154.2578  135.2769  155.2790 H   0  0  0  0  0  0  0  0  0  0  0  0  # atno 10763 bound_to 10752
  154.5410  135.5702  153.6843 H   0  0  0  0  0  0  0  0  0  0  0  0  # atno 10764 bound_to 10752
  152.9968  135.6251  154.2727 H   0  0  0  0  0  0  0  0  0  0  0  0  # atno 10765 bound_to 10752
  140.9134  133.7446  156.0701 H   0  0  0  0  0  0  0  0  0  0  0  0  # atno 11005 bound_to 11000
  144.8141  140.6437  143.6396 LP  0  0  0  0  0  0  0  0  0  0  0  0  # atno 17320 bound_to 7965
  145.4380  139.1539  143.3986 LP  0  0  0  0  0  0  0  0  0  0  0  0  # atno 17321 bound_to 7965
  139.6466  144.7658  151.2232 LP  0  0  0  0  0  0  0  0  0  0  0  0  # atno 17342 bound_to 10162
  140.7515  143.6230  150.8495 LP  0  0  0  0  0  0  0  0  0  0  0  0  # atno 17343 bound_to 10162
  157.2476  130.6599  149.5917 LP  0  0  0  0  0  0  0  0  0  0  0  0  # atno 17370 bound_to 10713
  155.9690  130.4548  150.5865 LP  0  0  0  0  0  0  0  0  0  0  0  0  # atno 17371 bound_to 10713
  140.8081  134.3431  157.5420 LP  0  0  0  0  0  0  0  0  0  0  0  0  # atno 17394 bound_to 11000
  139.8761  134.9238  156.3333 LP  0  0  0  0  0  0  0  0  0  0  0  0  # atno 17395 bound_to 11000

$$$$
