AV-unprocessed.smi:3|AV-procd|sdf|28|dock3
  -GOLD-   2262015143D 1   1.00000     0.00000
 Structure written by MMmdl.
 33 35  0  0  0  0  0  0  0  0  1 V2000
  150.2819  141.7240  156.9112 C   0  0  0  0  0  0  0  0  0  0  0  0
  151.5116  141.0393  157.2825 N   0  0  0  0  0  0  0  0  0  0  0  0
  152.1241  141.3895  158.5660 C   0  0  0  0  0  0  0  0  0  0  0  0
  151.5656  142.6922  159.1380 C   0  0  1  0  0  0  0  0  0  0  0  0
  152.2471  143.3652  160.3392 C   0  0  0  0  0  0  0  0  0  0  0  0
  151.9872  144.7312  159.6977 C   0  0  2  0  0  0  0  0  0  0  0  0
  150.8967  145.4767  160.1949 O   0  0  0  0  0  0  0  0  0  0  0  0
  151.7811  144.0014  158.3665 C   0  0  0  0  0  0  0  0  0  0  0  0
  151.9082  139.8698  156.5862 C   0  0  0  0  0  0  0  0  0  0  0  0
  152.8975  139.1183  157.1376 N   0  0  0  0  0  0  0  0  0  0  0  0
  153.3202  138.0037  156.5386 C   0  0  0  0  0  0  0  0  0  0  0  0
  152.9011  137.4641  155.3946 N   0  0  0  0  0  0  0  0  0  0  0  0
  151.9150  138.2133  154.8284 C   0  0  0  0  0  0  0  0  0  0  0  0
  151.2633  137.9479  153.6430 N   0  0  0  0  0  0  0  0  0  0  0  0
  150.3228  138.9260  153.3836 C   0  0  0  0  0  0  0  0  0  0  0  0
  150.3474  139.8475  154.3985 C   0  0  0  0  0  0  0  0  0  0  0  0
  151.3562  139.4228  155.3428 C   0  0  0  0  0  0  0  0  0  0  0  0
  150.4979  142.6022  159.3481 H   0  0  0  0  0  0  0  0  0  0  0  0
  152.8771  145.3613  159.6884 H   0  0  0  0  0  0  0  0  0  0  0  0
  151.4306  137.1597  153.0344 H   0  0  0  0  0  0  0  0  0  0  0  0
  150.3457  142.0989  155.8897 H   0  0  0  0  0  0  0  0  0  0  0  0
  150.0995  142.5797  157.5619 H   0  0  0  0  0  0  0  0  0  0  0  0
  149.4255  141.0550  157.0000 H   0  0  0  0  0  0  0  0  0  0  0  0
  152.0367  140.5789  159.2892 H   0  0  0  0  0  0  0  0  0  0  0  0
  153.1969  141.4965  158.4028 H   0  0  0  0  0  0  0  0  0  0  0  0
  151.7401  143.1968  161.2899 H   0  0  0  0  0  0  0  0  0  0  0  0
  153.3120  143.1404  160.4113 H   0  0  0  0  0  0  0  0  0  0  0  0
  151.0619  145.6289  161.1130 H   0  0  0  0  0  0  0  0  0  0  0  0
  152.6832  143.9915  157.7524 H   0  0  0  0  0  0  0  0  0  0  0  0
  150.9137  144.3294  157.7926 H   0  0  0  0  0  0  0  0  0  0  0  0
  154.1069  137.4676  157.0488 H   0  0  0  0  0  0  0  0  0  0  0  0
  149.7103  138.8872  152.4947 H   0  0  0  0  0  0  0  0  0  0  0  0
  149.7216  140.7234  154.4660 H   0  0  0  0  0  0  0  0  0  0  0  0
  1  2  1  0  0  0  0
  1 21  1  0  0  0  0
  1 22  1  0  0  0  0
  1 23  1  0  0  0  0
  2  3  1  0  0  0  0
  2  9  1  0  0  0  0
  3  4  1  0  0  0  0
  3 24  1  0  0  0  0
  3 25  1  0  0  0  0
  4 18  1  0  0  0  0
  4  8  1  0  0  0  0
  4  5  1  0  0  0  0
  5  6  1  0  0  0  0
  5 26  1  0  0  0  0
  5 27  1  0  0  0  0
  6 19  1  0  0  0  0
  6  7  1  0  0  0  0
  6  8  1  0  0  0  0
  7 28  1  0  0  0  0
  8 29  1  0  0  0  0
  8 30  1  0  0  0  0
  9 17  1  0  0  0  0
  9 10  2  0  0  0  0
 10 11  1  0  0  0  0
 11 12  2  0  0  0  0
 11 31  1  0  0  0  0
 12 13  1  0  0  0  0
 13 17  2  0  0  0  0
 13 14  1  0  0  0  0
 14 20  1  0  0  0  0
 14 15  1  0  0  0  0
 15 16  2  0  0  0  0
 15 32  1  0  0  0  0
 16 17  1  0  0  0  0
 16 33  1  0  0  0  0
M  END
> <s_m_source_file>
AV-unprocessed.smi

> <i_m_source_file_index>
3

> <i_lp_mmshare_version>
43012

> <i_f3d_flags>
0

> <s_epik_input>
W25IXTFbY0hdW2NIXWMoYzEyKWMobltjSF1uMilOKFtDSDNdKVtDSDJdW0NASF0zW0NIMl1bQ0BASF0oW09IXSlbQ0gyXTM=

> <s_epik_cmdline>
J2VwaWtfcHl0aG9uJywgJy1waCcsICc3LjAnLCAnLXRuJywgJzgnLCAnLW1hJywgJzIwMCcsICctbWV0YWxfYmluZGluZycsICctaW1hZScsICc8aW5maWxlLm1hZT4nLCAnLW9tYWUnLCAnPG91dGZpbGUubWFlPic=

> <r_lp_tautomer_probability>
0.999998

> <r_epik_Ionization_Penalty>
0.0134605

> <r_epik_Ionization_Penalty_Charging>
0

> <r_epik_Ionization_Penalty_Neutral>
0.0134605

> <r_epik_State_Penalty>
0.00982199

> <r_epik_Charging_Adjusted_Penalty>
0.00982199

> <i_epik_Tot_Q>
0

> <i_epik_Tot_abs_Q>
0

> <r_epik_Metal_State_Penalty>
0.00963912

> <b_epik_Metal_Only>
0

> <s_lp_Force_Field>
OPLS_2005

> <r_lp_Energy>
12.0979

> <b_lp_Chiralities_Consistent>
1

> <s_lp_Variant>
AV-unprocessed.smi:3-2

> <Gold.Version>
5.8.1

> <Gold.Id.Protein>
6NUR|6NUR_protein|mol2

> <Gold.PLP.Fitness>
48.4797

> <Gold.PLP.PLP>
-36.9324

> <Gold.PLP.part.hbond>
-4.6733

> <Gold.PLP.part.metal>
0.0000

> <Gold.PLP.part.buried>
-0.6080

> <Gold.PLP.part.nonpolar>
-32.3053

> <Gold.PLP.part.repulsive>
0.1318

> <Gold.PLP.ligand.clash>
0.1237

> <Gold.PLP.ligand.torsion>
0.1735

> <Gold.PLP.Chemscore.Hbond>
2.4360

> <Gold.PLP.Chemscore.CHOScore>
1.4941

> <Gold.PLP.Chemscore.Metal>
0.0000

> <Gold.Chemscore.Hbonds>
donor molecule, donor type, donor heavy atom, donor atom, acceptor molecule, acceptor atom, score
      L1  H    14    20       P1  7949  1.00
      P1  H  7997  8009       L1    10  0.75
      P1  H 10752 10765       L1    12  0.43
      L1  C    15    32       P1  7948  0.24
      L1  C    15    32       P1  7957  0.29

> <Gold.PLP.Chemscore.Internal.Correction>
0.2278

> <Gold.Rescore>
     Score         DG    S(hbond)    S(metal)    S(lipo)     H(rot)  DE(clash)    DE(int)     intcor
     14.52     -14.71       1.32        0.00      81.34       1.84       0.01       0.18       ----

> <Gold.Chemscore.Fitness>
14.5151

> <Gold.Chemscore.DG>
-14.7117

> <Gold.Chemscore.ZeroCoef>
-5.4800

> <Gold.Chemscore.Hbond>
1.3246

> <Gold.Chemscore.Metal>
0.0000

> <Gold.Chemscore.Lipo>
81.3428

> <Gold.Chemscore.Internal_Hbond>
0.0000

> <Gold.Chemscore.DEClash>
0.0140

> <Gold.Chemscore.DEInternal>
0.1826

> <Gold.Chemscore.Rot>
1.8396

> <Gold.Chemscore.Internal.Correction>
   9.000000E+99

> <Gold.Chemscore.Hbonds>
donor molecule, donor type, donor heavy atom, donor atom, acceptor molecule, acceptor atom, score
      L1  H    14    20       P1  7949  0.83
      P1  H  7997  8009       L1    10  0.06
      P1  H 10752 10765       L1    12  0.42

> <Gold.Chemscore.Hbond.Weighted>
-4.4241

> <Gold.Chemscore.Metal.Weighted>
-0.0000

> <Gold.Chemscore.Lipo.Weighted>
-9.5171

> <Gold.Chemscore.Internal_Hbond.Weighted>
0.0000

> <Gold.Chemscore.DEClash.Weighted>
0.0140

> <Gold.Chemscore.DEInternal.Weighted>
0.1826

> <Gold.Chemscore.Rot.Weighted>
4.7095

> <Gold.Chemscore.Internal.Correction.Weighted>
   9.000000E+99

> <Gold.Protein.RotatedTorsions>
[ 6907 6896 6895 6894 ] final -139.25 input  -60.11 | X-H torsion
[ 7974 7965 7964 7962 ] final   -3.55 input  175.53 | X-H torsion
[ 8008 7997 7996 7995 ] final  161.35 input   59.86 | X-H torsion
[ 10167 10162 10161 10158 ] final  -84.67 input  -65.29 | X-H torsion
[ 10718 10713 10712 10709 ] final -104.49 input   66.30 | X-H torsion
[ 10763 10752 10751 10750 ] final -161.97 input  -60.55 | X-H torsion
[ 11005 11000 10999 10996 ] final  137.73 input  -57.11 | X-H torsion

> <Gold.Protein.ActiveResidues>
 VAL166  LYS551  ARG553  GLY616  TRP617  ASP618  TYR619  PRO620  LYS621  CYS622 
 ASP623  PHE694  ASN695  SER759  ASP760  ASP761  ALA762  ILE779  LEU786  VAL792 
 PHE793  MET794  SER795  GLU796  ALA797  LYS798  CYS799  TRP800  GLU811  SER814 

> <Gold.Protein.RotatedAtoms>
  151.0454  133.5670  159.2646 H   0  0  0  0  0  0  0  0  0  0  0  0  # atno 6907 bound_to 6896
  151.2700  135.0681  159.9140 H   0  0  0  0  0  0  0  0  0  0  0  0  # atno 6908 bound_to 6896
  152.5372  134.0186  159.8025 H   0  0  0  0  0  0  0  0  0  0  0  0  # atno 6909 bound_to 6896
  146.2387  140.1738  142.8332 H   0  0  0  0  0  0  0  0  0  0  0  0  # atno 7974 bound_to 7965
  156.2109  140.1779  156.7697 H   0  0  0  0  0  0  0  0  0  0  0  0  # atno 8008 bound_to 7997
  154.5721  140.0680  156.9009 H   0  0  0  0  0  0  0  0  0  0  0  0  # atno 8009 bound_to 7997
  155.2654  140.3339  155.4272 H   0  0  0  0  0  0  0  0  0  0  0  0  # atno 8010 bound_to 7997
  140.4110  143.2622  151.9017 H   0  0  0  0  0  0  0  0  0  0  0  0  # atno 10167 bound_to 10162
  156.0306  130.5517  150.7403 H   0  0  0  0  0  0  0  0  0  0  0  0  # atno 10718 bound_to 10713
  154.7256  135.3035  154.8976 H   0  0  0  0  0  0  0  0  0  0  0  0  # atno 10763 bound_to 10752
  153.9834  135.6727  153.4755 H   0  0  0  0  0  0  0  0  0  0  0  0  # atno 10764 bound_to 10752
  153.0872  135.4978  154.8539 H   0  0  0  0  0  0  0  0  0  0  0  0  # atno 10765 bound_to 10752
  140.0134  134.9429  157.0326 H   0  0  0  0  0  0  0  0  0  0  0  0  # atno 11005 bound_to 11000
  144.9990  140.8615  143.5293 LP  0  0  0  0  0  0  0  0  0  0  0  0  # atno 17320 bound_to 7965
  145.1755  139.2381  143.5320 LP  0  0  0  0  0  0  0  0  0  0  0  0  # atno 17321 bound_to 7965
  139.4782  144.5536  151.8347 LP  0  0  0  0  0  0  0  0  0  0  0  0  # atno 17342 bound_to 10162
  140.4637  144.1685  150.5909 LP  0  0  0  0  0  0  0  0  0  0  0  0  # atno 17343 bound_to 10162
  157.4973  131.0916  151.0356 LP  0  0  0  0  0  0  0  0  0  0  0  0  # atno 17370 bound_to 10713
  157.0746  130.5878  149.5409 LP  0  0  0  0  0  0  0  0  0  0  0  0  # atno 17371 bound_to 10713
  140.4514  134.1579  155.7182 LP  0  0  0  0  0  0  0  0  0  0  0  0  # atno 17394 bound_to 11000
  141.1726  133.8577  157.1522 LP  0  0  0  0  0  0  0  0  0  0  0  0  # atno 17395 bound_to 11000

$$$$
