AV-unprocessed.smi:1831|AV-procd|sdf|7458|dock4
  -GOLD-   22720 9153D 1   1.00000     0.00000
 Structure written by MMmdl.
 41 42  0  0  0  0  0  0  0  0  2 V2000
  152.0726  140.6898  157.0719 C   0  0  0  0  0  0  0  0  0  0  0  0
  151.4252  139.7709  156.0934 C   0  0  0  0  0  0  0  0  0  0  0  0
  150.9980  140.1810  154.8932 N   0  0  0  0  0  0  0  0  0  0  0  0
  150.4286  139.1512  154.1575 N   0  0  0  0  0  0  0  0  0  0  0  0
  150.4424  137.9910  154.8278 C   0  0  0  0  0  0  0  0  0  0  0  0
  149.9237  136.7745  154.3098 N   0  0  0  0  0  0  0  0  0  0  0  0
  149.8571  135.5746  154.9135 C   0  0  0  0  0  0  0  0  0  0  0  0
  150.2456  135.3286  156.0554 O   0  0  0  0  0  0  0  0  0  0  0  0
  149.3012  134.6561  154.1112 N   0  0  0  0  0  0  0  0  0  0  0  0
  149.0631  133.2678  154.4884 C   0  0  0  0  0  0  0  0  0  0  0  0
  148.4885  132.4603  153.3129 C   0  0  2  0  0  0  0  0  0  0  0  0
  147.0394  132.8060  152.9783 C   0  0  0  0  0  0  0  0  0  0  0  0
  146.4828  131.5487  152.2979 C   0  0  0  0  0  0  0  0  0  0  0  0
  147.4473  130.4483  152.5519 N   0  3  2  0  0  0  0  0  0  0  0  0
  146.8342  129.1244  152.8569 C   0  0  0  0  0  0  0  0  0  0  0  0
  147.8708  127.9865  152.7896 C   0  0  0  0  0  0  0  0  0  0  0  0
  145.6721  128.8166  151.8940 C   0  0  0  0  0  0  0  0  0  0  0  0
  148.4135  130.9520  153.5527 C   0  0  0  0  0  0  0  0  0  0  0  0
  151.1550  138.0651  156.4302 S   0  0  0  0  0  0  0  0  0  0  0  0
  152.7535  141.3696  156.5590 H   0  0  0  0  0  0  0  0  0  0  0  0
  152.6391  140.1207  157.8089 H   0  0  0  0  0  0  0  0  0  0  0  0
  151.3138  141.2766  157.5894 H   0  0  0  0  0  0  0  0  0  0  0  0
  149.5529  136.8277  153.3729 H   0  0  0  0  0  0  0  0  0  0  0  0
  149.0023  134.9421  153.1902 H   0  0  0  0  0  0  0  0  0  0  0  0
  149.9901  132.8072  154.8350 H   0  0  0  0  0  0  0  0  0  0  0  0
  148.3678  133.2507  155.3287 H   0  0  0  0  0  0  0  0  0  0  0  0
  149.0951  132.6394  152.4232 H   0  0  0  0  0  0  0  0  0  0  0  0
  146.4791  132.9986  153.8945 H   0  0  0  0  0  0  0  0  0  0  0  0
  146.9570  133.6935  152.3498 H   0  0  0  0  0  0  0  0  0  0  0  0
  145.4916  131.3247  152.6952 H   0  0  0  0  0  0  0  0  0  0  0  0
  146.3846  131.6925  151.2215 H   0  0  0  0  0  0  0  0  0  0  0  0
  146.4384  129.1596  153.8731 H   0  0  0  0  0  0  0  0  0  0  0  0
  147.3999  127.0193  152.9678 H   0  0  0  0  0  0  0  0  0  0  0  0
  148.6519  128.0979  153.5419 H   0  0  0  0  0  0  0  0  0  0  0  0
  148.3500  127.9433  151.8109 H   0  0  0  0  0  0  0  0  0  0  0  0
  145.2402  127.8374  152.1035 H   0  0  0  0  0  0  0  0  0  0  0  0
  146.0088  128.8120  150.8567 H   0  0  0  0  0  0  0  0  0  0  0  0
  144.8636  129.5427  151.9775 H   0  0  0  0  0  0  0  0  0  0  0  0
  149.3872  130.4720  153.4500 H   0  0  0  0  0  0  0  0  0  0  0  0
  148.0390  130.7506  154.5582 H   0  0  0  0  0  0  0  0  0  0  0  0
  147.9728  130.3387  151.6962 H   0  0  0  0  0  0  0  0  0  0  0  0
  1  2  1  0  0  0  0
  1 20  1  0  0  0  0
  1 21  1  0  0  0  0
  1 22  1  0  0  0  0
  2 19  1  0  0  0  0
  2  3  2  0  0  0  0
  3  4  1  0  0  0  0
  4  5  2  0  0  0  0
  5  6  1  0  0  0  0
  5 19  1  0  0  0  0
  6  7  1  0  0  0  0
  6 23  1  0  0  0  0
  7  8  2  0  0  0  0
  7  9  1  0  0  0  0
  9 10  1  0  0  0  0
  9 24  1  0  0  0  0
 10 11  1  0  0  0  0
 10 25  1  0  0  0  0
 10 26  1  0  0  0  0
 11 18  1  0  0  0  0
 11 12  1  0  0  0  0
 11 27  1  0  0  0  0
 12 13  1  0  0  0  0
 12 28  1  0  0  0  0
 12 29  1  0  0  0  0
 13 14  1  0  0  0  0
 13 30  1  0  0  0  0
 13 31  1  0  0  0  0
 14 15  1  0  0  0  0
 14 18  1  0  0  0  0
 14 41  1  0  0  0  0
 15 16  1  0  0  0  0
 15 17  1  0  0  0  0
 15 32  1  0  0  0  0
 16 33  1  0  0  0  0
 16 34  1  0  0  0  0
 16 35  1  0  0  0  0
 17 36  1  0  0  0  0
 17 37  1  0  0  0  0
 17 38  1  0  0  0  0
 18 39  1  0  0  0  0
 18 40  1  0  0  0  0
M  CHG  1  14   1
M  END
> <s_m_source_file>
AV-unprocessed.smi

> <i_m_source_file_index>
1831

> <i_lp_mmshare_version>
43012

> <i_f3d_flags>
0

> <s_epik_input>
W0NIM11jMW5uYyhzMSlbTkhdQyg9TylbTkhdW0NIMl1bQ0BASF0yW0NIMl1bQ0gyXU4oW0NIMl0yKVtDSF0oW0NIM10pW0NIM10=

> <s_epik_cmdline>
J2VwaWtfcHl0aG9uJywgJy1waCcsICc3LjAnLCAnLXRuJywgJzgnLCAnLW1hJywgJzIwMCcsICctbWV0YWxfYmluZGluZycsICctaW1hZScsICc8aW5maWxlLm1hZT4nLCAnLW9tYWUnLCAnPG91dGZpbGUubWFlPic=

> <r_lp_tautomer_probability>
1

> <r_epik_Ionization_Penalty>
0.00080807

> <r_epik_Ionization_Penalty_Charging>
0.000218981

> <r_epik_Ionization_Penalty_Neutral>
0.00058909

> <r_epik_State_Penalty>
-0

> <r_epik_Charging_Adjusted_Penalty>
0.000218981

> <i_epik_Tot_Q>
1

> <i_epik_Tot_abs_Q>
1

> <r_epik_Metal_State_Penalty>
0.236062

> <b_epik_Metal_Only>
0

> <s_lp_Force_Field>
OPLS_2005

> <r_lp_Energy>
30.7631

> <b_lp_Chiralities_Consistent>
1

> <s_lp_Variant>
AV-unprocessed.smi:1831-3

> <Gold.Version>
5.8.1

> <Gold.Id.Protein>
6NUR|6NUR_protein|mol2

> <Gold.PLP.Fitness>
41.7145

> <Gold.PLP.PLP>
-31.4611

> <Gold.PLP.part.hbond>
-4.6828

> <Gold.PLP.part.metal>
0.0000

> <Gold.PLP.part.buried>
-4.6361

> <Gold.PLP.part.nonpolar>
-22.6189

> <Gold.PLP.part.repulsive>
0.3345

> <Gold.PLP.ligand.clash>
0.0000

> <Gold.PLP.ligand.torsion>
0.2045

> <Gold.PLP.Chemscore.Hbond>
3.5420

> <Gold.PLP.Chemscore.CHOScore>
0.0000

> <Gold.PLP.Chemscore.Metal>
0.0000

> <Gold.Chemscore.Hbonds>
donor molecule, donor type, donor heavy atom, donor atom, acceptor molecule, acceptor atom, score
      L1  H     6    23       P1  7948  1.00
      L1  H     9    24       P1  7948  0.89
      L1  H    14    41       P1 10747  1.00
      P1  H  7989  7998       L1     3  0.55

> <Gold.PLP.Chemscore.Internal.Correction>
0.0363

> <Gold.Rescore>
     Score         DG    S(hbond)    S(metal)    S(lipo)     H(rot)  DE(clash)    DE(int)     intcor
     15.75     -18.31       2.58        0.00      69.78       1.54       1.27       1.29       ----

> <Gold.Chemscore.Fitness>
15.7502

> <Gold.Chemscore.DG>
-18.3056

> <Gold.Chemscore.ZeroCoef>
-5.4800

> <Gold.Chemscore.Hbond>
2.5755

> <Gold.Chemscore.Metal>
0.0000

> <Gold.Chemscore.Lipo>
69.7837

> <Gold.Chemscore.Internal_Hbond>
0.0000

> <Gold.Chemscore.DEClash>
1.2665

> <Gold.Chemscore.DEInternal>
1.2890

> <Gold.Chemscore.Rot>
1.5396

> <Gold.Chemscore.Internal.Correction>
   9.000000E+99

> <Gold.Chemscore.Hbonds>
donor molecule, donor type, donor heavy atom, donor atom, acceptor molecule, acceptor atom, score
      L1  H     6    23       P1  7948  0.74
      L1  H     9    24       P1  7948  0.17
      L1  H    14    41       P1 10747  0.99
      P1  H  7989  7998       L1     3  0.03

> <Gold.Chemscore.Hbond.Weighted>
-8.6022

> <Gold.Chemscore.Metal.Weighted>
-0.0000

> <Gold.Chemscore.Lipo.Weighted>
-8.1647

> <Gold.Chemscore.Internal_Hbond.Weighted>
0.0000

> <Gold.Chemscore.DEClash.Weighted>
1.2665

> <Gold.Chemscore.DEInternal.Weighted>
1.2890

> <Gold.Chemscore.Rot.Weighted>
3.9413

> <Gold.Chemscore.Internal.Correction.Weighted>
   9.000000E+99

> <Gold.Protein.RotatedTorsions>
[ 6907 6896 6895 6894 ] final  162.88 input  -60.11 | X-H torsion
[ 7974 7965 7964 7962 ] final  153.16 input  175.53 | X-H torsion
[ 8008 7997 7996 7995 ] final -107.20 input   59.86 | X-H torsion
[ 10167 10162 10161 10158 ] final -178.82 input  -65.29 | X-H torsion
[ 10718 10713 10712 10709 ] final  -25.84 input   66.30 | X-H torsion
[ 10763 10752 10751 10750 ] final    5.25 input  -60.55 | X-H torsion
[ 11005 11000 10999 10996 ] final   10.23 input  -57.11 | X-H torsion

> <Gold.Protein.ActiveResidues>
 VAL166  LYS551  ARG553  GLY616  TRP617  ASP618  TYR619  PRO620  LYS621  CYS622 
 ASP623  PHE694  ASN695  SER759  ASP760  ASP761  ALA762  ILE779  LEU786  VAL792 
 PHE793  MET794  SER795  GLU796  ALA797  LYS798  CYS799  TRP800  GLU811  SER814 

> <Gold.Protein.RotatedAtoms>
  151.9337  133.3618  159.3939 H   0  0  0  0  0  0  0  0  0  0  0  0  # atno 6907 bound_to 6896
  150.7012  134.4511  159.5346 H   0  0  0  0  0  0  0  0  0  0  0  0  # atno 6908 bound_to 6896
  152.2156  134.8461  160.0543 H   0  0  0  0  0  0  0  0  0  0  0  0  # atno 6909 bound_to 6896
  144.8173  139.6763  143.6115 H   0  0  0  0  0  0  0  0  0  0  0  0  # atno 7974 bound_to 7965
  154.9258  140.0406  157.2022 H   0  0  0  0  0  0  0  0  0  0  0  0  # atno 8008 bound_to 7997
  154.8209  140.2883  155.5766 H   0  0  0  0  0  0  0  0  0  0  0  0  # atno 8009 bound_to 7997
  156.2980  140.2519  156.3116 H   0  0  0  0  0  0  0  0  0  0  0  0  # atno 8010 bound_to 7997
  139.5414  144.2352  152.0903 H   0  0  0  0  0  0  0  0  0  0  0  0  # atno 10167 bound_to 10162
  156.4590  130.4500  149.6941 H   0  0  0  0  0  0  0  0  0  0  0  0  # atno 10718 bound_to 10713
  153.2616  135.6923  153.7573 H   0  0  0  0  0  0  0  0  0  0  0  0  # atno 10763 bound_to 10752
  153.6630  135.3357  155.3133 H   0  0  0  0  0  0  0  0  0  0  0  0  # atno 10764 bound_to 10752
  154.8432  135.4481  154.1608 H   0  0  0  0  0  0  0  0  0  0  0  0  # atno 10765 bound_to 10752
  140.5168  134.0597  155.7833 H   0  0  0  0  0  0  0  0  0  0  0  0  # atno 11005 bound_to 11000
  146.2477  139.6133  142.9448 LP  0  0  0  0  0  0  0  0  0  0  0  0  # atno 17320 bound_to 7965
  145.5184  141.0433  143.2449 LP  0  0  0  0  0  0  0  0  0  0  0  0  # atno 17321 bound_to 7965
  140.1831  144.4825  150.6518 LP  0  0  0  0  0  0  0  0  0  0  0  0  # atno 17342 bound_to 10162
  140.6646  143.2263  151.5774 LP  0  0  0  0  0  0  0  0  0  0  0  0  # atno 17343 bound_to 10162
  156.3736  130.7543  151.2529 LP  0  0  0  0  0  0  0  0  0  0  0  0  # atno 17370 bound_to 10713
  157.7499  131.0316  150.4188 LP  0  0  0  0  0  0  0  0  0  0  0  0  # atno 17371 bound_to 10713
  141.1355  133.9228  157.2442 LP  0  0  0  0  0  0  0  0  0  0  0  0  # atno 17394 bound_to 11000
  139.9628  135.0150  156.9306 LP  0  0  0  0  0  0  0  0  0  0  0  0  # atno 17395 bound_to 11000

$$$$
