AV-unprocessed.smi:1514|AV-procd|sdf|6114|dock6
  -GOLD-   22720 6243D 1   1.00000     0.00000
 Structure written by MMmdl.
 48 49  0  0  0  0  0  0  0  0  2 V2000
  145.8583  131.8614  149.5886 C   0  0  0  0  0  0  0  0  0  0  0  0
  145.0988  131.4681  150.8641 C   0  0  0  0  0  0  0  0  0  0  0  0
  144.7975  132.6323  151.7344 N   0  3  0  0  0  0  0  0  0  0  0  0
  143.8813  133.6218  151.1131 C   0  0  0  0  0  0  0  0  0  0  0  0
  143.5684  134.7667  152.1003 C   0  0  0  0  0  0  0  0  0  0  0  0
  144.7810  135.4479  152.5596 N   0  0  0  0  0  0  0  0  0  0  0  0
  145.3930  136.2665  151.5075 C   0  0  0  0  0  0  0  0  0  0  0  0
  145.7112  137.7006  151.9684 C   0  0  0  0  0  0  0  0  0  0  0  0
  147.0685  137.8006  152.4896 N   0  0  0  0  0  0  0  0  0  0  0  0
  147.5095  138.8029  153.2611 C   0  0  0  0  0  0  0  0  0  0  0  0
  146.8012  139.7474  153.6106 O   0  0  0  0  0  0  0  0  0  0  0  0
  148.8026  138.6321  153.5870 N   0  0  0  0  0  0  0  0  0  0  0  0
  149.5975  139.4239  154.3545 C   0  0  0  0  0  0  0  0  0  0  0  0
  149.3093  140.6283  154.9361 C   0  0  0  0  0  0  0  0  0  0  0  0
  150.5270  140.9545  155.6013 C   0  0  0  0  0  0  0  0  0  0  0  0
  150.8320  142.1713  156.4241 C   0  0  0  0  0  0  0  0  0  0  0  0
  151.4655  140.0289  155.4359 N   0  0  0  0  0  0  0  0  0  0  0  0
  150.8939  139.0785  154.6649 N   0  0  0  0  0  0  0  0  0  0  0  0
  151.6498  137.9020  154.2815 C   0  0  0  0  0  0  0  0  0  0  0  0
  145.6713  134.4604  153.1797 C   0  0  0  0  0  0  0  0  0  0  0  0
  146.0264  133.3090  152.2156 C   0  0  0  0  0  0  0  0  0  0  0  0
  145.9737  130.9994  148.9313 H   0  0  0  0  0  0  0  0  0  0  0  0
  146.8586  132.2351  149.8057 H   0  0  0  0  0  0  0  0  0  0  0  0
  145.3234  132.6305  149.0310 H   0  0  0  0  0  0  0  0  0  0  0  0
  144.1606  131.0005  150.5619 H   0  0  0  0  0  0  0  0  0  0  0  0
  145.6536  130.7147  151.4250 H   0  0  0  0  0  0  0  0  0  0  0  0
  144.3149  134.0070  150.1892 H   0  0  0  0  0  0  0  0  0  0  0  0
  142.9445  133.1392  150.8371 H   0  0  0  0  0  0  0  0  0  0  0  0
  142.8909  135.4887  151.6423 H   0  0  0  0  0  0  0  0  0  0  0  0
  143.0444  134.3654  152.9690 H   0  0  0  0  0  0  0  0  0  0  0  0
  146.2965  135.7973  151.1202 H   0  0  0  0  0  0  0  0  0  0  0  0
  144.6987  136.3267  150.6681 H   0  0  0  0  0  0  0  0  0  0  0  0
  145.5662  138.4194  151.1616 H   0  0  0  0  0  0  0  0  0  0  0  0
  145.0128  137.9826  152.7577 H   0  0  0  0  0  0  0  0  0  0  0  0
  147.7115  137.0633  152.2400 H   0  0  0  0  0  0  0  0  0  0  0  0
  149.2486  137.8053  153.2184 H   0  0  0  0  0  0  0  0  0  0  0  0
  148.3920  141.1966  154.9046 H   0  0  0  0  0  0  0  0  0  0  0  0
  150.0181  142.8948  156.3739 H   0  0  0  0  0  0  0  0  0  0  0  0
  151.7374  142.6675  156.0734 H   0  0  0  0  0  0  0  0  0  0  0  0
  150.9788  141.9088  157.4720 H   0  0  0  0  0  0  0  0  0  0  0  0
  151.8172  137.9107  153.2043 H   0  0  0  0  0  0  0  0  0  0  0  0
  151.0921  137.0040  154.5486 H   0  0  0  0  0  0  0  0  0  0  0  0
  152.6144  137.8818  154.7904 H   0  0  0  0  0  0  0  0  0  0  0  0
  146.5765  134.9386  153.5518 H   0  0  0  0  0  0  0  0  0  0  0  0
  145.1706  134.0519  154.0587 H   0  0  0  0  0  0  0  0  0  0  0  0
  146.6519  132.5881  152.7432 H   0  0  0  0  0  0  0  0  0  0  0  0
  146.6146  133.6684  151.3703 H   0  0  0  0  0  0  0  0  0  0  0  0
  144.3323  132.2719  152.5553 H   0  0  0  0  0  0  0  0  0  0  0  0
  1  2  1  0  0  0  0
  1 22  1  0  0  0  0
  1 23  1  0  0  0  0
  1 24  1  0  0  0  0
  2  3  1  0  0  0  0
  2 25  1  0  0  0  0
  2 26  1  0  0  0  0
  3 21  1  0  0  0  0
  3  4  1  0  0  0  0
  3 48  1  0  0  0  0
  4  5  1  0  0  0  0
  4 27  1  0  0  0  0
  4 28  1  0  0  0  0
  5  6  1  0  0  0  0
  5 29  1  0  0  0  0
  5 30  1  0  0  0  0
  6  7  1  0  0  0  0
  6 20  1  0  0  0  0
  7  8  1  0  0  0  0
  7 31  1  0  0  0  0
  7 32  1  0  0  0  0
  8  9  1  0  0  0  0
  8 33  1  0  0  0  0
  8 34  1  0  0  0  0
  9 10  1  0  0  0  0
  9 35  1  0  0  0  0
 10 11  2  0  0  0  0
 10 12  1  0  0  0  0
 12 13  1  0  0  0  0
 12 36  1  0  0  0  0
 13 18  1  0  0  0  0
 13 14  2  0  0  0  0
 14 15  1  0  0  0  0
 14 37  1  0  0  0  0
 15 16  1  0  0  0  0
 15 17  2  0  0  0  0
 16 38  1  0  0  0  0
 16 39  1  0  0  0  0
 16 40  1  0  0  0  0
 17 18  1  0  0  0  0
 18 19  1  0  0  0  0
 19 41  1  0  0  0  0
 19 42  1  0  0  0  0
 19 43  1  0  0  0  0
 20 21  1  0  0  0  0
 20 44  1  0  0  0  0
 20 45  1  0  0  0  0
 21 46  1  0  0  0  0
 21 47  1  0  0  0  0
M  CHG  1   3   1
M  END
> <s_m_source_file>
AV-unprocessed.smi

> <i_m_source_file_index>
1514

> <i_lp_mmshare_version>
43012

> <i_f3d_flags>
0

> <s_epik_input>
W0NIM11bQ0gyXU4xW0NIMl1bQ0gyXU4oW0NIMl1bQ0gyXTEpW0NIMl1bQ0gyXVtOSF1DKD1PKVtOSF1jMltjSF1jKFtDSDNdKW5uMltDSDNd

> <s_epik_cmdline>
J2VwaWtfcHl0aG9uJywgJy1waCcsICc3LjAnLCAnLXRuJywgJzgnLCAnLW1hJywgJzIwMCcsICctbWV0YWxfYmluZGluZycsICctaW1hZScsICc8aW5maWxlLm1hZT4nLCAnLW9tYWUnLCAnPG91dGZpbGUubWFlPic=

> <r_lp_tautomer_probability>
1

> <r_epik_Ionization_Penalty>
0.0527919

> <r_epik_Ionization_Penalty_Charging>
0.052373

> <r_epik_Ionization_Penalty_Neutral>
0.000418955

> <r_epik_State_Penalty>
0.130843

> <r_epik_Charging_Adjusted_Penalty>
0.183216

> <i_epik_Tot_Q>
1

> <i_epik_Tot_abs_Q>
1

> <r_epik_Metal_State_Penalty>
0.130841

> <b_epik_Metal_Only>
0

> <s_lp_Force_Field>
OPLS_2005

> <r_lp_Energy>
24.8956

> <b_lp_Chiralities_Consistent>
1

> <s_lp_Variant>
AV-unprocessed.smi:1514-1

> <Gold.Version>
5.8.1

> <Gold.Id.Protein>
6NUR|6NUR_protein|mol2

> <Gold.PLP.Fitness>
43.3546

> <Gold.PLP.PLP>
-39.8961

> <Gold.PLP.part.hbond>
-3.9426

> <Gold.PLP.part.metal>
0.0000

> <Gold.PLP.part.buried>
-2.9279

> <Gold.PLP.part.nonpolar>
-35.1858

> <Gold.PLP.part.repulsive>
0.3964

> <Gold.PLP.ligand.clash>
0.0000

> <Gold.PLP.ligand.torsion>
0.9993

> <Gold.PLP.Chemscore.Hbond>
1.8056

> <Gold.PLP.Chemscore.CHOScore>
0.0000

> <Gold.PLP.Chemscore.Metal>
0.0000

> <Gold.Chemscore.Hbonds>
donor molecule, donor type, donor heavy atom, donor atom, acceptor molecule, acceptor atom, score
      L1  H     9    35       P1  7948  0.99
      L1  H    12    36       P1  7948  0.79

> <Gold.PLP.Chemscore.Internal.Correction>
0.0403

> <Gold.Rescore>
     Score         DG    S(hbond)    S(metal)    S(lipo)     H(rot)  DE(clash)    DE(int)     intcor
     14.44     -16.87       1.70        0.00      85.72       1.69       0.30       2.13       ----

> <Gold.Chemscore.Fitness>
14.4425

> <Gold.Chemscore.DG>
-16.8689

> <Gold.Chemscore.ZeroCoef>
-5.4800

> <Gold.Chemscore.Hbond>
1.7036

> <Gold.Chemscore.Metal>
0.0000

> <Gold.Chemscore.Lipo>
85.7172

> <Gold.Chemscore.Internal_Hbond>
0.0000

> <Gold.Chemscore.DEClash>
0.3004

> <Gold.Chemscore.DEInternal>
2.1261

> <Gold.Chemscore.Rot>
1.6914

> <Gold.Chemscore.Internal.Correction>
   9.000000E+99

> <Gold.Chemscore.Hbonds>
donor molecule, donor type, donor heavy atom, donor atom, acceptor molecule, acceptor atom, score
      L1  H     9    35       P1  7948  0.92
      L1  H    12    36       P1  7948  0.73

> <Gold.Chemscore.Hbond.Weighted>
-5.6899

> <Gold.Chemscore.Metal.Weighted>
-0.0000

> <Gold.Chemscore.Lipo.Weighted>
-10.0289

> <Gold.Chemscore.Internal_Hbond.Weighted>
0.0000

> <Gold.Chemscore.DEClash.Weighted>
0.3004

> <Gold.Chemscore.DEInternal.Weighted>
2.1261

> <Gold.Chemscore.Rot.Weighted>
4.3299

> <Gold.Chemscore.Internal.Correction.Weighted>
   9.000000E+99

> <Gold.Protein.RotatedTorsions>
[ 6907 6896 6895 6894 ] final  -50.28 input  -60.11 | X-H torsion
[ 7974 7965 7964 7962 ] final   51.32 input  175.53 | X-H torsion
[ 8008 7997 7996 7995 ] final   94.53 input   59.86 | X-H torsion
[ 10167 10162 10161 10158 ] final  -12.61 input  -65.29 | X-H torsion
[ 10718 10713 10712 10709 ] final   14.22 input   66.30 | X-H torsion
[ 10763 10752 10751 10750 ] final   90.79 input  -60.55 | X-H torsion
[ 11005 11000 10999 10996 ] final  166.05 input  -57.11 | X-H torsion

> <Gold.Protein.ActiveResidues>
 VAL166  LYS551  ARG553  GLY616  TRP617  ASP618  TYR619  PRO620  LYS621  CYS622 
 ASP623  PHE694  ASN695  SER759  ASP760  ASP761  ALA762  ILE779  LEU786  VAL792 
 PHE793  MET794  SER795  GLU796  ALA797  LYS798  CYS799  TRP800  GLU811  SER814 

> <Gold.Protein.RotatedAtoms>
  150.8723  134.8099  159.7163 H   0  0  0  0  0  0  0  0  0  0  0  0  # atno 6907 bound_to 6896
  152.4723  134.4928  159.9710 H   0  0  0  0  0  0  0  0  0  0  0  0  # atno 6908 bound_to 6896
  151.5014  133.3465  159.2905 H   0  0  0  0  0  0  0  0  0  0  0  0  # atno 6909 bound_to 6896
  145.9925  139.4354  143.0065 H   0  0  0  0  0  0  0  0  0  0  0  0  # atno 7974 bound_to 7965
  156.0590  140.3298  155.7439 H   0  0  0  0  0  0  0  0  0  0  0  0  # atno 8008 bound_to 7997
  155.5485  140.0608  157.2872 H   0  0  0  0  0  0  0  0  0  0  0  0  # atno 8009 bound_to 7997
  154.4472  140.1898  156.0650 H   0  0  0  0  0  0  0  0  0  0  0  0  # atno 8010 bound_to 7997
  140.7165  143.5514  150.9297 H   0  0  0  0  0  0  0  0  0  0  0  0  # atno 10167 bound_to 10162
  157.0359  130.6211  149.5743 H   0  0  0  0  0  0  0  0  0  0  0  0  # atno 10718 bound_to 10713
  153.2013  135.4421  155.0270 H   0  0  0  0  0  0  0  0  0  0  0  0  # atno 10763 bound_to 10752
  154.8148  135.3310  154.7208 H   0  0  0  0  0  0  0  0  0  0  0  0  # atno 10764 bound_to 10752
  153.7653  135.6988  153.4973 H   0  0  0  0  0  0  0  0  0  0  0  0  # atno 10765 bound_to 10752
  140.2624  134.7891  157.3602 H   0  0  0  0  0  0  0  0  0  0  0  0  # atno 11005 bound_to 11000
  145.7609  140.9936  143.1200 LP  0  0  0  0  0  0  0  0  0  0  0  0  # atno 17320 bound_to 7965
  144.6893  139.9329  143.7472 LP  0  0  0  0  0  0  0  0  0  0  0  0  # atno 17321 bound_to 7965
  139.9239  143.6573  152.3091 LP  0  0  0  0  0  0  0  0  0  0  0  0  # atno 17342 bound_to 10162
  139.7000  144.7636  151.1290 LP  0  0  0  0  0  0  0  0  0  0  0  0  # atno 17343 bound_to 10162
  156.0054  130.5140  150.7811 LP  0  0  0  0  0  0  0  0  0  0  0  0  # atno 17370 bound_to 10713
  157.5142  131.0927  151.0160 LP  0  0  0  0  0  0  0  0  0  0  0  0  # atno 17371 bound_to 10713
  140.1451  134.4921  155.8002 LP  0  0  0  0  0  0  0  0  0  0  0  0  # atno 17394 bound_to 11000
  141.2188  133.6840  156.7280 LP  0  0  0  0  0  0  0  0  0  0  0  0  # atno 17395 bound_to 11000

$$$$
