#       Name:                AV-unprocessed.smi:162
#       Creating user name   scv26
#       Creation time:       Thu Mar 26 19:10:07 2020


#       File generated by GOLD software.
#

@<TRIPOS>MOLECULE
AV-unprocessed.smi:162
    66    69     1
SMALL
NO_CHARGES


@<TRIPOS>ATOM
      1 ****        -3.4751  -4.0303   0.2589 C.3            1 S1                 0.0000
      2 ****        -3.4284  -2.6197   0.1376 O.3            1 S1                 0.0000
      3 ****        -2.7727  -2.0032   1.2329 C.3            1 S1                 0.0000
      4 ****        -2.7682  -0.4806   1.0227 C.3            1 S1                 0.0000
      5 ****        -4.1573   0.1543   1.0230 C.3            1 S1                 0.0000
      6 ****        -3.8272   1.6257   1.2725 C.3            1 S1                 0.0000
      7 ****        -4.8968   2.3548   1.8565 O.3            1 S1                 0.0000
      8 ****        -5.9600   2.6186   0.9559 C.3            1 S1                 0.0000
      9 ****        -2.6322   1.5547   2.2311 C.3            1 S1                 0.0000
     10 ****        -2.0397   0.2293   2.0696 N.3            1 S1                 0.0000
     11 ****        -0.6960   0.2111   1.9334 C.ar           1 S1                 0.0000
     12 ****         0.0063  -0.5114   2.8397 N.ar           1 S1                 0.0000
     13 ****         1.3378  -0.5838   2.7476 C.ar           1 S1                 0.0000
     14 ****         2.1444  -0.0246   1.8427 N.ar           1 S1                 0.0000
     15 ****         1.4379   0.7012   0.9290 C.ar           1 S1                 0.0000
     16 ****         0.0261   0.8741   0.9011 C.ar           1 S1                 0.0000
     17 ****        -0.3335   1.6766  -0.1752 N.2            1 S1                 0.0000
     18 ****         0.8023   1.9595  -0.7527 C.2            1 S1                 0.0000
     19 ****         1.9160   1.4070  -0.1610 N.pl3          1 S1                 0.0000
     20 ****         3.2963   1.5465  -0.5990 C.3            1 S1                 0.0000
     21 ****         3.7049   0.5430  -1.7057 C.3            1 S1                 0.0000
     22 ****         2.9453   0.8480  -2.8628 O.3            1 S1                 0.0000
     23 ****         5.1998   0.6990  -2.0499 C.3            1 S1                 0.0000
     24 ****         5.6880  -0.3882  -3.0237 C.3            1 S1                 0.0000
     25 ****         5.4119  -1.6781  -2.4914 O.3            1 S1                 0.0000
     26 ****         4.0198  -1.9189  -2.3263 C.3            1 S1                 0.0000
     27 ****         3.4269  -0.9247  -1.3121 C.3            1 S1                 0.0000
     28 ****        -2.2982  -0.2687   0.0609 H              1 S1                 0.0000
     29 ****        -3.5009   2.0949   0.3422 H              1 S1                 0.0000
     30 ****        -3.9869  -4.4557  -0.6043 H              1 S1                 0.0000
     31 ****        -4.0193  -4.3311   1.1550 H              1 S1                 0.0000
     32 ****        -2.4716  -4.4560   0.2990 H              1 S1                 0.0000
     33 ****        -3.2734  -2.2566   2.1691 H              1 S1                 0.0000
     34 ****        -1.7496  -2.3773   1.2971 H              1 S1                 0.0000
     35 ****        -4.6984  -0.0119   0.0912 H              1 S1                 0.0000
     36 ****        -4.7572  -0.2419   1.8439 H              1 S1                 0.0000
     37 ****        -6.7264   3.2061   1.4612 H              1 S1                 0.0000
     38 ****        -6.4253   1.6976   0.6033 H              1 S1                 0.0000
     39 ****        -5.6147   3.1897   0.0932 H              1 S1                 0.0000
     40 ****        -1.9322   2.3736   2.0593 H              1 S1                 0.0000
     41 ****        -2.9738   1.6341   3.2635 H              1 S1                 0.0000
     42 ****         1.8265  -1.1773   3.5061 H              1 S1                 0.0000
     43 ****         0.8596   2.5760  -1.6381 H              1 S1                 0.0000
     44 ****         3.4452   2.5719  -0.9406 H              1 S1                 0.0000
     45 ****         3.9404   1.4222   0.2724 H              1 S1                 0.0000
     46 ****         3.1902   0.2462  -3.5491 H              1 S1                 0.0000
     47 ****         5.3972   1.6887  -2.4640 H              1 S1                 0.0000
     48 ****         5.7893   0.6290  -1.1347 H              1 S1                 0.0000
     49 ****         5.2214  -0.2784  -4.0038 H              1 S1                 0.0000
     50 ****         6.7635  -0.2952  -3.1752 H              1 S1                 0.0000
     51 ****         3.5104  -1.8499  -3.2887 H              1 S1                 0.0000
     52 ****         3.8810  -2.9397  -1.9699 H              1 S1                 0.0000
     53 ****         3.8682  -1.1235  -0.3346 H              1 S1                 0.0000
     54 ****         2.3562  -1.1049  -1.2073 H              1 S1                 0.0000
     55 ****        -4.3641  -2.2709   0.0861 LP             1 S1                 0.0000
     56 ****        -2.9388  -2.3859  -0.7025 LP             1 S1                 0.0000
     57 ****        -4.5401   3.2276   2.1895 LP             1 S1                 0.0000
     58 ****        -5.2570   1.8267   2.6255 LP             1 S1                 0.0000
     59 ****        -2.1494  -0.2669   2.9309 LP             1 S1                 0.0000
     60 ****        -0.4711  -0.9899   3.5766 LP             1 S1                 0.0000
     61 ****         3.1394  -0.1250   1.8356 LP             1 S1                 0.0000
     62 ****        -1.2507   1.9696  -0.4449 LP             1 S1                 0.0000
     63 ****         3.1347   1.7860  -3.1532 LP             1 S1                 0.0000
     64 ****         1.9705   0.7517  -2.6616 LP             1 S1                 0.0000
     65 ****         5.8581  -1.7583  -1.6001 LP             1 S1                 0.0000
     66 ****         5.7839  -2.3670  -3.1136 LP             1 S1                 0.0000
@<TRIPOS>BOND
    1    1    2 1     
    2    1   30 1     
    3    1   31 1     
    4    1   32 1     
    5    2    3 1     
    6    3    4 1     
    7    3   33 1     
    8    3   34 1     
    9    4   28 1     
   10    4   10 1     
   11    4    5 1     
   12    5    6 1     
   13    5   35 1     
   14    5   36 1     
   15    6   29 1     
   16    6    7 1     
   17    6    9 1     
   18    7    8 1     
   19    8   37 1     
   20    8   38 1     
   21    8   39 1     
   22    9   10 1     
   23    9   40 1     
   24    9   41 1     
   25   10   11 1     
   26   11   16 ar    
   27   11   12 ar    
   28   12   13 ar    
   29   13   14 ar    
   30   13   42 1     
   31   14   15 ar    
   32   15   19 1     
   33   15   16 ar    
   34   16   17 1     
   35   17   18 2     
   36   18   19 1     
   37   18   43 1     
   38   19   20 1     
   39   20   21 1     
   40   20   44 1     
   41   20   45 1     
   42   21   27 1     
   43   21   22 1     
   44   21   23 1     
   45   22   46 1     
   46   23   24 1     
   47   23   47 1     
   48   23   48 1     
   49   24   25 1     
   50   24   49 1     
   51   24   50 1     
   52   25   26 1     
   53   26   27 1     
   54   26   51 1     
   55   26   52 1     
   56   27   53 1     
   57   27   54 1     
   58    2   55 1     
   59    2   56 1     
   60    7   57 1     
   61    7   58 1     
   62   10   59 1     
   63   12   60 1     
   64   14   61 1     
   65   17   62 1     
   66   22   63 1     
   67   22   64 1     
   68   25   65 1     
   69   25   66 1     
@<TRIPOS>SUBSTRUCTURE
      1 S1             1
@<TRIPOS>SET
LONE_PAIRS      STATIC     ATOMS    <user>   **** ""
12 55 56 57 58 59 60 61 62 63 64 65 66
DONOR_HYDROGENS      STATIC     ATOMS    <user>   **** ""
1 46
ATOM$BLUE        STATIC     ATOMS    COLORGROUP SYSTEM
12 55 56 57 58 59 60 61 62 63 64 65 66
ATOM$RED        STATIC     ATOMS    COLORGROUP SYSTEM
1 46
