AV-unprocessed.smi:2812|AV-procd|sdf|10834|dock8
  -GOLD-   2272015273D 1   1.00000     0.00000
 Structure written by MMmdl.
 55 56  0  0  0  0  0  0  0  0  2 V2000
  147.4007  140.2900  153.0004 C   0  0  0  0  0  0  0  0  0  0  0  0
  148.6063  140.3794  153.9241 C   0  0  0  0  0  0  0  0  0  0  0  0
  149.0551  141.6869  154.3572 C   0  0  0  0  0  0  0  0  0  0  0  0
  150.1378  141.7888  155.1407 C   0  0  0  0  0  0  0  0  0  0  0  0
  150.8550  140.6578  155.5574 N   0  0  0  0  0  0  0  0  0  0  0  0
  152.0271  140.8705  156.4103 C   0  0  0  0  0  0  0  0  0  0  0  0
  150.4942  139.3933  155.1956 C   0  0  0  0  0  0  0  0  0  0  0  0
  151.1416  138.4116  155.5676 O   0  0  0  0  0  0  0  0  0  0  0  0
  149.2948  139.2813  154.3429 C   0  0  0  0  0  0  0  0  0  0  0  0
  148.9246  137.9826  153.9754 N   0  0  0  0  0  0  0  0  0  0  0  0
  147.9295  137.2846  154.5458 C   0  0  0  0  0  0  0  0  0  0  0  0
  147.1973  137.7133  155.4387 O   0  0  0  0  0  0  0  0  0  0  0  0
  147.8229  136.0558  154.0225 N   0  0  0  0  0  0  0  0  0  0  0  0
  146.8159  135.0731  154.4111 C   0  0  0  0  0  0  0  0  0  0  0  0
  145.8600  134.6917  153.2426 C   0  0  1  0  0  0  0  0  0  0  0  0
  144.9491  135.9078  152.9247 C   0  0  0  0  0  0  0  0  0  0  0  0
  144.0559  135.6892  151.7027 C   0  0  0  0  0  0  0  0  0  0  0  0
  144.9294  135.3294  150.5040 C   0  0  0  0  0  0  0  0  0  0  0  0
  145.7487  134.0755  150.8219 C   0  0  0  0  0  0  0  0  0  0  0  0
  146.6130  134.2466  152.0239 N   0  3  2  0  0  0  0  0  0  0  0  0
  147.4577  133.0335  152.2216 C   0  0  0  0  0  0  0  0  0  0  0  0
  146.6374  131.8558  152.7839 C   0  0  0  0  0  0  0  0  0  0  0  0
  147.5503  130.8480  153.4976 C   0  0  0  0  0  0  0  0  0  0  0  0
  145.8150  131.1544  151.6900 C   0  0  0  0  0  0  0  0  0  0  0  0
  147.1953  141.2538  152.5342 H   0  0  0  0  0  0  0  0  0  0  0  0
  146.5129  139.9925  153.5583 H   0  0  0  0  0  0  0  0  0  0  0  0
  147.5687  139.5674  152.2013 H   0  0  0  0  0  0  0  0  0  0  0  0
  148.5230  142.5770  154.0548 H   0  0  0  0  0  0  0  0  0  0  0  0
  150.5168  142.7363  155.4946 H   0  0  0  0  0  0  0  0  0  0  0  0
  151.9018  140.3618  157.3673 H   0  0  0  0  0  0  0  0  0  0  0  0
  152.2073  141.9245  156.6238 H   0  0  0  0  0  0  0  0  0  0  0  0
  152.9258  140.4785  155.9317 H   0  0  0  0  0  0  0  0  0  0  0  0
  149.5385  137.5054  153.3315 H   0  0  0  0  0  0  0  0  0  0  0  0
  148.4728  135.7861  153.2982 H   0  0  0  0  0  0  0  0  0  0  0  0
  147.3394  134.1838  154.7628 H   0  0  0  0  0  0  0  0  0  0  0  0
  146.2959  135.4723  155.2795 H   0  0  0  0  0  0  0  0  0  0  0  0
  145.2260  133.8577  153.5483 H   0  0  0  0  0  0  0  0  0  0  0  0
  144.3127  136.1405  153.7790 H   0  0  0  0  0  0  0  0  0  0  0  0
  145.5662  136.7916  152.7557 H   0  0  0  0  0  0  0  0  0  0  0  0
  143.3388  134.8911  151.9004 H   0  0  0  0  0  0  0  0  0  0  0  0
  143.4772  136.5891  151.4923 H   0  0  0  0  0  0  0  0  0  0  0  0
  144.3057  135.1548  149.6268 H   0  0  0  0  0  0  0  0  0  0  0  0
  145.5927  136.1595  150.2567 H   0  0  0  0  0  0  0  0  0  0  0  0
  145.0729  133.2324  150.9761 H   0  0  0  0  0  0  0  0  0  0  0  0
  146.3701  133.8270  149.9608 H   0  0  0  0  0  0  0  0  0  0  0  0
  147.9654  132.7188  151.3130 H   0  0  0  0  0  0  0  0  0  0  0  0
  148.2762  133.2675  152.9046 H   0  0  0  0  0  0  0  0  0  0  0  0
  145.9420  132.2440  153.5291 H   0  0  0  0  0  0  0  0  0  0  0  0
  148.2800  130.4178  152.8106 H   0  0  0  0  0  0  0  0  0  0  0  0
  146.9729  130.0279  153.9254 H   0  0  0  0  0  0  0  0  0  0  0  0
  148.0990  131.3211  154.3128 H   0  0  0  0  0  0  0  0  0  0  0  0
  146.4577  130.7598  150.9024 H   0  0  0  0  0  0  0  0  0  0  0  0
  145.1008  131.8356  151.2271 H   0  0  0  0  0  0  0  0  0  0  0  0
  145.2457  130.3206  152.1017 H   0  0  0  0  0  0  0  0  0  0  0  0
  147.2498  135.0014  151.8125 H   0  0  0  0  0  0  0  0  0  0  0  0
  1  2  1  0  0  0  0
  1 25  1  0  0  0  0
  1 26  1  0  0  0  0
  1 27  1  0  0  0  0
  2  9  2  0  0  0  0
  2  3  1  0  0  0  0
  3  4  2  0  0  0  0
  3 28  1  0  0  0  0
  4  5  1  0  0  0  0
  4 29  1  0  0  0  0
  5  6  1  0  0  0  0
  5  7  1  0  0  0  0
  6 30  1  0  0  0  0
  6 31  1  0  0  0  0
  6 32  1  0  0  0  0
  7  8  2  0  0  0  0
  7  9  1  0  0  0  0
  9 10  1  0  0  0  0
 10 11  1  0  0  0  0
 10 33  1  0  0  0  0
 11 12  2  0  0  0  0
 11 13  1  0  0  0  0
 13 14  1  0  0  0  0
 13 34  1  0  0  0  0
 14 15  1  0  0  0  0
 14 35  1  0  0  0  0
 14 36  1  0  0  0  0
 15 20  1  0  0  0  0
 15 16  1  0  0  0  0
 15 37  1  0  0  0  0
 16 17  1  0  0  0  0
 16 38  1  0  0  0  0
 16 39  1  0  0  0  0
 17 18  1  0  0  0  0
 17 40  1  0  0  0  0
 17 41  1  0  0  0  0
 18 19  1  0  0  0  0
 18 42  1  0  0  0  0
 18 43  1  0  0  0  0
 19 20  1  0  0  0  0
 19 44  1  0  0  0  0
 19 45  1  0  0  0  0
 20 21  1  0  0  0  0
 20 55  1  0  0  0  0
 21 22  1  0  0  0  0
 21 46  1  0  0  0  0
 21 47  1  0  0  0  0
 22 23  1  0  0  0  0
 22 24  1  0  0  0  0
 22 48  1  0  0  0  0
 23 49  1  0  0  0  0
 23 50  1  0  0  0  0
 23 51  1  0  0  0  0
 24 52  1  0  0  0  0
 24 53  1  0  0  0  0
 24 54  1  0  0  0  0
M  CHG  1  20   1
M  END
> <s_m_source_file>
AV-unprocessed.smi

> <i_m_source_file_index>
2812

> <i_lp_mmshare_version>
43012

> <i_f3d_flags>
0

> <s_epik_input>
W0NIM11jMVtjSF1bY0hdbihbQ0gzXSljKD1PKWMxW05IXUMoPU8pW05IXVtDSDJdW0NAQEhdMltDSDJdW0NIMl1bQ0gyXVtDSDJdTjJbQ0gyXVtDSF0oW0NIM10pW0NIM10=

> <s_epik_cmdline>
J2VwaWtfcHl0aG9uJywgJy1waCcsICc3LjAnLCAnLXRuJywgJzgnLCAnLW1hJywgJzIwMCcsICctbWV0YWxfYmluZGluZycsICctaW1hZScsICc8aW5maWxlLm1hZT4nLCAnLW9tYWUnLCAnPG91dGZpbGUubWFlPic=

> <r_lp_tautomer_probability>
1

> <r_epik_Ionization_Penalty>
0.0010902

> <r_epik_Ionization_Penalty_Charging>
0.00107091

> <r_epik_Ionization_Penalty_Neutral>
1.92854e-05

> <r_epik_State_Penalty>
0.000697184

> <r_epik_Charging_Adjusted_Penalty>
0.0017681

> <i_epik_Tot_Q>
1

> <i_epik_Tot_abs_Q>
1

> <r_epik_Metal_State_Penalty>
-0

> <b_epik_Metal_Only>
0

> <s_lp_Force_Field>
OPLS_2005

> <r_lp_Energy>
40.1667

> <b_lp_Chiralities_Consistent>
1

> <s_lp_Variant>
AV-unprocessed.smi:2812-2

> <Gold.Version>
5.8.1

> <Gold.Id.Protein>
6NUR|6NUR_protein|mol2

> <Gold.PLP.Fitness>
47.9410

> <Gold.PLP.PLP>
-36.5297

> <Gold.PLP.part.hbond>
-2.9299

> <Gold.PLP.part.metal>
0.0000

> <Gold.PLP.part.buried>
-1.0679

> <Gold.PLP.part.nonpolar>
-31.9011

> <Gold.PLP.part.repulsive>
0.0673

> <Gold.PLP.ligand.clash>
0.0000

> <Gold.PLP.ligand.torsion>
1.0277

> <Gold.PLP.Chemscore.Hbond>
3.4011

> <Gold.PLP.Chemscore.CHOScore>
0.7784

> <Gold.PLP.Chemscore.Metal>
0.0000

> <Gold.Chemscore.Hbonds>
donor molecule, donor type, donor heavy atom, donor atom, acceptor molecule, acceptor atom, score
      L1  H    10    33       P1  7948  0.54
      L1  H    13    34       P1  7948  0.85
      L1  H    20    55       P1  7948  1.85
      L1  C     4    29       P1  8028  0.70

> <Gold.PLP.Chemscore.Internal.Correction>
0.9280

> <Gold.Rescore>
     Score         DG    S(hbond)    S(metal)    S(lipo)     H(rot)  DE(clash)    DE(int)     intcor
     18.86     -20.15       2.36        0.00      91.16       1.52       0.13       1.16       ----

> <Gold.Chemscore.Fitness>
18.8604

> <Gold.Chemscore.DG>
-20.1528

> <Gold.Chemscore.ZeroCoef>
-5.4800

> <Gold.Chemscore.Hbond>
2.3614

> <Gold.Chemscore.Metal>
0.0000

> <Gold.Chemscore.Lipo>
91.1621

> <Gold.Chemscore.Internal_Hbond>
0.0000

> <Gold.Chemscore.DEClash>
0.1295

> <Gold.Chemscore.DEInternal>
1.1628

> <Gold.Chemscore.Rot>
1.5157

> <Gold.Chemscore.Internal.Correction>
   9.000000E+99

> <Gold.Chemscore.Hbonds>
donor molecule, donor type, donor heavy atom, donor atom, acceptor molecule, acceptor atom, score
      L1  H    10    33       P1  7948  0.46
      L1  H    13    34       P1  7948  0.80
      L1  H    20    55       P1  7948  0.80

> <Gold.Chemscore.Hbond.Weighted>
-7.8871

> <Gold.Chemscore.Metal.Weighted>
-0.0000

> <Gold.Chemscore.Lipo.Weighted>
-10.6660

> <Gold.Chemscore.Internal_Hbond.Weighted>
0.0000

> <Gold.Chemscore.DEClash.Weighted>
0.1295

> <Gold.Chemscore.DEInternal.Weighted>
1.1628

> <Gold.Chemscore.Rot.Weighted>
3.8803

> <Gold.Chemscore.Internal.Correction.Weighted>
   9.000000E+99

> <Gold.Protein.RotatedTorsions>
[ 6907 6896 6895 6894 ] final  -54.25 input  -60.11 | X-H torsion
[ 7974 7965 7964 7962 ] final  123.41 input  175.53 | X-H torsion
[ 8008 7997 7996 7995 ] final   29.57 input   59.86 | X-H torsion
[ 10167 10162 10161 10158 ] final  -38.33 input  -65.29 | X-H torsion
[ 10718 10713 10712 10709 ] final -178.48 input   66.30 | X-H torsion
[ 10763 10752 10751 10750 ] final   -1.28 input  -60.55 | X-H torsion
[ 11005 11000 10999 10996 ] final -119.77 input  -57.11 | X-H torsion

> <Gold.Protein.ActiveResidues>
 VAL166  LYS551  ARG553  GLY616  TRP617  ASP618  TYR619  PRO620  LYS621  CYS622 
 ASP623  PHE694  ASN695  SER759  ASP760  ASP761  ALA762  ILE779  LEU786  VAL792 
 PHE793  MET794  SER795  GLU796  ALA797  LYS798  CYS799  TRP800  GLU811  SER814 

> <Gold.Protein.RotatedAtoms>
  150.8355  134.7626  159.6888 H   0  0  0  0  0  0  0  0  0  0  0  0  # atno 6907 bound_to 6896
  152.4452  134.5505  159.9875 H   0  0  0  0  0  0  0  0  0  0  0  0  # atno 6908 bound_to 6896
  151.5657  133.3359  159.3015 H   0  0  0  0  0  0  0  0  0  0  0  0  # atno 6909 bound_to 6896
  145.0962  139.3551  143.4835 H   0  0  0  0  0  0  0  0  0  0  0  0  # atno 7974 bound_to 7965
  155.0765  140.3206  155.4614 H   0  0  0  0  0  0  0  0  0  0  0  0  # atno 8008 bound_to 7997
  156.2778  140.2102  156.5839 H   0  0  0  0  0  0  0  0  0  0  0  0  # atno 8009 bound_to 7997
  154.7012  140.0507  157.0447 H   0  0  0  0  0  0  0  0  0  0  0  0  # atno 8010 bound_to 7997
  140.7095  143.3284  151.2626 H   0  0  0  0  0  0  0  0  0  0  0  0  # atno 10167 bound_to 10162
  156.8449  130.9699  151.3097 H   0  0  0  0  0  0  0  0  0  0  0  0  # atno 10718 bound_to 10713
  153.3428  135.6981  153.6853 H   0  0  0  0  0  0  0  0  0  0  0  0  # atno 10763 bound_to 10752
  153.5610  135.3535  155.2800 H   0  0  0  0  0  0  0  0  0  0  0  0  # atno 10764 bound_to 10752
  154.8640  135.4249  154.2645 H   0  0  0  0  0  0  0  0  0  0  0  0  # atno 10765 bound_to 10752
  141.0192  134.0150  157.3307 H   0  0  0  0  0  0  0  0  0  0  0  0  # atno 11005 bound_to 11000
  146.3530  140.0819  142.8617 LP  0  0  0  0  0  0  0  0  0  0  0  0  # atno 17320 bound_to 7965
  145.1008  140.9344  143.4713 LP  0  0  0  0  0  0  0  0  0  0  0  0  # atno 17321 bound_to 7965
  139.6759  143.9939  152.2780 LP  0  0  0  0  0  0  0  0  0  0  0  0  # atno 17342 bound_to 10162
  139.9553  144.6594  150.8132 LP  0  0  0  0  0  0  0  0  0  0  0  0  # atno 17343 bound_to 10162
  157.6335  130.8748  149.9317 LP  0  0  0  0  0  0  0  0  0  0  0  0  # atno 17370 bound_to 10713
  156.0860  130.3668  150.0487 LP  0  0  0  0  0  0  0  0  0  0  0  0  # atno 17371 bound_to 10713
  139.9135  135.0194  156.7789 LP  0  0  0  0  0  0  0  0  0  0  0  0  # atno 17394 bound_to 11000
  140.6603  133.9651  155.7801 LP  0  0  0  0  0  0  0  0  0  0  0  0  # atno 17395 bound_to 11000

$$$$
