AV-unprocessed.smi:3338|AV-procd|sdf|12869|dock8
  -GOLD-   2272019273D 1   1.00000     0.00000
 Structure written by MMmdl.
 44 45  0  0  0  0  0  0  0  0  2 V2000
  151.9974  145.0452  158.6556 C   0  0  0  0  0  0  0  0  0  0  0  0
  151.9064  143.6211  159.2215 C   0  0  2  0  0  0  0  0  0  0  0  0
  153.2025  143.2199  159.9452 C   0  0  0  0  0  0  0  0  0  0  0  0
  153.0914  141.7861  160.4772 C   0  0  0  0  0  0  0  0  0  0  0  0
  152.7266  140.8076  159.3498 C   0  0  0  0  0  0  0  0  0  0  0  0
  151.4699  141.2167  158.6705 N   0  3  2  0  0  0  0  0  0  0  0  0
  151.0250  140.2162  157.6681 C   0  0  0  0  0  0  0  0  0  0  0  0
  151.0186  138.7809  158.2297 C   0  0  0  0  0  0  0  0  0  0  0  0
  149.6593  138.3151  158.4747 N   0  0  0  0  0  0  0  0  0  0  0  0
  149.3351  137.0942  158.9309 C   0  0  0  0  0  0  0  0  0  0  0  0
  150.1794  136.2470  159.2259 O   0  0  0  0  0  0  0  0  0  0  0  0
  147.8319  136.7932  159.0657 C   0  0  2  0  0  0  0  0  0  0  0  0
  146.9385  137.8759  158.4275 C   0  0  0  0  0  0  0  0  0  0  0  0
  147.4747  136.5585  160.4606 N   0  0  0  0  0  0  0  0  0  0  0  0
  147.9441  135.5713  161.3033 C   0  0  0  0  0  0  0  0  0  0  0  0
  147.3496  135.7521  162.5191 C   0  0  0  0  0  0  0  0  0  0  0  0
  146.5220  136.8924  162.3242 C   0  0  0  0  0  0  0  0  0  0  0  0
  146.6017  137.3754  161.0954 N   0  0  0  0  0  0  0  0  0  0  0  0
  151.5705  142.5954  158.1198 C   0  0  0  0  0  0  0  0  0  0  0  0
  152.7939  145.1287  157.9155 H   0  0  0  0  0  0  0  0  0  0  0  0
  152.2002  145.7693  159.4452 H   0  0  0  0  0  0  0  0  0  0  0  0
  151.0636  145.3375  158.1740 H   0  0  0  0  0  0  0  0  0  0  0  0
  151.0948  143.6097  159.9508 H   0  0  0  0  0  0  0  0  0  0  0  0
  154.0498  143.2927  159.2616 H   0  0  0  0  0  0  0  0  0  0  0  0
  153.4057  143.9061  160.7682 H   0  0  0  0  0  0  0  0  0  0  0  0
  154.0322  141.4871  160.9403 H   0  0  0  0  0  0  0  0  0  0  0  0
  152.3335  141.7427  161.2606 H   0  0  0  0  0  0  0  0  0  0  0  0
  153.5358  140.7535  158.6196 H   0  0  0  0  0  0  0  0  0  0  0  0
  152.6116  139.8080  159.7711 H   0  0  0  0  0  0  0  0  0  0  0  0
  150.0408  140.4880  157.2833 H   0  0  0  0  0  0  0  0  0  0  0  0
  151.7048  140.2462  156.8151 H   0  0  0  0  0  0  0  0  0  0  0  0
  151.5296  138.0995  157.5471 H   0  0  0  0  0  0  0  0  0  0  0  0
  151.5524  138.7297  159.1779 H   0  0  0  0  0  0  0  0  0  0  0  0
  148.9085  138.9557  158.2597 H   0  0  0  0  0  0  0  0  0  0  0  0
  147.6490  135.8632  158.5250 H   0  0  0  0  0  0  0  0  0  0  0  0
  147.1675  138.0035  157.3690 H   0  0  0  0  0  0  0  0  0  0  0  0
  147.0621  138.8449  158.9130 H   0  0  0  0  0  0  0  0  0  0  0  0
  145.8855  137.6026  158.5014 H   0  0  0  0  0  0  0  0  0  0  0  0
  148.6553  134.8292  160.9716 H   0  0  0  0  0  0  0  0  0  0  0  0
  147.4849  135.1596  163.4121 H   0  0  0  0  0  0  0  0  0  0  0  0
  145.8720  137.3814  163.0347 H   0  0  0  0  0  0  0  0  0  0  0  0
  150.6294  142.8797  157.6503 H   0  0  0  0  0  0  0  0  0  0  0  0
  152.3312  142.6189  157.3376 H   0  0  0  0  0  0  0  0  0  0  0  0
  150.7592  141.2358  159.3879 H   0  0  0  0  0  0  0  0  0  0  0  0
  1  2  1  0  0  0  0
  1 20  1  0  0  0  0
  1 21  1  0  0  0  0
  1 22  1  0  0  0  0
  2 19  1  0  0  0  0
  2  3  1  0  0  0  0
  2 23  1  0  0  0  0
  3  4  1  0  0  0  0
  3 24  1  0  0  0  0
  3 25  1  0  0  0  0
  4  5  1  0  0  0  0
  4 26  1  0  0  0  0
  4 27  1  0  0  0  0
  5  6  1  0  0  0  0
  5 28  1  0  0  0  0
  5 29  1  0  0  0  0
  6  7  1  0  0  0  0
  6 19  1  0  0  0  0
  6 44  1  0  0  0  0
  7  8  1  0  0  0  0
  7 30  1  0  0  0  0
  7 31  1  0  0  0  0
  8  9  1  0  0  0  0
  8 32  1  0  0  0  0
  8 33  1  0  0  0  0
  9 10  1  0  0  0  0
  9 34  1  0  0  0  0
 10 11  2  0  0  0  0
 10 12  1  0  0  0  0
 12 13  1  0  0  0  0
 12 14  1  0  0  0  0
 12 35  1  0  0  0  0
 13 36  1  0  0  0  0
 13 37  1  0  0  0  0
 13 38  1  0  0  0  0
 14 18  1  0  0  0  0
 14 15  1  0  0  0  0
 15 16  2  0  0  0  0
 15 39  1  0  0  0  0
 16 17  1  0  0  0  0
 16 40  1  0  0  0  0
 17 18  2  0  0  0  0
 17 41  1  0  0  0  0
 19 42  1  0  0  0  0
 19 43  1  0  0  0  0
M  CHG  1   6   1
M  END
> <s_m_source_file>
AV-unprocessed.smi

> <i_m_source_file_index>
3338

> <i_lp_mmshare_version>
43012

> <i_f3d_flags>
0

> <s_epik_input>
W0NIM11bQ0BASF0xW0NIMl1bQ0gyXVtDSDJdTihbQ0gyXTEpW0NIMl1bQ0gyXVtOSF1DKD1PKVtDQEhdKFtDSDNdKW4yW2NIXVtjSF1bY0hdbjI=

> <s_epik_cmdline>
J2VwaWtfcHl0aG9uJywgJy1waCcsICc3LjAnLCAnLXRuJywgJzgnLCAnLW1hJywgJzIwMCcsICctbWV0YWxfYmluZGluZycsICctaW1hZScsICc8aW5maWxlLm1hZT4nLCAnLW9tYWUnLCAnPG91dGZpbGUubWFlPic=

> <r_lp_tautomer_probability>
1

> <r_epik_Ionization_Penalty>
0.00225707

> <r_epik_Ionization_Penalty_Charging>
0.00223709

> <r_epik_Ionization_Penalty_Neutral>
1.99775e-05

> <r_epik_State_Penalty>
0.00153978

> <r_epik_Charging_Adjusted_Penalty>
0.00377687

> <i_epik_Tot_Q>
1

> <i_epik_Tot_abs_Q>
1

> <r_epik_Metal_State_Penalty>
-0

> <b_epik_Metal_Only>
0

> <s_lp_Force_Field>
OPLS_2005

> <r_lp_Energy>
19.7834

> <b_lp_Chiralities_Consistent>
1

> <s_lp_Variant>
AV-unprocessed.smi:3338-1

> <Gold.Version>
5.8.1

> <Gold.Id.Protein>
6NUR|6NUR_protein|mol2

> <Gold.PLP.Fitness>
45.5249

> <Gold.PLP.PLP>
-40.4787

> <Gold.PLP.part.hbond>
-2.1292

> <Gold.PLP.part.metal>
0.0000

> <Gold.PLP.part.buried>
-5.5768

> <Gold.PLP.part.nonpolar>
-33.0834

> <Gold.PLP.part.repulsive>
0.2930

> <Gold.PLP.ligand.clash>
0.0000

> <Gold.PLP.ligand.torsion>
0.5424

> <Gold.PLP.Chemscore.Hbond>
2.0000

> <Gold.PLP.Chemscore.CHOScore>
0.0000

> <Gold.PLP.Chemscore.Metal>
0.0000

> <Gold.Chemscore.Hbonds>
donor molecule, donor type, donor heavy atom, donor atom, acceptor molecule, acceptor atom, score
      P1  H  6896  6908       L1    11  1.00
      P1  H  6934  6947       L1    18  1.00

> <Gold.PLP.Chemscore.Internal.Correction>
0.1310

> <Gold.Rescore>
     Score         DG    S(hbond)    S(metal)    S(lipo)     H(rot)  DE(clash)    DE(int)     intcor
     19.21     -19.93       1.95        0.00     106.22       1.76       0.02       0.71       ----

> <Gold.Chemscore.Fitness>
19.2075

> <Gold.Chemscore.DG>
-19.9297

> <Gold.Chemscore.ZeroCoef>
-5.4800

> <Gold.Chemscore.Hbond>
1.9522

> <Gold.Chemscore.Metal>
0.0000

> <Gold.Chemscore.Lipo>
106.2163

> <Gold.Chemscore.Internal_Hbond>
0.0000

> <Gold.Chemscore.DEClash>
0.0163

> <Gold.Chemscore.DEInternal>
0.7059

> <Gold.Chemscore.Rot>
1.7570

> <Gold.Chemscore.Internal.Correction>
   9.000000E+99

> <Gold.Chemscore.Hbonds>
donor molecule, donor type, donor heavy atom, donor atom, acceptor molecule, acceptor atom, score
      P1  H  6896  6908       L1    11  0.98
      P1  H  6934  6947       L1    18  0.66

> <Gold.Chemscore.Hbond.Weighted>
-6.5203

> <Gold.Chemscore.Metal.Weighted>
-0.0000

> <Gold.Chemscore.Lipo.Weighted>
-12.4273

> <Gold.Chemscore.Internal_Hbond.Weighted>
0.0000

> <Gold.Chemscore.DEClash.Weighted>
0.0163

> <Gold.Chemscore.DEInternal.Weighted>
0.7059

> <Gold.Chemscore.Rot.Weighted>
4.4979

> <Gold.Chemscore.Internal.Correction.Weighted>
   9.000000E+99

> <Gold.Protein.RotatedTorsions>
[ 6907 6896 6895 6894 ] final -158.87 input  -60.11 | X-H torsion
[ 7974 7965 7964 7962 ] final  142.87 input  175.53 | X-H torsion
[ 8008 7997 7996 7995 ] final  125.93 input   59.86 | X-H torsion
[ 10167 10162 10161 10158 ] final  -63.51 input  -65.29 | X-H torsion
[ 10718 10713 10712 10709 ] final   54.41 input   66.30 | X-H torsion
[ 10763 10752 10751 10750 ] final   61.21 input  -60.55 | X-H torsion
[ 11005 11000 10999 10996 ] final   90.72 input  -57.11 | X-H torsion

> <Gold.Protein.ActiveResidues>
 VAL166  LYS551  ARG553  GLY616  TRP617  ASP618  TYR619  PRO620  LYS621  CYS622 
 ASP623  PHE694  ASN695  SER759  ASP760  ASP761  ALA762  ILE779  LEU786  VAL792 
 PHE793  MET794  SER795  GLU796  ALA797  LYS798  CYS799  TRP800  GLU811  SER814 

> <Gold.Protein.RotatedAtoms>
  151.3249  133.4024  159.2657 H   0  0  0  0  0  0  0  0  0  0  0  0  # atno 6907 bound_to 6896
  151.0004  134.9318  159.7961 H   0  0  0  0  0  0  0  0  0  0  0  0  # atno 6908 bound_to 6896
  152.5273  134.3214  159.9202 H   0  0  0  0  0  0  0  0  0  0  0  0  # atno 6909 bound_to 6896
  144.8970  139.5476  143.5771 H   0  0  0  0  0  0  0  0  0  0  0  0  # atno 7974 bound_to 7965
  156.2849  140.2705  156.2028 H   0  0  0  0  0  0  0  0  0  0  0  0  # atno 8008 bound_to 7997
  155.0343  140.0386  157.2504 H   0  0  0  0  0  0  0  0  0  0  0  0  # atno 8009 bound_to 7997
  154.7328  140.2710  155.6446 H   0  0  0  0  0  0  0  0  0  0  0  0  # atno 8010 bound_to 7997
  140.5865  143.2334  151.6231 H   0  0  0  0  0  0  0  0  0  0  0  0  # atno 10167 bound_to 10162
  157.5254  130.8594  149.8615 H   0  0  0  0  0  0  0  0  0  0  0  0  # atno 10718 bound_to 10713
  152.9944  135.5509  154.5998 H   0  0  0  0  0  0  0  0  0  0  0  0  # atno 10763 bound_to 10752
  154.5342  135.2815  155.1156 H   0  0  0  0  0  0  0  0  0  0  0  0  # atno 10764 bound_to 10752
  154.2459  135.6408  153.5276 H   0  0  0  0  0  0  0  0  0  0  0  0  # atno 10765 bound_to 10752
  139.8851  134.8631  156.3326 H   0  0  0  0  0  0  0  0  0  0  0  0  # atno 11005 bound_to 11000
  146.3087  139.7669  142.9036 LP  0  0  0  0  0  0  0  0  0  0  0  0  # atno 17320 bound_to 7965
  145.3683  141.0338  143.3246 LP  0  0  0  0  0  0  0  0  0  0  0  0  # atno 17321 bound_to 7965
  139.5201  144.3233  152.0891 LP  0  0  0  0  0  0  0  0  0  0  0  0  # atno 17342 bound_to 10162
  140.2391  144.4288  150.6267 LP  0  0  0  0  0  0  0  0  0  0  0  0  # atno 17343 bound_to 10162
  156.0383  130.3745  150.1501 LP  0  0  0  0  0  0  0  0  0  0  0  0  # atno 17370 bound_to 10713
  156.9688  130.9828  151.3463 LP  0  0  0  0  0  0  0  0  0  0  0  0  # atno 17371 bound_to 10713
  140.9713  133.7326  156.0538 LP  0  0  0  0  0  0  0  0  0  0  0  0  # atno 17394 bound_to 11000
  140.7867  134.3663  157.5474 LP  0  0  0  0  0  0  0  0  0  0  0  0  # atno 17395 bound_to 11000

$$$$
