AV-unprocessed.smi:658|AV-procd|sdf|3232|dock9
  -GOLD-   22720 0173D 1   1.00000     0.00000
 Structure written by MMmdl.
 38 38  0  0  0  0  0  0  0  0  2 V2000
  151.3595  140.5528  157.7399 C   0  0  0  0  0  0  0  0  0  0  0  0
  150.6678  141.9185  157.9365 C   0  0  2  0  0  0  0  0  0  0  0  0
  149.8615  142.2603  156.7415 N   0  3  0  0  0  0  0  0  0  0  0  0
  148.5259  141.6307  156.6750 C   0  0  0  0  0  0  0  0  0  0  0  0
  147.9256  141.7713  155.2709 C   0  0  0  0  0  0  0  0  0  0  0  0
  148.9207  141.3917  154.1657 C   0  0  0  0  0  0  0  0  0  0  0  0
  149.6040  139.6973  154.4203 S   0  0  0  0  0  0  0  0  0  0  0  0
  149.1251  138.8942  152.9773 N   0  0  0  0  0  0  0  0  0  0  0  0
  151.0733  139.7624  154.4202 O   0  0  0  0  0  0  0  0  0  0  0  0
  148.8770  139.0634  155.5299 O   0  0  0  0  0  0  0  0  0  0  0  0
  151.6720  143.0643  158.2359 C   0  0  1  0  0  0  0  0  0  0  0  0
  151.0811  144.4586  157.9491 C   0  0  0  0  0  0  0  0  0  0  0  0
  152.1807  143.0124  159.6013 N   0  0  0  0  0  0  0  0  0  0  0  0
  152.9203  142.0130  160.2002 C   0  0  0  0  0  0  0  0  0  0  0  0
  153.1702  142.4033  161.4846 C   0  0  0  0  0  0  0  0  0  0  0  0
  152.5393  143.6748  161.5809 C   0  0  0  0  0  0  0  0  0  0  0  0
  151.9498  144.0374  160.4531 N   0  0  0  0  0  0  0  0  0  0  0  0
  151.9115  140.2457  158.6279 H   0  0  0  0  0  0  0  0  0  0  0  0
  152.0633  140.5833  156.9076 H   0  0  0  0  0  0  0  0  0  0  0  0
  150.6411  139.7596  157.5364 H   0  0  0  0  0  0  0  0  0  0  0  0
  149.9909  141.8373  158.7887 H   0  0  0  0  0  0  0  0  0  0  0  0
  149.7165  143.2599  156.7512 H   0  0  0  0  0  0  0  0  0  0  0  0
  148.5971  140.5754  156.9382 H   0  0  0  0  0  0  0  0  0  0  0  0
  147.8691  142.1031  157.4067 H   0  0  0  0  0  0  0  0  0  0  0  0
  147.0388  141.1412  155.1893 H   0  0  0  0  0  0  0  0  0  0  0  0
  147.5914  142.7988  155.1220 H   0  0  0  0  0  0  0  0  0  0  0  0
  148.4193  141.4012  153.1974 H   0  0  0  0  0  0  0  0  0  0  0  0
  149.7535  142.0932  154.1091 H   0  0  0  0  0  0  0  0  0  0  0  0
  148.2630  139.2659  152.5788 H   0  0  0  0  0  0  0  0  0  0  0  0
  149.1638  137.8778  153.0511 H   0  0  0  0  0  0  0  0  0  0  0  0
  152.5341  142.9321  157.5799 H   0  0  0  0  0  0  0  0  0  0  0  0
  150.8122  144.5743  156.8990 H   0  0  0  0  0  0  0  0  0  0  0  0
  151.8006  145.2433  158.1850 H   0  0  0  0  0  0  0  0  0  0  0  0
  150.1847  144.6436  158.5422 H   0  0  0  0  0  0  0  0  0  0  0  0
  153.2037  141.1156  159.6701 H   0  0  0  0  0  0  0  0  0  0  0  0
  153.7214  141.8638  162.2404 H   0  0  0  0  0  0  0  0  0  0  0  0
  152.4931  144.3404  162.4303 H   0  0  0  0  0  0  0  0  0  0  0  0
  150.3869  142.0222  155.9124 H   0  0  0  0  0  0  0  0  0  0  0  0
  1  2  1  0  0  0  0
  1 18  1  0  0  0  0
  1 19  1  0  0  0  0
  1 20  1  0  0  0  0
  2  3  1  0  0  0  0
  2 11  1  0  0  0  0
  2 21  1  0  0  0  0
  3  4  1  0  0  0  0
  3 22  1  0  0  0  0
  3 38  1  0  0  0  0
  4  5  1  0  0  0  0
  4 23  1  0  0  0  0
  4 24  1  0  0  0  0
  5  6  1  0  0  0  0
  5 25  1  0  0  0  0
  5 26  1  0  0  0  0
  6  7  1  0  0  0  0
  6 27  1  0  0  0  0
  6 28  1  0  0  0  0
  7  8  1  0  0  0  0
  7  9  2  0  0  0  0
  7 10  2  0  0  0  0
  8 29  1  0  0  0  0
  8 30  1  0  0  0  0
 11 12  1  0  0  0  0
 11 13  1  0  0  0  0
 11 31  1  0  0  0  0
 12 32  1  0  0  0  0
 12 33  1  0  0  0  0
 12 34  1  0  0  0  0
 13 17  1  0  0  0  0
 13 14  1  0  0  0  0
 14 15  2  0  0  0  0
 14 35  1  0  0  0  0
 15 16  1  0  0  0  0
 15 36  1  0  0  0  0
 16 17  2  0  0  0  0
 16 37  1  0  0  0  0
M  CHG  1   3   1
M  END
> <s_m_source_file>
AV-unprocessed.smi

> <i_m_source_file_index>
658

> <i_lp_mmshare_version>
43012

> <i_f3d_flags>
0

> <s_epik_input>
bjFbY0hdW2NIXVtjSF1uMVtDQEBIXShbQ0gzXSlbQ0BIXShbQ0gzXSlbTkhdW0NIMl1bQ0gyXVtDSDJdUyg9TykoPU8pW05IMl0=

> <s_epik_cmdline>
J2VwaWtfcHl0aG9uJywgJy1waCcsICc3LjAnLCAnLXRuJywgJzgnLCAnLW1hJywgJzIwMCcsICctbWV0YWxfYmluZGluZycsICctaW1hZScsICc8aW5maWxlLm1hZT4nLCAnLW9tYWUnLCAnPG91dGZpbGUubWFlPic=

> <r_lp_tautomer_probability>
1

> <r_epik_Ionization_Penalty>
0.00535781

> <r_epik_Ionization_Penalty_Charging>
0.00511015

> <r_epik_Ionization_Penalty_Neutral>
0.000247661

> <r_epik_State_Penalty>
-0

> <r_epik_Charging_Adjusted_Penalty>
0.00511015

> <i_epik_Tot_Q>
1

> <i_epik_Tot_abs_Q>
1

> <r_epik_Metal_State_Penalty>
0.149106

> <b_epik_Metal_Only>
0

> <s_lp_Force_Field>
OPLS_2005

> <r_lp_Energy>
7.04511

> <b_lp_Chiralities_Consistent>
1

> <s_lp_Variant>
AV-unprocessed.smi:658-3

> <Gold.Version>
5.8.1

> <Gold.Id.Protein>
6NUR|6NUR_protein|mol2

> <Gold.PLP.Fitness>
47.2539

> <Gold.PLP.PLP>
-38.6613

> <Gold.PLP.part.hbond>
-3.8142

> <Gold.PLP.part.metal>
0.0000

> <Gold.PLP.part.buried>
-4.1610

> <Gold.PLP.part.nonpolar>
-30.4889

> <Gold.PLP.part.repulsive>
0.2263

> <Gold.PLP.ligand.clash>
0.0000

> <Gold.PLP.ligand.torsion>
0.8196

> <Gold.PLP.Chemscore.Hbond>
3.3200

> <Gold.PLP.Chemscore.CHOScore>
0.0000

> <Gold.PLP.Chemscore.Metal>
0.0000

> <Gold.Chemscore.Hbonds>
donor molecule, donor type, donor heavy atom, donor atom, acceptor molecule, acceptor atom, score
      L1  H     3    22       P1  8028  1.66
      L1  H     8    30       P1  7948  0.77
      P1  H  7989  7998       L1     9  1.00

> <Gold.PLP.Chemscore.Internal.Correction>
0.2717

> <Gold.Rescore>
     Score         DG    S(hbond)    S(metal)    S(lipo)     H(rot)  DE(clash)    DE(int)     intcor
     14.16     -16.15       2.72        0.00      81.97       3.13       0.10       1.90       ----

> <Gold.Chemscore.Fitness>
14.1600

> <Gold.Chemscore.DG>
-16.1542

> <Gold.Chemscore.ZeroCoef>
-5.4800

> <Gold.Chemscore.Hbond>
2.7246

> <Gold.Chemscore.Metal>
0.0000

> <Gold.Chemscore.Lipo>
81.9659

> <Gold.Chemscore.Internal_Hbond>
0.0000

> <Gold.Chemscore.DEClash>
0.0992

> <Gold.Chemscore.DEInternal>
1.8950

> <Gold.Chemscore.Rot>
3.1312

> <Gold.Chemscore.Internal.Correction>
   9.000000E+99

> <Gold.Chemscore.Hbonds>
donor molecule, donor type, donor heavy atom, donor atom, acceptor molecule, acceptor atom, score
      L1  H     3    22       P1  8028  0.80
      L1  H     8    30       P1  7948  0.74
      P1  H  7989  7998       L1     9  0.81

> <Gold.Chemscore.Hbond.Weighted>
-9.1002

> <Gold.Chemscore.Metal.Weighted>
-0.0000

> <Gold.Chemscore.Lipo.Weighted>
-9.5900

> <Gold.Chemscore.Internal_Hbond.Weighted>
0.0000

> <Gold.Chemscore.DEClash.Weighted>
0.0992

> <Gold.Chemscore.DEInternal.Weighted>
1.8950

> <Gold.Chemscore.Rot.Weighted>
8.0160

> <Gold.Chemscore.Internal.Correction.Weighted>
   9.000000E+99

> <Gold.Protein.RotatedTorsions>
[ 6907 6896 6895 6894 ] final  -14.98 input  -60.11 | X-H torsion
[ 7974 7965 7964 7962 ] final  -87.10 input  175.53 | X-H torsion
[ 8008 7997 7996 7995 ] final  -24.70 input   59.86 | X-H torsion
[ 10167 10162 10161 10158 ] final -147.44 input  -65.29 | X-H torsion
[ 10718 10713 10712 10709 ] final   36.59 input   66.30 | X-H torsion
[ 10763 10752 10751 10750 ] final -148.30 input  -60.55 | X-H torsion
[ 11005 11000 10999 10996 ] final  111.38 input  -57.11 | X-H torsion

> <Gold.Protein.ActiveResidues>
 VAL166  LYS551  ARG553  GLY616  TRP617  ASP618  TYR619  PRO620  LYS621  CYS622 
 ASP623  PHE694  ASN695  SER759  ASP760  ASP761  ALA762  ILE779  LEU786  VAL792 
 PHE793  MET794  SER795  GLU796  ALA797  LYS798  CYS799  TRP800  GLU811  SER814 

> <Gold.Protein.RotatedAtoms>
  151.3309  135.0841  159.9338 H   0  0  0  0  0  0  0  0  0  0  0  0  # atno 6907 bound_to 6896
  152.5235  133.9543  159.7697 H   0  0  0  0  0  0  0  0  0  0  0  0  # atno 6908 bound_to 6896
  150.9882  133.6123  159.2742 H   0  0  0  0  0  0  0  0  0  0  0  0  # atno 6909 bound_to 6896
  145.4710  140.9559  143.1917 H   0  0  0  0  0  0  0  0  0  0  0  0  # atno 7974 bound_to 7965
  154.4515  140.1946  156.0505 H   0  0  0  0  0  0  0  0  0  0  0  0  # atno 8008 bound_to 7997
  156.0657  140.3291  155.7488 H   0  0  0  0  0  0  0  0  0  0  0  0  # atno 8009 bound_to 7997
  155.5342  140.0580  157.2874 H   0  0  0  0  0  0  0  0  0  0  0  0  # atno 8010 bound_to 7997
  139.7622  143.8360  152.2609 H   0  0  0  0  0  0  0  0  0  0  0  0  # atno 10167 bound_to 10162
  157.3367  130.7526  149.6883 H   0  0  0  0  0  0  0  0  0  0  0  0  # atno 10718 bound_to 10713
  154.8240  135.3338  154.6952 H   0  0  0  0  0  0  0  0  0  0  0  0  # atno 10763 bound_to 10752
  153.7581  135.6934  153.4936 H   0  0  0  0  0  0  0  0  0  0  0  0  # atno 10764 bound_to 10752
  153.2129  135.4475  155.0351 H   0  0  0  0  0  0  0  0  0  0  0  0  # atno 10765 bound_to 10752
  139.8902  134.9506  156.6423 H   0  0  0  0  0  0  0  0  0  0  0  0  # atno 11005 bound_to 11000
  144.7945  139.6261  143.7098 LP  0  0  0  0  0  0  0  0  0  0  0  0  # atno 17320 bound_to 7965
  146.2397  139.5976  142.9500 LP  0  0  0  0  0  0  0  0  0  0  0  0  # atno 17321 bound_to 7965
  139.8370  144.7228  150.9379 LP  0  0  0  0  0  0  0  0  0  0  0  0  # atno 17342 bound_to 10162
  140.7808  143.4018  151.1136 LP  0  0  0  0  0  0  0  0  0  0  0  0  # atno 17343 bound_to 10162
  155.9702  130.4179  150.4304 LP  0  0  0  0  0  0  0  0  0  0  0  0  # atno 17370 bound_to 10713
  157.2345  131.0511  151.2473 LP  0  0  0  0  0  0  0  0  0  0  0  0  # atno 17371 bound_to 10713
  140.7584  133.8838  155.8400 LP  0  0  0  0  0  0  0  0  0  0  0  0  # atno 17394 bound_to 11000
  140.9942  134.1237  157.4379 LP  0  0  0  0  0  0  0  0  0  0  0  0  # atno 17395 bound_to 11000

$$$$
