AV-unprocessed.smi:79|AV-procd|sdf|777|dock4
  -GOLD-   2262017133D 1   1.00000     0.00000
 Structure written by MMmdl.
 56 59  0  0  0  0  0  0  0  0  2 V2000
  144.2305  131.5046  150.7751 C   0  0  0  0  0  0  0  0  0  0  0  0
  144.2858  132.7858  149.9297 C   0  0  2  0  0  0  0  0  0  0  0  0
  144.6351  132.4230  148.6105 O   0  0  0  0  0  0  0  0  0  0  0  0
  145.3246  133.8034  150.4438 C   0  0  0  0  0  0  0  0  0  0  0  0
  144.7650  134.7489  151.4433 N   0  3  2  0  0  0  0  0  0  0  0  0
  145.4653  136.0605  151.4759 C   0  0  0  0  0  0  0  0  0  0  0  0
  144.7917  137.0260  152.4656 C   0  0  0  0  0  0  0  0  0  0  0  0
  144.6759  136.4127  153.7869 N   0  0  0  0  0  0  0  0  0  0  0  0
  145.7150  136.6512  154.6303 C   0  0  0  0  0  0  0  0  0  0  0  0
  145.8919  135.8731  155.7314 N   0  0  0  0  0  0  0  0  0  0  0  0
  146.9183  136.0938  156.5582 C   0  0  0  0  0  0  0  0  0  0  0  0
  147.8703  137.0246  156.4752 N   0  0  0  0  0  0  0  0  0  0  0  0
  147.6965  137.8137  155.3768 C   0  0  0  0  0  0  0  0  0  0  0  0
  146.6568  137.6962  154.4115 C   0  0  0  0  0  0  0  0  0  0  0  0
  146.8019  138.6791  153.4398 N   0  0  0  0  0  0  0  0  0  0  0  0
  147.8697  139.3344  153.8048 C   0  0  0  0  0  0  0  0  0  0  0  0
  148.4652  138.8884  154.9632 N   0  0  0  0  0  0  0  0  0  0  0  0
  149.6555  139.4334  155.5982 C   0  0  0  0  0  0  0  0  0  0  0  0
  150.9146  138.5693  155.4003 C   0  0  0  0  0  0  0  0  0  0  0  0
  152.1453  139.3828  155.8500 C   0  0  0  0  0  0  0  0  0  0  0  0
  153.3587  138.8372  155.3716 O   0  0  0  0  0  0  0  0  0  0  0  0
  150.8123  137.1363  155.9429 C   0  0  0  0  0  0  0  0  0  0  0  0
  151.2331  136.5693  154.6822 O   0  0  0  0  0  0  0  0  0  0  0  0
  151.0399  137.8527  154.0480 C   0  0  0  0  0  0  0  0  0  0  0  0
  144.0137  135.1041  153.8164 C   0  0  1  0  0  0  0  0  0  0  0  0
  142.4974  135.2388  153.5925 C   0  0  0  0  0  0  0  0  0  0  0  0
  144.6612  134.1396  152.7958 C   0  0  0  0  0  0  0  0  0  0  0  0
  143.9307  131.7190  151.8011 H   0  0  0  0  0  0  0  0  0  0  0  0
  145.2001  131.0065  150.8086 H   0  0  0  0  0  0  0  0  0  0  0  0
  143.5079  130.7972  150.3668 H   0  0  0  0  0  0  0  0  0  0  0  0
  143.2939  133.2340  149.8839 H   0  0  0  0  0  0  0  0  0  0  0  0
  145.1047  133.1395  148.2107 H   0  0  0  0  0  0  0  0  0  0  0  0
  146.1518  133.2510  150.8925 H   0  0  0  0  0  0  0  0  0  0  0  0
  145.7516  134.3699  149.6144 H   0  0  0  0  0  0  0  0  0  0  0  0
  146.5081  135.9072  151.7591 H   0  0  0  0  0  0  0  0  0  0  0  0
  145.4701  136.5186  150.4880 H   0  0  0  0  0  0  0  0  0  0  0  0
  145.3541  137.9585  152.4995 H   0  0  0  0  0  0  0  0  0  0  0  0
  143.7954  137.2904  152.1108 H   0  0  0  0  0  0  0  0  0  0  0  0
  146.9873  135.4292  157.4069 H   0  0  0  0  0  0  0  0  0  0  0  0
  148.2514  140.1686  153.2348 H   0  0  0  0  0  0  0  0  0  0  0  0
  149.8209  140.4423  155.2178 H   0  0  0  0  0  0  0  0  0  0  0  0
  149.4362  139.5527  156.6600 H   0  0  0  0  0  0  0  0  0  0  0  0
  152.0908  140.4104  155.4905 H   0  0  0  0  0  0  0  0  0  0  0  0
  152.2026  139.4305  156.9380 H   0  0  0  0  0  0  0  0  0  0  0  0
  153.1603  138.0808  154.8410 H   0  0  0  0  0  0  0  0  0  0  0  0
  151.5009  136.9109  156.7579 H   0  0  0  0  0  0  0  0  0  0  0  0
  149.7971  136.8314  156.2022 H   0  0  0  0  0  0  0  0  0  0  0  0
  150.1288  137.8669  153.4487 H   0  0  0  0  0  0  0  0  0  0  0  0
  151.9000  138.1639  153.4541 H   0  0  0  0  0  0  0  0  0  0  0  0
  144.1286  134.6709  154.8112 H   0  0  0  0  0  0  0  0  0  0  0  0
  142.0008  134.2743  153.7006 H   0  0  0  0  0  0  0  0  0  0  0  0
  142.2594  135.6196  152.5993 H   0  0  0  0  0  0  0  0  0  0  0  0
  142.0550  135.9165  154.3234 H   0  0  0  0  0  0  0  0  0  0  0  0
  144.0839  133.2154  152.7468 H   0  0  0  0  0  0  0  0  0  0  0  0
  145.6617  133.8605  153.1292 H   0  0  0  0  0  0  0  0  0  0  0  0
  143.8153  134.9353  151.1548 H   0  0  0  0  0  0  0  0  0  0  0  0
  1  2  1  0  0  0  0
  1 28  1  0  0  0  0
  1 29  1  0  0  0  0
  1 30  1  0  0  0  0
  2  3  1  0  0  0  0
  2  4  1  0  0  0  0
  2 31  1  0  0  0  0
  3 32  1  0  0  0  0
  4  5  1  0  0  0  0
  4 33  1  0  0  0  0
  4 34  1  0  0  0  0
  5 27  1  0  0  0  0
  5  6  1  0  0  0  0
  5 56  1  0  0  0  0
  6  7  1  0  0  0  0
  6 35  1  0  0  0  0
  6 36  1  0  0  0  0
  7  8  1  0  0  0  0
  7 37  1  0  0  0  0
  7 38  1  0  0  0  0
  8  9  1  0  0  0  0
  8 25  1  0  0  0  0
  9 14  1  0  0  0  0
  9 10  2  0  0  0  0
 10 11  1  0  0  0  0
 11 12  2  0  0  0  0
 11 39  1  0  0  0  0
 12 13  1  0  0  0  0
 13 17  1  0  0  0  0
 13 14  2  0  0  0  0
 14 15  1  0  0  0  0
 15 16  2  0  0  0  0
 16 17  1  0  0  0  0
 16 40  1  0  0  0  0
 17 18  1  0  0  0  0
 18 19  1  0  0  0  0
 18 41  1  0  0  0  0
 18 42  1  0  0  0  0
 19 24  1  0  0  0  0
 19 20  1  0  0  0  0
 19 22  1  0  0  0  0
 20 21  1  0  0  0  0
 20 43  1  0  0  0  0
 20 44  1  0  0  0  0
 21 45  1  0  0  0  0
 22 23  1  0  0  0  0
 22 46  1  0  0  0  0
 22 47  1  0  0  0  0
 23 24  1  0  0  0  0
 24 48  1  0  0  0  0
 24 49  1  0  0  0  0
 25 26  1  0  0  0  0
 25 27  1  0  0  0  0
 25 50  1  0  0  0  0
 26 51  1  0  0  0  0
 26 52  1  0  0  0  0
 26 53  1  0  0  0  0
 27 54  1  0  0  0  0
 27 55  1  0  0  0  0
M  CHG  1   5   1
M  END
> <s_m_source_file>
AV-unprocessed.smi

> <i_m_source_file_index>
79

> <i_lp_mmshare_version>
43012

> <i_f3d_flags>
0

> <s_epik_input>
W0NIM11bQ0BIXShbT0hdKVtDSDJdTjFbQ0gyXVtDSDJdTihbQ0BASF0oW0NIM10pW0NIMl0xKWMobltjSF1uMiljKGMyMyluW2NIXW4zW0NIMl1DNChbQ0gyXVtPSF0pW0NIMl1PW0NIMl00

> <s_epik_cmdline>
J2VwaWtfcHl0aG9uJywgJy1waCcsICc3LjAnLCAnLXRuJywgJzgnLCAnLW1hJywgJzIwMCcsICctbWV0YWxfYmluZGluZycsICctaW1hZScsICc8aW5maWxlLm1hZT4nLCAnLW9tYWUnLCAnPG91dGZpbGUubWFlPic=

> <r_lp_tautomer_probability>
1

> <r_epik_Ionization_Penalty>
0.00515943

> <r_epik_Ionization_Penalty_Charging>
0.00509693

> <r_epik_Ionization_Penalty_Neutral>
6.25007e-05

> <r_epik_State_Penalty>
-0

> <r_epik_Charging_Adjusted_Penalty>
0.00509693

> <i_epik_Tot_Q>
1

> <i_epik_Tot_abs_Q>
1

> <r_epik_Metal_State_Penalty>
-0

> <b_epik_Metal_Only>
0

> <s_lp_Force_Field>
OPLS_2005

> <r_lp_Energy>
51.7042

> <b_lp_Chiralities_Consistent>
1

> <s_lp_Variant>
AV-unprocessed.smi:79-1

> <Gold.Version>
5.8.1

> <Gold.Id.Protein>
6NUR|6NUR_protein|mol2

> <Gold.PLP.Fitness>
42.2740

> <Gold.PLP.PLP>
-32.9364

> <Gold.PLP.part.hbond>
-3.8416

> <Gold.PLP.part.metal>
0.0000

> <Gold.PLP.part.buried>
-5.5331

> <Gold.PLP.part.nonpolar>
-24.8165

> <Gold.PLP.part.repulsive>
0.4523

> <Gold.PLP.ligand.clash>
0.0000

> <Gold.PLP.ligand.torsion>
1.7128

> <Gold.PLP.Chemscore.Hbond>
2.9920

> <Gold.PLP.Chemscore.CHOScore>
0.9283

> <Gold.PLP.Chemscore.Metal>
0.0000

> <Gold.Chemscore.Hbonds>
donor molecule, donor type, donor heavy atom, donor atom, acceptor molecule, acceptor atom, score
      L1  H     3    32       P1  7921  1.00
      P1  H  7997  8009       L1    21  0.94
      P1  H 10752 10765       L1    23  1.00
      L1  C    16    40       P1  7957  0.93

> <Gold.PLP.Chemscore.Internal.Correction>
1.0024

> <Gold.Rescore>
     Score         DG    S(hbond)    S(metal)    S(lipo)     H(rot)  DE(clash)    DE(int)     intcor
      9.44     -13.48       2.67        0.00      73.59       3.72       0.00       4.04       ----

> <Gold.Chemscore.Fitness>
9.4374

> <Gold.Chemscore.DG>
-13.4790

> <Gold.Chemscore.ZeroCoef>
-5.4800

> <Gold.Chemscore.Hbond>
2.6702

> <Gold.Chemscore.Metal>
0.0000

> <Gold.Chemscore.Lipo>
73.5917

> <Gold.Chemscore.Internal_Hbond>
0.0000

> <Gold.Chemscore.DEClash>
0.0030

> <Gold.Chemscore.DEInternal>
4.0386

> <Gold.Chemscore.Rot>
3.7226

> <Gold.Chemscore.Internal.Correction>
   9.000000E+99

> <Gold.Chemscore.Hbonds>
donor molecule, donor type, donor heavy atom, donor atom, acceptor molecule, acceptor atom, score
      L1  H     3    32       P1  7921  0.24
      P1  H  7997  8009       L1    21  0.20
      P1  H 10752 10765       L1    23  0.96

> <Gold.Chemscore.Hbond.Weighted>
-8.9186

> <Gold.Chemscore.Metal.Weighted>
-0.0000

> <Gold.Chemscore.Lipo.Weighted>
-8.6102

> <Gold.Chemscore.Internal_Hbond.Weighted>
0.0000

> <Gold.Chemscore.DEClash.Weighted>
0.0030

> <Gold.Chemscore.DEInternal.Weighted>
4.0386

> <Gold.Chemscore.Rot.Weighted>
9.5298

> <Gold.Chemscore.Internal.Correction.Weighted>
   9.000000E+99

> <Gold.Protein.RotatedTorsions>
[ 6907 6896 6895 6894 ] final  138.44 input  -60.11 | X-H torsion
[ 7974 7965 7964 7962 ] final  -78.53 input  175.53 | X-H torsion
[ 8008 7997 7996 7995 ] final -134.35 input   59.86 | X-H torsion
[ 10167 10162 10161 10158 ] final  -58.63 input  -65.29 | X-H torsion
[ 10718 10713 10712 10709 ] final    3.00 input   66.30 | X-H torsion
[ 10763 10752 10751 10750 ] final  175.06 input  -60.55 | X-H torsion
[ 11005 11000 10999 10996 ] final   64.58 input  -57.11 | X-H torsion

> <Gold.Protein.ActiveResidues>
 VAL166  LYS551  ARG553  GLY616  TRP617  ASP618  TYR619  PRO620  LYS621  CYS622 
 ASP623  PHE694  ASN695  SER759  ASP760  ASP761  ALA762  ILE779  LEU786  VAL792 
 PHE793  MET794  SER795  GLU796  ALA797  LYS798  CYS799  TRP800  GLU811  SER814 

> <Gold.Protein.RotatedAtoms>
  152.2666  133.5344  159.5413 H   0  0  0  0  0  0  0  0  0  0  0  0  # atno 6907 bound_to 6896
  150.7144  134.0756  159.3889 H   0  0  0  0  0  0  0  0  0  0  0  0  # atno 6908 bound_to 6896
  151.8672  135.0503  160.0526 H   0  0  0  0  0  0  0  0  0  0  0  0  # atno 6909 bound_to 6896
  145.5852  140.9440  143.1322 H   0  0  0  0  0  0  0  0  0  0  0  0  # atno 7974 bound_to 7965
  155.3605  140.0482  157.3046 H   0  0  0  0  0  0  0  0  0  0  0  0  # atno 8008 bound_to 7997
  154.5180  140.2215  155.8992 H   0  0  0  0  0  0  0  0  0  0  0  0  # atno 8009 bound_to 7997
  156.1658  140.3106  155.8892 H   0  0  0  0  0  0  0  0  0  0  0  0  # atno 8010 bound_to 7997
  140.6185  143.2411  151.5537 H   0  0  0  0  0  0  0  0  0  0  0  0  # atno 10167 bound_to 10162
  156.8713  130.5621  149.5657 H   0  0  0  0  0  0  0  0  0  0  0  0  # atno 10718 bound_to 10713
  154.4624  135.2768  155.1703 H   0  0  0  0  0  0  0  0  0  0  0  0  # atno 10763 bound_to 10752
  154.3485  135.6155  153.5635 H   0  0  0  0  0  0  0  0  0  0  0  0  # atno 10764 bound_to 10752
  152.9856  135.5806  154.4989 H   0  0  0  0  0  0  0  0  0  0  0  0  # atno 10765 bound_to 10752
  139.9950  134.6532  156.0026 H   0  0  0  0  0  0  0  0  0  0  0  0  # atno 11005 bound_to 11000
  144.7376  139.7542  143.7323 LP  0  0  0  0  0  0  0  0  0  0  0  0  # atno 17320 bound_to 7965
  146.1687  139.4829  142.9941 LP  0  0  0  0  0  0  0  0  0  0  0  0  # atno 17321 bound_to 7965
  139.5419  144.2625  152.1367 LP  0  0  0  0  0  0  0  0  0  0  0  0  # atno 17342 bound_to 10162
  140.1840  144.4817  150.6513 LP  0  0  0  0  0  0  0  0  0  0  0  0  # atno 17343 bound_to 10162
  156.0725  130.5754  150.9410 LP  0  0  0  0  0  0  0  0  0  0  0  0  # atno 17370 bound_to 10713
  157.6194  131.0931  150.8651 LP  0  0  0  0  0  0  0  0  0  0  0  0  # atno 17371 bound_to 10713
  141.1597  133.6540  156.4277 LP  0  0  0  0  0  0  0  0  0  0  0  0  # atno 17394 bound_to 11000
  140.4836  134.6642  157.5181 LP  0  0  0  0  0  0  0  0  0  0  0  0  # atno 17395 bound_to 11000

$$$$
