AV-unprocessed.smi:2007|AV-procd|sdf|8139|dock7
  -GOLD-   2272010373D 1   1.00000     0.00000
 Structure written by MMmdl.
 36 37  0  0  0  0  0  0  0  0  3 V2000
  148.7963  133.3351  155.9184 C   0  0  0  0  0  0  0  0  0  0  0  0
  149.1688  134.3984  154.8766 C   0  0  2  0  0  0  0  0  0  0  0  0
  148.6019  135.7861  155.2542 C   0  0  0  0  0  0  0  0  0  0  0  0
  149.3387  136.8994  154.6050 N   0  3  0  0  0  0  0  0  0  0  0  0
  148.6793  138.2161  154.7561 C   0  0  0  0  0  0  0  0  0  0  0  0
  149.4502  139.2828  153.9595 C   0  0  0  0  0  0  0  0  0  0  0  0
  150.8043  139.3231  154.3961 O   0  0  0  0  0  0  0  0  0  0  0  0
  151.4690  138.0814  154.1909 C   0  0  0  0  0  0  0  0  0  0  0  0
  150.7638  136.9831  155.0030 C   0  0  0  0  0  0  0  0  0  0  0  0
  148.6782  133.9810  153.5615 N   0  0  0  0  0  0  0  0  0  0  0  0
  147.4222  133.6262  153.2503 C   0  0  0  0  0  0  0  0  0  0  0  0
  146.5300  133.7032  154.0978 O   0  0  0  0  0  0  0  0  0  0  0  0
  147.2846  133.1734  151.9851 N   0  5  0  0  0  0  0  0  0  0  0  0
  146.0593  132.9352  151.4900 C   0  0  0  0  0  0  0  0  0  0  0  0
  145.3016  133.8848  150.9283 N   0  0  0  0  0  0  0  0  0  0  0  0
  144.0641  133.4157  150.4834 C   0  0  0  0  0  0  0  0  0  0  0  0
  143.8735  132.0797  150.7178 C   0  0  0  0  0  0  0  0  0  0  0  0
  145.2506  131.3665  151.5082 S   0  0  0  0  0  0  0  0  0  0  0  0
  149.1717  133.6055  156.9057 H   0  0  0  0  0  0  0  0  0  0  0  0
  149.2228  132.3656  155.6587 H   0  0  0  0  0  0  0  0  0  0  0  0
  147.7153  133.2134  155.9949 H   0  0  0  0  0  0  0  0  0  0  0  0
  150.2579  134.4538  154.8578 H   0  0  0  0  0  0  0  0  0  0  0  0
  147.5585  135.8204  154.9364 H   0  0  0  0  0  0  0  0  0  0  0  0
  148.5939  135.9244  156.3363 H   0  0  0  0  0  0  0  0  0  0  0  0
  147.6526  138.1615  154.3919 H   0  0  0  0  0  0  0  0  0  0  0  0
  148.6353  138.4877  155.8120 H   0  0  0  0  0  0  0  0  0  0  0  0
  149.4077  139.0745  152.8890 H   0  0  0  0  0  0  0  0  0  0  0  0
  149.0001  140.2639  154.1114 H   0  0  0  0  0  0  0  0  0  0  0  0
  151.4837  137.8315  153.1285 H   0  0  0  0  0  0  0  0  0  0  0  0
  152.5067  138.1783  154.5104 H   0  0  0  0  0  0  0  0  0  0  0  0
  150.8371  137.1989  156.0699 H   0  0  0  0  0  0  0  0  0  0  0  0
  151.2620  136.0286  154.8361 H   0  0  0  0  0  0  0  0  0  0  0  0
  149.3658  133.9127  152.8251 H   0  0  0  0  0  0  0  0  0  0  0  0
  143.3789  134.1041  150.0114 H   0  0  0  0  0  0  0  0  0  0  0  0
  143.0124  131.4748  150.4767 H   0  0  0  0  0  0  0  0  0  0  0  0
  149.3251  136.6951  153.6147 H   0  0  0  0  0  0  0  0  0  0  0  0
  1  2  1  0  0  0  0
  1 19  1  0  0  0  0
  1 20  1  0  0  0  0
  1 21  1  0  0  0  0
  2  3  1  0  0  0  0
  2 10  1  0  0  0  0
  2 22  1  0  0  0  0
  3  4  1  0  0  0  0
  3 23  1  0  0  0  0
  3 24  1  0  0  0  0
  4  9  1  0  0  0  0
  4  5  1  0  0  0  0
  4 36  1  0  0  0  0
  5  6  1  0  0  0  0
  5 25  1  0  0  0  0
  5 26  1  0  0  0  0
  6  7  1  0  0  0  0
  6 27  1  0  0  0  0
  6 28  1  0  0  0  0
  7  8  1  0  0  0  0
  8  9  1  0  0  0  0
  8 29  1  0  0  0  0
  8 30  1  0  0  0  0
  9 31  1  0  0  0  0
  9 32  1  0  0  0  0
 10 11  1  0  0  0  0
 10 33  1  0  0  0  0
 11 12  2  0  0  0  0
 11 13  1  0  0  0  0
 13 14  1  0  0  0  0
 14 18  1  0  0  0  0
 14 15  2  0  0  0  0
 15 16  1  0  0  0  0
 16 17  2  0  0  0  0
 16 34  1  0  0  0  0
 17 18  1  0  0  0  0
 17 35  1  0  0  0  0
M  CHG  1   4   1
M  CHG  1  13  -1
M  END
> <s_m_source_file>
AV-unprocessed.smi

> <i_m_source_file_index>
2007

> <i_lp_mmshare_version>
43012

> <i_f3d_flags>
0

> <s_epik_input>
W0NIMl0xW0NIMl1PW0NIMl1bQ0gyXU4xW0NIMl1bQ0BASF0oW0NIM10pW05IXUMoPU8pW05IXWMybltjSF1bY0hdczI=

> <s_epik_cmdline>
J2VwaWtfcHl0aG9uJywgJy1waCcsICc3LjAnLCAnLXRuJywgJzgnLCAnLW1hJywgJzIwMCcsICctbWV0YWxfYmluZGluZycsICctaW1hZScsICc8aW5maWxlLm1hZT4nLCAnLW9tYWUnLCAnPG91dGZpbGUubWFlPic=

> <r_lp_tautomer_probability>
0.999

> <r_epik_Ionization_Penalty>
6.49226

> <r_epik_Ionization_Penalty_Charging>
5.74393

> <r_epik_Ionization_Penalty_Neutral>
0.748321

> <r_epik_State_Penalty>
5.94164

> <r_epik_Charging_Adjusted_Penalty>
11.6856

> <i_epik_Tot_Q>
0

> <i_epik_Tot_abs_Q>
2

> <r_epik_Metal_State_Penalty>
1.97606

> <b_epik_Metal_Only>
1

> <s_lp_Force_Field>
OPLS_2005

> <r_lp_Energy>
10.1627

> <b_lp_Chiralities_Consistent>
1

> <s_lp_Variant>
AV-unprocessed.smi:2007-7

> <Gold.Version>
5.8.1

> <Gold.Id.Protein>
6NUR|6NUR_protein|mol2

> <Gold.PLP.Fitness>
40.3499

> <Gold.PLP.PLP>
-28.4428

> <Gold.PLP.part.hbond>
-3.0000

> <Gold.PLP.part.metal>
0.0000

> <Gold.PLP.part.buried>
-3.2896

> <Gold.PLP.part.nonpolar>
-22.2514

> <Gold.PLP.part.repulsive>
0.5667

> <Gold.PLP.ligand.clash>
0.0000

> <Gold.PLP.ligand.torsion>
1.0631

> <Gold.PLP.Chemscore.Hbond>
3.0000

> <Gold.PLP.Chemscore.CHOScore>
1.6313

> <Gold.PLP.Chemscore.Metal>
0.0000

> <Gold.Chemscore.Hbonds>
donor molecule, donor type, donor heavy atom, donor atom, acceptor molecule, acceptor atom, score
      L1  H     4    36       P1  7948  2.00
      P1  H  7989  7998       L1     7  1.00
      L1  C    16    34       P1 10186  1.00
      L1  C    17    35       P1 10952  0.76

> <Gold.PLP.Chemscore.Internal.Correction>
0.1394

> <Gold.Rescore>
     Score         DG    S(hbond)    S(metal)    S(lipo)     H(rot)  DE(clash)    DE(int)     intcor
     11.93     -14.17       1.70        0.00      60.88       1.60       0.20       2.04       ----

> <Gold.Chemscore.Fitness>
11.9347

> <Gold.Chemscore.DG>
-14.1719

> <Gold.Chemscore.ZeroCoef>
-5.4800

> <Gold.Chemscore.Hbond>
1.6954

> <Gold.Chemscore.Metal>
0.0000

> <Gold.Chemscore.Lipo>
60.8798

> <Gold.Chemscore.Internal_Hbond>
0.0000

> <Gold.Chemscore.DEClash>
0.2006

> <Gold.Chemscore.DEInternal>
2.0366

> <Gold.Chemscore.Rot>
1.5991

> <Gold.Chemscore.Internal.Correction>
   9.000000E+99

> <Gold.Chemscore.Hbonds>
donor molecule, donor type, donor heavy atom, donor atom, acceptor molecule, acceptor atom, score
      L1  H     4    36       P1  7948  0.94
      P1  H  7989  7998       L1     7  0.48

> <Gold.Chemscore.Hbond.Weighted>
-5.6626

> <Gold.Chemscore.Metal.Weighted>
-0.0000

> <Gold.Chemscore.Lipo.Weighted>
-7.1229

> <Gold.Chemscore.Internal_Hbond.Weighted>
0.0000

> <Gold.Chemscore.DEClash.Weighted>
0.2006

> <Gold.Chemscore.DEInternal.Weighted>
2.0366

> <Gold.Chemscore.Rot.Weighted>
4.0936

> <Gold.Chemscore.Internal.Correction.Weighted>
   9.000000E+99

> <Gold.Protein.RotatedTorsions>
[ 6907 6896 6895 6894 ] final -170.97 input  -60.11 | X-H torsion
[ 7974 7965 7964 7962 ] final  143.46 input  175.53 | X-H torsion
[ 8008 7997 7996 7995 ] final  -31.88 input   59.86 | X-H torsion
[ 10167 10162 10161 10158 ] final  114.87 input  -65.29 | X-H torsion
[ 10718 10713 10712 10709 ] final   34.72 input   66.30 | X-H torsion
[ 10763 10752 10751 10750 ] final -136.97 input  -60.55 | X-H torsion
[ 11005 11000 10999 10996 ] final   98.17 input  -57.11 | X-H torsion

> <Gold.Protein.ActiveResidues>
 VAL166  LYS551  ARG553  GLY616  TRP617  ASP618  TYR619  PRO620  LYS621  CYS622 
 ASP623  PHE694  ASN695  SER759  ASP760  ASP761  ALA762  ILE779  LEU786  VAL792 
 PHE793  MET794  SER795  GLU796  ALA797  LYS798  CYS799  TRP800  GLU811  SER814 

> <Gold.Protein.RotatedAtoms>
  151.5163  133.3475  159.2893 H   0  0  0  0  0  0  0  0  0  0  0  0  # atno 6907 bound_to 6896
  150.8680  134.8050  159.7144 H   0  0  0  0  0  0  0  0  0  0  0  0  # atno 6908 bound_to 6896
  152.4678  134.5043  159.9786 H   0  0  0  0  0  0  0  0  0  0  0  0  # atno 6909 bound_to 6896
  144.8919  139.5546  143.5794 H   0  0  0  0  0  0  0  0  0  0  0  0  # atno 7974 bound_to 7965
  154.4199  140.1752  156.1637 H   0  0  0  0  0  0  0  0  0  0  0  0  # atno 8008 bound_to 7997
  155.9817  140.3377  155.6645 H   0  0  0  0  0  0  0  0  0  0  0  0  # atno 8009 bound_to 7997
  155.6491  140.0688  157.2584 H   0  0  0  0  0  0  0  0  0  0  0  0  # atno 8010 bound_to 7997
  139.6357  144.7119  151.2339 H   0  0  0  0  0  0  0  0  0  0  0  0  # atno 10167 bound_to 10162
  157.3138  130.7413  149.6741 H   0  0  0  0  0  0  0  0  0  0  0  0  # atno 10718 bound_to 10713
  154.8672  135.3656  154.5147 H   0  0  0  0  0  0  0  0  0  0  0  0  # atno 10763 bound_to 10752
  153.5780  135.7019  153.5480 H   0  0  0  0  0  0  0  0  0  0  0  0  # atno 10764 bound_to 10752
  153.3482  135.4079  155.1588 H   0  0  0  0  0  0  0  0  0  0  0  0  # atno 10765 bound_to 10752
  139.8773  134.9036  156.4416 H   0  0  0  0  0  0  0  0  0  0  0  0  # atno 11005 bound_to 11000
  146.3059  139.7578  142.9057 LP  0  0  0  0  0  0  0  0  0  0  0  0  # atno 17320 bound_to 7965
  145.3768  141.0352  143.3200 LP  0  0  0  0  0  0  0  0  0  0  0  0  # atno 17321 bound_to 7965
  140.7464  143.6400  150.8344 LP  0  0  0  0  0  0  0  0  0  0  0  0  # atno 17342 bound_to 10162
  140.0031  143.5723  152.2868 LP  0  0  0  0  0  0  0  0  0  0  0  0  # atno 17343 bound_to 10162
  155.9680  130.4243  150.4603 LP  0  0  0  0  0  0  0  0  0  0  0  0  # atno 17370 bound_to 10713
  157.2607  131.0566  151.2322 LP  0  0  0  0  0  0  0  0  0  0  0  0  # atno 17371 bound_to 10713
  140.8995  133.7789  155.9664 LP  0  0  0  0  0  0  0  0  0  0  0  0  # atno 17394 bound_to 11000
  140.8666  134.2777  157.5210 LP  0  0  0  0  0  0  0  0  0  0  0  0  # atno 17395 bound_to 11000

$$$$
