AV-unprocessed.smi:101|AV-procd|sdf|941|dock3
  -GOLD-   2262017463D 1   1.00000     0.00000
 Structure written by MMmdl.
 43 45  0  0  0  0  0  0  0  0  2 V2000
  147.0594  137.0022  158.6829 C   0  0  0  0  0  0  0  0  0  0  0  0
  148.3324  136.4242  158.0894 C   0  0  0  0  0  0  0  0  0  0  0  0
  149.1948  137.1719  157.3652 C   0  0  0  0  0  0  0  0  0  0  0  0
  150.3537  136.6391  156.8259 N   0  0  0  0  0  0  0  0  0  0  0  0
  151.3172  137.4864  156.0153 C   0  0  2  0  0  0  0  0  0  0  0  0
  151.5144  138.7154  156.6555 O   0  0  0  0  0  0  0  0  0  0  0  0
  150.8987  139.7592  155.9094 C   0  0  1  0  0  0  0  0  0  0  0  0
  151.5883  141.0889  156.2384 C   0  0  0  0  0  0  0  0  0  0  0  0
  151.8216  141.1746  157.6346 O   0  0  0  0  0  0  0  0  0  0  0  0
  151.2774  142.1771  158.3499 C   0  0  0  0  0  0  0  0  0  0  0  0
  150.3383  142.8686  157.9504 O   0  0  0  0  0  0  0  0  0  0  0  0
  151.9314  142.3640  159.6772 C   0  0  0  0  0  0  0  0  0  0  0  0
  152.8585  141.3990  160.1353 C   0  0  0  0  0  0  0  0  0  0  0  0
  153.4915  141.5487  161.3845 C   0  0  0  0  0  0  0  0  0  0  0  0
  153.2049  142.6653  162.1912 C   0  0  0  0  0  0  0  0  0  0  0  0
  152.2855  143.6330  161.7462 C   0  0  0  0  0  0  0  0  0  0  0  0
  151.6518  143.4855  160.4969 C   0  0  0  0  0  0  0  0  0  0  0  0
  151.0783  139.2841  154.4684 C   0  0  2  0  0  0  0  0  0  0  0  0
  150.2263  139.9411  153.5477 O   0  0  0  0  0  0  0  0  0  0  0  0
  150.8095  137.7867  154.5832 C   0  0  2  0  0  0  0  0  0  0  0  0
  149.4376  137.4752  154.3883 O   0  0  0  0  0  0  0  0  0  0  0  0
  150.6523  135.2660  157.0247 C   0  0  0  0  0  0  0  0  0  0  0  0
  151.6793  134.8203  156.5123 O   0  0  0  0  0  0  0  0  0  0  0  0
  149.7909  134.5052  157.7575 N   0  5  0  0  0  0  0  0  0  0  0  0
  148.6461  135.0064  158.3042 C   0  0  0  0  0  0  0  0  0  0  0  0
  147.8775  134.3085  158.9648 O   0  0  0  0  0  0  0  0  0  0  0  0
  146.9533  138.0601  158.4414 H   0  0  0  0  0  0  0  0  0  0  0  0
  147.0668  136.9025  159.7689 H   0  0  0  0  0  0  0  0  0  0  0  0
  146.1859  136.4775  158.2945 H   0  0  0  0  0  0  0  0  0  0  0  0
  148.9608  138.2133  157.2081 H   0  0  0  0  0  0  0  0  0  0  0  0
  152.2686  136.9521  156.0351 H   0  0  0  0  0  0  0  0  0  0  0  0
  149.8398  139.7995  156.1711 H   0  0  0  0  0  0  0  0  0  0  0  0
  152.5432  141.1480  155.7147 H   0  0  0  0  0  0  0  0  0  0  0  0
  150.9771  141.9273  155.9011 H   0  0  0  0  0  0  0  0  0  0  0  0
  153.0941  140.5327  159.5339 H   0  0  0  0  0  0  0  0  0  0  0  0
  154.1980  140.8053  161.7235 H   0  0  0  0  0  0  0  0  0  0  0  0
  153.6900  142.7798  163.1492 H   0  0  0  0  0  0  0  0  0  0  0  0
  152.0659  144.4915  162.3637 H   0  0  0  0  0  0  0  0  0  0  0  0
  150.9529  144.2478  160.1847 H   0  0  0  0  0  0  0  0  0  0  0  0
  152.1142  139.4371  154.1618 H   0  0  0  0  0  0  0  0  0  0  0  0
  150.2004  139.4334  152.7513 H   0  0  0  0  0  0  0  0  0  0  0  0
  151.3969  137.2178  153.8618 H   0  0  0  0  0  0  0  0  0  0  0  0
  149.3280  137.1652  153.5018 H   0  0  0  0  0  0  0  0  0  0  0  0
  1  2  1  0  0  0  0
  1 27  1  0  0  0  0
  1 28  1  0  0  0  0
  1 29  1  0  0  0  0
  2 25  1  0  0  0  0
  2  3  2  0  0  0  0
  3  4  1  0  0  0  0
  3 30  1  0  0  0  0
  4  5  1  0  0  0  0
  4 22  1  0  0  0  0
  5 20  1  0  0  0  0
  5  6  1  0  0  0  0
  5 31  1  0  0  0  0
  6  7  1  0  0  0  0
  7  8  1  0  0  0  0
  7 18  1  0  0  0  0
  7 32  1  0  0  0  0
  8  9  1  0  0  0  0
  8 33  1  0  0  0  0
  8 34  1  0  0  0  0
  9 10  1  0  0  0  0
 10 11  2  0  0  0  0
 10 12  1  0  0  0  0
 12 17  1  0  0  0  0
 12 13  2  0  0  0  0
 13 14  1  0  0  0  0
 13 35  1  0  0  0  0
 14 15  2  0  0  0  0
 14 36  1  0  0  0  0
 15 16  1  0  0  0  0
 15 37  1  0  0  0  0
 16 17  2  0  0  0  0
 16 38  1  0  0  0  0
 17 39  1  0  0  0  0
 18 19  1  0  0  0  0
 18 20  1  0  0  0  0
 18 40  1  0  0  0  0
 19 41  1  0  0  0  0
 20 21  1  0  0  0  0
 20 42  1  0  0  0  0
 21 43  1  0  0  0  0
 22 23  2  0  0  0  0
 22 24  1  0  0  0  0
 24 25  1  0  0  0  0
 25 26  2  0  0  0  0
M  CHG  1  24  -1
M  END
> <s_m_source_file>
AV-unprocessed.smi

> <i_m_source_file_index>
101

> <i_lp_mmshare_version>
43012

> <i_f3d_flags>
0

> <s_epik_input>
Tz1jMVtuSF1jKD1PKW4oW2NIXWMxW0NIM10pW0NAQEhdMk9bQ0BIXShbQ0BASF0oW09IXSlbQ0BIXTJbT0hdKVtDSDJdT0MoPU8pYzNbY0hdW2NIXVtjSF1bY0hdW2NIXTM=

> <s_epik_cmdline>
J2VwaWtfcHl0aG9uJywgJy1waCcsICc3LjAnLCAnLXRuJywgJzgnLCAnLW1hJywgJzIwMCcsICctbWV0YWxfYmluZGluZycsICctaW1hZScsICc8aW5maWxlLm1hZT4nLCAnLW9tYWUnLCAnPG91dGZpbGUubWFlPic=

> <r_lp_tautomer_probability>
0.999537

> <r_epik_Ionization_Penalty>
3.21006

> <r_epik_Ionization_Penalty_Charging>
5.75142e-08

> <r_epik_Ionization_Penalty_Neutral>
3.21006

> <r_epik_State_Penalty>
3.20925

> <r_epik_Charging_Adjusted_Penalty>
3.20925

> <i_epik_Tot_Q>
-1

> <i_epik_Tot_abs_Q>
1

> <r_epik_Metal_State_Penalty>
0.119957

> <b_epik_Metal_Only>
1

> <s_epik_Chemistry_Notes>
This compound has an ester and may undergo hydrolysis at high or low pH. This compound contains an acetal/aminal-like group ( X-CH(R)-Y where X, Y are N, S, or O) that may be acid/base labile, releasing an aldehyde.

> <s_lp_Force_Field>
OPLS_2005

> <r_lp_Energy>
50.083

> <b_lp_Chiralities_Consistent>
1

> <s_lp_Variant>
AV-unprocessed.smi:101-29

> <Gold.Version>
5.8.1

> <Gold.Id.Protein>
6NUR|6NUR_protein|mol2

> <Gold.PLP.Fitness>
51.2799

> <Gold.PLP.PLP>
-40.2151

> <Gold.PLP.part.hbond>
-4.7465

> <Gold.PLP.part.metal>
0.0000

> <Gold.PLP.part.buried>
-3.1987

> <Gold.PLP.part.nonpolar>
-30.4232

> <Gold.PLP.part.repulsive>
0.1423

> <Gold.PLP.ligand.clash>
0.0000

> <Gold.PLP.ligand.torsion>
1.2445

> <Gold.PLP.Chemscore.Hbond>
4.4520

> <Gold.PLP.Chemscore.CHOScore>
0.0000

> <Gold.PLP.Chemscore.Metal>
0.0000

> <Gold.Chemscore.Hbonds>
donor molecule, donor type, donor heavy atom, donor atom, acceptor molecule, acceptor atom, score
      L1  H    19    41       P1  7957  0.51
      L1  H    21    43       P1  7948  1.00
      P1  H  6896  6908       L1    24  1.95
      P1  H 10752 10763       L1    23  0.65

> <Gold.PLP.Chemscore.Internal.Correction>
0.1977

> <Gold.Rescore>
     Score         DG    S(hbond)    S(metal)    S(lipo)     H(rot)  DE(clash)    DE(int)     intcor
     15.21     -17.48       2.65        0.00      98.32       3.27       0.66       1.61       ----

> <Gold.Chemscore.Fitness>
15.2143

> <Gold.Chemscore.DG>
-17.4774

> <Gold.Chemscore.ZeroCoef>
-5.4800

> <Gold.Chemscore.Hbond>
2.6507

> <Gold.Chemscore.Metal>
0.0000

> <Gold.Chemscore.Lipo>
98.3228

> <Gold.Chemscore.Internal_Hbond>
0.0000

> <Gold.Chemscore.DEClash>
0.6576

> <Gold.Chemscore.DEInternal>
1.6056

> <Gold.Chemscore.Rot>
3.2656

> <Gold.Chemscore.Internal.Correction>
   9.000000E+99

> <Gold.Chemscore.Hbonds>
donor molecule, donor type, donor heavy atom, donor atom, acceptor molecule, acceptor atom, score
      L1  H    19    41       P1  7957  0.46
      L1  H    21    43       P1  7948  0.97
      P1  H  6896  6908       L1    24  0.17
      P1  H 10752 10763       L1    23  0.63

> <Gold.Chemscore.Hbond.Weighted>
-8.8535

> <Gold.Chemscore.Metal.Weighted>
-0.0000

> <Gold.Chemscore.Lipo.Weighted>
-11.5038

> <Gold.Chemscore.Internal_Hbond.Weighted>
0.0000

> <Gold.Chemscore.DEClash.Weighted>
0.6576

> <Gold.Chemscore.DEInternal.Weighted>
1.6056

> <Gold.Chemscore.Rot.Weighted>
8.3598

> <Gold.Chemscore.Internal.Correction.Weighted>
   9.000000E+99

> <Gold.Protein.RotatedTorsions>
[ 6907 6896 6895 6894 ] final  131.72 input  -60.11 | X-H torsion
[ 7974 7965 7964 7962 ] final  -59.47 input  175.53 | X-H torsion
[ 8008 7997 7996 7995 ] final  -64.73 input   59.86 | X-H torsion
[ 10167 10162 10161 10158 ] final  -61.40 input  -65.29 | X-H torsion
[ 10718 10713 10712 10709 ] final  -73.91 input   66.30 | X-H torsion
[ 10763 10752 10751 10750 ] final   88.13 input  -60.55 | X-H torsion
[ 11005 11000 10999 10996 ] final -140.02 input  -57.11 | X-H torsion

> <Gold.Protein.ActiveResidues>
 VAL166  LYS551  ARG553  GLY616  TRP617  ASP618  TYR619  PRO620  LYS621  CYS622 
 ASP623  PHE694  ASN695  SER759  ASP760  ASP761  ALA762  ILE779  LEU786  VAL792 
 PHE793  MET794  SER795  GLU796  ALA797  LYS798  CYS799  TRP800  GLU811  SER814 

> <Gold.Protein.RotatedAtoms>
  152.3397  133.6053  159.5867 H   0  0  0  0  0  0  0  0  0  0  0  0  # atno 6907 bound_to 6896
  150.7471  133.9740  159.3564 H   0  0  0  0  0  0  0  0  0  0  0  0  # atno 6908 bound_to 6896
  151.7606  135.0812  160.0396 H   0  0  0  0  0  0  0  0  0  0  0  0  # atno 6909 bound_to 6896
  145.8271  140.8503  143.0103 H   0  0  0  0  0  0  0  0  0  0  0  0  # atno 7974 bound_to 7965
  154.4629  140.0947  156.6942 H   0  0  0  0  0  0  0  0  0  0  0  0  # atno 8008 bound_to 7997
  155.4941  140.3471  155.4341 H   0  0  0  0  0  0  0  0  0  0  0  0  # atno 8009 bound_to 7997
  156.0904  140.1395  156.9588 H   0  0  0  0  0  0  0  0  0  0  0  0  # atno 8010 bound_to 7997
  140.6008  143.2361  151.5932 H   0  0  0  0  0  0  0  0  0  0  0  0  # atno 10167 bound_to 10162
  156.0262  130.4405  150.2813 H   0  0  0  0  0  0  0  0  0  0  0  0  # atno 10718 bound_to 10713
  153.1738  135.4518  154.9937 H   0  0  0  0  0  0  0  0  0  0  0  0  # atno 10763 bound_to 10752
  154.7984  135.3246  154.7613 H   0  0  0  0  0  0  0  0  0  0  0  0  # atno 10764 bound_to 10752
  153.8086  135.6956  153.4899 H   0  0  0  0  0  0  0  0  0  0  0  0  # atno 10765 bound_to 10752
  140.8463  134.2341  157.4784 H   0  0  0  0  0  0  0  0  0  0  0  0  # atno 11005 bound_to 11000
  144.6742  140.0618  143.7476 LP  0  0  0  0  0  0  0  0  0  0  0  0  # atno 17320 bound_to 7965
  145.9612  139.2802  143.1154 LP  0  0  0  0  0  0  0  0  0  0  0  0  # atno 17321 bound_to 7965
  139.5290  144.2972  152.1103 LP  0  0  0  0  0  0  0  0  0  0  0  0  # atno 17342 bound_to 10162
  140.2153  144.4521  150.6367 LP  0  0  0  0  0  0  0  0  0  0  0  0  # atno 17343 bound_to 10162
  157.0916  131.0171  151.3119 LP  0  0  0  0  0  0  0  0  0  0  0  0  # atno 17370 bound_to 10713
  157.4849  130.7787  149.7450 LP  0  0  0  0  0  0  0  0  0  0  0  0  # atno 17371 bound_to 10713
  139.8703  134.9661  156.4550 LP  0  0  0  0  0  0  0  0  0  0  0  0  # atno 17394 bound_to 11000
  140.8840  133.7897  155.9498 LP  0  0  0  0  0  0  0  0  0  0  0  0  # atno 17395 bound_to 11000

$$$$
