AV-unprocessed.smi:1947|AV-procd|sdf|7871|dock5
  -GOLD-   2272010 23D 1   1.00000     0.00000
 Structure written by MMmdl.
 38 39  0  0  0  0  0  0  0  0  2 V2000
  150.5298  142.1337  157.3687 C   0  0  0  0  0  0  0  0  0  0  0  0
  150.6470  141.3143  156.0741 C   0  0  2  0  0  0  0  0  0  0  0  0
  149.2717  141.0797  155.4165 C   0  0  0  0  0  0  0  0  0  0  0  0
  149.4000  140.2903  154.1038 C   0  0  0  0  0  0  0  0  0  0  0  0
  150.1449  138.9643  154.3196 C   0  0  0  0  0  0  0  0  0  0  0  0
  151.5176  139.1977  154.9724 C   0  0  0  0  0  0  0  0  0  0  0  0
  151.3920  139.9793  156.2983 C   0  0  2  0  0  0  0  0  0  0  0  0
  150.6631  139.2105  157.2473 O   0  0  0  0  0  0  0  0  0  0  0  0
  151.4446  138.2901  157.9942 C   0  0  0  0  0  0  0  0  0  0  0  0
  150.6041  137.0366  158.2535 C   0  0  0  0  0  0  0  0  0  0  0  0
  149.5043  137.3497  159.1565 N   0  0  0  0  0  0  0  0  0  0  0  0
  148.6498  136.4607  159.6774 C   0  0  0  0  0  0  0  0  0  0  0  0
  148.7579  135.2656  159.3935 O   0  0  0  0  0  0  0  0  0  0  0  0
  147.7254  137.0119  160.4966 N   0  5  0  0  0  0  0  0  0  0  0  0
  146.8619  136.2278  161.1624 C   0  0  0  0  0  0  0  0  0  0  0  0
  145.6033  136.6117  161.4301 N   0  0  0  0  0  0  0  0  0  0  0  0
  144.8806  135.6598  162.1365 N   0  0  0  0  0  0  0  0  0  0  0  0
  145.6187  134.5796  162.3906 C   0  0  0  0  0  0  0  0  0  0  0  0
  147.2634  134.6279  161.7923 S   0  0  0  0  0  0  0  0  0  0  0  0
  149.9278  141.6160  158.1162 H   0  0  0  0  0  0  0  0  0  0  0  0
  150.0624  143.1003  157.1791 H   0  0  0  0  0  0  0  0  0  0  0  0
  151.5114  142.3219  157.8042 H   0  0  0  0  0  0  0  0  0  0  0  0
  151.2434  141.9069  155.3787 H   0  0  0  0  0  0  0  0  0  0  0  0
  148.6190  140.5390  156.1036 H   0  0  0  0  0  0  0  0  0  0  0  0
  148.7846  142.0351  155.2193 H   0  0  0  0  0  0  0  0  0  0  0  0
  148.4106  140.0974  153.6879 H   0  0  0  0  0  0  0  0  0  0  0  0
  149.9330  140.8926  153.3670 H   0  0  0  0  0  0  0  0  0  0  0  0
  149.5456  138.3055  154.9497 H   0  0  0  0  0  0  0  0  0  0  0  0
  150.2693  138.4487  153.3671 H   0  0  0  0  0  0  0  0  0  0  0  0
  152.0191  138.2429  155.1269 H   0  0  0  0  0  0  0  0  0  0  0  0
  152.1505  139.7591  154.2842 H   0  0  0  0  0  0  0  0  0  0  0  0
  152.3872  140.1993  156.6898 H   0  0  0  0  0  0  0  0  0  0  0  0
  152.3602  138.0174  157.4691 H   0  0  0  0  0  0  0  0  0  0  0  0
  151.7374  138.7503  158.9386 H   0  0  0  0  0  0  0  0  0  0  0  0
  150.1989  136.6620  157.3126 H   0  0  0  0  0  0  0  0  0  0  0  0
  151.2241  136.2458  158.6789 H   0  0  0  0  0  0  0  0  0  0  0  0
  149.3871  138.3182  159.4159 H   0  0  0  0  0  0  0  0  0  0  0  0
  145.1932  133.7509  162.9362 H   0  0  0  0  0  0  0  0  0  0  0  0
  1  2  1  0  0  0  0
  1 20  1  0  0  0  0
  1 21  1  0  0  0  0
  1 22  1  0  0  0  0
  2  7  1  0  0  0  0
  2  3  1  0  0  0  0
  2 23  1  0  0  0  0
  3  4  1  0  0  0  0
  3 24  1  0  0  0  0
  3 25  1  0  0  0  0
  4  5  1  0  0  0  0
  4 26  1  0  0  0  0
  4 27  1  0  0  0  0
  5  6  1  0  0  0  0
  5 28  1  0  0  0  0
  5 29  1  0  0  0  0
  6  7  1  0  0  0  0
  6 30  1  0  0  0  0
  6 31  1  0  0  0  0
  7  8  1  0  0  0  0
  7 32  1  0  0  0  0
  8  9  1  0  0  0  0
  9 10  1  0  0  0  0
  9 33  1  0  0  0  0
  9 34  1  0  0  0  0
 10 11  1  0  0  0  0
 10 35  1  0  0  0  0
 10 36  1  0  0  0  0
 11 12  1  0  0  0  0
 11 37  1  0  0  0  0
 12 13  2  0  0  0  0
 12 14  1  0  0  0  0
 14 15  1  0  0  0  0
 15 19  1  0  0  0  0
 15 16  2  0  0  0  0
 16 17  1  0  0  0  0
 17 18  2  0  0  0  0
 18 19  1  0  0  0  0
 18 38  1  0  0  0  0
M  CHG  1  14  -1
M  END
> <s_m_source_file>
AV-unprocessed.smi

> <i_m_source_file_index>
1947

> <i_lp_mmshare_version>
43012

> <i_f3d_flags>
0

> <s_epik_input>
W0NIM11bQ0BASF0xW0NIMl1bQ0gyXVtDSDJdW0NIMl1bQ0BIXTFPW0NIMl1bQ0gyXVtOSF1DKD1PKVtOSF1jMm5uW2NIXXMy

> <s_epik_cmdline>
J2VwaWtfcHl0aG9uJywgJy1waCcsICc3LjAnLCAnLXRuJywgJzgnLCAnLW1hJywgJzIwMCcsICctbWV0YWxfYmluZGluZycsICctaW1hZScsICc8aW5maWxlLm1hZT4nLCAnLW9tYWUnLCAnPG91dGZpbGUubWFlPic=

> <r_lp_tautomer_probability>
1

> <r_epik_Ionization_Penalty>
3.35961

> <r_epik_Ionization_Penalty_Charging>
3.31977

> <r_epik_Ionization_Penalty_Neutral>
0.0398394

> <r_epik_State_Penalty>
3.31759

> <r_epik_Charging_Adjusted_Penalty>
6.63736

> <i_epik_Tot_Q>
-1

> <i_epik_Tot_abs_Q>
1

> <r_epik_Metal_State_Penalty>
0.484557

> <b_epik_Metal_Only>
1

> <s_lp_Force_Field>
OPLS_2005

> <r_lp_Energy>
9.4778

> <b_lp_Chiralities_Consistent>
1

> <s_lp_Variant>
AV-unprocessed.smi:1947-7

> <Gold.Version>
5.8.1

> <Gold.Id.Protein>
6NUR|6NUR_protein|mol2

> <Gold.PLP.Fitness>
45.9642

> <Gold.PLP.PLP>
-34.6326

> <Gold.PLP.part.hbond>
-3.0000

> <Gold.PLP.part.metal>
0.0000

> <Gold.PLP.part.buried>
-2.6532

> <Gold.PLP.part.nonpolar>
-29.5171

> <Gold.PLP.part.repulsive>
0.2371

> <Gold.PLP.ligand.clash>
0.0000

> <Gold.PLP.ligand.torsion>
0.8131

> <Gold.PLP.Chemscore.Hbond>
4.2960

> <Gold.PLP.Chemscore.CHOScore>
0.0000

> <Gold.PLP.Chemscore.Metal>
0.0000

> <Gold.Chemscore.Hbonds>
donor molecule, donor type, donor heavy atom, donor atom, acceptor molecule, acceptor atom, score
      P1  H  6896  6908       L1    13  0.98
      P1  H  6931  6943       L1    14  0.61
      P1  H  6934  6947       L1    14  1.42

> <Gold.PLP.Chemscore.Internal.Correction>
0.0698

> <Gold.Rescore>
     Score         DG    S(hbond)    S(metal)    S(lipo)     H(rot)  DE(clash)    DE(int)     intcor
     12.77     -15.18       1.83        0.00      72.31       1.90       0.45       1.97       ----

> <Gold.Chemscore.Fitness>
12.7684

> <Gold.Chemscore.DG>
-15.1846

> <Gold.Chemscore.ZeroCoef>
-5.4800

> <Gold.Chemscore.Hbond>
1.8276

> <Gold.Chemscore.Metal>
0.0000

> <Gold.Chemscore.Lipo>
72.3091

> <Gold.Chemscore.Internal_Hbond>
0.0000

> <Gold.Chemscore.DEClash>
0.4496

> <Gold.Chemscore.DEInternal>
1.9666

> <Gold.Chemscore.Rot>
1.8984

> <Gold.Chemscore.Internal.Correction>
   9.000000E+99

> <Gold.Chemscore.Hbonds>
donor molecule, donor type, donor heavy atom, donor atom, acceptor molecule, acceptor atom, score
      P1  H  6896  6908       L1    13  0.72
      P1  H  6931  6943       L1    14  0.09
      P1  H  6934  6947       L1    14  0.42

> <Gold.Chemscore.Hbond.Weighted>
-6.1042

> <Gold.Chemscore.Metal.Weighted>
-0.0000

> <Gold.Chemscore.Lipo.Weighted>
-8.4602

> <Gold.Chemscore.Internal_Hbond.Weighted>
0.0000

> <Gold.Chemscore.DEClash.Weighted>
0.4496

> <Gold.Chemscore.DEInternal.Weighted>
1.9666

> <Gold.Chemscore.Rot.Weighted>
4.8598

> <Gold.Chemscore.Internal.Correction.Weighted>
   9.000000E+99

> <Gold.Protein.RotatedTorsions>
[ 6907 6896 6895 6894 ] final  174.40 input  -60.11 | X-H torsion
[ 7974 7965 7964 7962 ] final  125.13 input  175.53 | X-H torsion
[ 8008 7997 7996 7995 ] final  -36.81 input   59.86 | X-H torsion
[ 10167 10162 10161 10158 ] final   42.52 input  -65.29 | X-H torsion
[ 10718 10713 10712 10709 ] final  -99.12 input   66.30 | X-H torsion
[ 10763 10752 10751 10750 ] final  -22.63 input  -60.55 | X-H torsion
[ 11005 11000 10999 10996 ] final -141.30 input  -57.11 | X-H torsion

> <Gold.Protein.ActiveResidues>
 VAL166  LYS551  ARG553  GLY616  TRP617  ASP618  TYR619  PRO620  LYS621  CYS622 
 ASP623  PHE694  ASN695  SER759  ASP760  ASP761  ALA762  ILE779  LEU786  VAL792 
 PHE793  MET794  SER795  GLU796  ALA797  LYS798  CYS799  TRP800  GLU811  SER814 

> <Gold.Protein.RotatedAtoms>
  151.7529  133.3328  159.3396 H   0  0  0  0  0  0  0  0  0  0  0  0  # atno 6907 bound_to 6896
  150.7528  134.6176  159.6128 H   0  0  0  0  0  0  0  0  0  0  0  0  # atno 6908 bound_to 6896
  152.3456  134.7077  160.0303 H   0  0  0  0  0  0  0  0  0  0  0  0  # atno 6909 bound_to 6896
  145.0765  139.3690  143.4931 H   0  0  0  0  0  0  0  0  0  0  0  0  # atno 7974 bound_to 7965
  154.4065  140.1620  156.2435 H   0  0  0  0  0  0  0  0  0  0  0  0  # atno 8008 bound_to 7997
  155.9180  140.3423  155.6128 H   0  0  0  0  0  0  0  0  0  0  0  0  # atno 8009 bound_to 7997
  155.7256  140.0774  157.2302 H   0  0  0  0  0  0  0  0  0  0  0  0  # atno 8010 bound_to 7997
  140.3536  144.2319  150.6143 H   0  0  0  0  0  0  0  0  0  0  0  0  # atno 10167 bound_to 10162
  156.0125  130.5268  150.6623 H   0  0  0  0  0  0  0  0  0  0  0  0  # atno 10718 bound_to 10713
  153.6550  135.6979  153.5196 H   0  0  0  0  0  0  0  0  0  0  0  0  # atno 10763 bound_to 10752
  153.2676  135.4225  155.0955 H   0  0  0  0  0  0  0  0  0  0  0  0  # atno 10764 bound_to 10752
  154.8466  135.3570  154.6095 H   0  0  0  0  0  0  0  0  0  0  0  0  # atno 10765 bound_to 10752
  140.8338  134.2485  157.4844 H   0  0  0  0  0  0  0  0  0  0  0  0  # atno 11005 bound_to 11000
  146.3530  140.0534  142.8634 LP  0  0  0  0  0  0  0  0  0  0  0  0  # atno 17320 bound_to 7965
  145.1230  140.9473  143.4589 LP  0  0  0  0  0  0  0  0  0  0  0  0  # atno 17321 bound_to 7965
  140.5195  143.2269  151.8411 LP  0  0  0  0  0  0  0  0  0  0  0  0  # atno 17342 bound_to 10162
  139.4823  144.4854  151.9254 LP  0  0  0  0  0  0  0  0  0  0  0  0  # atno 17343 bound_to 10162
  157.4363  131.0855  151.0989 LP  0  0  0  0  0  0  0  0  0  0  0  0  # atno 17370 bound_to 10713
  157.1546  130.6199  149.5592 LP  0  0  0  0  0  0  0  0  0  0  0  0  # atno 17371 bound_to 10713
  139.8704  134.9600  156.4349 LP  0  0  0  0  0  0  0  0  0  0  0  0  # atno 17394 bound_to 11000
  140.8970  133.7807  155.9636 LP  0  0  0  0  0  0  0  0  0  0  0  0  # atno 17395 bound_to 11000

$$$$
