AV-unprocessed.smi:2479|AV-procd|sdf|9767|dock3
  -GOLD-   2272013413D 1   1.00000     0.00000
 Structure written by MMmdl.
 29 30  0  0  0  0  0  0  0  0  1 V2000
  151.9727  136.8917  159.5474 N   0  0  0  0  0  0  0  0  0  0  0  0
  151.3094  137.6832  159.0260 C   0  0  0  0  0  0  0  0  0  0  0  0
  150.4767  138.6772  158.3713 C   0  0  0  0  0  0  0  0  0  0  0  0
  149.0886  138.4795  158.2342 C   0  0  0  0  0  0  0  0  0  0  0  0
  148.2706  139.3712  157.6361 N   0  0  0  0  0  0  0  0  0  0  0  0
  148.8073  140.5119  157.1359 C   0  0  0  0  0  0  0  0  0  0  0  0
  147.9384  141.4385  156.5261 N   0  0  0  0  0  0  0  0  0  0  0  0
  146.9262  141.9050  157.4692 C   0  0  0  0  0  0  0  0  0  0  0  0
  146.1037  143.0462  156.8540 C   0  0  0  0  0  0  0  0  0  0  0  0
  145.5322  142.6012  155.6307 O   0  0  0  0  0  0  0  0  0  0  0  0
  146.5320  142.2566  154.6785 C   0  0  0  0  0  0  0  0  0  0  0  0
  147.4000  141.0889  155.2032 C   0  0  1  0  0  0  0  0  0  0  0  0
  148.4667  140.7585  154.1436 C   0  0  0  0  0  0  0  0  0  0  0  0
  148.1804  139.7826  153.2781 N   0  0  0  0  0  0  0  0  0  0  0  0
  149.5258  141.3824  154.0973 O   0  0  0  0  0  0  0  0  0  0  0  0
  150.1909  140.8001  157.2319 C   0  0  0  0  0  0  0  0  0  0  0  0
  150.8606  142.2589  156.5891 Cl  0  0  0  0  0  0  0  0  0  0  0  0
  151.0364  139.8635  157.8582 C   0  0  0  0  0  0  0  0  0  0  0  0
  148.6155  137.5850  158.6133 H   0  0  0  0  0  0  0  0  0  0  0  0
  146.2682  141.0767  157.7374 H   0  0  0  0  0  0  0  0  0  0  0  0
  147.3960  142.2508  158.3913 H   0  0  0  0  0  0  0  0  0  0  0  0
  145.3038  143.3429  157.5327 H   0  0  0  0  0  0  0  0  0  0  0  0
  146.7228  143.9289  156.6844 H   0  0  0  0  0  0  0  0  0  0  0  0
  146.0344  141.9742  153.7500 H   0  0  0  0  0  0  0  0  0  0  0  0
  147.1416  143.1348  154.4548 H   0  0  0  0  0  0  0  0  0  0  0  0
  146.7502  140.2196  155.3226 H   0  0  0  0  0  0  0  0  0  0  0  0
  148.8466  139.5313  152.5622 H   0  0  0  0  0  0  0  0  0  0  0  0
  147.2950  139.3013  153.3416 H   0  0  0  0  0  0  0  0  0  0  0  0
  152.0964  140.0564  157.9401 H   0  0  0  0  0  0  0  0  0  0  0  0
  1  2  3  0  0  0  0
  2  3  1  0  0  0  0
  3 18  1  0  0  0  0
  3  4  2  0  0  0  0
  4  5  1  0  0  0  0
  4 19  1  0  0  0  0
  5  6  2  0  0  0  0
  6  7  1  0  0  0  0
  6 16  1  0  0  0  0
  7 12  1  0  0  0  0
  7  8  1  0  0  0  0
  8  9  1  0  0  0  0
  8 20  1  0  0  0  0
  8 21  1  0  0  0  0
  9 10  1  0  0  0  0
  9 22  1  0  0  0  0
  9 23  1  0  0  0  0
 10 11  1  0  0  0  0
 11 12  1  0  0  0  0
 11 24  1  0  0  0  0
 11 25  1  0  0  0  0
 12 13  1  0  0  0  0
 12 26  1  0  0  0  0
 13 14  1  0  0  0  0
 13 15  2  0  0  0  0
 14 27  1  0  0  0  0
 14 28  1  0  0  0  0
 16 17  1  0  0  0  0
 16 18  2  0  0  0  0
 18 29  1  0  0  0  0
M  END
> <s_m_source_file>
AV-unprocessed.smi

> <i_m_source_file_index>
2479

> <i_lp_mmshare_version>
43012

> <i_f3d_flags>
0

> <s_epik_input>
TiNDYzFbY0hdbmMoYyhDbClbY0hdMSlOMltDSDJdW0NIMl1PW0NIMl1bQ0BIXTJDKD1PKVtOSDJd

> <s_epik_cmdline>
J2VwaWtfcHl0aG9uJywgJy1waCcsICc3LjAnLCAnLXRuJywgJzgnLCAnLW1hJywgJzIwMCcsICctbWV0YWxfYmluZGluZycsICctaW1hZScsICc8aW5maWxlLm1hZT4nLCAnLW9tYWUnLCAnPG91dGZpbGUubWFlPic=

> <r_lp_tautomer_probability>
1

> <r_epik_Ionization_Penalty>
1.61078e-07

> <r_epik_Ionization_Penalty_Charging>
0

> <r_epik_Ionization_Penalty_Neutral>
1.61078e-07

> <r_epik_State_Penalty>
-0

> <r_epik_Charging_Adjusted_Penalty>
0

> <i_epik_Tot_Q>
0

> <i_epik_Tot_abs_Q>
0

> <r_epik_Metal_State_Penalty>
-0

> <b_epik_Metal_Only>
0

> <s_lp_Force_Field>
OPLS_2005

> <r_lp_Energy>
18.2822

> <b_lp_Chiralities_Consistent>
1

> <s_lp_Variant>
AV-unprocessed.smi:2479-1

> <Gold.Version>
5.8.1

> <Gold.Id.Protein>
6NUR|6NUR_protein|mol2

> <Gold.PLP.Fitness>
31.0415

> <Gold.PLP.PLP>
-24.0972

> <Gold.PLP.part.hbond>
-4.0000

> <Gold.PLP.part.metal>
0.0000

> <Gold.PLP.part.buried>
-4.6028

> <Gold.PLP.part.nonpolar>
-15.7903

> <Gold.PLP.part.repulsive>
0.5436

> <Gold.PLP.ligand.clash>
0.0000

> <Gold.PLP.ligand.torsion>
0.8073

> <Gold.PLP.Chemscore.Hbond>
2.7931

> <Gold.PLP.Chemscore.CHOScore>
0.0000

> <Gold.PLP.Chemscore.Metal>
0.0000

> <Gold.Chemscore.Hbonds>
donor molecule, donor type, donor heavy atom, donor atom, acceptor molecule, acceptor atom, score
      L1  H    14    27       P1  7957  0.90
      P1  H  6896  6908       L1     1  1.00
      P1  H  7989  7998       L1    15  0.16
      P1  H  8011  8017       L1    15  0.65

> <Gold.PLP.Chemscore.Internal.Correction>
0.1797

> <Gold.Rescore>
     Score         DG    S(hbond)    S(metal)    S(lipo)     H(rot)  DE(clash)    DE(int)     intcor
     14.03     -14.51       2.60        0.00      35.77       1.50       0.07       0.41       ----

> <Gold.Chemscore.Fitness>
14.0317

> <Gold.Chemscore.DG>
-14.5053

> <Gold.Chemscore.ZeroCoef>
-5.4800

> <Gold.Chemscore.Hbond>
2.5994

> <Gold.Chemscore.Metal>
0.0000

> <Gold.Chemscore.Lipo>
35.7680

> <Gold.Chemscore.Internal_Hbond>
0.0000

> <Gold.Chemscore.DEClash>
0.0659

> <Gold.Chemscore.DEInternal>
0.4077

> <Gold.Chemscore.Rot>
1.5006

> <Gold.Chemscore.Internal.Correction>
   9.000000E+99

> <Gold.Chemscore.Hbonds>
donor molecule, donor type, donor heavy atom, donor atom, acceptor molecule, acceptor atom, score
      L1  H    14    27       P1  7957  0.88
      P1  H  6896  6908       L1     1  1.00
      P1  H  7989  7998       L1    15  0.16
      P1  H  8011  8017       L1    15  0.55

> <Gold.Chemscore.Hbond.Weighted>
-8.6821

> <Gold.Chemscore.Metal.Weighted>
-0.0000

> <Gold.Chemscore.Lipo.Weighted>
-4.1849

> <Gold.Chemscore.Internal_Hbond.Weighted>
0.0000

> <Gold.Chemscore.DEClash.Weighted>
0.0659

> <Gold.Chemscore.DEInternal.Weighted>
0.4077

> <Gold.Chemscore.Rot.Weighted>
3.8416

> <Gold.Chemscore.Internal.Correction.Weighted>
   9.000000E+99

> <Gold.Protein.RotatedTorsions>
[ 6907 6896 6895 6894 ] final -117.82 input  -60.11 | X-H torsion
[ 7974 7965 7964 7962 ] final  -73.60 input  175.53 | X-H torsion
[ 8008 7997 7996 7995 ] final  -48.77 input   59.86 | X-H torsion
[ 10167 10162 10161 10158 ] final  114.80 input  -65.29 | X-H torsion
[ 10718 10713 10712 10709 ] final  177.06 input   66.30 | X-H torsion
[ 10763 10752 10751 10750 ] final  -54.96 input  -60.55 | X-H torsion
[ 11005 11000 10999 10996 ] final  -52.54 input  -57.11 | X-H torsion

> <Gold.Protein.ActiveResidues>
 VAL166  LYS551  ARG553  GLY616  TRP617  ASP618  TYR619  PRO620  LYS621  CYS622 
 ASP623  PHE694  ASN695  SER759  ASP760  ASP761  ALA762  ILE779  LEU786  VAL792 
 PHE793  MET794  SER795  GLU796  ALA797  LYS798  CYS799  TRP800  GLU811  SER814 

> <Gold.Protein.RotatedAtoms>
  150.8169  133.8322  159.3156 H   0  0  0  0  0  0  0  0  0  0  0  0  # atno 6907 bound_to 6896
  151.6092  135.1040  160.0087 H   0  0  0  0  0  0  0  0  0  0  0  0  # atno 6908 bound_to 6896
  152.4259  133.7154  159.6560 H   0  0  0  0  0  0  0  0  0  0  0  0  # atno 6909 bound_to 6896
  145.6500  140.9285  143.0990 H   0  0  0  0  0  0  0  0  0  0  0  0  # atno 7974 bound_to 7965
  154.4034  140.1313  156.4393 H   0  0  0  0  0  0  0  0  0  0  0  0  # atno 8008 bound_to 7997
  155.7474  140.3488  155.5113 H   0  0  0  0  0  0  0  0  0  0  0  0  # atno 8009 bound_to 7997
  155.8982  140.1015  157.1360 H   0  0  0  0  0  0  0  0  0  0  0  0  # atno 8010 bound_to 7997
  139.6362  144.7120  151.2330 H   0  0  0  0  0  0  0  0  0  0  0  0  # atno 10167 bound_to 10162
  156.9109  130.9909  151.3021 H   0  0  0  0  0  0  0  0  0  0  0  0  # atno 10718 bound_to 10713
  154.1832  135.6440  153.5039 H   0  0  0  0  0  0  0  0  0  0  0  0  # atno 10763 bound_to 10752
  153.0054  135.5411  154.6493 H   0  0  0  0  0  0  0  0  0  0  0  0  # atno 10764 bound_to 10752
  154.5862  135.2930  155.0655 H   0  0  0  0  0  0  0  0  0  0  0  0  # atno 10765 bound_to 10752
  141.0929  133.6629  156.4039 H   0  0  0  0  0  0  0  0  0  0  0  0  # atno 11005 bound_to 11000
  144.7126  139.8314  143.7409 LP  0  0  0  0  0  0  0  0  0  0  0  0  # atno 17320 bound_to 7965
  146.1211  139.4230  143.0227 LP  0  0  0  0  0  0  0  0  0  0  0  0  # atno 17321 bound_to 7965
  140.7466  143.6392  150.8351 LP  0  0  0  0  0  0  0  0  0  0  0  0  # atno 17342 bound_to 10162
  140.0023  143.5731  152.2871 LP  0  0  0  0  0  0  0  0  0  0  0  0  # atno 17343 bound_to 10162
  157.5968  130.8483  149.8741 LP  0  0  0  0  0  0  0  0  0  0  0  0  # atno 17370 bound_to 10713
  156.0536  130.3712  150.1142 LP  0  0  0  0  0  0  0  0  0  0  0  0  # atno 17371 bound_to 10713
  140.5208  134.6306  157.5317 LP  0  0  0  0  0  0  0  0  0  0  0  0  # atno 17394 bound_to 11000
  139.9759  134.7216  155.9950 LP  0  0  0  0  0  0  0  0  0  0  0  0  # atno 17395 bound_to 11000

$$$$
