AV-unprocessed.smi:1525|AV-procd|sdf|6144|dock5
  -GOLD-   22720 6293D 1   1.00000     0.00000
 Structure written by MMmdl.
 50 52  0  0  0  0  0  0  0  0  3 V2000
  148.7005  132.7485  155.2773 O   0  0  0  0  0  0  0  0  0  0  0  0
  148.4370  133.3665  154.2460 C   0  0  0  0  0  0  0  0  0  0  0  0
  148.7219  134.6646  154.0701 N   0  0  0  0  0  0  0  0  0  0  0  0
  149.3747  135.5156  155.0586 C   0  0  0  0  0  0  0  0  0  0  0  0
  148.9704  136.9930  154.8881 C   0  0  0  0  0  0  0  0  0  0  0  0
  150.0304  137.9301  155.3369 N   0  3  0  0  0  0  0  0  0  0  0  0
  151.3008  137.8018  154.5800 C   0  0  0  0  0  0  0  0  0  0  0  0
  152.3533  138.7830  155.1242 C   0  0  0  0  0  0  0  0  0  0  0  0
  151.8475  140.1106  155.0639 O   0  0  0  0  0  0  0  0  0  0  0  0
  150.6794  140.2701  155.8587 C   0  0  0  0  0  0  0  0  0  0  0  0
  149.5712  139.3401  155.3368 C   0  0  0  0  0  0  0  0  0  0  0  0
  147.8515  132.8410  153.1567 N   0  0  0  0  0  0  0  0  0  0  0  0
  147.4302  131.4959  152.9509 C   0  0  0  0  0  0  0  0  0  0  0  0
  148.0075  130.4119  153.6608 C   0  0  0  0  0  0  0  0  0  0  0  0
  147.5283  129.1041  153.4541 C   0  0  0  0  0  0  0  0  0  0  0  0
  146.4726  128.8998  152.5482 C   0  0  0  0  0  0  0  0  0  0  0  0
  145.9347  129.9536  151.8997 N   0  3  0  0  0  0  0  0  0  0  0  0
  146.3531  131.2334  152.0599 C   0  0  0  0  0  0  0  0  0  0  0  0
  145.7283  132.2535  151.3110 N   0  0  0  0  0  0  0  0  0  0  0  0
  145.8629  132.1047  149.8643 C   0  0  0  0  0  0  0  0  0  0  0  0
  144.5568  132.6163  149.2532 C   0  0  0  0  0  0  0  0  0  0  0  0
  143.5401  132.3770  150.3625 C   0  0  0  0  0  0  0  0  0  0  0  0
  144.3565  132.6520  151.6240 C   0  0  0  0  0  0  0  0  0  0  0  0
  148.4755  135.0947  153.1904 H   0  0  0  0  0  0  0  0  0  0  0  0
  149.1394  135.1673  156.0659 H   0  0  0  0  0  0  0  0  0  0  0  0
  150.4492  135.3902  154.9296 H   0  0  0  0  0  0  0  0  0  0  0  0
  148.7046  137.2043  153.8510 H   0  0  0  0  0  0  0  0  0  0  0  0
  148.0722  137.1758  155.4799 H   0  0  0  0  0  0  0  0  0  0  0  0
  151.6901  136.7872  154.6533 H   0  0  0  0  0  0  0  0  0  0  0  0
  151.1195  138.0001  153.5224 H   0  0  0  0  0  0  0  0  0  0  0  0
  152.6275  138.5308  156.1498 H   0  0  0  0  0  0  0  0  0  0  0  0
  153.2642  138.7247  154.5280 H   0  0  0  0  0  0  0  0  0  0  0  0
  150.9043  140.0604  156.9056 H   0  0  0  0  0  0  0  0  0  0  0  0
  150.3544  141.3094  155.8048 H   0  0  0  0  0  0  0  0  0  0  0  0
  149.2847  139.6317  154.3250 H   0  0  0  0  0  0  0  0  0  0  0  0
  148.6845  139.4426  155.9637 H   0  0  0  0  0  0  0  0  0  0  0  0
  147.7832  133.4460  152.3514 H   0  0  0  0  0  0  0  0  0  0  0  0
  148.8011  130.5629  154.3766 H   0  0  0  0  0  0  0  0  0  0  0  0
  147.9608  128.2711  153.9889 H   0  0  0  0  0  0  0  0  0  0  0  0
  146.0420  127.9340  152.3269 H   0  0  0  0  0  0  0  0  0  0  0  0
  146.7196  132.6628  149.4865 H   0  0  0  0  0  0  0  0  0  0  0  0
  146.0085  131.0539  149.6074 H   0  0  0  0  0  0  0  0  0  0  0  0
  144.6352  133.6855  149.0514 H   0  0  0  0  0  0  0  0  0  0  0  0
  144.2991  132.1150  148.3200 H   0  0  0  0  0  0  0  0  0  0  0  0
  142.6581  133.0124  150.2799 H   0  0  0  0  0  0  0  0  0  0  0  0
  143.2128  131.3364  150.3490 H   0  0  0  0  0  0  0  0  0  0  0  0
  143.9252  132.1627  152.4969 H   0  0  0  0  0  0  0  0  0  0  0  0
  144.3636  133.7218  151.8345 H   0  0  0  0  0  0  0  0  0  0  0  0
  150.2337  137.6994  156.2990 H   0  0  0  0  0  0  0  0  0  0  0  0
  145.1702  129.7753  151.2479 H   0  0  0  0  0  0  0  0  0  0  0  0
  1  2  2  0  0  0  0
  2  3  1  0  0  0  0
  2 12  1  0  0  0  0
  3  4  1  0  0  0  0
  3 24  1  0  0  0  0
  4  5  1  0  0  0  0
  4 25  1  0  0  0  0
  4 26  1  0  0  0  0
  5  6  1  0  0  0  0
  5 27  1  0  0  0  0
  5 28  1  0  0  0  0
  6 11  1  0  0  0  0
  6  7  1  0  0  0  0
  6 49  1  0  0  0  0
  7  8  1  0  0  0  0
  7 29  1  0  0  0  0
  7 30  1  0  0  0  0
  8  9  1  0  0  0  0
  8 31  1  0  0  0  0
  8 32  1  0  0  0  0
  9 10  1  0  0  0  0
 10 11  1  0  0  0  0
 10 33  1  0  0  0  0
 10 34  1  0  0  0  0
 11 35  1  0  0  0  0
 11 36  1  0  0  0  0
 12 13  1  0  0  0  0
 12 37  1  0  0  0  0
 13 18  1  0  0  0  0
 13 14  2  0  0  0  0
 14 15  1  0  0  0  0
 14 38  1  0  0  0  0
 15 16  2  0  0  0  0
 15 39  1  0  0  0  0
 16 17  1  0  0  0  0
 16 40  1  0  0  0  0
 17 18  2  0  0  0  0
 17 50  1  0  0  0  0
 18 19  1  0  0  0  0
 19 23  1  0  0  0  0
 19 20  1  0  0  0  0
 20 21  1  0  0  0  0
 20 41  1  0  0  0  0
 20 42  1  0  0  0  0
 21 22  1  0  0  0  0
 21 43  1  0  0  0  0
 21 44  1  0  0  0  0
 22 23  1  0  0  0  0
 22 45  1  0  0  0  0
 22 46  1  0  0  0  0
 23 47  1  0  0  0  0
 23 48  1  0  0  0  0
M  CHG  1   6   1
M  CHG  1  17   1
M  END
> <s_m_source_file>
AV-unprocessed.smi

> <i_m_source_file_index>
1525

> <i_lp_mmshare_version>
43012

> <i_f3d_flags>
0

> <s_epik_input>
W0NIMl0xW0NIMl1PW0NIMl1bQ0gyXU4xW0NIMl1bQ0gyXVtOSF1DKD1PKVtOSF1jMltjSF1bY0hdW2NIXW5jMk4zW0NIMl1bQ0gyXVtDSDJdW0NIMl0z

> <s_epik_cmdline>
J2VwaWtfcHl0aG9uJywgJy1waCcsICc3LjAnLCAnLXRuJywgJzgnLCAnLW1hJywgJzIwMCcsICctbWV0YWxfYmluZGluZycsICctaW1hZScsICc8aW5maWxlLm1hZT4nLCAnLW9tYWUnLCAnPG91dGZpbGUubWFlPic=

> <r_lp_tautomer_probability>
0.999994

> <r_epik_Ionization_Penalty>
1.81601

> <r_epik_Ionization_Penalty_Charging>
1.81599

> <r_epik_Ionization_Penalty_Neutral>
2.02981e-05

> <r_epik_State_Penalty>
1.85672

> <r_epik_Charging_Adjusted_Penalty>
3.6727

> <i_epik_Tot_Q>
2

> <i_epik_Tot_abs_Q>
2

> <r_epik_Metal_State_Penalty>
1.93796

> <b_epik_Metal_Only>
0

> <s_lp_Force_Field>
OPLS_2005

> <r_lp_Energy>
52.6706

> <b_lp_Chiralities_Consistent>
1

> <s_lp_Variant>
AV-unprocessed.smi:1525-4

> <Gold.Version>
5.8.1

> <Gold.Id.Protein>
6NUR|6NUR_protein|mol2

> <Gold.PLP.Fitness>
43.7804

> <Gold.PLP.PLP>
-39.4518

> <Gold.PLP.part.hbond>
-2.0000

> <Gold.PLP.part.metal>
0.0000

> <Gold.PLP.part.buried>
-3.8297

> <Gold.PLP.part.nonpolar>
-33.0915

> <Gold.PLP.part.repulsive>
0.2128

> <Gold.PLP.ligand.clash>
0.0000

> <Gold.PLP.ligand.torsion>
0.6200

> <Gold.PLP.Chemscore.Hbond>
1.7920

> <Gold.PLP.Chemscore.CHOScore>
0.0000

> <Gold.PLP.Chemscore.Metal>
0.0000

> <Gold.Chemscore.Hbonds>
donor molecule, donor type, donor heavy atom, donor atom, acceptor molecule, acceptor atom, score
      L1  H     3    24       P1  7948  0.94
      P1  H  7989  7998       L1     9  0.88

> <Gold.PLP.Chemscore.Internal.Correction>
0.1927

> <Gold.Rescore>
     Score         DG    S(hbond)    S(metal)    S(lipo)     H(rot)  DE(clash)    DE(int)     intcor
     15.53     -17.53       1.60        0.00      94.43       1.70       0.03       1.97       ----

> <Gold.Chemscore.Fitness>
15.5341

> <Gold.Chemscore.DG>
-17.5333

> <Gold.Chemscore.ZeroCoef>
-5.4800

> <Gold.Chemscore.Hbond>
1.6002

> <Gold.Chemscore.Metal>
0.0000

> <Gold.Chemscore.Lipo>
94.4287

> <Gold.Chemscore.Internal_Hbond>
0.0000

> <Gold.Chemscore.DEClash>
0.0263

> <Gold.Chemscore.DEInternal>
1.9729

> <Gold.Chemscore.Rot>
1.6952

> <Gold.Chemscore.Internal.Correction>
   9.000000E+99

> <Gold.Chemscore.Hbonds>
donor molecule, donor type, donor heavy atom, donor atom, acceptor molecule, acceptor atom, score
      L1  H     3    24       P1  7948  0.78
      P1  H  7989  7998       L1     9  0.69

> <Gold.Chemscore.Hbond.Weighted>
-5.3448

> <Gold.Chemscore.Metal.Weighted>
-0.0000

> <Gold.Chemscore.Lipo.Weighted>
-11.0482

> <Gold.Chemscore.Internal_Hbond.Weighted>
0.0000

> <Gold.Chemscore.DEClash.Weighted>
0.0263

> <Gold.Chemscore.DEInternal.Weighted>
1.9729

> <Gold.Chemscore.Rot.Weighted>
4.3397

> <Gold.Chemscore.Internal.Correction.Weighted>
   9.000000E+99

> <Gold.Protein.RotatedTorsions>
[ 6907 6896 6895 6894 ] final  176.46 input  -60.11 | X-H torsion
[ 7974 7965 7964 7962 ] final  -45.43 input  175.53 | X-H torsion
[ 8008 7997 7996 7995 ] final  103.35 input   59.86 | X-H torsion
[ 10167 10162 10161 10158 ] final   16.60 input  -65.29 | X-H torsion
[ 10718 10713 10712 10709 ] final -123.06 input   66.30 | X-H torsion
[ 10763 10752 10751 10750 ] final  177.26 input  -60.55 | X-H torsion
[ 11005 11000 10999 10996 ] final   -0.35 input  -57.11 | X-H torsion

> <Gold.Protein.ActiveResidues>
 VAL166  LYS551  ARG553  GLY616  TRP617  ASP618  TYR619  PRO620  LYS621  CYS622 
 ASP623  PHE694  ASN695  SER759  ASP760  ASP761  ALA762  ILE779  LEU786  VAL792 
 PHE793  MET794  SER795  GLU796  ALA797  LYS798  CYS799  TRP800  GLU811  SER814 

> <Gold.Protein.RotatedAtoms>
  151.7198  133.3314  159.3312 H   0  0  0  0  0  0  0  0  0  0  0  0  # atno 6907 bound_to 6896
  150.7658  134.6458  159.6271 H   0  0  0  0  0  0  0  0  0  0  0  0  # atno 6908 bound_to 6896
  152.3659  134.6807  160.0244 H   0  0  0  0  0  0  0  0  0  0  0  0  # atno 6909 bound_to 6896
  145.9822  140.7272  142.9358 H   0  0  0  0  0  0  0  0  0  0  0  0  # atno 7974 bound_to 7965
  156.1476  140.3166  155.8596 H   0  0  0  0  0  0  0  0  0  0  0  0  # atno 8008 bound_to 7997
  155.4033  140.0501  157.3052 H   0  0  0  0  0  0  0  0  0  0  0  0  # atno 8009 bound_to 7997
  154.5030  140.2136  155.9319 H   0  0  0  0  0  0  0  0  0  0  0  0  # atno 8010 bound_to 7997
  140.5785  143.9026  150.6770 H   0  0  0  0  0  0  0  0  0  0  0  0  # atno 10167 bound_to 10162
  156.1471  130.6507  150.9858 H   0  0  0  0  0  0  0  0  0  0  0  0  # atno 10718 bound_to 10713
  154.4921  135.2779  155.1488 H   0  0  0  0  0  0  0  0  0  0  0  0  # atno 10763 bound_to 10752
  154.3156  135.6220  153.5488 H   0  0  0  0  0  0  0  0  0  0  0  0  # atno 10764 bound_to 10752
  152.9889  135.5730  154.5344 H   0  0  0  0  0  0  0  0  0  0  0  0  # atno 10765 bound_to 10752
  140.6353  133.9538  155.8296 H   0  0  0  0  0  0  0  0  0  0  0  0  # atno 11005 bound_to 11000
  144.6864  140.2927  143.7275 LP  0  0  0  0  0  0  0  0  0  0  0  0  # atno 17320 bound_to 7965
  145.7753  139.1872  143.2189 LP  0  0  0  0  0  0  0  0  0  0  0  0  # atno 17321 bound_to 7965
  140.2519  143.3587  152.1398 LP  0  0  0  0  0  0  0  0  0  0  0  0  # atno 17342 bound_to 10162
  139.5156  144.6966  151.5614 LP  0  0  0  0  0  0  0  0  0  0  0  0  # atno 17343 bound_to 10162
  157.6625  131.0878  150.7804 LP  0  0  0  0  0  0  0  0  0  0  0  0  # atno 17370 bound_to 10713
  156.7875  130.4879  149.5390 LP  0  0  0  0  0  0  0  0  0  0  0  0  # atno 17371 bound_to 10713
  141.0646  134.0296  157.3612 LP  0  0  0  0  0  0  0  0  0  0  0  0  # atno 17394 bound_to 11000
  139.9100  135.0188  156.7653 LP  0  0  0  0  0  0  0  0  0  0  0  0  # atno 17395 bound_to 11000

$$$$
