AV-unprocessed.smi:113|AV-procd|sdf|1102|dock9
  -GOLD-   2262018213D 1   1.00000     0.00000
 Structure written by MMmdl.
 53 56  0  0  0  0  0  0  0  0  2 V2000
  147.4951  141.2791  155.9878 C   0  0  0  0  0  0  0  0  0  0  0  0
  148.6647  141.1370  156.9386 C   0  0  0  0  0  0  0  0  0  0  0  0
  149.0565  139.8913  157.4665 C   0  0  0  0  0  0  0  0  0  0  0  0
  150.1613  139.8138  158.3507 C   0  0  0  0  0  0  0  0  0  0  0  0
  150.6128  138.4726  158.9394 C   0  0  0  0  0  0  0  0  0  0  0  0
  149.9212  137.2804  158.4701 N   0  0  0  0  0  0  0  0  0  0  0  0
  150.1409  136.8705  157.1320 C   0  0  0  0  0  0  0  0  0  0  0  0
  150.8952  137.4950  156.3830 O   0  0  0  0  0  0  0  0  0  0  0  0
  149.3919  135.6827  156.7131 C   0  0  0  0  0  0  0  0  0  0  0  0
  149.5742  135.1854  155.2879 C   0  0  0  0  0  0  0  0  0  0  0  0
  148.5607  135.0690  157.5891 C   0  0  0  0  0  0  0  0  0  0  0  0
  148.3666  135.4936  158.8924 N   0  0  0  0  0  0  0  0  0  0  0  0
  147.4088  134.7685  159.8052 C   0  0  1  0  0  0  0  0  0  0  0  0
  148.1015  134.3408  161.0922 C   0  0  0  0  0  0  0  0  0  0  0  0
  146.9366  134.3081  162.0615 C   0  0  2  0  0  0  0  0  0  0  0  0
  146.3347  133.0278  162.0647 O   0  0  0  0  0  0  0  0  0  0  0  0
  145.9558  135.3572  161.5009 C   0  0  1  0  0  0  0  0  0  0  0  0
  145.9703  136.6843  162.2763 C   0  0  0  0  0  0  0  0  0  0  0  0
  147.2981  137.1036  162.5092 O   0  0  0  0  0  0  0  0  0  0  0  0
  146.3848  135.6381  160.1685 O   0  0  0  0  0  0  0  0  0  0  0  0
  149.0355  136.6397  159.3650 C   0  0  0  0  0  0  0  0  0  0  0  0
  148.8335  137.0721  160.5023 O   0  0  0  0  0  0  0  0  0  0  0  0
  150.8461  141.0158  158.6807 C   0  0  0  0  0  0  0  0  0  0  0  0
  151.9574  141.0346  159.5574 C   0  0  0  0  0  0  0  0  0  0  0  0
  152.6093  142.2460  159.8606 C   0  0  0  0  0  0  0  0  0  0  0  0
  152.1627  143.4540  159.2930 C   0  0  0  0  0  0  0  0  0  0  0  0
  151.0599  143.4535  158.4191 C   0  0  0  0  0  0  0  0  0  0  0  0
  150.4056  142.2429  158.1154 C   0  0  0  0  0  0  0  0  0  0  0  0
  149.3471  142.2495  157.2780 N   0  3  0  0  0  0  0  0  0  0  0  0
  146.8483  140.4023  156.0307 H   0  0  0  0  0  0  0  0  0  0  0  0
  147.8529  141.3913  154.9641 H   0  0  0  0  0  0  0  0  0  0  0  0
  146.8958  142.1540  156.2419 H   0  0  0  0  0  0  0  0  0  0  0  0
  148.5023  139.0085  157.1847 H   0  0  0  0  0  0  0  0  0  0  0  0
  151.6785  138.3224  158.7598 H   0  0  0  0  0  0  0  0  0  0  0  0
  150.5238  138.4905  160.0268 H   0  0  0  0  0  0  0  0  0  0  0  0
  148.9785  134.2937  155.0901 H   0  0  0  0  0  0  0  0  0  0  0  0
  150.6192  134.9349  155.1017 H   0  0  0  0  0  0  0  0  0  0  0  0
  149.2730  135.9531  154.5741 H   0  0  0  0  0  0  0  0  0  0  0  0
  148.0110  134.2040  157.2459 H   0  0  0  0  0  0  0  0  0  0  0  0
  146.9705  133.9384  159.2495 H   0  0  0  0  0  0  0  0  0  0  0  0
  148.6265  133.3925  160.9715 H   0  0  0  0  0  0  0  0  0  0  0  0
  148.8160  135.1085  161.3929 H   0  0  0  0  0  0  0  0  0  0  0  0
  147.2584  134.5331  163.0790 H   0  0  0  0  0  0  0  0  0  0  0  0
  146.4286  132.6511  162.9262 H   0  0  0  0  0  0  0  0  0  0  0  0
  144.9366  134.9682  161.4625 H   0  0  0  0  0  0  0  0  0  0  0  0
  145.4277  137.4601  161.7353 H   0  0  0  0  0  0  0  0  0  0  0  0
  145.4793  136.5599  163.2416 H   0  0  0  0  0  0  0  0  0  0  0  0
  147.4312  137.1798  163.4416 H   0  0  0  0  0  0  0  0  0  0  0  0
  152.3286  140.1286  160.0120 H   0  0  0  0  0  0  0  0  0  0  0  0
  153.4561  142.2480  160.5316 H   0  0  0  0  0  0  0  0  0  0  0  0
  152.6665  144.3802  159.5286 H   0  0  0  0  0  0  0  0  0  0  0  0
  150.7214  144.3840  157.9864 H   0  0  0  0  0  0  0  0  0  0  0  0
  149.0478  143.1407  156.8825 H   0  0  0  0  0  0  0  0  0  0  0  0
  1  2  1  0  0  0  0
  1 30  1  0  0  0  0
  1 31  1  0  0  0  0
  1 32  1  0  0  0  0
  2 29  1  0  0  0  0
  2  3  2  0  0  0  0
  3  4  1  0  0  0  0
  3 33  1  0  0  0  0
  4  5  1  0  0  0  0
  4 23  2  0  0  0  0
  5  6  1  0  0  0  0
  5 34  1  0  0  0  0
  5 35  1  0  0  0  0
  6 21  1  0  0  0  0
  6  7  1  0  0  0  0
  7  8  2  0  0  0  0
  7  9  1  0  0  0  0
  9 10  1  0  0  0  0
  9 11  2  0  0  0  0
 10 36  1  0  0  0  0
 10 37  1  0  0  0  0
 10 38  1  0  0  0  0
 11 12  1  0  0  0  0
 11 39  1  0  0  0  0
 12 13  1  0  0  0  0
 12 21  1  0  0  0  0
 13 20  1  0  0  0  0
 13 14  1  0  0  0  0
 13 40  1  0  0  0  0
 14 15  1  0  0  0  0
 14 41  1  0  0  0  0
 14 42  1  0  0  0  0
 15 16  1  0  0  0  0
 15 17  1  0  0  0  0
 15 43  1  0  0  0  0
 16 44  1  0  0  0  0
 17 18  1  0  0  0  0
 17 20  1  0  0  0  0
 17 45  1  0  0  0  0
 18 19  1  0  0  0  0
 18 46  1  0  0  0  0
 18 47  1  0  0  0  0
 19 48  1  0  0  0  0
 21 22  2  0  0  0  0
 23 28  1  0  0  0  0
 23 24  1  0  0  0  0
 24 25  2  0  0  0  0
 24 49  1  0  0  0  0
 25 26  1  0  0  0  0
 25 50  1  0  0  0  0
 26 27  2  0  0  0  0
 26 51  1  0  0  0  0
 27 28  1  0  0  0  0
 27 52  1  0  0  0  0
 28 29  2  0  0  0  0
 29 53  1  0  0  0  0
M  CHG  1  29   1
M  END
> <s_m_source_file>
AV-unprocessed.smi

> <i_m_source_file_index>
113

> <i_lp_mmshare_version>
43012

> <i_f3d_flags>
0

> <s_epik_input>
W2NIXTFbY0hdW2NIXVtjSF1jKGMxMiluYyhbQ0gzXSlbY0hdYzJbQ0gyXW4zYyg9TyljKFtDSDNdKVtjSF1uKGMzPU8pW0NAQEhdNFtDSDJdW0NAQEhdKFtPSF0pW0NASF0oTzQpW0NIMl1bT0hd

> <s_epik_cmdline>
J2VwaWtfcHl0aG9uJywgJy1waCcsICc3LjAnLCAnLXRuJywgJzgnLCAnLW1hJywgJzIwMCcsICctbWV0YWxfYmluZGluZycsICctaW1hZScsICc8aW5maWxlLm1hZT4nLCAnLW9tYWUnLCAnPG91dGZpbGUubWFlPic=

> <r_lp_tautomer_probability>
1

> <r_epik_Ionization_Penalty>
0.705471

> <r_epik_Ionization_Penalty_Charging>
0.70547

> <r_epik_Ionization_Penalty_Neutral>
1.19947e-07

> <r_epik_State_Penalty>
0.728574

> <r_epik_Charging_Adjusted_Penalty>
1.43404

> <i_epik_Tot_Q>
1

> <i_epik_Tot_abs_Q>
1

> <r_epik_Metal_State_Penalty>
4.61665

> <b_epik_Metal_Only>
0

> <s_epik_Chemistry_Notes>
This compound contains an acetal/aminal-like group ( X-CH(R)-Y where X, Y are N, S, or O) that may be acid/base labile, releasing an aldehyde.

> <s_lp_Force_Field>
OPLS_2005

> <r_lp_Energy>
43.7755

> <b_lp_Chiralities_Consistent>
1

> <s_lp_Variant>
AV-unprocessed.smi:113-12

> <Gold.Version>
5.8.1

> <Gold.Id.Protein>
6NUR|6NUR_protein|mol2

> <Gold.PLP.Fitness>
52.4959

> <Gold.PLP.PLP>
-43.3779

> <Gold.PLP.part.hbond>
-4.8841

> <Gold.PLP.part.metal>
0.0000

> <Gold.PLP.part.buried>
-7.0107

> <Gold.PLP.part.nonpolar>
-32.4169

> <Gold.PLP.part.repulsive>
0.0276

> <Gold.PLP.ligand.clash>
0.0000

> <Gold.PLP.ligand.torsion>
0.2291

> <Gold.PLP.Chemscore.Hbond>
3.1840

> <Gold.PLP.Chemscore.CHOScore>
0.0000

> <Gold.PLP.Chemscore.Metal>
0.0000

> <Gold.Chemscore.Hbonds>
donor molecule, donor type, donor heavy atom, donor atom, acceptor molecule, acceptor atom, score
      L1  H    29    53       P1  8028  2.00
      P1  H  6931  6943       L1    22  0.72

> <Gold.PLP.Chemscore.Internal.Correction>
0.0242

> <Gold.Rescore>
     Score         DG    S(hbond)    S(metal)    S(lipo)     H(rot)  DE(clash)    DE(int)     intcor
     14.38     -15.61       1.89        0.00      98.48       3.01       0.04       1.19       ----

> <Gold.Chemscore.Fitness>
14.3830

> <Gold.Chemscore.DG>
-15.6083

> <Gold.Chemscore.ZeroCoef>
-5.4800

> <Gold.Chemscore.Hbond>
1.8912

> <Gold.Chemscore.Metal>
0.0000

> <Gold.Chemscore.Lipo>
98.4843

> <Gold.Chemscore.Internal_Hbond>
0.0000

> <Gold.Chemscore.DEClash>
0.0358

> <Gold.Chemscore.DEInternal>
1.1895

> <Gold.Chemscore.Rot>
3.0120

> <Gold.Chemscore.Internal.Correction>
   9.000000E+99

> <Gold.Chemscore.Hbonds>
donor molecule, donor type, donor heavy atom, donor atom, acceptor molecule, acceptor atom, score
      L1  H    29    53       P1  8028  0.87
      P1  H  6931  6943       L1    22  0.72

> <Gold.Chemscore.Hbond.Weighted>
-6.3164

> <Gold.Chemscore.Metal.Weighted>
-0.0000

> <Gold.Chemscore.Lipo.Weighted>
-11.5227

> <Gold.Chemscore.Internal_Hbond.Weighted>
0.0000

> <Gold.Chemscore.DEClash.Weighted>
0.0358

> <Gold.Chemscore.DEInternal.Weighted>
1.1895

> <Gold.Chemscore.Rot.Weighted>
7.7108

> <Gold.Chemscore.Internal.Correction.Weighted>
   9.000000E+99

> <Gold.Protein.RotatedTorsions>
[ 6907 6896 6895 6894 ] final   57.80 input  -60.11 | X-H torsion
[ 7974 7965 7964 7962 ] final  160.87 input  175.53 | X-H torsion
[ 8008 7997 7996 7995 ] final   97.62 input   59.86 | X-H torsion
[ 10167 10162 10161 10158 ] final   62.89 input  -65.29 | X-H torsion
[ 10718 10713 10712 10709 ] final -113.92 input   66.30 | X-H torsion
[ 10763 10752 10751 10750 ] final -163.77 input  -60.55 | X-H torsion
[ 11005 11000 10999 10996 ] final -111.49 input  -57.11 | X-H torsion

> <Gold.Protein.ActiveResidues>
 VAL166  LYS551  ARG553  GLY616  TRP617  ASP618  TYR619  PRO620  LYS621  CYS622 
 ASP623  PHE694  ASN695  SER759  ASP760  ASP761  ALA762  ILE779  LEU786  VAL792 
 PHE793  MET794  SER795  GLU796  ALA797  LYS798  CYS799  TRP800  GLU811  SER814 

> <Gold.Protein.RotatedAtoms>
  152.3765  134.6656  160.0157 H   0  0  0  0  0  0  0  0  0  0  0  0  # atno 6907 bound_to 6896
  151.6932  133.3305  159.3256 H   0  0  0  0  0  0  0  0  0  0  0  0  # atno 6908 bound_to 6896
  150.7713  134.6615  159.6387 H   0  0  0  0  0  0  0  0  0  0  0  0  # atno 6909 bound_to 6896
  144.7715  139.7817  143.6295 H   0  0  0  0  0  0  0  0  0  0  0  0  # atno 7974 bound_to 7965
  156.0921  140.3255  155.7829 H   0  0  0  0  0  0  0  0  0  0  0  0  # atno 8008 bound_to 7997
  155.4980  140.0567  157.2961 H   0  0  0  0  0  0  0  0  0  0  0  0  # atno 8009 bound_to 7997
  154.4644  140.1982  156.0174 H   0  0  0  0  0  0  0  0  0  0  0  0  # atno 8010 bound_to 7997
  140.1390  144.4571  150.6821 H   0  0  0  0  0  0  0  0  0  0  0  0  # atno 10167 bound_to 10162
  156.0797  130.5999  150.8707 H   0  0  0  0  0  0  0  0  0  0  0  0  # atno 10718 bound_to 10713
  154.7091  135.3002  154.9225 H   0  0  0  0  0  0  0  0  0  0  0  0  # atno 10763 bound_to 10752
  154.0132  135.6692  153.4771 H   0  0  0  0  0  0  0  0  0  0  0  0  # atno 10764 bound_to 10752
  153.0741  135.5045  154.8279 H   0  0  0  0  0  0  0  0  0  0  0  0  # atno 10765 bound_to 10752
  141.0731  133.9346  157.2445 H   0  0  0  0  0  0  0  0  0  0  0  0  # atno 11005 bound_to 11000
  146.1864  139.5082  142.9833 LP  0  0  0  0  0  0  0  0  0  0  0  0  # atno 17320 bound_to 7965
  145.6311  141.0304  143.1863 LP  0  0  0  0  0  0  0  0  0  0  0  0  # atno 17321 bound_to 7965
  140.6772  143.2310  151.5478 LP  0  0  0  0  0  0  0  0  0  0  0  0  # atno 17342 bound_to 10162
  139.5481  144.2467  152.1480 LP  0  0  0  0  0  0  0  0  0  0  0  0  # atno 17343 bound_to 10162
  157.5909  131.0944  150.9121 LP  0  0  0  0  0  0  0  0  0  0  0  0  # atno 17370 bound_to 10713
  156.9297  130.5345  149.5279 LP  0  0  0  0  0  0  0  0  0  0  0  0  # atno 17371 bound_to 10713
  139.9544  135.0169  156.9085 LP  0  0  0  0  0  0  0  0  0  0  0  0  # atno 17394 bound_to 11000
  140.5631  134.0516  155.7405 LP  0  0  0  0  0  0  0  0  0  0  0  0  # atno 17395 bound_to 11000

$$$$
