AV-unprocessed.smi:2889|AV-procd|sdf|11108|dock9
  -GOLD-   2272015573D 1   1.00000     0.00000
 Structure written by MMmdl.
 36 37  0  0  0  0  0  0  0  0  1 V2000
  154.3722  141.1220  160.7342 C   0  0  0  0  0  0  0  0  0  0  0  0
  153.0726  142.0798  161.5606 S   0  0  0  0  0  0  0  0  0  0  0  0
  152.7805  143.4047  160.3448 C   0  0  2  0  0  0  0  0  0  0  0  0
  152.1289  144.6109  161.0477 C   0  0  0  0  0  0  0  0  0  0  0  0
  151.8144  145.7474  160.0640 C   0  0  0  0  0  0  0  0  0  0  0  0
  150.9176  145.2512  158.9214 C   0  0  0  0  0  0  0  0  0  0  0  0
  151.5621  144.0625  158.1940 C   0  0  0  0  0  0  0  0  0  0  0  0
  151.9045  142.9166  159.1662 C   0  0  1  0  0  0  0  0  0  0  0  0
  152.5922  141.8536  158.4286 N   0  0  0  0  0  0  0  0  0  0  0  0
  151.6623  140.7639  157.4692 S   0  0  0  0  0  0  0  0  0  0  0  0
  152.5969  139.8441  156.8023 O   0  0  0  0  0  0  0  0  0  0  0  0
  150.5870  140.2306  158.3192 O   0  0  0  0  0  0  0  0  0  0  0  0
  150.9345  141.8807  156.1986 C   0  0  0  0  0  0  0  0  0  0  0  0
  150.0884  141.0799  155.2512 C   0  0  0  0  0  0  0  0  0  0  0  0
  148.7321  141.2951  154.8804 C   0  0  0  0  0  0  0  0  0  0  0  0
  148.4772  140.2806  154.0032 C   0  0  0  0  0  0  0  0  0  0  0  0
  149.5767  139.5010  153.8457 O   0  0  0  0  0  0  0  0  0  0  0  0
  150.6002  140.0184  154.6479 N   0  0  0  0  0  0  0  0  0  0  0  0
  154.6754  140.2858  161.3640 H   0  0  0  0  0  0  0  0  0  0  0  0
  155.2460  141.7466  160.5483 H   0  0  0  0  0  0  0  0  0  0  0  0
  154.0205  140.7223  159.7839 H   0  0  0  0  0  0  0  0  0  0  0  0
  153.7491  143.7286  159.9611 H   0  0  0  0  0  0  0  0  0  0  0  0
  151.2072  144.2953  161.5388 H   0  0  0  0  0  0  0  0  0  0  0  0
  152.7856  144.9810  161.8357 H   0  0  0  0  0  0  0  0  0  0  0  0
  151.3260  146.5687  160.5896 H   0  0  0  0  0  0  0  0  0  0  0  0
  152.7430  146.1490  159.6563 H   0  0  0  0  0  0  0  0  0  0  0  0
  149.9461  144.9547  159.3189 H   0  0  0  0  0  0  0  0  0  0  0  0
  150.7299  146.0615  158.2164 H   0  0  0  0  0  0  0  0  0  0  0  0
  150.8896  143.7043  157.4137 H   0  0  0  0  0  0  0  0  0  0  0  0
  152.4681  144.4004  157.6886 H   0  0  0  0  0  0  0  0  0  0  0  0
  150.9747  142.5195  159.5758 H   0  0  0  0  0  0  0  0  0  0  0  0
  153.3858  142.2225  157.9054 H   0  0  0  0  0  0  0  0  0  0  0  0
  150.3505  142.6488  156.7066 H   0  0  0  0  0  0  0  0  0  0  0  0
  151.7493  142.3758  155.6704 H   0  0  0  0  0  0  0  0  0  0  0  0
  148.0561  142.0729  155.2034 H   0  0  0  0  0  0  0  0  0  0  0  0
  147.6051  139.9921  153.4353 H   0  0  0  0  0  0  0  0  0  0  0  0
  1  2  1  0  0  0  0
  1 19  1  0  0  0  0
  1 20  1  0  0  0  0
  1 21  1  0  0  0  0
  2  3  1  0  0  0  0
  3  8  1  0  0  0  0
  3  4  1  0  0  0  0
  3 22  1  0  0  0  0
  4  5  1  0  0  0  0
  4 23  1  0  0  0  0
  4 24  1  0  0  0  0
  5  6  1  0  0  0  0
  5 25  1  0  0  0  0
  5 26  1  0  0  0  0
  6  7  1  0  0  0  0
  6 27  1  0  0  0  0
  6 28  1  0  0  0  0
  7  8  1  0  0  0  0
  7 29  1  0  0  0  0
  7 30  1  0  0  0  0
  8  9  1  0  0  0  0
  8 31  1  0  0  0  0
  9 10  1  0  0  0  0
  9 32  1  0  0  0  0
 10 11  2  0  0  0  0
 10 12  2  0  0  0  0
 10 13  1  0  0  0  0
 13 14  1  0  0  0  0
 13 33  1  0  0  0  0
 13 34  1  0  0  0  0
 14 18  2  0  0  0  0
 14 15  1  0  0  0  0
 15 16  2  0  0  0  0
 15 35  1  0  0  0  0
 16 17  1  0  0  0  0
 16 36  1  0  0  0  0
 17 18  1  0  0  0  0
M  END
> <s_m_source_file>
AV-unprocessed.smi

> <i_m_source_file_index>
2889

> <i_lp_mmshare_version>
43012

> <i_f3d_flags>
0

> <s_epik_input>
W0NIM11TW0NAQEhdMVtDSDJdW0NIMl1bQ0gyXVtDSDJdW0NASF0xW05IXVMoPU8pKD1PKVtDSDJdYzJbY0hdW2NIXW9uMg==

> <s_epik_cmdline>
J2VwaWtfcHl0aG9uJywgJy1waCcsICc3LjAnLCAnLXRuJywgJzgnLCAnLW1hJywgJzIwMCcsICctbWV0YWxfYmluZGluZycsICctaW1hZScsICc8aW5maWxlLm1hZT4nLCAnLW9tYWUnLCAnPG91dGZpbGUubWFlPic=

> <r_lp_tautomer_probability>
1

> <r_epik_Ionization_Penalty>
0.000229547

> <r_epik_Ionization_Penalty_Charging>
0

> <r_epik_Ionization_Penalty_Neutral>
0.000229547

> <r_epik_State_Penalty>
-0

> <r_epik_Charging_Adjusted_Penalty>
0

> <i_epik_Tot_Q>
0

> <i_epik_Tot_abs_Q>
0

> <r_epik_Metal_State_Penalty>
0.145979

> <b_epik_Metal_Only>
0

> <s_lp_Force_Field>
OPLS_2005

> <r_lp_Energy>
3.33114

> <b_lp_Chiralities_Consistent>
1

> <s_lp_Variant>
AV-unprocessed.smi:2889-1

> <Gold.Version>
5.8.1

> <Gold.Id.Protein>
6NUR|6NUR_protein|mol2

> <Gold.PLP.Fitness>
47.8215

> <Gold.PLP.PLP>
-42.6898

> <Gold.PLP.part.hbond>
-2.0000

> <Gold.PLP.part.metal>
0.0000

> <Gold.PLP.part.buried>
-4.3322

> <Gold.PLP.part.nonpolar>
-36.4100

> <Gold.PLP.part.repulsive>
2.2301

> <Gold.PLP.ligand.clash>
0.0000

> <Gold.PLP.ligand.torsion>
0.5135

> <Gold.PLP.Chemscore.Hbond>
2.0000

> <Gold.PLP.Chemscore.CHOScore>
0.0000

> <Gold.PLP.Chemscore.Metal>
0.0000

> <Gold.Chemscore.Hbonds>
donor molecule, donor type, donor heavy atom, donor atom, acceptor molecule, acceptor atom, score
      P1  H  7989  7998       L1    18  0.90
      P1  H  7997  8009       L1    11  1.00

> <Gold.PLP.Chemscore.Internal.Correction>
0.1586

> <Gold.Rescore>
     Score         DG    S(hbond)    S(metal)    S(lipo)     H(rot)  DE(clash)    DE(int)     intcor
     16.69     -19.54       1.64        0.00     112.76       1.81       0.37       2.47       ----

> <Gold.Chemscore.Fitness>
16.6948

> <Gold.Chemscore.DG>
-19.5386

> <Gold.Chemscore.ZeroCoef>
-5.4800

> <Gold.Chemscore.Hbond>
1.6432

> <Gold.Chemscore.Metal>
0.0000

> <Gold.Chemscore.Lipo>
112.7627

> <Gold.Chemscore.Internal_Hbond>
0.0000

> <Gold.Chemscore.DEClash>
0.3719

> <Gold.Chemscore.DEInternal>
2.4719

> <Gold.Chemscore.Rot>
1.8058

> <Gold.Chemscore.Internal.Correction>
   9.000000E+99

> <Gold.Chemscore.Hbonds>
donor molecule, donor type, donor heavy atom, donor atom, acceptor molecule, acceptor atom, score
      P1  H  7989  7998       L1    18  0.07
      P1  H  7997  8009       L1    11  0.98

> <Gold.Chemscore.Hbond.Weighted>
-5.4882

> <Gold.Chemscore.Metal.Weighted>
-0.0000

> <Gold.Chemscore.Lipo.Weighted>
-13.1932

> <Gold.Chemscore.Internal_Hbond.Weighted>
0.0000

> <Gold.Chemscore.DEClash.Weighted>
0.3719

> <Gold.Chemscore.DEInternal.Weighted>
2.4719

> <Gold.Chemscore.Rot.Weighted>
4.6228

> <Gold.Chemscore.Internal.Correction.Weighted>
   9.000000E+99

> <Gold.Protein.RotatedTorsions>
[ 6907 6896 6895 6894 ] final  -90.43 input  -60.11 | X-H torsion
[ 7974 7965 7964 7962 ] final   25.32 input  175.53 | X-H torsion
[ 8008 7997 7996 7995 ] final -159.41 input   59.86 | X-H torsion
[ 10167 10162 10161 10158 ] final  -51.77 input  -65.29 | X-H torsion
[ 10718 10713 10712 10709 ] final  -79.32 input   66.30 | X-H torsion
[ 10763 10752 10751 10750 ] final  146.32 input  -60.55 | X-H torsion
[ 11005 11000 10999 10996 ] final -107.99 input  -57.11 | X-H torsion

> <Gold.Protein.ActiveResidues>
 VAL166  LYS551  ARG553  GLY616  TRP617  ASP618  TYR619  PRO620  LYS621  CYS622 
 ASP623  PHE694  ASN695  SER759  ASP760  ASP761  ALA762  ILE779  LEU786  VAL792 
 PHE793  MET794  SER795  GLU796  ALA797  LYS798  CYS799  TRP800  GLU811  SER814 

> <Gold.Protein.RotatedAtoms>
  150.6882  134.2433  159.4480 H   0  0  0  0  0  0  0  0  0  0  0  0  # atno 6907 bound_to 6896
  152.0376  134.9728  160.0583 H   0  0  0  0  0  0  0  0  0  0  0  0  # atno 6908 bound_to 6896
  152.1243  133.4336  159.4727 H   0  0  0  0  0  0  0  0  0  0  0  0  # atno 6909 bound_to 6896
  146.1894  139.7482  142.8843 H   0  0  0  0  0  0  0  0  0  0  0  0  # atno 7974 bound_to 7965
  155.7621  140.0840  157.2150 H   0  0  0  0  0  0  0  0  0  0  0  0  # atno 8008 bound_to 7997
  154.4003  140.1541  156.2901 H   0  0  0  0  0  0  0  0  0  0  0  0  # atno 8009 bound_to 7997
  155.8829  140.3419  155.5904 H   0  0  0  0  0  0  0  0  0  0  0  0  # atno 8010 bound_to 7997
  140.6571  143.2607  151.4552 H   0  0  0  0  0  0  0  0  0  0  0  0  # atno 10167 bound_to 10162
  156.0095  130.4542  150.3630 H   0  0  0  0  0  0  0  0  0  0  0  0  # atno 10718 bound_to 10713
  154.0200  135.2907  155.3382 H   0  0  0  0  0  0  0  0  0  0  0  0  # atno 10763 bound_to 10752
  154.7052  135.5172  153.8588 H   0  0  0  0  0  0  0  0  0  0  0  0  # atno 10764 bound_to 10752
  153.0685  135.6639  154.0422 H   0  0  0  0  0  0  0  0  0  0  0  0  # atno 10765 bound_to 10752
  141.0925  133.9029  157.2041 H   0  0  0  0  0  0  0  0  0  0  0  0  # atno 11005 bound_to 11000
  145.3839  141.0362  143.3162 LP  0  0  0  0  0  0  0  0  0  0  0  0  # atno 17320 bound_to 7965
  144.8458  139.5399  143.6879 LP  0  0  0  0  0  0  0  0  0  0  0  0  # atno 17321 bound_to 7965
  139.5796  144.1739  152.1950 LP  0  0  0  0  0  0  0  0  0  0  0  0  # atno 17342 bound_to 10162
  140.1061  144.5498  150.6956 LP  0  0  0  0  0  0  0  0  0  0  0  0  # atno 17343 bound_to 10162
  157.1718  131.0370  151.2792 LP  0  0  0  0  0  0  0  0  0  0  0  0  # atno 17370 bound_to 10713
  157.4223  130.7444  149.6923 LP  0  0  0  0  0  0  0  0  0  0  0  0  # atno 17371 bound_to 10713
  139.9754  135.0115  156.9619 LP  0  0  0  0  0  0  0  0  0  0  0  0  # atno 17394 bound_to 11000
  140.5217  134.0900  155.7294 LP  0  0  0  0  0  0  0  0  0  0  0  0  # atno 17395 bound_to 11000

$$$$
