AV-unprocessed.smi:3244|AV-procd|sdf|12399|dock4
  -GOLD-   2272018273D 1   1.00000     0.00000
 Structure written by MMmdl.
 41 42  0  0  0  0  0  0  0  0  2 V2000
  152.3785  138.8986  155.5865 C   0  0  0  0  0  0  0  0  0  0  0  0
  151.2399  139.4740  156.4448 C   0  0  0  0  0  0  0  0  0  0  0  0
  150.4363  140.4626  155.7091 N   0  0  0  0  0  0  0  0  0  0  0  0
  149.8018  140.1905  154.5406 C   0  0  0  0  0  0  0  0  0  0  0  0
  149.3249  141.0772  153.8298 O   0  0  0  0  0  0  0  0  0  0  0  0
  149.6619  138.7275  154.0817 C   0  0  0  0  0  0  0  0  0  0  0  0
  148.7605  138.5661  152.9171 N   0  3  0  0  0  0  0  0  0  0  0  0
  147.3340  138.9081  153.1394 C   0  0  1  0  0  0  0  0  0  0  0  0
  146.6095  139.2158  151.8180 C   0  0  0  0  0  0  0  0  0  0  0  0
  146.6265  137.7609  153.8909 C   0  0  0  0  0  0  0  0  0  0  0  0
  145.6155  137.0859  153.0926 N   0  0  0  0  0  0  0  0  0  0  0  0
  145.7961  136.2967  151.9757 C   0  0  0  0  0  0  0  0  0  0  0  0
  144.5599  135.9031  151.5504 C   0  0  0  0  0  0  0  0  0  0  0  0
  143.6714  136.5222  152.4728 C   0  0  0  0  0  0  0  0  0  0  0  0
  144.3059  137.2336  153.3907 N   0  0  0  0  0  0  0  0  0  0  0  0
  150.5755  141.7982  156.2283 C   0  0  0  0  0  0  0  0  0  0  0  0
  151.3882  142.0160  157.4872 C   0  0  0  0  0  0  0  0  0  0  0  0
  149.8944  142.2105  157.5221 C   0  0  0  0  0  0  0  0  0  0  0  0
  152.9677  138.1832  156.1606 H   0  0  0  0  0  0  0  0  0  0  0  0
  153.0542  139.6864  155.2526 H   0  0  0  0  0  0  0  0  0  0  0  0
  152.0096  138.3827  154.7013 H   0  0  0  0  0  0  0  0  0  0  0  0
  150.6194  138.6685  156.8353 H   0  0  0  0  0  0  0  0  0  0  0  0
  151.6763  139.9366  157.3313 H   0  0  0  0  0  0  0  0  0  0  0  0
  150.6417  138.3653  153.7747 H   0  0  0  0  0  0  0  0  0  0  0  0
  149.3269  138.0925  154.9022 H   0  0  0  0  0  0  0  0  0  0  0  0
  149.1242  139.1020  152.1417 H   0  0  0  0  0  0  0  0  0  0  0  0
  147.2890  139.8013  153.7643 H   0  0  0  0  0  0  0  0  0  0  0  0
  145.5548  139.4305  151.9921 H   0  0  0  0  0  0  0  0  0  0  0  0
  146.6661  138.3737  151.1272 H   0  0  0  0  0  0  0  0  0  0  0  0
  147.0335  140.0877  151.3198 H   0  0  0  0  0  0  0  0  0  0  0  0
  147.3547  137.0128  154.2075 H   0  0  0  0  0  0  0  0  0  0  0  0
  146.1546  138.1396  154.7989 H   0  0  0  0  0  0  0  0  0  0  0  0
  146.7778  136.0810  151.5803 H   0  0  0  0  0  0  0  0  0  0  0  0
  144.3251  135.2745  150.7041 H   0  0  0  0  0  0  0  0  0  0  0  0
  142.5926  136.4782  152.5009 H   0  0  0  0  0  0  0  0  0  0  0  0
  150.6520  142.5795  155.4742 H   0  0  0  0  0  0  0  0  0  0  0  0
  151.7890  141.1399  157.9940 H   0  0  0  0  0  0  0  0  0  0  0  0
  152.0128  142.9058  157.5325 H   0  0  0  0  0  0  0  0  0  0  0  0
  149.5227  143.2308  157.5888 H   0  0  0  0  0  0  0  0  0  0  0  0
  149.3198  141.4707  158.0761 H   0  0  0  0  0  0  0  0  0  0  0  0
  148.7830  137.5879  152.6664 H   0  0  0  0  0  0  0  0  0  0  0  0
  1  2  1  0  0  0  0
  1 19  1  0  0  0  0
  1 20  1  0  0  0  0
  1 21  1  0  0  0  0
  2  3  1  0  0  0  0
  2 22  1  0  0  0  0
  2 23  1  0  0  0  0
  3  4  1  0  0  0  0
  3 16  1  0  0  0  0
  4  5  2  0  0  0  0
  4  6  1  0  0  0  0
  6  7  1  0  0  0  0
  6 24  1  0  0  0  0
  6 25  1  0  0  0  0
  7  8  1  0  0  0  0
  7 26  1  0  0  0  0
  7 41  1  0  0  0  0
  8  9  1  0  0  0  0
  8 10  1  0  0  0  0
  8 27  1  0  0  0  0
  9 28  1  0  0  0  0
  9 29  1  0  0  0  0
  9 30  1  0  0  0  0
 10 11  1  0  0  0  0
 10 31  1  0  0  0  0
 10 32  1  0  0  0  0
 11 15  1  0  0  0  0
 11 12  1  0  0  0  0
 12 13  2  0  0  0  0
 12 33  1  0  0  0  0
 13 14  1  0  0  0  0
 13 34  1  0  0  0  0
 14 15  2  0  0  0  0
 14 35  1  0  0  0  0
 16 18  1  0  0  0  0
 16 17  1  0  0  0  0
 16 36  1  0  0  0  0
 17 18  1  0  0  0  0
 17 37  1  0  0  0  0
 17 38  1  0  0  0  0
 18 39  1  0  0  0  0
 18 40  1  0  0  0  0
M  CHG  1   7   1
M  END
> <s_m_source_file>
AV-unprocessed.smi

> <i_m_source_file_index>
3244

> <i_lp_mmshare_version>
43012

> <i_f3d_flags>
0

> <s_epik_input>
W0NIMl0xW0NIMl1bQ0hdMU4oW0NIMl1bQ0gzXSlDKD1PKVtDSDJdW05IXVtDQEhdKFtDSDNdKVtDSDJdbjJbY0hdW2NIXVtjSF1uMg==

> <s_epik_cmdline>
J2VwaWtfcHl0aG9uJywgJy1waCcsICc3LjAnLCAnLXRuJywgJzgnLCAnLW1hJywgJzIwMCcsICctbWV0YWxfYmluZGluZycsICctaW1hZScsICc8aW5maWxlLm1hZT4nLCAnLW9tYWUnLCAnPG91dGZpbGUubWFlPic=

> <r_lp_tautomer_probability>
1

> <r_epik_Ionization_Penalty>
0.115625

> <r_epik_Ionization_Penalty_Charging>
0.115622

> <r_epik_Ionization_Penalty_Neutral>
3.43793e-06

> <r_epik_State_Penalty>
0.105255

> <r_epik_Charging_Adjusted_Penalty>
0.220877

> <i_epik_Tot_Q>
1

> <i_epik_Tot_abs_Q>
1

> <r_epik_Metal_State_Penalty>
0.105264

> <b_epik_Metal_Only>
0

> <s_lp_Force_Field>
OPLS_2005

> <r_lp_Energy>
36.1392

> <b_lp_Chiralities_Consistent>
1

> <s_lp_Variant>
AV-unprocessed.smi:3244-2

> <Gold.Version>
5.8.1

> <Gold.Id.Protein>
6NUR|6NUR_protein|mol2

> <Gold.PLP.Fitness>
45.2380

> <Gold.PLP.PLP>
-32.6626

> <Gold.PLP.part.hbond>
-3.9390

> <Gold.PLP.part.metal>
0.0000

> <Gold.PLP.part.buried>
-1.4554

> <Gold.PLP.part.nonpolar>
-29.0057

> <Gold.PLP.part.repulsive>
2.1749

> <Gold.PLP.ligand.clash>
0.0000

> <Gold.PLP.ligand.torsion>
1.2633

> <Gold.PLP.Chemscore.Hbond>
3.8945

> <Gold.PLP.Chemscore.CHOScore>
1.0000

> <Gold.PLP.Chemscore.Metal>
0.0000

> <Gold.Chemscore.Hbonds>
donor molecule, donor type, donor heavy atom, donor atom, acceptor molecule, acceptor atom, score
      L1  H     7    26       P1  7957  0.73
      L1  H     7    41       P1  7948  2.00
      P1  H  8011  8017       L1     5  0.86
      L1  C    12    33       P1  7948  1.00

> <Gold.PLP.Chemscore.Internal.Correction>
0.4184

> <Gold.Rescore>
     Score         DG    S(hbond)    S(metal)    S(lipo)     H(rot)  DE(clash)    DE(int)     intcor
     15.33     -17.37       2.68        0.00      69.78       2.04       0.79       1.24       ----

> <Gold.Chemscore.Fitness>
15.3313

> <Gold.Chemscore.DG>
-17.3669

> <Gold.Chemscore.ZeroCoef>
-5.4800

> <Gold.Chemscore.Hbond>
2.6813

> <Gold.Chemscore.Metal>
0.0000

> <Gold.Chemscore.Lipo>
69.7786

> <Gold.Chemscore.Internal_Hbond>
0.0000

> <Gold.Chemscore.DEClash>
0.7939

> <Gold.Chemscore.DEInternal>
1.2417

> <Gold.Chemscore.Rot>
2.0440

> <Gold.Chemscore.Internal.Correction>
   9.000000E+99

> <Gold.Chemscore.Hbonds>
donor molecule, donor type, donor heavy atom, donor atom, acceptor molecule, acceptor atom, score
      L1  H     7    26       P1  7957  0.70
      L1  H     7    41       P1  7948  0.96
      P1  H  8011  8017       L1     5  0.79

> <Gold.Chemscore.Hbond.Weighted>
-8.9554

> <Gold.Chemscore.Metal.Weighted>
-0.0000

> <Gold.Chemscore.Lipo.Weighted>
-8.1641

> <Gold.Chemscore.Internal_Hbond.Weighted>
0.0000

> <Gold.Chemscore.DEClash.Weighted>
0.7939

> <Gold.Chemscore.DEInternal.Weighted>
1.2417

> <Gold.Chemscore.Rot.Weighted>
5.2325

> <Gold.Chemscore.Internal.Correction.Weighted>
   9.000000E+99

> <Gold.Protein.RotatedTorsions>
[ 6907 6896 6895 6894 ] final   82.16 input  -60.11 | X-H torsion
[ 7974 7965 7964 7962 ] final  -96.32 input  175.53 | X-H torsion
[ 8008 7997 7996 7995 ] final -136.06 input   59.86 | X-H torsion
[ 10167 10162 10161 10158 ] final -100.32 input  -65.29 | X-H torsion
[ 10718 10713 10712 10709 ] final   -7.24 input   66.30 | X-H torsion
[ 10763 10752 10751 10750 ] final  143.84 input  -60.55 | X-H torsion
[ 11005 11000 10999 10996 ] final   15.88 input  -57.11 | X-H torsion

> <Gold.Protein.ActiveResidues>
 VAL166  LYS551  ARG553  GLY616  TRP617  ASP618  TYR619  PRO620  LYS621  CYS622 
 ASP623  PHE694  ASN695  SER759  ASP760  ASP761  ALA762  ILE779  LEU786  VAL792 
 PHE793  MET794  SER795  GLU796  ALA797  LYS798  CYS799  TRP800  GLU811  SER814 

> <Gold.Protein.RotatedAtoms>
  152.5291  134.3092  159.9106 H   0  0  0  0  0  0  0  0  0  0  0  0  # atno 6907 bound_to 6896
  151.3042  133.4102  159.2649 H   0  0  0  0  0  0  0  0  0  0  0  0  # atno 6908 bound_to 6896
  151.0093  134.9401  159.8055 H   0  0  0  0  0  0  0  0  0  0  0  0  # atno 6909 bound_to 6896
  145.3484  140.9472  143.2568 H   0  0  0  0  0  0  0  0  0  0  0  0  # atno 7974 bound_to 7965
  155.3890  140.0498  157.3041 H   0  0  0  0  0  0  0  0  0  0  0  0  # atno 8008 bound_to 7997
  154.5045  140.2169  155.9239 H   0  0  0  0  0  0  0  0  0  0  0  0  # atno 8009 bound_to 7997
  156.1509  140.3136  155.8652 H   0  0  0  0  0  0  0  0  0  0  0  0  # atno 8010 bound_to 7997
  140.2531  143.3459  152.0696 H   0  0  0  0  0  0  0  0  0  0  0  0  # atno 10167 bound_to 10162
  156.7201  130.5148  149.5870 H   0  0  0  0  0  0  0  0  0  0  0  0  # atno 10718 bound_to 10713
  153.9791  135.2943  155.3421 H   0  0  0  0  0  0  0  0  0  0  0  0  # atno 10763 bound_to 10752
  154.7279  135.5080  153.8919 H   0  0  0  0  0  0  0  0  0  0  0  0  # atno 10764 bound_to 10752
  153.0863  135.6694  154.0056 H   0  0  0  0  0  0  0  0  0  0  0  0  # atno 10765 bound_to 10752
  140.4533  134.1202  155.7705 H   0  0  0  0  0  0  0  0  0  0  0  0  # atno 11005 bound_to 11000
  144.8736  139.5002  143.6756 LP  0  0  0  0  0  0  0  0  0  0  0  0  # atno 17320 bound_to 7965
  146.2978  139.7332  142.9113 LP  0  0  0  0  0  0  0  0  0  0  0  0  # atno 17321 bound_to 7965
  139.5040  144.6766  151.6112 LP  0  0  0  0  0  0  0  0  0  0  0  0  # atno 17342 bound_to 10162
  140.6025  143.9584  150.6396 LP  0  0  0  0  0  0  0  0  0  0  0  0  # atno 17343 bound_to 10162
  156.1600  130.6368  151.0707 LP  0  0  0  0  0  0  0  0  0  0  0  0  # atno 17370 bound_to 10713
  157.6901  131.0812  150.7131 LP  0  0  0  0  0  0  0  0  0  0  0  0  # atno 17371 bound_to 10713
  141.1654  133.8713  157.1729 LP  0  0  0  0  0  0  0  0  0  0  0  0  # atno 17394 bound_to 11000
  139.9992  135.0034  157.0152 LP  0  0  0  0  0  0  0  0  0  0  0  0  # atno 17395 bound_to 11000

$$$$
