AV-unprocessed.smi:1019|AV-procd|sdf|4448|dock1
  -GOLD-   22720 2413D 1   1.00000     0.00000
 Structure written by MMmdl.
 45 47  0  0  0  0  0  0  0  0  3 V2000
  144.1565  137.2094  154.4901 C   0  0  0  0  0  0  0  0  0  0  0  0
  144.5534  137.6748  153.1411 N   0  3  2  0  0  0  0  0  0  0  0  0
  143.6502  137.1464  152.0884 C   0  0  0  0  0  0  0  0  0  0  0  0
  143.9351  135.6880  151.7704 C   0  0  0  0  0  0  0  0  0  0  0  0
  143.0962  134.6764  152.2843 C   0  0  0  0  0  0  0  0  0  0  0  0
  143.3493  133.3247  151.9800 C   0  0  0  0  0  0  0  0  0  0  0  0
  144.4439  132.9788  151.1645 C   0  0  0  0  0  0  0  0  0  0  0  0
  145.2868  133.9848  150.6544 C   0  0  0  0  0  0  0  0  0  0  0  0
  145.0341  135.3367  150.9574 C   0  0  0  0  0  0  0  0  0  0  0  0
  145.9970  137.4522  152.8584 C   0  0  0  0  0  0  0  0  0  0  0  0
  146.7857  138.7747  152.8125 C   0  0  2  0  0  0  0  0  0  0  0  0
  147.0424  139.1020  151.4599 O   0  0  0  0  0  0  0  0  0  0  0  0
  148.1176  138.6756  153.5822 C   0  0  0  0  0  0  0  0  0  0  0  0
  148.4970  139.9397  154.2300 N   0  0  0  0  0  0  0  0  0  0  0  0
  147.8570  141.1409  154.2251 C   0  0  0  0  0  0  0  0  0  0  0  0
  148.5989  142.0068  154.9692 N   0  3  0  0  0  0  0  0  0  0  0  0
  149.7297  141.3508  155.4588 C   0  0  0  0  0  0  0  0  0  0  0  0
  150.7729  141.8097  156.2571 C   0  0  0  0  0  0  0  0  0  0  0  0
  151.7809  140.8776  156.5787 C   0  0  0  0  0  0  0  0  0  0  0  0
  151.7278  139.5484  156.1111 C   0  0  0  0  0  0  0  0  0  0  0  0
  150.6649  139.0937  155.3029 C   0  0  0  0  0  0  0  0  0  0  0  0
  149.6714  140.0211  154.9890 C   0  0  0  0  0  0  0  0  0  0  0  0
  144.2416  136.1250  154.5691 H   0  0  0  0  0  0  0  0  0  0  0  0
  143.1234  137.4855  154.7035 H   0  0  0  0  0  0  0  0  0  0  0  0
  144.7784  137.6572  155.2646 H   0  0  0  0  0  0  0  0  0  0  0  0
  142.6096  137.2800  152.3892 H   0  0  0  0  0  0  0  0  0  0  0  0
  143.7845  137.7150  151.1669 H   0  0  0  0  0  0  0  0  0  0  0  0
  142.2531  134.9343  152.9084 H   0  0  0  0  0  0  0  0  0  0  0  0
  142.7038  132.5523  152.3719 H   0  0  0  0  0  0  0  0  0  0  0  0
  144.6379  131.9419  150.9320 H   0  0  0  0  0  0  0  0  0  0  0  0
  146.1276  133.7193  150.0307 H   0  0  0  0  0  0  0  0  0  0  0  0
  145.6847  136.1020  150.5599 H   0  0  0  0  0  0  0  0  0  0  0  0
  146.4125  136.7823  153.6127 H   0  0  0  0  0  0  0  0  0  0  0  0
  146.1346  136.9419  151.9052 H   0  0  0  0  0  0  0  0  0  0  0  0
  146.1924  139.5791  153.2473 H   0  0  0  0  0  0  0  0  0  0  0  0
  147.9742  139.0578  151.3078 H   0  0  0  0  0  0  0  0  0  0  0  0
  148.0325  137.9285  154.3722 H   0  0  0  0  0  0  0  0  0  0  0  0
  148.9296  138.3423  152.9353 H   0  0  0  0  0  0  0  0  0  0  0  0
  146.9279  141.3673  153.7221 H   0  0  0  0  0  0  0  0  0  0  0  0
  150.8164  142.8276  156.6164 H   0  0  0  0  0  0  0  0  0  0  0  0
  152.6115  141.1887  157.1958 H   0  0  0  0  0  0  0  0  0  0  0  0
  152.5193  138.8632  156.3778 H   0  0  0  0  0  0  0  0  0  0  0  0
  150.6388  138.0738  154.9502 H   0  0  0  0  0  0  0  0  0  0  0  0
  144.4188  138.6761  153.1326 H   0  0  0  0  0  0  0  0  0  0  0  0
  148.3489  142.9743  155.1300 H   0  0  0  0  0  0  0  0  0  0  0  0
  1  2  1  0  0  0  0
  1 23  1  0  0  0  0
  1 24  1  0  0  0  0
  1 25  1  0  0  0  0
  2  3  1  0  0  0  0
  2 10  1  0  0  0  0
  2 44  1  0  0  0  0
  3  4  1  0  0  0  0
  3 26  1  0  0  0  0
  3 27  1  0  0  0  0
  4  9  1  0  0  0  0
  4  5  2  0  0  0  0
  5  6  1  0  0  0  0
  5 28  1  0  0  0  0
  6  7  2  0  0  0  0
  6 29  1  0  0  0  0
  7  8  1  0  0  0  0
  7 30  1  0  0  0  0
  8  9  2  0  0  0  0
  8 31  1  0  0  0  0
  9 32  1  0  0  0  0
 10 11  1  0  0  0  0
 10 33  1  0  0  0  0
 10 34  1  0  0  0  0
 11 12  1  0  0  0  0
 11 13  1  0  0  0  0
 11 35  1  0  0  0  0
 12 36  1  0  0  0  0
 13 14  1  0  0  0  0
 13 37  1  0  0  0  0
 13 38  1  0  0  0  0
 14 22  1  0  0  0  0
 14 15  1  0  0  0  0
 15 16  2  0  0  0  0
 15 39  1  0  0  0  0
 16 17  1  0  0  0  0
 16 45  1  0  0  0  0
 17 22  2  0  0  0  0
 17 18  1  0  0  0  0
 18 19  2  0  0  0  0
 18 40  1  0  0  0  0
 19 20  1  0  0  0  0
 19 41  1  0  0  0  0
 20 21  2  0  0  0  0
 20 42  1  0  0  0  0
 21 22  1  0  0  0  0
 21 43  1  0  0  0  0
M  CHG  1   2   1
M  CHG  1  16   1
M  END
> <s_m_source_file>
AV-unprocessed.smi

> <i_m_source_file_index>
1019

> <i_lp_mmshare_version>
43012

> <i_f3d_flags>
0

> <s_epik_input>
W2NIXTFbY0hdW2NIXVtjSF1bY0hdYzFbQ0gyXU4oW0NIM10pW0NIMl1bQ0BIXShbT0hdKVtDSDJdbihbY0hdbjIpYyhjMjMpW2NIXVtjSF1bY0hdW2NIXTM=

> <s_epik_cmdline>
J2VwaWtfcHl0aG9uJywgJy1waCcsICc3LjAnLCAnLXRuJywgJzgnLCAnLW1hJywgJzIwMCcsICctbWV0YWxfYmluZGluZycsICctaW1hZScsICc8aW5maWxlLm1hZT4nLCAnLW9tYWUnLCAnPG91dGZpbGUubWFlPic=

> <r_epik_Ionization_Penalty>
1.5198

> <r_epik_Ionization_Penalty_Charging>
1.5198

> <r_epik_Ionization_Penalty_Neutral>
3.13312e-06

> <r_epik_State_Penalty>
1.624

> <r_epik_Charging_Adjusted_Penalty>
3.1438

> <i_epik_Tot_Q>
2

> <i_epik_Tot_abs_Q>
2

> <r_epik_Metal_State_Penalty>
5.67392

> <b_epik_Metal_Only>
0

> <s_lp_Force_Field>
OPLS_2005

> <r_lp_Energy>
24.0682

> <b_lp_Chiralities_Consistent>
1

> <s_lp_Variant>
AV-unprocessed.smi:1019-6

> <Gold.Version>
5.8.1

> <Gold.Id.Protein>
6NUR|6NUR_protein|mol2

> <Gold.PLP.Fitness>
51.4982

> <Gold.PLP.PLP>
-40.0932

> <Gold.PLP.part.hbond>
-3.5939

> <Gold.PLP.part.metal>
0.0000

> <Gold.PLP.part.buried>
1.3607

> <Gold.PLP.part.nonpolar>
-37.1136

> <Gold.PLP.part.repulsive>
0.1863

> <Gold.PLP.ligand.clash>
0.0000

> <Gold.PLP.ligand.torsion>
2.1099

> <Gold.PLP.Chemscore.Hbond>
5.0000

> <Gold.PLP.Chemscore.CHOScore>
0.0000

> <Gold.PLP.Chemscore.Metal>
0.0000

> <Gold.Chemscore.Hbonds>
donor molecule, donor type, donor heavy atom, donor atom, acceptor molecule, acceptor atom, score
      L1  H     2    44       P1 10175  1.98
      L1  H    12    36       P1  7957  0.93
      L1  H    16    45       P1  8028  1.98

> <Gold.PLP.Chemscore.Internal.Correction>
0.6249

> <Gold.Rescore>
     Score         DG    S(hbond)    S(metal)    S(lipo)     H(rot)  DE(clash)    DE(int)     intcor
     16.60     -20.41       2.93        0.00      97.74       2.46       1.99       1.82       ----

> <Gold.Chemscore.Fitness>
16.6031

> <Gold.Chemscore.DG>
-20.4121

> <Gold.Chemscore.ZeroCoef>
-5.4800

> <Gold.Chemscore.Hbond>
2.9286

> <Gold.Chemscore.Metal>
0.0000

> <Gold.Chemscore.Lipo>
97.7438

> <Gold.Chemscore.Internal_Hbond>
0.0000

> <Gold.Chemscore.DEClash>
1.9865

> <Gold.Chemscore.DEInternal>
1.8225

> <Gold.Chemscore.Rot>
2.4552

> <Gold.Chemscore.Internal.Correction>
   9.000000E+99

> <Gold.Chemscore.Hbonds>
donor molecule, donor type, donor heavy atom, donor atom, acceptor molecule, acceptor atom, score
      L1  H     2    44       P1 10175  0.91
      L1  H    12    36       P1  7957  0.59
      L1  H    16    45       P1  8028  0.94

> <Gold.Chemscore.Hbond.Weighted>
-9.7815

> <Gold.Chemscore.Metal.Weighted>
-0.0000

> <Gold.Chemscore.Lipo.Weighted>
-11.4360

> <Gold.Chemscore.Internal_Hbond.Weighted>
0.0000

> <Gold.Chemscore.DEClash.Weighted>
1.9865

> <Gold.Chemscore.DEInternal.Weighted>
1.8225

> <Gold.Chemscore.Rot.Weighted>
6.2854

> <Gold.Chemscore.Internal.Correction.Weighted>
   9.000000E+99

> <Gold.Protein.RotatedTorsions>
[ 6907 6896 6895 6894 ] final -133.90 input  -60.11 | X-H torsion
[ 7974 7965 7964 7962 ] final   11.86 input  175.53 | X-H torsion
[ 8008 7997 7996 7995 ] final  166.72 input   59.86 | X-H torsion
[ 10167 10162 10161 10158 ] final  -37.68 input  -65.29 | X-H torsion
[ 10718 10713 10712 10709 ] final  -92.52 input   66.30 | X-H torsion
[ 10763 10752 10751 10750 ] final -106.11 input  -60.55 | X-H torsion
[ 11005 11000 10999 10996 ] final   -7.82 input  -57.11 | X-H torsion

> <Gold.Protein.ActiveResidues>
 VAL166  LYS551  ARG553  GLY616  TRP617  ASP618  TYR619  PRO620  LYS621  CYS622 
 ASP623  PHE694  ASN695  SER759  ASP760  ASP761  ALA762  ILE779  LEU786  VAL792 
 PHE793  MET794  SER795  GLU796  ALA797  LYS798  CYS799  TRP800  GLU811  SER814 

> <Gold.Protein.RotatedAtoms>
  150.9795  133.6260  159.2724 H   0  0  0  0  0  0  0  0  0  0  0  0  # atno 6907 bound_to 6896
  151.3520  135.0885  159.9416 H   0  0  0  0  0  0  0  0  0  0  0  0  # atno 6908 bound_to 6896
  152.5211  133.9386  159.7670 H   0  0  0  0  0  0  0  0  0  0  0  0  # atno 6909 bound_to 6896
  146.2363  139.9423  142.8481 H   0  0  0  0  0  0  0  0  0  0  0  0  # atno 7974 bound_to 7965
  156.1695  140.1636  156.8473 H   0  0  0  0  0  0  0  0  0  0  0  0  # atno 8008 bound_to 7997
  154.5242  140.0771  156.8262 H   0  0  0  0  0  0  0  0  0  0  0  0  # atno 8009 bound_to 7997
  155.3542  140.3391  155.4242 H   0  0  0  0  0  0  0  0  0  0  0  0  # atno 8010 bound_to 7997
  140.7112  143.3326  151.2535 H   0  0  0  0  0  0  0  0  0  0  0  0  # atno 10167 bound_to 10162
  156.0003  130.4990  150.5638 H   0  0  0  0  0  0  0  0  0  0  0  0  # atno 10718 bound_to 10713
  154.7991  135.4724  154.0231 H   0  0  0  0  0  0  0  0  0  0  0  0  # atno 10763 bound_to 10752
  153.1751  135.6831  153.8561 H   0  0  0  0  0  0  0  0  0  0  0  0  # atno 10764 bound_to 10752
  153.8130  135.3214  155.3380 H   0  0  0  0  0  0  0  0  0  0  0  0  # atno 10765 bound_to 10752
  140.7169  133.8861  155.8791 H   0  0  0  0  0  0  0  0  0  0  0  0  # atno 11005 bound_to 11000
  145.1941  140.9825  143.4194 LP  0  0  0  0  0  0  0  0  0  0  0  0  # atno 17320 bound_to 7965
  144.9831  139.3763  143.6252 LP  0  0  0  0  0  0  0  0  0  0  0  0  # atno 17321 bound_to 7965
  139.6812  143.9851  152.2809 LP  0  0  0  0  0  0  0  0  0  0  0  0  # atno 17342 bound_to 10162
  139.9481  144.6638  150.8199 LP  0  0  0  0  0  0  0  0  0  0  0  0  # atno 17343 bound_to 10162
  157.3543  131.0739  151.1688 LP  0  0  0  0  0  0  0  0  0  0  0  0  # atno 17370 bound_to 10713
  157.2494  130.6606  149.5924 LP  0  0  0  0  0  0  0  0  0  0  0  0  # atno 17371 bound_to 10713
  141.0037  134.1115  157.4292 LP  0  0  0  0  0  0  0  0  0  0  0  0  # atno 17394 bound_to 11000
  139.8858  135.0075  156.6456 LP  0  0  0  0  0  0  0  0  0  0  0  0  # atno 17395 bound_to 11000

$$$$
