AV-unprocessed.smi:1042|AV-procd|sdf|4539|dock3
  -GOLD-   22720 2563D 1   1.00000     0.00000
 Structure written by MMmdl.
 40 42  0  0  0  0  0  0  0  0  2 V2000
  144.4076  136.6419  151.9646 O   0  0  0  0  0  0  0  0  0  0  0  0
  145.6207  136.4520  151.8703 C   0  0  0  0  0  0  0  0  0  0  0  0
  146.5360  137.3915  152.1490 N   0  0  0  0  0  0  0  0  0  0  0  0
  146.2326  138.7475  152.5950 C   0  0  0  0  0  0  0  0  0  0  0  0
  147.5073  139.5733  152.8560 C   0  0  1  0  0  0  0  0  0  0  0  0
  147.2705  140.9359  153.5078 C   0  0  0  0  0  0  0  0  0  0  0  0
  148.6113  141.2763  154.1711 C   0  0  0  0  0  0  0  0  0  0  0  0
  149.3734  140.0095  154.2720 N   0  3  1  0  0  0  0  0  0  0  0  0
  150.0003  139.7802  155.5910 C   0  0  0  0  0  0  0  0  0  0  0  0
  150.8970  140.9105  156.0363 C   0  0  0  0  0  0  0  0  0  0  0  0
  151.5003  139.6192  155.5274 C   0  0  0  0  0  0  0  0  0  0  0  0
  148.4832  138.9172  153.8305 C   0  0  0  0  0  0  0  0  0  0  0  0
  146.2024  135.3018  151.4871 N   0  0  0  0  0  0  0  0  0  0  0  0
  145.5759  134.0759  151.1375 C   0  0  0  0  0  0  0  0  0  0  0  0
  146.3731  132.9231  151.3179 C   0  0  0  0  0  0  0  0  0  0  0  0
  145.8425  131.6573  151.0022 C   0  0  0  0  0  0  0  0  0  0  0  0
  144.5261  131.5768  150.5137 C   0  0  0  0  0  0  0  0  0  0  0  0
  143.8003  132.7729  150.3640 C   0  0  0  0  0  0  0  0  0  0  0  0
  144.3069  133.9870  150.6667 N   0  0  0  0  0  0  0  0  0  0  0  0
  147.5114  137.1541  152.0406 H   0  0  0  0  0  0  0  0  0  0  0  0
  145.6246  139.2269  151.8273 H   0  0  0  0  0  0  0  0  0  0  0  0
  145.6168  138.7085  153.4953 H   0  0  0  0  0  0  0  0  0  0  0  0
  148.0343  139.7326  151.9136 H   0  0  0  0  0  0  0  0  0  0  0  0
  146.9521  141.6949  152.7925 H   0  0  0  0  0  0  0  0  0  0  0  0
  146.4963  140.8543  154.2724 H   0  0  0  0  0  0  0  0  0  0  0  0
  149.1824  141.9749  153.5593 H   0  0  0  0  0  0  0  0  0  0  0  0
  148.4544  141.7422  155.1452 H   0  0  0  0  0  0  0  0  0  0  0  0
  149.4145  139.2190  156.3169 H   0  0  0  0  0  0  0  0  0  0  0  0
  150.9752  141.7884  155.3974 H   0  0  0  0  0  0  0  0  0  0  0  0
  150.9666  141.1055  157.1046 H   0  0  0  0  0  0  0  0  0  0  0  0
  151.9663  138.9644  156.2608 H   0  0  0  0  0  0  0  0  0  0  0  0
  151.9799  139.6390  154.5505 H   0  0  0  0  0  0  0  0  0  0  0  0
  147.9417  138.5150  154.6889 H   0  0  0  0  0  0  0  0  0  0  0  0
  149.0464  138.1022  153.3747 H   0  0  0  0  0  0  0  0  0  0  0  0
  147.2108  135.2990  151.4475 H   0  0  0  0  0  0  0  0  0  0  0  0
  147.3828  133.0026  151.6941 H   0  0  0  0  0  0  0  0  0  0  0  0
  146.4357  130.7643  151.1329 H   0  0  0  0  0  0  0  0  0  0  0  0
  144.0842  130.6244  150.2610 H   0  0  0  0  0  0  0  0  0  0  0  0
  142.7865  132.7553  149.9928 H   0  0  0  0  0  0  0  0  0  0  0  0
  150.1137  140.0701  153.5876 H   0  0  0  0  0  0  0  0  0  0  0  0
  1  2  2  0  0  0  0
  2  3  1  0  0  0  0
  2 13  1  0  0  0  0
  3  4  1  0  0  0  0
  3 20  1  0  0  0  0
  4  5  1  0  0  0  0
  4 21  1  0  0  0  0
  4 22  1  0  0  0  0
  5 12  1  0  0  0  0
  5  6  1  0  0  0  0
  5 23  1  0  0  0  0
  6  7  1  0  0  0  0
  6 24  1  0  0  0  0
  6 25  1  0  0  0  0
  7  8  1  0  0  0  0
  7 26  1  0  0  0  0
  7 27  1  0  0  0  0
  8  9  1  0  0  0  0
  8 12  1  0  0  0  0
  8 40  1  0  0  0  0
  9 11  1  0  0  0  0
  9 10  1  0  0  0  0
  9 28  1  0  0  0  0
 10 11  1  0  0  0  0
 10 29  1  0  0  0  0
 10 30  1  0  0  0  0
 11 31  1  0  0  0  0
 11 32  1  0  0  0  0
 12 33  1  0  0  0  0
 12 34  1  0  0  0  0
 13 14  1  0  0  0  0
 13 35  1  0  0  0  0
 14 19  1  0  0  0  0
 14 15  2  0  0  0  0
 15 16  1  0  0  0  0
 15 36  1  0  0  0  0
 16 17  2  0  0  0  0
 16 37  1  0  0  0  0
 17 18  1  0  0  0  0
 17 38  1  0  0  0  0
 18 19  2  0  0  0  0
 18 39  1  0  0  0  0
M  CHG  1   8   1
M  END
> <s_m_source_file>
AV-unprocessed.smi

> <i_m_source_file_index>
1042

> <i_lp_mmshare_version>
43012

> <i_f3d_flags>
0

> <s_epik_input>
bjFbY0hdW2NIXVtjSF1bY0hdYzFbTkhdQyg9TylbTkhdW0NIMl1bQ0BASF0yW0NIMl1bQ0gyXU4oW0NIMl0yKVtDSF0zW0NIMl1bQ0gyXTM=

> <s_epik_cmdline>
J2VwaWtfcHl0aG9uJywgJy1waCcsICc3LjAnLCAnLXRuJywgJzgnLCAnLW1hJywgJzIwMCcsICctbWV0YWxfYmluZGluZycsICctaW1hZScsICc8aW5maWxlLm1hZT4nLCAnLW9tYWUnLCAnPG91dGZpbGUubWFlPic=

> <r_lp_tautomer_probability>
1

> <r_epik_Ionization_Penalty>
0.000244736

> <r_epik_Ionization_Penalty_Charging>
0.000203384

> <r_epik_Ionization_Penalty_Neutral>
4.13519e-05

> <r_epik_State_Penalty>
-0

> <r_epik_Charging_Adjusted_Penalty>
0.000203384

> <i_epik_Tot_Q>
1

> <i_epik_Tot_abs_Q>
1

> <r_epik_Metal_State_Penalty>
-0

> <b_epik_Metal_Only>
0

> <s_lp_Force_Field>
OPLS_2005

> <r_lp_Energy>
38.0464

> <b_lp_Chiralities_Consistent>
1

> <s_lp_Variant>
AV-unprocessed.smi:1042-4

> <Gold.Version>
5.8.1

> <Gold.Id.Protein>
6NUR|6NUR_protein|mol2

> <Gold.PLP.Fitness>
44.7681

> <Gold.PLP.PLP>
-36.1217

> <Gold.PLP.part.hbond>
-2.9912

> <Gold.PLP.part.metal>
0.0000

> <Gold.PLP.part.buried>
0.8105

> <Gold.PLP.part.nonpolar>
-34.4182

> <Gold.PLP.part.repulsive>
1.1408

> <Gold.PLP.ligand.clash>
0.0000

> <Gold.PLP.ligand.torsion>
0.9077

> <Gold.PLP.Chemscore.Hbond>
2.0648

> <Gold.PLP.Chemscore.CHOScore>
0.9993

> <Gold.PLP.Chemscore.Metal>
0.0000

> <Gold.Chemscore.Hbonds>
donor molecule, donor type, donor heavy atom, donor atom, acceptor molecule, acceptor atom, score
      L1  H     3    20       P1  7948  1.00
      L1  H    13    35       P1  7948  1.00
      L1  C    18    39       P1 10186  1.00

> <Gold.PLP.Chemscore.Internal.Correction>
1.2694

> <Gold.Rescore>
     Score         DG    S(hbond)    S(metal)    S(lipo)     H(rot)  DE(clash)    DE(int)     intcor
     15.05     -19.06       1.88        0.00      94.47       1.47       1.95       2.06       ----

> <Gold.Chemscore.Fitness>
15.0512

> <Gold.Chemscore.DG>
-19.0637

> <Gold.Chemscore.ZeroCoef>
-5.4800

> <Gold.Chemscore.Hbond>
1.8849

> <Gold.Chemscore.Metal>
0.0000

> <Gold.Chemscore.Lipo>
94.4723

> <Gold.Chemscore.Internal_Hbond>
0.0000

> <Gold.Chemscore.DEClash>
1.9505

> <Gold.Chemscore.DEInternal>
2.0620

> <Gold.Chemscore.Rot>
1.4707

> <Gold.Chemscore.Internal.Correction>
   9.000000E+99

> <Gold.Chemscore.Hbonds>
donor molecule, donor type, donor heavy atom, donor atom, acceptor molecule, acceptor atom, score
      L1  H     3    20       P1  7948  1.00
      L1  H     8    40       P1  7957  0.01
      L1  H    13    35       P1  7948  0.84

> <Gold.Chemscore.Hbond.Weighted>
-6.2955

> <Gold.Chemscore.Metal.Weighted>
-0.0000

> <Gold.Chemscore.Lipo.Weighted>
-11.0533

> <Gold.Chemscore.Internal_Hbond.Weighted>
0.0000

> <Gold.Chemscore.DEClash.Weighted>
1.9505

> <Gold.Chemscore.DEInternal.Weighted>
2.0620

> <Gold.Chemscore.Rot.Weighted>
3.7650

> <Gold.Chemscore.Internal.Correction.Weighted>
   9.000000E+99

> <Gold.Protein.RotatedTorsions>
[ 6907 6896 6895 6894 ] final  109.99 input  -60.11 | X-H torsion
[ 7974 7965 7964 7962 ] final -163.74 input  175.53 | X-H torsion
[ 8008 7997 7996 7995 ] final  -68.50 input   59.86 | X-H torsion
[ 10167 10162 10161 10158 ] final   22.73 input  -65.29 | X-H torsion
[ 10718 10713 10712 10709 ] final   -5.33 input   66.30 | X-H torsion
[ 10763 10752 10751 10750 ] final  -57.41 input  -60.55 | X-H torsion
[ 11005 11000 10999 10996 ] final  -49.45 input  -57.11 | X-H torsion

> <Gold.Protein.ActiveResidues>
 VAL166  LYS551  ARG553  GLY616  TRP617  ASP618  TYR619  PRO620  LYS621  CYS622 
 ASP623  PHE694  ASN695  SER759  ASP760  ASP761  ALA762  ILE779  LEU786  VAL792 
 PHE793  MET794  SER795  GLU796  ALA797  LYS798  CYS799  TRP800  GLU811  SER814 

> <Gold.Protein.RotatedAtoms>
  152.5041  133.8864  159.7371 H   0  0  0  0  0  0  0  0  0  0  0  0  # atno 6907 bound_to 6896
  150.9314  133.6754  159.2817 H   0  0  0  0  0  0  0  0  0  0  0  0  # atno 6908 bound_to 6896
  151.4097  135.0988  159.9634 H   0  0  0  0  0  0  0  0  0  0  0  0  # atno 6909 bound_to 6896
  144.7317  140.3063  143.6196 H   0  0  0  0  0  0  0  0  0  0  0  0  # atno 7974 bound_to 7965
  154.4872  140.0872  156.7513 H   0  0  0  0  0  0  0  0  0  0  0  0  # atno 8008 bound_to 7997
  155.4320  140.3450  155.4263 H   0  0  0  0  0  0  0  0  0  0  0  0  # atno 8009 bound_to 7997
  156.1279  140.1492  156.9098 H   0  0  0  0  0  0  0  0  0  0  0  0  # atno 8010 bound_to 7997
  140.5325  143.9816  150.6473 H   0  0  0  0  0  0  0  0  0  0  0  0  # atno 10167 bound_to 10162
  156.7481  130.5231  149.5809 H   0  0  0  0  0  0  0  0  0  0  0  0  # atno 10718 bound_to 10713
  154.2219  135.6376  153.5147 H   0  0  0  0  0  0  0  0  0  0  0  0  # atno 10763 bound_to 10752
  152.9967  135.5499  154.6104 H   0  0  0  0  0  0  0  0  0  0  0  0  # atno 10764 bound_to 10752
  154.5567  135.2905  155.0932 H   0  0  0  0  0  0  0  0  0  0  0  0  # atno 10765 bound_to 10752
  141.0760  133.6666  156.3587 H   0  0  0  0  0  0  0  0  0  0  0  0  # atno 11005 bound_to 11000
  145.7709  139.1857  143.2213 LP  0  0  0  0  0  0  0  0  0  0  0  0  # atno 17320 bound_to 7965
  146.0911  140.7654  142.9595 LP  0  0  0  0  0  0  0  0  0  0  0  0  # atno 17321 bound_to 7965
  140.3195  143.3146  152.0798 LP  0  0  0  0  0  0  0  0  0  0  0  0  # atno 17342 bound_to 10162
  139.4959  144.6583  151.6522 LP  0  0  0  0  0  0  0  0  0  0  0  0  # atno 17343 bound_to 10162
  156.1419  130.6250  151.0479 LP  0  0  0  0  0  0  0  0  0  0  0  0  # atno 17370 bound_to 10713
  157.6789  131.0843  150.7422 LP  0  0  0  0  0  0  0  0  0  0  0  0  # atno 17371 bound_to 10713
  140.5573  134.5969  157.5424 LP  0  0  0  0  0  0  0  0  0  0  0  0  # atno 17394 bound_to 11000
  139.9572  134.7514  156.0315 LP  0  0  0  0  0  0  0  0  0  0  0  0  # atno 17395 bound_to 11000

$$$$
