AV-unprocessed.smi:2026|AV-procd|sdf|8207|dock10
  -GOLD-   2272010463D 1   1.00000     0.00000
 Structure written by MMmdl.
 46 48  0  0  0  0  0  0  0  0  3 V2000
  145.2064  131.7248  150.3051 C   0  0  0  0  0  0  0  0  0  0  0  0
  145.5279  132.9941  151.0752 C   0  0  0  0  0  0  0  0  0  0  0  0
  145.0207  134.2228  150.5933 C   0  0  0  0  0  0  0  0  0  0  0  0
  145.3330  135.3664  151.3195 C   0  0  0  0  0  0  0  0  0  0  0  0
  144.9928  136.7062  151.1153 N   0  3  0  0  0  0  0  0  0  0  0  0
  145.5373  137.4698  152.1039 C   0  0  0  0  0  0  0  0  0  0  0  0
  146.2191  136.6362  152.9343 N   0  0  0  0  0  0  0  0  0  0  0  0
  146.9849  136.9215  154.1529 C   0  0  0  0  0  0  0  0  0  0  0  0
  147.4931  138.3776  154.1961 C   0  0  2  0  0  0  0  0  0  0  0  0
  148.4017  138.5857  153.1337 O   0  0  0  0  0  0  0  0  0  0  0  0
  148.1861  138.7558  155.5207 C   0  0  0  0  0  0  0  0  0  0  0  0
  149.5728  138.2747  155.5825 N   0  0  0  0  0  0  0  0  0  0  0  0
  149.9474  136.9851  155.6882 C   0  0  0  0  0  0  0  0  0  0  0  0
  149.1325  136.0644  155.7387 O   0  0  0  0  0  0  0  0  0  0  0  0
  151.2956  136.8733  155.7402 N   0  5  0  0  0  0  0  0  0  0  0  0
  151.8792  138.1972  155.6648 C   0  0  0  0  0  0  0  0  0  0  0  0
  152.6824  138.4954  156.9451 C   0  0  0  0  0  0  0  0  0  0  0  0
  152.7565  138.3216  154.4050 C   0  0  0  0  0  0  0  0  0  0  0  0
  150.6445  139.0747  155.5654 C   0  0  0  0  0  0  0  0  0  0  0  0
  150.6640  140.3043  155.4967 O   0  0  0  0  0  0  0  0  0  0  0  0
  146.1197  135.3160  152.4856 C   0  0  0  0  0  0  0  0  0  0  0  0
  146.6250  134.1150  152.9759 C   0  0  0  0  0  0  0  0  0  0  0  0
  146.3187  132.9410  152.2528 C   0  0  0  0  0  0  0  0  0  0  0  0
  146.8564  131.6158  152.7655 C   0  0  0  0  0  0  0  0  0  0  0  0
  144.6210  131.9381  149.4102 H   0  0  0  0  0  0  0  0  0  0  0  0
  144.6298  131.0381  150.9251 H   0  0  0  0  0  0  0  0  0  0  0  0
  146.1226  131.2238  149.9918 H   0  0  0  0  0  0  0  0  0  0  0  0
  144.4157  134.2700  149.6994 H   0  0  0  0  0  0  0  0  0  0  0  0
  145.4424  138.5406  152.2119 H   0  0  0  0  0  0  0  0  0  0  0  0
  146.3436  136.6947  155.0048 H   0  0  0  0  0  0  0  0  0  0  0  0
  147.8192  136.2204  154.2007 H   0  0  0  0  0  0  0  0  0  0  0  0
  146.6572  139.0578  154.0316 H   0  0  0  0  0  0  0  0  0  0  0  0
  148.4054  137.8137  152.5888 H   0  0  0  0  0  0  0  0  0  0  0  0
  148.1424  139.8361  155.6678 H   0  0  0  0  0  0  0  0  0  0  0  0
  147.6353  138.3259  156.3593 H   0  0  0  0  0  0  0  0  0  0  0  0
  153.0949  139.5047  156.9285 H   0  0  0  0  0  0  0  0  0  0  0  0
  153.5183  137.8037  157.0541 H   0  0  0  0  0  0  0  0  0  0  0  0
  152.0667  138.4043  157.8406 H   0  0  0  0  0  0  0  0  0  0  0  0
  153.2009  139.3148  154.3298 H   0  0  0  0  0  0  0  0  0  0  0  0
  152.1836  138.1482  153.4927 H   0  0  0  0  0  0  0  0  0  0  0  0
  153.5732  137.5991  154.4215 H   0  0  0  0  0  0  0  0  0  0  0  0
  147.2234  134.0780  153.8744 H   0  0  0  0  0  0  0  0  0  0  0  0
  147.3955  131.7408  153.7049 H   0  0  0  0  0  0  0  0  0  0  0  0
  147.5437  131.1767  152.0423 H   0  0  0  0  0  0  0  0  0  0  0  0
  146.0424  130.9127  152.9432 H   0  0  0  0  0  0  0  0  0  0  0  0
  144.4296  137.0750  150.3599 H   0  0  0  0  0  0  0  0  0  0  0  0
  1  2  1  0  0  0  0
  1 25  1  0  0  0  0
  1 26  1  0  0  0  0
  1 27  1  0  0  0  0
  2 23  1  0  0  0  0
  2  3  2  0  0  0  0
  3  4  1  0  0  0  0
  3 28  1  0  0  0  0
  4 21  2  0  0  0  0
  4  5  1  0  0  0  0
  5  6  2  0  0  0  0
  5 46  1  0  0  0  0
  6  7  1  0  0  0  0
  6 29  1  0  0  0  0
  7  8  1  0  0  0  0
  7 21  1  0  0  0  0
  8  9  1  0  0  0  0
  8 30  1  0  0  0  0
  8 31  1  0  0  0  0
  9 10  1  0  0  0  0
  9 11  1  0  0  0  0
  9 32  1  0  0  0  0
 10 33  1  0  0  0  0
 11 12  1  0  0  0  0
 11 34  1  0  0  0  0
 11 35  1  0  0  0  0
 12 19  1  0  0  0  0
 12 13  1  0  0  0  0
 13 14  2  0  0  0  0
 13 15  1  0  0  0  0
 15 16  1  0  0  0  0
 16 17  1  0  0  0  0
 16 18  1  0  0  0  0
 16 19  1  0  0  0  0
 17 36  1  0  0  0  0
 17 37  1  0  0  0  0
 17 38  1  0  0  0  0
 18 39  1  0  0  0  0
 18 40  1  0  0  0  0
 18 41  1  0  0  0  0
 19 20  2  0  0  0  0
 21 22  1  0  0  0  0
 22 23  2  0  0  0  0
 22 42  1  0  0  0  0
 23 24  1  0  0  0  0
 24 43  1  0  0  0  0
 24 44  1  0  0  0  0
 24 45  1  0  0  0  0
M  CHG  1   5   1
M  CHG  1  15  -1
M  END
> <s_m_source_file>
AV-unprocessed.smi

> <i_m_source_file_index>
2026

> <i_lp_mmshare_version>
43012

> <i_f3d_flags>
0

> <s_epik_input>
W0NIM11jKFtjSF0xKWMoW0NIM10pW2NIXWMoYzEyKW4oW2NIXW4yKVtDSDJdW0NASF0oW09IXSlbQ0gyXU4oQzM9TylDKD1PKVtOSF1DMyhbQ0gzXSlbQ0gzXQ==

> <s_epik_cmdline>
J2VwaWtfcHl0aG9uJywgJy1waCcsICc3LjAnLCAnLXRuJywgJzgnLCAnLW1hJywgJzIwMCcsICctbWV0YWxfYmluZGluZycsICctaW1hZScsICc8aW5maWxlLm1hZT4nLCAnLW9tYWUnLCAnPG91dGZpbGUubWFlPic=

> <r_lp_tautomer_probability>
1

> <r_epik_Ionization_Penalty>
6.70784

> <r_epik_Ionization_Penalty_Charging>
6.70784

> <r_epik_Ionization_Penalty_Neutral>
1.13852e-06

> <r_epik_State_Penalty>
6.78089

> <r_epik_Charging_Adjusted_Penalty>
13.4887

> <i_epik_Tot_Q>
0

> <i_epik_Tot_abs_Q>
2

> <r_epik_Metal_State_Penalty>
2.84685

> <b_epik_Metal_Only>
1

> <s_lp_Force_Field>
OPLS_2005

> <r_lp_Energy>
17.8482

> <b_lp_Chiralities_Consistent>
1

> <s_lp_Variant>
AV-unprocessed.smi:2026-7

> <Gold.Version>
5.8.1

> <Gold.Id.Protein>
6NUR|6NUR_protein|mol2

> <Gold.PLP.Fitness>
45.7662

> <Gold.PLP.PLP>
-29.4763

> <Gold.PLP.part.hbond>
-4.8618

> <Gold.PLP.part.metal>
0.0000

> <Gold.PLP.part.buried>
-2.9810

> <Gold.PLP.part.nonpolar>
-21.7493

> <Gold.PLP.part.repulsive>
0.2845

> <Gold.PLP.ligand.clash>
0.0000

> <Gold.PLP.ligand.torsion>
0.5930

> <Gold.PLP.Chemscore.Hbond>
4.8160

> <Gold.PLP.Chemscore.CHOScore>
1.0000

> <Gold.PLP.Chemscore.Metal>
0.0000

> <Gold.Chemscore.Hbonds>
donor molecule, donor type, donor heavy atom, donor atom, acceptor molecule, acceptor atom, score
      L1  H     5    46       P1 10171  0.78
      L1  H    10    33       P1  7948  1.00
      P1  H  7989  7998       L1    20  0.36
      P1  H 10752 10763       L1    15  0.23
      L1  C     6    29       P1 10171  0.03
      L1  C     6    29       P1 10175  0.79

> <Gold.PLP.Chemscore.Internal.Correction>
0.0279

> <Gold.Rescore>
     Score         DG    S(hbond)    S(metal)    S(lipo)     H(rot)  DE(clash)    DE(int)     intcor
     13.64     -18.05       3.09        0.00      72.64       2.44       2.52       1.90       ----

> <Gold.Chemscore.Fitness>
13.6358

> <Gold.Chemscore.DG>
-18.0517

> <Gold.Chemscore.ZeroCoef>
-5.4800

> <Gold.Chemscore.Hbond>
3.0861

> <Gold.Chemscore.Metal>
0.0000

> <Gold.Chemscore.Lipo>
72.6440

> <Gold.Chemscore.Internal_Hbond>
0.0000

> <Gold.Chemscore.DEClash>
2.5187

> <Gold.Chemscore.DEInternal>
1.8972

> <Gold.Chemscore.Rot>
2.4357

> <Gold.Chemscore.Internal.Correction>
   9.000000E+99

> <Gold.Chemscore.Hbonds>
donor molecule, donor type, donor heavy atom, donor atom, acceptor molecule, acceptor atom, score
      L1  H     5    46       P1 10171  0.80
      L1  H    10    33       P1  7948  1.00
      P1  H  7989  7998       L1    20  0.22
      P1  H 10752 10763       L1    15  0.04

> <Gold.Chemscore.Hbond.Weighted>
-10.3077

> <Gold.Chemscore.Metal.Weighted>
-0.0000

> <Gold.Chemscore.Lipo.Weighted>
-8.4993

> <Gold.Chemscore.Internal_Hbond.Weighted>
0.0000

> <Gold.Chemscore.DEClash.Weighted>
2.5187

> <Gold.Chemscore.DEInternal.Weighted>
1.8972

> <Gold.Chemscore.Rot.Weighted>
6.2353

> <Gold.Chemscore.Internal.Correction.Weighted>
   9.000000E+99

> <Gold.Protein.RotatedTorsions>
[ 6907 6896 6895 6894 ] final -139.51 input  -60.11 | X-H torsion
[ 7974 7965 7964 7962 ] final  -36.41 input  175.53 | X-H torsion
[ 8008 7997 7996 7995 ] final  -26.51 input   59.86 | X-H torsion
[ 10167 10162 10161 10158 ] final  137.70 input  -65.29 | X-H torsion
[ 10718 10713 10712 10709 ] final  -84.12 input   66.30 | X-H torsion
[ 10763 10752 10751 10750 ] final   56.84 input  -60.55 | X-H torsion
[ 11005 11000 10999 10996 ] final -179.30 input  -57.11 | X-H torsion

> <Gold.Protein.ActiveResidues>
 VAL166  LYS551  ARG553  GLY616  TRP617  ASP618  TYR619  PRO620  LYS621  CYS622 
 ASP623  PHE694  ASN695  SER759  ASP760  ASP761  ALA762  ILE779  LEU786  VAL792 
 PHE793  MET794  SER795  GLU796  ALA797  LYS798  CYS799  TRP800  GLU811  SER814 

> <Gold.Protein.RotatedAtoms>
  151.0487  133.5643  159.2644 H   0  0  0  0  0  0  0  0  0  0  0  0  # atno 6907 bound_to 6896
  151.2662  135.0669  159.9127 H   0  0  0  0  0  0  0  0  0  0  0  0  # atno 6908 bound_to 6896
  152.5378  134.0224  159.8042 H   0  0  0  0  0  0  0  0  0  0  0  0  # atno 6909 bound_to 6896
  146.0664  140.6275  142.8973 H   0  0  0  0  0  0  0  0  0  0  0  0  # atno 7974 bound_to 7965
  154.4422  140.1897  156.0786 H   0  0  0  0  0  0  0  0  0  0  0  0  # atno 8008 bound_to 7997
  156.0456  140.3314  155.7266 H   0  0  0  0  0  0  0  0  0  0  0  0  # atno 8009 bound_to 7997
  155.5634  140.0606  157.2814 H   0  0  0  0  0  0  0  0  0  0  0  0  # atno 8010 bound_to 7997
  139.5135  144.6395  151.5606 H   0  0  0  0  0  0  0  0  0  0  0  0  # atno 10167 bound_to 10162
  156.0010  130.4687  150.4362 H   0  0  0  0  0  0  0  0  0  0  0  0  # atno 10718 bound_to 10713
  152.9839  135.5662  154.5293 H   0  0  0  0  0  0  0  0  0  0  0  0  # atno 10763 bound_to 10752
  154.4768  135.2787  155.1603 H   0  0  0  0  0  0  0  0  0  0  0  0  # atno 10764 bound_to 10752
  154.3128  135.6285  153.5526 H   0  0  0  0  0  0  0  0  0  0  0  0  # atno 10765 bound_to 10752
  140.4202  134.6612  157.4660 H   0  0  0  0  0  0  0  0  0  0  0  0  # atno 11005 bound_to 11000
  144.7205  140.4357  143.7012 LP  0  0  0  0  0  0  0  0  0  0  0  0  # atno 17320 bound_to 7965
  145.6469  139.1559  143.2884 LP  0  0  0  0  0  0  0  0  0  0  0  0  # atno 17321 bound_to 7965
  140.6157  143.9353  150.6486 LP  0  0  0  0  0  0  0  0  0  0  0  0  # atno 17342 bound_to 10162
  140.2610  143.3523  152.1322 LP  0  0  0  0  0  0  0  0  0  0  0  0  # atno 17343 bound_to 10162
  157.2407  131.0524  151.2438 LP  0  0  0  0  0  0  0  0  0  0  0  0  # atno 17370 bound_to 10713
  157.3623  130.7138  149.6510 LP  0  0  0  0  0  0  0  0  0  0  0  0  # atno 17371 bound_to 10713
  140.0205  134.6554  155.9246 LP  0  0  0  0  0  0  0  0  0  0  0  0  # atno 17394 bound_to 11000
  141.1787  133.6543  156.4931 LP  0  0  0  0  0  0  0  0  0  0  0  0  # atno 17395 bound_to 11000

$$$$
