AV-unprocessed.smi:702|AV-procd|sdf|3416|dock6
  -GOLD-   22720 0403D 1   1.00000     0.00000
 Structure written by MMmdl.
 50 52  0  0  0  0  0  0  0  0  2 V2000
  146.1261  137.1572  155.4161 C   0  0  0  0  0  0  0  0  0  0  0  0
  146.5513  137.8323  154.0922 C   0  0  2  0  0  0  0  0  0  0  0  0
  146.7730  136.7824  153.0926 N   0  0  0  0  0  0  0  0  0  0  0  0
  145.8416  135.9940  152.5356 C   0  0  0  0  0  0  0  0  0  0  0  0
  144.6436  136.0701  152.8015 O   0  0  0  0  0  0  0  0  0  0  0  0
  146.3987  135.1362  151.6629 N   0  0  0  0  0  0  0  0  0  0  0  0
  145.7854  134.1515  150.8383 C   0  0  0  0  0  0  0  0  0  0  0  0
  146.5617  133.0250  150.4945 C   0  0  0  0  0  0  0  0  0  0  0  0
  145.9946  132.0303  149.6734 C   0  0  0  0  0  0  0  0  0  0  0  0
  144.7373  132.0975  149.1892 N   0  0  0  0  0  0  0  0  0  0  0  0
  143.9958  133.1771  149.5140 C   0  0  0  0  0  0  0  0  0  0  0  0
  144.4664  134.2281  150.3268 C   0  0  0  0  0  0  0  0  0  0  0  0
  147.7877  138.8078  154.1702 C   0  0  0  0  0  0  0  0  0  0  0  0
  149.0708  138.0067  154.2495 N   0  3  0  0  0  0  0  0  0  0  0  0
  150.3243  138.8123  154.3520 C   0  0  0  0  0  0  0  0  0  0  0  0
  151.5574  137.9098  154.1870 C   0  0  0  0  0  0  0  0  0  0  0  0
  151.5478  136.9097  155.1951 O   0  0  0  0  0  0  0  0  0  0  0  0
  150.4004  136.0785  155.0987 C   0  0  0  0  0  0  0  0  0  0  0  0
  149.1256  136.9216  155.2751 C   0  0  0  0  0  0  0  0  0  0  0  0
  147.8303  139.7940  152.9652 C   0  0  0  0  0  0  0  0  0  0  0  0
  147.3807  141.1576  153.4931 C   0  0  0  0  0  0  0  0  0  0  0  0
  147.8748  141.1687  154.9345 C   0  0  0  0  0  0  0  0  0  0  0  0
  147.6125  139.7406  155.4130 C   0  0  0  0  0  0  0  0  0  0  0  0
  145.8790  137.8857  156.1870 H   0  0  0  0  0  0  0  0  0  0  0  0
  146.8825  136.4887  155.8238 H   0  0  0  0  0  0  0  0  0  0  0  0
  145.2293  136.5561  155.2618 H   0  0  0  0  0  0  0  0  0  0  0  0
  145.6638  138.3962  153.8145 H   0  0  0  0  0  0  0  0  0  0  0  0
  147.7315  136.6368  152.8100 H   0  0  0  0  0  0  0  0  0  0  0  0
  147.4041  135.1835  151.5863 H   0  0  0  0  0  0  0  0  0  0  0  0
  147.5755  132.9180  150.8523 H   0  0  0  0  0  0  0  0  0  0  0  0
  146.5678  131.1576  149.3974 H   0  0  0  0  0  0  0  0  0  0  0  0
  142.9944  133.2067  149.1105 H   0  0  0  0  0  0  0  0  0  0  0  0
  143.8073  135.0566  150.5287 H   0  0  0  0  0  0  0  0  0  0  0  0
  150.3859  139.5925  153.5995 H   0  0  0  0  0  0  0  0  0  0  0  0
  150.3774  139.3155  155.3177 H   0  0  0  0  0  0  0  0  0  0  0  0
  151.5784  137.4520  153.1965 H   0  0  0  0  0  0  0  0  0  0  0  0
  152.4696  138.4986  154.2850 H   0  0  0  0  0  0  0  0  0  0  0  0
  150.3927  135.5568  154.1401 H   0  0  0  0  0  0  0  0  0  0  0  0
  150.4549  135.3150  155.8748 H   0  0  0  0  0  0  0  0  0  0  0  0
  149.1081  137.3468  156.2787 H   0  0  0  0  0  0  0  0  0  0  0  0
  148.2838  136.2372  155.2160 H   0  0  0  0  0  0  0  0  0  0  0  0
  148.8425  139.9209  152.5848 H   0  0  0  0  0  0  0  0  0  0  0  0
  147.2358  139.4616  152.1142 H   0  0  0  0  0  0  0  0  0  0  0  0
  147.7799  141.9859  152.9069 H   0  0  0  0  0  0  0  0  0  0  0  0
  146.2926  141.2302  153.4730 H   0  0  0  0  0  0  0  0  0  0  0  0
  148.9433  141.3857  154.9600 H   0  0  0  0  0  0  0  0  0  0  0  0
  147.3678  141.9159  155.5457 H   0  0  0  0  0  0  0  0  0  0  0  0
  146.5906  139.7211  155.7845 H   0  0  0  0  0  0  0  0  0  0  0  0
  148.2014  139.4594  156.2843 H   0  0  0  0  0  0  0  0  0  0  0  0
  149.1268  137.5314  153.3599 H   0  0  0  0  0  0  0  0  0  0  0  0
  1  2  1  0  0  0  0
  1 24  1  0  0  0  0
  1 25  1  0  0  0  0
  1 26  1  0  0  0  0
  2  3  1  0  0  0  0
  2 13  1  0  0  0  0
  2 27  1  0  0  0  0
  3  4  1  0  0  0  0
  3 28  1  0  0  0  0
  4  5  2  0  0  0  0
  4  6  1  0  0  0  0
  6  7  1  0  0  0  0
  6 29  1  0  0  0  0
  7 12  1  0  0  0  0
  7  8  2  0  0  0  0
  8  9  1  0  0  0  0
  8 30  1  0  0  0  0
  9 10  2  0  0  0  0
  9 31  1  0  0  0  0
 10 11  1  0  0  0  0
 11 12  2  0  0  0  0
 11 32  1  0  0  0  0
 12 33  1  0  0  0  0
 13 23  1  0  0  0  0
 13 14  1  0  0  0  0
 13 20  1  0  0  0  0
 14 19  1  0  0  0  0
 14 15  1  0  0  0  0
 14 50  1  0  0  0  0
 15 16  1  0  0  0  0
 15 34  1  0  0  0  0
 15 35  1  0  0  0  0
 16 17  1  0  0  0  0
 16 36  1  0  0  0  0
 16 37  1  0  0  0  0
 17 18  1  0  0  0  0
 18 19  1  0  0  0  0
 18 38  1  0  0  0  0
 18 39  1  0  0  0  0
 19 40  1  0  0  0  0
 19 41  1  0  0  0  0
 20 21  1  0  0  0  0
 20 42  1  0  0  0  0
 20 43  1  0  0  0  0
 21 22  1  0  0  0  0
 21 44  1  0  0  0  0
 21 45  1  0  0  0  0
 22 23  1  0  0  0  0
 22 46  1  0  0  0  0
 22 47  1  0  0  0  0
 23 48  1  0  0  0  0
 23 49  1  0  0  0  0
M  CHG  1  14   1
M  END
> <s_m_source_file>
AV-unprocessed.smi

> <i_m_source_file_index>
702

> <i_lp_mmshare_version>
43012

> <i_f3d_flags>
0

> <s_epik_input>
W0NIMl0xW0NIMl1PW0NIMl1bQ0gyXU4xQzIoW0NIMl1bQ0gyXVtDSDJdW0NIMl0yKVtDQEhdKFtDSDNdKVtOSF1DKD1PKVtOSF1jM1tjSF1bY0hdbltjSF1bY0hdMw==

> <s_epik_cmdline>
J2VwaWtfcHl0aG9uJywgJy1waCcsICc3LjAnLCAnLXRuJywgJzgnLCAnLW1hJywgJzIwMCcsICctbWV0YWxfYmluZGluZycsICctaW1hZScsICc8aW5maWxlLm1hZT4nLCAnLW9tYWUnLCAnPG91dGZpbGUubWFlPic=

> <r_epik_Ionization_Penalty>
0.42559

> <r_epik_Ionization_Penalty_Charging>
0.324387

> <r_epik_Ionization_Penalty_Neutral>
0.101203

> <r_epik_State_Penalty>
0.407162

> <r_epik_Charging_Adjusted_Penalty>
0.731549

> <i_epik_Tot_Q>
1

> <i_epik_Tot_abs_Q>
1

> <r_epik_Metal_State_Penalty>
0.398289

> <b_epik_Metal_Only>
0

> <s_lp_Force_Field>
OPLS_2005

> <r_lp_Energy>
61.5271

> <b_lp_Chiralities_Consistent>
1

> <s_lp_Variant>
AV-unprocessed.smi:702-1

> <Gold.Version>
5.8.1

> <Gold.Id.Protein>
6NUR|6NUR_protein|mol2

> <Gold.PLP.Fitness>
54.0337

> <Gold.PLP.PLP>
-35.0564

> <Gold.PLP.part.hbond>
-4.5783

> <Gold.PLP.part.metal>
0.0000

> <Gold.PLP.part.buried>
-0.4223

> <Gold.PLP.part.nonpolar>
-30.1039

> <Gold.PLP.part.repulsive>
0.4733

> <Gold.PLP.ligand.clash>
0.0000

> <Gold.PLP.ligand.torsion>
0.7216

> <Gold.PLP.Chemscore.Hbond>
4.9600

> <Gold.PLP.Chemscore.CHOScore>
1.7902

> <Gold.PLP.Chemscore.Metal>
0.0000

> <Gold.Chemscore.Hbonds>
donor molecule, donor type, donor heavy atom, donor atom, acceptor molecule, acceptor atom, score
      L1  H     3    28       P1  7948  1.00
      L1  H     6    29       P1  7948  0.96
      L1  H    14    50       P1  7948  2.00
      P1  H 10752 10763       L1    17  0.95
      L1  C     9    31       P1 10747  0.77
      L1  C    11    32       P1 10186  1.00

> <Gold.PLP.Chemscore.Internal.Correction>
0.1698

> <Gold.Rescore>
     Score         DG    S(hbond)    S(metal)    S(lipo)     H(rot)  DE(clash)    DE(int)     intcor
     21.48     -24.17       3.29        0.00      97.49       1.45       1.79       0.90       ----

> <Gold.Chemscore.Fitness>
21.4819

> <Gold.Chemscore.DG>
-24.1746

> <Gold.Chemscore.ZeroCoef>
-5.4800

> <Gold.Chemscore.Hbond>
3.2937

> <Gold.Chemscore.Metal>
0.0000

> <Gold.Chemscore.Lipo>
97.4929

> <Gold.Chemscore.Internal_Hbond>
0.0000

> <Gold.Chemscore.DEClash>
1.7949

> <Gold.Chemscore.DEInternal>
0.8978

> <Gold.Chemscore.Rot>
1.4504

> <Gold.Chemscore.Internal.Correction>
   9.000000E+99

> <Gold.Chemscore.Hbonds>
donor molecule, donor type, donor heavy atom, donor atom, acceptor molecule, acceptor atom, score
      L1  H     3    28       P1  7948  0.97
      L1  H     6    29       P1  7948  0.79
      L1  H    14    50       P1  7948  0.98
      P1  H 10752 10763       L1    17  0.09

> <Gold.Chemscore.Hbond.Weighted>
-11.0009

> <Gold.Chemscore.Metal.Weighted>
-0.0000

> <Gold.Chemscore.Lipo.Weighted>
-11.4067

> <Gold.Chemscore.Internal_Hbond.Weighted>
0.0000

> <Gold.Chemscore.DEClash.Weighted>
1.7949

> <Gold.Chemscore.DEInternal.Weighted>
0.8978

> <Gold.Chemscore.Rot.Weighted>
3.7129

> <Gold.Chemscore.Internal.Correction.Weighted>
   9.000000E+99

> <Gold.Protein.RotatedTorsions>
[ 6907 6896 6895 6894 ] final   76.29 input  -60.11 | X-H torsion
[ 7974 7965 7964 7962 ] final  156.23 input  175.53 | X-H torsion
[ 8008 7997 7996 7995 ] final -152.72 input   59.86 | X-H torsion
[ 10167 10162 10161 10158 ] final  111.59 input  -65.29 | X-H torsion
[ 10718 10713 10712 10709 ] final  -77.41 input   66.30 | X-H torsion
[ 10763 10752 10751 10750 ] final   59.30 input  -60.55 | X-H torsion
[ 11005 11000 10999 10996 ] final   35.07 input  -57.11 | X-H torsion

> <Gold.Protein.ActiveResidues>
 VAL166  LYS551  ARG553  GLY616  TRP617  ASP618  TYR619  PRO620  LYS621  CYS622 
 ASP623  PHE694  ASN695  SER759  ASP760  ASP761  ALA762  ILE779  LEU786  VAL792 
 PHE793  MET794  SER795  GLU796  ALA797  LYS798  CYS799  TRP800  GLU811  SER814 

> <Gold.Protein.RotatedAtoms>
  152.5066  134.3991  159.9410 H   0  0  0  0  0  0  0  0  0  0  0  0  # atno 6907 bound_to 6896
  151.3955  133.3768  159.2733 H   0  0  0  0  0  0  0  0  0  0  0  0  # atno 6908 bound_to 6896
  150.9401  134.8831  159.7665 H   0  0  0  0  0  0  0  0  0  0  0  0  # atno 6909 bound_to 6896
  144.7976  139.7175  143.6195 H   0  0  0  0  0  0  0  0  0  0  0  0  # atno 7974 bound_to 7965
  155.6595  140.0721  157.2559 H   0  0  0  0  0  0  0  0  0  0  0  0  # atno 8008 bound_to 7997
  154.4145  140.1719  156.1812 H   0  0  0  0  0  0  0  0  0  0  0  0  # atno 8009 bound_to 7997
  155.9709  140.3362  155.6578 H   0  0  0  0  0  0  0  0  0  0  0  0  # atno 8010 bound_to 7997
  139.6600  144.7129  151.1884 H   0  0  0  0  0  0  0  0  0  0  0  0  # atno 10167 bound_to 10162
  156.0146  130.4490  150.3340 H   0  0  0  0  0  0  0  0  0  0  0  0  # atno 10718 bound_to 10713
  152.9891  135.5576  154.5691 H   0  0  0  0  0  0  0  0  0  0  0  0  # atno 10763 bound_to 10752
  154.5095  135.2801  155.1356 H   0  0  0  0  0  0  0  0  0  0  0  0  # atno 10764 bound_to 10752
  154.2754  135.6355  153.5379 H   0  0  0  0  0  0  0  0  0  0  0  0  # atno 10765 bound_to 10752
  140.2464  134.3354  155.7906 H   0  0  0  0  0  0  0  0  0  0  0  0  # atno 11005 bound_to 11000
  146.2248  139.5703  142.9594 LP  0  0  0  0  0  0  0  0  0  0  0  0  # atno 17320 bound_to 7965
  145.5635  141.0402  143.2213 LP  0  0  0  0  0  0  0  0  0  0  0  0  # atno 17321 bound_to 7965
  140.7576  143.6010  150.8699 LP  0  0  0  0  0  0  0  0  0  0  0  0  # atno 17342 bound_to 10162
  139.9667  143.6103  152.2986 LP  0  0  0  0  0  0  0  0  0  0  0  0  # atno 17343 bound_to 10162
  157.1438  131.0303  151.2916 LP  0  0  0  0  0  0  0  0  0  0  0  0  # atno 17370 bound_to 10713
  157.4450  130.7565  149.7101 LP  0  0  0  0  0  0  0  0  0  0  0  0  # atno 17371 bound_to 10713
  141.2206  133.7328  156.8968 LP  0  0  0  0  0  0  0  0  0  0  0  0  # atno 17394 bound_to 11000
  140.1601  134.9171  157.2704 LP  0  0  0  0  0  0  0  0  0  0  0  0  # atno 17395 bound_to 11000

$$$$
