AV-unprocessed.smi:1432|AV-procd|sdf|5831|dock10
  -GOLD-   22720 5493D 1   1.00000     0.00000
 Structure written by MMmdl.
 47 48  0  0  0  0  0  0  0  0  2 V2000
  148.8229  132.8739  153.5006 C   0  0  0  0  0  0  0  0  0  0  0  0
  147.4392  133.5002  153.2343 C   0  0  2  0  0  0  0  0  0  0  0  0
  147.0140  133.1820  151.7837 C   0  0  0  0  0  0  0  0  0  0  0  0
  145.6536  133.7939  151.4358 C   0  0  0  0  0  0  0  0  0  0  0  0
  145.6926  135.3013  151.6930 C   0  0  0  0  0  0  0  0  0  0  0  0
  146.1000  135.5870  153.1451 C   0  0  0  0  0  0  0  0  0  0  0  0
  147.4146  134.9766  153.4852 N   0  3  1  0  0  0  0  0  0  0  0  0
  147.8581  135.3732  154.8499 C   0  0  0  0  0  0  0  0  0  0  0  0
  147.1204  134.5717  155.9322 C   0  0  0  0  0  0  0  0  0  0  0  0
  147.2037  135.2528  157.2159 N   0  0  0  0  0  0  0  0  0  0  0  0
  148.3431  135.6907  157.7755 C   0  0  0  0  0  0  0  0  0  0  0  0
  149.4388  135.5644  157.2310 O   0  0  0  0  0  0  0  0  0  0  0  0
  148.2666  136.3697  159.1544 C   0  0  0  0  0  0  0  0  0  0  0  0
  147.8628  135.4848  160.2625 N   0  0  0  0  0  0  0  0  0  0  0  0
  147.7329  134.1125  159.9719 C   0  0  0  0  0  0  0  0  0  0  0  0
  147.3634  133.2003  160.8911 C   0  0  0  0  0  0  0  0  0  0  0  0
  147.2953  131.7178  160.5588 C   0  0  0  0  0  0  0  0  0  0  0  0
  146.3866  131.4765  159.6138 F   0  0  0  0  0  0  0  0  0  0  0  0
  148.4792  131.2973  160.1158 F   0  0  0  0  0  0  0  0  0  0  0  0
  146.9773  131.0012  161.6376 F   0  0  0  0  0  0  0  0  0  0  0  0
  147.1237  133.6964  162.2323 C   0  0  0  0  0  0  0  0  0  0  0  0
  147.2576  135.0036  162.5306 C   0  0  0  0  0  0  0  0  0  0  0  0
  147.6499  135.9850  161.5168 C   0  0  0  0  0  0  0  0  0  0  0  0
  147.7881  137.1794  161.7800 O   0  0  0  0  0  0  0  0  0  0  0  0
  148.8176  131.8096  153.2638 H   0  0  0  0  0  0  0  0  0  0  0  0
  149.1260  132.9578  154.5437 H   0  0  0  0  0  0  0  0  0  0  0  0
  149.5945  133.3405  152.8873 H   0  0  0  0  0  0  0  0  0  0  0  0
  146.7194  133.0353  153.9105 H   0  0  0  0  0  0  0  0  0  0  0  0
  147.7662  133.5577  151.0881 H   0  0  0  0  0  0  0  0  0  0  0  0
  146.9722  132.1023  151.6348 H   0  0  0  0  0  0  0  0  0  0  0  0
  145.4052  133.5943  150.3930 H   0  0  0  0  0  0  0  0  0  0  0  0
  144.8715  133.3318  152.0397 H   0  0  0  0  0  0  0  0  0  0  0  0
  146.3981  135.7766  151.0101 H   0  0  0  0  0  0  0  0  0  0  0  0
  144.7161  135.7401  151.4861 H   0  0  0  0  0  0  0  0  0  0  0  0
  146.1520  136.6673  153.2892 H   0  0  0  0  0  0  0  0  0  0  0  0
  145.3365  135.2113  153.8282 H   0  0  0  0  0  0  0  0  0  0  0  0
  148.9278  135.1933  154.9701 H   0  0  0  0  0  0  0  0  0  0  0  0
  147.7341  136.4462  155.0025 H   0  0  0  0  0  0  0  0  0  0  0  0
  146.0694  134.4399  155.6752 H   0  0  0  0  0  0  0  0  0  0  0  0
  147.5577  133.5750  156.0139 H   0  0  0  0  0  0  0  0  0  0  0  0
  146.3414  135.3917  157.7225 H   0  0  0  0  0  0  0  0  0  0  0  0
  149.2341  136.8271  159.3698 H   0  0  0  0  0  0  0  0  0  0  0  0
  147.5741  137.2091  159.0765 H   0  0  0  0  0  0  0  0  0  0  0  0
  147.9650  133.8456  158.9508 H   0  0  0  0  0  0  0  0  0  0  0  0
  146.8268  133.0102  163.0119 H   0  0  0  0  0  0  0  0  0  0  0  0
  147.0688  135.3381  163.5403 H   0  0  0  0  0  0  0  0  0  0  0  0
  148.0800  135.3851  152.8443 H   0  0  0  0  0  0  0  0  0  0  0  0
  1  2  1  0  0  0  0
  1 25  1  0  0  0  0
  1 26  1  0  0  0  0
  1 27  1  0  0  0  0
  2  7  1  0  0  0  0
  2  3  1  0  0  0  0
  2 28  1  0  0  0  0
  3  4  1  0  0  0  0
  3 29  1  0  0  0  0
  3 30  1  0  0  0  0
  4  5  1  0  0  0  0
  4 31  1  0  0  0  0
  4 32  1  0  0  0  0
  5  6  1  0  0  0  0
  5 33  1  0  0  0  0
  5 34  1  0  0  0  0
  6  7  1  0  0  0  0
  6 35  1  0  0  0  0
  6 36  1  0  0  0  0
  7  8  1  0  0  0  0
  7 47  1  0  0  0  0
  8  9  1  0  0  0  0
  8 37  1  0  0  0  0
  8 38  1  0  0  0  0
  9 10  1  0  0  0  0
  9 39  1  0  0  0  0
  9 40  1  0  0  0  0
 10 11  1  0  0  0  0
 10 41  1  0  0  0  0
 11 12  2  0  0  0  0
 11 13  1  0  0  0  0
 13 14  1  0  0  0  0
 13 42  1  0  0  0  0
 13 43  1  0  0  0  0
 14 23  1  0  0  0  0
 14 15  1  0  0  0  0
 15 16  2  0  0  0  0
 15 44  1  0  0  0  0
 16 17  1  0  0  0  0
 16 21  1  0  0  0  0
 17 18  1  0  0  0  0
 17 19  1  0  0  0  0
 17 20  1  0  0  0  0
 21 22  2  0  0  0  0
 21 45  1  0  0  0  0
 22 23  1  0  0  0  0
 22 46  1  0  0  0  0
 23 24  2  0  0  0  0
M  CHG  1   7   1
M  END
> <s_m_source_file>
AV-unprocessed.smi

> <i_m_source_file_index>
1432

> <i_lp_mmshare_version>
43012

> <i_f3d_flags>
0

> <s_epik_input>
W0NIM11bQ0BASF0xW0NIMl1bQ0gyXVtDSDJdW0NIMl1OMVtDSDJdW0NIMl1bTkhdQyg9TylbQ0gyXW4yW2NIXWMoQyhGKShGKUYpW2NIXVtjSF1jMj1P

> <s_epik_cmdline>
J2VwaWtfcHl0aG9uJywgJy1waCcsICc3LjAnLCAnLXRuJywgJzgnLCAnLW1hJywgJzIwMCcsICctbWV0YWxfYmluZGluZycsICctaW1hZScsICc8aW5maWxlLm1hZT4nLCAnLW9tYWUnLCAnPG91dGZpbGUubWFlPic=

> <r_lp_tautomer_probability>
1

> <r_epik_Ionization_Penalty>
0.00237222

> <r_epik_Ionization_Penalty_Charging>
0.00237213

> <r_epik_Ionization_Penalty_Neutral>
8.2065e-08

> <r_epik_State_Penalty>
0.00163922

> <r_epik_Charging_Adjusted_Penalty>
0.00401135

> <i_epik_Tot_Q>
1

> <i_epik_Tot_abs_Q>
1

> <r_epik_Metal_State_Penalty>
-0

> <b_epik_Metal_Only>
0

> <s_lp_Force_Field>
OPLS_2005

> <r_lp_Energy>
33.1317

> <b_lp_Chiralities_Consistent>
1

> <s_lp_Variant>
AV-unprocessed.smi:1432-1

> <Gold.Version>
5.8.1

> <Gold.Id.Protein>
6NUR|6NUR_protein|mol2

> <Gold.PLP.Fitness>
48.4267

> <Gold.PLP.PLP>
-37.9294

> <Gold.PLP.part.hbond>
-3.0000

> <Gold.PLP.part.metal>
0.0000

> <Gold.PLP.part.buried>
-3.3737

> <Gold.PLP.part.nonpolar>
-30.9529

> <Gold.PLP.part.repulsive>
0.0000

> <Gold.PLP.ligand.clash>
0.0000

> <Gold.PLP.ligand.torsion>
0.3214

> <Gold.PLP.Chemscore.Hbond>
3.6784

> <Gold.PLP.Chemscore.CHOScore>
0.0000

> <Gold.PLP.Chemscore.Metal>
0.0000

> <Gold.Chemscore.Hbonds>
donor molecule, donor type, donor heavy atom, donor atom, acceptor molecule, acceptor atom, score
      L1  H     7    47       P1  7948  2.00
      P1  H  6931  6943       L1    24  1.00
      P1  H  6934  6947       L1    24  0.53

> <Gold.PLP.Chemscore.Internal.Correction>
0.1051

> <Gold.Rescore>
     Score         DG    S(hbond)    S(metal)    S(lipo)     H(rot)  DE(clash)    DE(int)     intcor
     15.62     -17.40       2.75        0.00      68.78       2.08       0.01       1.76       ----

> <Gold.Chemscore.Fitness>
15.6219

> <Gold.Chemscore.DG>
-17.3968

> <Gold.Chemscore.ZeroCoef>
-5.4800

> <Gold.Chemscore.Hbond>
2.7500

> <Gold.Chemscore.Metal>
0.0000

> <Gold.Chemscore.Lipo>
68.7752

> <Gold.Chemscore.Internal_Hbond>
0.0000

> <Gold.Chemscore.DEClash>
0.0125

> <Gold.Chemscore.DEInternal>
1.7624

> <Gold.Chemscore.Rot>
2.0762

> <Gold.Chemscore.Internal.Correction>
   9.000000E+99

> <Gold.Chemscore.Hbonds>
donor molecule, donor type, donor heavy atom, donor atom, acceptor molecule, acceptor atom, score
      L1  H     7    47       P1  7948  0.94
      P1  H  6931  6943       L1    24  0.97
      P1  H  6934  6947       L1    24  0.53

> <Gold.Chemscore.Hbond.Weighted>
-9.1851

> <Gold.Chemscore.Metal.Weighted>
-0.0000

> <Gold.Chemscore.Lipo.Weighted>
-8.0467

> <Gold.Chemscore.Internal_Hbond.Weighted>
0.0000

> <Gold.Chemscore.DEClash.Weighted>
0.0125

> <Gold.Chemscore.DEInternal.Weighted>
1.7624

> <Gold.Chemscore.Rot.Weighted>
5.3150

> <Gold.Chemscore.Internal.Correction.Weighted>
   9.000000E+99

> <Gold.Protein.RotatedTorsions>
[ 6907 6896 6895 6894 ] final  -29.30 input  -60.11 | X-H torsion
[ 7974 7965 7964 7962 ] final   22.26 input  175.53 | X-H torsion
[ 8008 7997 7996 7995 ] final  133.81 input   59.86 | X-H torsion
[ 10167 10162 10161 10158 ] final -172.69 input  -65.29 | X-H torsion
[ 10718 10713 10712 10709 ] final -132.79 input   66.30 | X-H torsion
[ 10763 10752 10751 10750 ] final   73.73 input  -60.55 | X-H torsion
[ 11005 11000 10999 10996 ] final  -94.64 input  -57.11 | X-H torsion

> <Gold.Protein.ActiveResidues>
 VAL166  LYS551  ARG553  GLY616  TRP617  ASP618  TYR619  PRO620  LYS621  CYS622 
 ASP623  PHE694  ASN695  SER759  ASP760  ASP761  ALA762  ILE779  LEU786  VAL792 
 PHE793  MET794  SER795  GLU796  ALA797  LYS798  CYS799  TRP800  GLU811  SER814 

> <Gold.Protein.RotatedAtoms>
  151.1211  135.0080  159.8538 H   0  0  0  0  0  0  0  0  0  0  0  0  # atno 6907 bound_to 6896
  152.5448  134.1721  159.8611 H   0  0  0  0  0  0  0  0  0  0  0  0  # atno 6908 bound_to 6896
  151.1779  133.4698  159.2627 H   0  0  0  0  0  0  0  0  0  0  0  0  # atno 6909 bound_to 6896
  146.2036  139.7911  142.8742 H   0  0  0  0  0  0  0  0  0  0  0  0  # atno 7974 bound_to 7965
  156.2995  140.2512  156.3315 H   0  0  0  0  0  0  0  0  0  0  0  0  # atno 8008 bound_to 7997
  154.9141  140.0402  157.1981 H   0  0  0  0  0  0  0  0  0  0  0  0  # atno 8009 bound_to 7997
  154.8376  140.2886  155.5685 H   0  0  0  0  0  0  0  0  0  0  0  0  # atno 8010 bound_to 7997
  139.5730  144.1597  152.1411 H   0  0  0  0  0  0  0  0  0  0  0  0  # atno 10167 bound_to 10162
  156.2382  130.7079  151.0930 H   0  0  0  0  0  0  0  0  0  0  0  0  # atno 10718 bound_to 10713
  153.0540  135.5052  154.7937 H   0  0  0  0  0  0  0  0  0  0  0  0  # atno 10763 bound_to 10752
  154.6777  135.2963  154.9659 H   0  0  0  0  0  0  0  0  0  0  0  0  # atno 10764 bound_to 10752
  154.0455  135.6711  153.4847 H   0  0  0  0  0  0  0  0  0  0  0  0  # atno 10765 bound_to 10752
  141.1465  133.7970  157.0326 H   0  0  0  0  0  0  0  0  0  0  0  0  # atno 11005 bound_to 11000
  145.3397  141.0285  143.3399 LP  0  0  0  0  0  0  0  0  0  0  0  0  # atno 17320 bound_to 7965
  144.8741  139.4996  143.6754 LP  0  0  0  0  0  0  0  0  0  0  0  0  # atno 17321 bound_to 7965
  140.1134  144.5437  150.6910 LP  0  0  0  0  0  0  0  0  0  0  0  0  # atno 17342 bound_to 10162
  140.7014  143.2437  151.4853 LP  0  0  0  0  0  0  0  0  0  0  0  0  # atno 17343 bound_to 10162
  157.7164  131.0707  150.6311 LP  0  0  0  0  0  0  0  0  0  0  0  0  # atno 17370 bound_to 10713
  156.6383  130.4451  149.5761 LP  0  0  0  0  0  0  0  0  0  0  0  0  # atno 17371 bound_to 10713
  140.0744  134.9684  157.1521 LP  0  0  0  0  0  0  0  0  0  0  0  0  # atno 17394 bound_to 11000
  140.3665  134.2437  155.7182 LP  0  0  0  0  0  0  0  0  0  0  0  0  # atno 17395 bound_to 11000

$$$$
