AV-unprocessed.smi:1537|AV-procd|sdf|6190|dock6
  -GOLD-   22720 6353D 1   1.00000     0.00000
 Structure written by MMmdl.
 43 43  0  0  0  0  0  0  0  0  1 V2000
  143.8433  132.7876  149.1908 C   0  0  0  0  0  0  0  0  0  0  0  0
  143.4870  132.8130  150.6810 C   0  0  0  0  0  0  0  0  0  0  0  0
  144.6939  132.8370  151.5575 C   0  0  0  0  0  0  0  0  0  0  0  0
  145.1016  133.9223  152.2208 N   0  0  0  0  0  0  0  0  0  0  0  0
  146.2827  133.7042  152.9386 C   0  0  0  0  0  0  0  0  0  0  0  0
  146.8961  134.8177  153.7430 C   0  0  0  0  0  0  0  0  0  0  0  0
  146.1580  136.1486  153.5461 C   0  0  0  0  0  0  0  0  0  0  0  0
  145.0216  136.2859  153.9989 O   0  0  0  0  0  0  0  0  0  0  0  0
  146.8091  137.1277  152.8948 N   0  0  0  0  0  0  0  0  0  0  0  0
  146.2888  138.4680  152.6350 C   0  0  2  0  0  0  0  0  0  0  0  0
  146.7609  138.8937  151.2348 C   0  0  0  0  0  0  0  0  0  0  0  0
  146.8589  139.4712  153.6502 C   0  0  0  0  0  0  0  0  0  0  0  0
  147.6341  139.0941  154.5304 O   0  0  0  0  0  0  0  0  0  0  0  0
  146.4711  140.7493  153.4913 N   0  0  0  0  0  0  0  0  0  0  0  0
  146.8508  141.9238  154.2854 C   0  0  0  0  0  0  0  0  0  0  0  0
  148.3857  142.0198  154.2381 C   0  0  0  0  0  0  0  0  0  0  0  0
  146.4058  141.7563  155.7537 C   0  0  0  0  0  0  0  0  0  0  0  0
  146.2494  143.2086  153.6776 C   0  0  0  0  0  0  0  0  0  0  0  0
  146.7653  132.4251  152.8071 C   0  0  0  0  0  0  0  0  0  0  0  0
  145.7641  131.4554  151.7627 S   0  0  0  0  0  0  0  0  0  0  0  0
  142.9432  132.7669  148.5762 H   0  0  0  0  0  0  0  0  0  0  0  0
  144.4366  131.9070  148.9431 H   0  0  0  0  0  0  0  0  0  0  0  0
  144.4191  133.6700  148.9094 H   0  0  0  0  0  0  0  0  0  0  0  0
  142.8726  133.6865  150.9028 H   0  0  0  0  0  0  0  0  0  0  0  0
  142.8887  131.9377  150.9352 H   0  0  0  0  0  0  0  0  0  0  0  0
  146.8945  134.5625  154.8035 H   0  0  0  0  0  0  0  0  0  0  0  0
  147.9403  134.9615  153.4641 H   0  0  0  0  0  0  0  0  0  0  0  0
  147.7427  136.9322  152.5638 H   0  0  0  0  0  0  0  0  0  0  0  0
  145.1974  138.4656  152.6712 H   0  0  0  0  0  0  0  0  0  0  0  0
  146.4029  139.8924  150.9815 H   0  0  0  0  0  0  0  0  0  0  0  0
  146.3813  138.2115  150.4733 H   0  0  0  0  0  0  0  0  0  0  0  0
  147.8493  138.9000  151.1566 H   0  0  0  0  0  0  0  0  0  0  0  0
  145.8318  140.9304  152.7311 H   0  0  0  0  0  0  0  0  0  0  0  0
  148.7475  142.8773  154.8069 H   0  0  0  0  0  0  0  0  0  0  0  0
  148.7470  142.1304  153.2148 H   0  0  0  0  0  0  0  0  0  0  0  0
  148.8536  141.1285  154.6576 H   0  0  0  0  0  0  0  0  0  0  0  0
  146.7945  140.8323  156.1834 H   0  0  0  0  0  0  0  0  0  0  0  0
  145.3206  141.7360  155.8548 H   0  0  0  0  0  0  0  0  0  0  0  0
  146.7672  142.5807  156.3694 H   0  0  0  0  0  0  0  0  0  0  0  0
  146.6015  144.0943  154.2072 H   0  0  0  0  0  0  0  0  0  0  0  0
  145.1607  143.2180  153.7306 H   0  0  0  0  0  0  0  0  0  0  0  0
  146.5296  143.3205  152.6295 H   0  0  0  0  0  0  0  0  0  0  0  0
  147.6524  131.9992  153.2521 H   0  0  0  0  0  0  0  0  0  0  0  0
  1  2  1  0  0  0  0
  1 21  1  0  0  0  0
  1 22  1  0  0  0  0
  1 23  1  0  0  0  0
  2  3  1  0  0  0  0
  2 24  1  0  0  0  0
  2 25  1  0  0  0  0
  3 20  1  0  0  0  0
  3  4  2  0  0  0  0
  4  5  1  0  0  0  0
  5  6  1  0  0  0  0
  5 19  2  0  0  0  0
  6  7  1  0  0  0  0
  6 26  1  0  0  0  0
  6 27  1  0  0  0  0
  7  8  2  0  0  0  0
  7  9  1  0  0  0  0
  9 10  1  0  0  0  0
  9 28  1  0  0  0  0
 10 11  1  0  0  0  0
 10 12  1  0  0  0  0
 10 29  1  0  0  0  0
 11 30  1  0  0  0  0
 11 31  1  0  0  0  0
 11 32  1  0  0  0  0
 12 13  2  0  0  0  0
 12 14  1  0  0  0  0
 14 15  1  0  0  0  0
 14 33  1  0  0  0  0
 15 16  1  0  0  0  0
 15 17  1  0  0  0  0
 15 18  1  0  0  0  0
 16 34  1  0  0  0  0
 16 35  1  0  0  0  0
 16 36  1  0  0  0  0
 17 37  1  0  0  0  0
 17 38  1  0  0  0  0
 17 39  1  0  0  0  0
 18 40  1  0  0  0  0
 18 41  1  0  0  0  0
 18 42  1  0  0  0  0
 19 20  1  0  0  0  0
 19 43  1  0  0  0  0
M  END
> <s_m_source_file>
AV-unprocessed.smi

> <i_m_source_file_index>
1537

> <i_lp_mmshare_version>
43012

> <i_f3d_flags>
0

> <s_epik_input>
W0NIM11bQ0gyXWMxbmMoW2NIXXMxKVtDSDJdQyg9TylbTkhdW0NASF0oW0NIM10pQyg9TylbTkhdQyhbQ0gzXSkoW0NIM10pW0NIM10=

> <s_epik_cmdline>
J2VwaWtfcHl0aG9uJywgJy1waCcsICc3LjAnLCAnLXRuJywgJzgnLCAnLW1hJywgJzIwMCcsICctbWV0YWxfYmluZGluZycsICctaW1hZScsICc8aW5maWxlLm1hZT4nLCAnLW9tYWUnLCAnPG91dGZpbGUubWFlPic=

> <r_lp_tautomer_probability>
1

> <r_epik_Ionization_Penalty>
4.05444e-05

> <r_epik_Ionization_Penalty_Charging>
0

> <r_epik_Ionization_Penalty_Neutral>
4.05444e-05

> <r_epik_State_Penalty>
-0

> <r_epik_Charging_Adjusted_Penalty>
0

> <i_epik_Tot_Q>
0

> <i_epik_Tot_abs_Q>
0

> <r_epik_Metal_State_Penalty>
-0

> <b_epik_Metal_Only>
0

> <s_lp_Force_Field>
OPLS_2005

> <r_lp_Energy>
-1.93446

> <b_lp_Chiralities_Consistent>
1

> <s_lp_Variant>
AV-unprocessed.smi:1537-1

> <Gold.Version>
5.8.1

> <Gold.Id.Protein>
6NUR|6NUR_protein|mol2

> <Gold.PLP.Fitness>
38.5199

> <Gold.PLP.PLP>
-34.3437

> <Gold.PLP.part.hbond>
-1.9806

> <Gold.PLP.part.metal>
0.0000

> <Gold.PLP.part.buried>
1.4337

> <Gold.PLP.part.nonpolar>
-33.6021

> <Gold.PLP.part.repulsive>
0.2650

> <Gold.PLP.ligand.clash>
0.0000

> <Gold.PLP.ligand.torsion>
0.5615

> <Gold.PLP.Chemscore.Hbond>
1.7360

> <Gold.PLP.Chemscore.CHOScore>
0.0000

> <Gold.PLP.Chemscore.Metal>
0.0000

> <Gold.Chemscore.Hbonds>
donor molecule, donor type, donor heavy atom, donor atom, acceptor molecule, acceptor atom, score
      L1  H     9    28       P1  7948  1.00
      L1  H    14    33       P1 10175  0.36

> <Gold.PLP.Chemscore.Internal.Correction>
0.0913

> <Gold.Rescore>
     Score         DG    S(hbond)    S(metal)    S(lipo)     H(rot)  DE(clash)    DE(int)     intcor
     14.88     -16.73       1.88        0.00      83.64       1.88       0.00       1.85       ----

> <Gold.Chemscore.Fitness>
14.8801

> <Gold.Chemscore.DG>
-16.7324

> <Gold.Chemscore.ZeroCoef>
-5.4800

> <Gold.Chemscore.Hbond>
1.8774

> <Gold.Chemscore.Metal>
0.0000

> <Gold.Chemscore.Lipo>
83.6427

> <Gold.Chemscore.Internal_Hbond>
0.0000

> <Gold.Chemscore.DEClash>
0.0000

> <Gold.Chemscore.DEInternal>
1.8523

> <Gold.Chemscore.Rot>
1.8766

> <Gold.Chemscore.Internal.Correction>
   9.000000E+99

> <Gold.Chemscore.Hbonds>
donor molecule, donor type, donor heavy atom, donor atom, acceptor molecule, acceptor atom, score
      L1  H     9    28       P1  7948  0.96
      L1  H    14    33       P1 10175  0.08

> <Gold.Chemscore.Hbond.Weighted>
-6.2704

> <Gold.Chemscore.Metal.Weighted>
-0.0000

> <Gold.Chemscore.Lipo.Weighted>
-9.7862

> <Gold.Chemscore.Internal_Hbond.Weighted>
0.0000

> <Gold.Chemscore.DEClash.Weighted>
0.0000

> <Gold.Chemscore.DEInternal.Weighted>
1.8523

> <Gold.Chemscore.Rot.Weighted>
4.8042

> <Gold.Chemscore.Internal.Correction.Weighted>
   9.000000E+99

> <Gold.Protein.RotatedTorsions>
[ 6907 6896 6895 6894 ] final  -33.71 input  -60.11 | X-H torsion
[ 7974 7965 7964 7962 ] final -143.69 input  175.53 | X-H torsion
[ 8008 7997 7996 7995 ] final -118.75 input   59.86 | X-H torsion
[ 10167 10162 10161 10158 ] final    5.13 input  -65.29 | X-H torsion
[ 10718 10713 10712 10709 ] final  -79.82 input   66.30 | X-H torsion
[ 10763 10752 10751 10750 ] final   -1.38 input  -60.55 | X-H torsion
[ 11005 11000 10999 10996 ] final -126.95 input  -57.11 | X-H torsion

> <Gold.Protein.ActiveResidues>
 VAL166  LYS551  ARG553  GLY616  TRP617  ASP618  TYR619  PRO620  LYS621  CYS622 
 ASP623  PHE694  ASN695  SER759  ASP760  ASP761  ALA762  ILE779  LEU786  VAL792 
 PHE793  MET794  SER795  GLU796  ALA797  LYS798  CYS799  TRP800  GLU811  SER814 

> <Gold.Protein.RotatedAtoms>
  151.0621  134.9743  159.8265 H   0  0  0  0  0  0  0  0  0  0  0  0  # atno 6907 bound_to 6896
  152.5397  134.2405  159.8870 H   0  0  0  0  0  0  0  0  0  0  0  0  # atno 6908 bound_to 6896
  151.2425  133.4349  159.2641 H   0  0  0  0  0  0  0  0  0  0  0  0  # atno 6909 bound_to 6896
  144.8351  140.5803  143.5489 H   0  0  0  0  0  0  0  0  0  0  0  0  # atno 7974 bound_to 7965
  155.1047  140.0396  157.2707 H   0  0  0  0  0  0  0  0  0  0  0  0  # atno 8008 bound_to 7997
  154.6731  140.2616  155.6961 H   0  0  0  0  0  0  0  0  0  0  0  0  # atno 8009 bound_to 7997
  156.2666  140.2794  156.1247 H   0  0  0  0  0  0  0  0  0  0  0  0  # atno 8010 bound_to 7997
  140.6498  143.7573  150.7557 H   0  0  0  0  0  0  0  0  0  0  0  0  # atno 10167 bound_to 10162
  156.0084  130.4556  150.3706 H   0  0  0  0  0  0  0  0  0  0  0  0  # atno 10718 bound_to 10713
  153.3441  135.6982  153.6843 H   0  0  0  0  0  0  0  0  0  0  0  0  # atno 10763 bound_to 10752
  153.5596  135.3537  155.2794 H   0  0  0  0  0  0  0  0  0  0  0  0  # atno 10764 bound_to 10752
  154.8642  135.4246  154.2661 H   0  0  0  0  0  0  0  0  0  0  0  0  # atno 10765 bound_to 10752
  140.9640  134.0897  157.3939 H   0  0  0  0  0  0  0  0  0  0  0  0  # atno 11005 bound_to 11000
  145.4812  139.1495  143.3761 LP  0  0  0  0  0  0  0  0  0  0  0  0  # atno 17320 bound_to 7965
  146.2650  140.4948  142.8837 LP  0  0  0  0  0  0  0  0  0  0  0  0  # atno 17321 bound_to 7965
  140.1221  143.4602  152.2306 LP  0  0  0  0  0  0  0  0  0  0  0  0  # atno 17342 bound_to 10162
  139.5712  144.7463  151.3886 LP  0  0  0  0  0  0  0  0  0  0  0  0  # atno 17343 bound_to 10162
  157.1791  131.0387  151.2757 LP  0  0  0  0  0  0  0  0  0  0  0  0  # atno 17370 bound_to 10713
  157.4162  130.7412  149.6877 LP  0  0  0  0  0  0  0  0  0  0  0  0  # atno 17371 bound_to 10713
  139.8888  135.0100  156.6641 LP  0  0  0  0  0  0  0  0  0  0  0  0  # atno 17394 bound_to 11000
  140.7426  133.8964  155.8289 LP  0  0  0  0  0  0  0  0  0  0  0  0  # atno 17395 bound_to 11000

$$$$
