AV-unprocessed.smi:2616|AV-procd|sdf|10216|dock10
  -GOLD-   2272014223D 1   1.00000     0.00000
 Structure written by MMmdl.
 26 27  0  0  0  0  0  0  0  0  2 V2000
  152.7588  140.0739  156.5576 O   0  0  0  0  0  0  0  0  0  0  0  0
  152.2283  140.2544  155.4405 C   0  0  0  0  0  0  0  0  0  0  0  0
  152.8533  139.9914  154.3870 O   0  5  0  0  0  0  0  0  0  0  0  0
  150.8172  140.7987  155.3248 C   0  0  0  0  0  0  0  0  0  0  0  0
  150.4280  141.0750  154.0559 N   0  0  0  0  0  0  0  0  0  0  0  0
  149.1970  141.5632  153.8285 C   0  0  0  0  0  0  0  0  0  0  0  0
  148.2686  141.8091  154.8506 C   0  0  0  0  0  0  0  0  0  0  0  0
  146.7074  142.4392  154.4510 Cl  0  0  0  0  0  0  0  0  0  0  0  0
  148.6414  141.5319  156.1843 C   0  0  0  0  0  0  0  0  0  0  0  0
  147.6983  141.7853  157.1956 N   0  0  0  0  0  0  0  0  0  0  0  0
  146.8398  140.6801  157.5958 C   0  0  0  0  0  0  0  0  0  0  0  0
  145.6415  141.2261  158.3913 C   0  0  0  0  0  0  0  0  0  0  0  0
  146.1075  142.0174  159.4824 O   0  0  0  0  0  0  0  0  0  0  0  0
  146.8646  143.1450  159.0473 C   0  0  0  0  0  0  0  0  0  0  0  0
  148.1083  142.6699  158.2763 C   0  0  0  0  0  0  0  0  0  0  0  0
  149.9440  141.0145  156.4389 C   0  0  0  0  0  0  0  0  0  0  0  0
  150.4143  140.6671  158.0758 Cl  0  0  0  0  0  0  0  0  0  0  0  0
  148.9461  141.7639  152.7973 H   0  0  0  0  0  0  0  0  0  0  0  0
  146.4938  140.1362  156.7161 H   0  0  0  0  0  0  0  0  0  0  0  0
  147.3973  139.9767  158.2135 H   0  0  0  0  0  0  0  0  0  0  0  0
  144.9900  141.8226  157.7507 H   0  0  0  0  0  0  0  0  0  0  0  0
  145.0406  140.4032  158.7784 H   0  0  0  0  0  0  0  0  0  0  0  0
  146.2449  143.7913  158.4236 H   0  0  0  0  0  0  0  0  0  0  0  0
  147.1626  143.7319  159.9160 H   0  0  0  0  0  0  0  0  0  0  0  0
  148.7802  142.1459  158.9551 H   0  0  0  0  0  0  0  0  0  0  0  0
  148.6536  143.5246  157.8745 H   0  0  0  0  0  0  0  0  0  0  0  0
  1  2  2  0  0  0  0
  2  3  1  0  0  0  0
  2  4  1  0  0  0  0
  4 16  1  0  0  0  0
  4  5  2  0  0  0  0
  5  6  1  0  0  0  0
  6  7  2  0  0  0  0
  6 18  1  0  0  0  0
  7  8  1  0  0  0  0
  7  9  1  0  0  0  0
  9 10  1  0  0  0  0
  9 16  2  0  0  0  0
 10 15  1  0  0  0  0
 10 11  1  0  0  0  0
 11 12  1  0  0  0  0
 11 19  1  0  0  0  0
 11 20  1  0  0  0  0
 12 13  1  0  0  0  0
 12 21  1  0  0  0  0
 12 22  1  0  0  0  0
 13 14  1  0  0  0  0
 14 15  1  0  0  0  0
 14 23  1  0  0  0  0
 14 24  1  0  0  0  0
 15 25  1  0  0  0  0
 15 26  1  0  0  0  0
 16 17  1  0  0  0  0
M  CHG  1   3  -1
M  END
> <s_m_source_file>
AV-unprocessed.smi

> <i_m_source_file_index>
2616

> <i_lp_mmshare_version>
43012

> <i_f3d_flags>
0

> <s_epik_input>
Tz1DKFtPSF0pYzFuW2NIXWMoQ2wpYyhjMUNsKU4yW0NIMl1bQ0gyXU9bQ0gyXVtDSDJdMg==

> <s_epik_cmdline>
J2VwaWtfcHl0aG9uJywgJy1waCcsICc3LjAnLCAnLXRuJywgJzgnLCAnLW1hJywgJzIwMCcsICctbWV0YWxfYmluZGluZycsICctaW1hZScsICc8aW5maWxlLm1hZT4nLCAnLW9tYWUnLCAnPG91dGZpbGUubWFlPic=

> <r_epik_Ionization_Penalty>
0.00232884

> <r_epik_Ionization_Penalty_Charging>
7.03121e-06

> <r_epik_Ionization_Penalty_Neutral>
0.00232181

> <r_epik_State_Penalty>
0.00160212

> <r_epik_Charging_Adjusted_Penalty>
0.00160915

> <i_epik_Tot_Q>
-1

> <i_epik_Tot_abs_Q>
1

> <r_epik_Metal_State_Penalty>
-0

> <b_epik_Metal_Only>
0

> <s_lp_Force_Field>
OPLS_2005

> <r_lp_Energy>
33.645

> <b_lp_Chiralities_Consistent>
1

> <s_lp_Variant>
AV-unprocessed.smi:2616-1

> <Gold.Version>
5.8.1

> <Gold.Id.Protein>
6NUR|6NUR_protein|mol2

> <Gold.PLP.Fitness>
38.0795

> <Gold.PLP.PLP>
-23.7893

> <Gold.PLP.part.hbond>
-3.7502

> <Gold.PLP.part.metal>
0.0000

> <Gold.PLP.part.buried>
-0.1289

> <Gold.PLP.part.nonpolar>
-19.2737

> <Gold.PLP.part.repulsive>
0.2830

> <Gold.PLP.ligand.clash>
0.0000

> <Gold.PLP.ligand.torsion>
0.4052

> <Gold.PLP.Chemscore.Hbond>
3.8800

> <Gold.PLP.Chemscore.CHOScore>
0.9957

> <Gold.PLP.Chemscore.Metal>
0.0000

> <Gold.Chemscore.Hbonds>
donor molecule, donor type, donor heavy atom, donor atom, acceptor molecule, acceptor atom, score
      P1  H  6934  6946       L1    13  1.00
      P1  H  7989  7998       L1     5  0.19
      P1  H  7997  8008       L1     1  2.00
      L1  C     6    18       P1  7957  0.74

> <Gold.PLP.Chemscore.Internal.Correction>
0.4736

> <Gold.Rescore>
     Score         DG    S(hbond)    S(metal)    S(lipo)     H(rot)  DE(clash)    DE(int)     intcor
     13.61     -15.57       2.28        0.00      43.14       1.00       0.82       1.14       ----

> <Gold.Chemscore.Fitness>
13.6108

> <Gold.Chemscore.DG>
-15.5719

> <Gold.Chemscore.ZeroCoef>
-5.4800

> <Gold.Chemscore.Hbond>
2.2769

> <Gold.Chemscore.Metal>
0.0000

> <Gold.Chemscore.Lipo>
43.1360

> <Gold.Chemscore.Internal_Hbond>
0.0000

> <Gold.Chemscore.DEClash>
0.8229

> <Gold.Chemscore.DEInternal>
1.1382

> <Gold.Chemscore.Rot>
1.0000

> <Gold.Chemscore.Internal.Correction>
   9.000000E+99

> <Gold.Chemscore.Hbonds>
donor molecule, donor type, donor heavy atom, donor atom, acceptor molecule, acceptor atom, score
      P1  H  6934  6946       L1    13  0.57
      P1  H  7989  7998       L1     5  0.03
      P1  H  7997  8008       L1     1  0.76

> <Gold.Chemscore.Hbond.Weighted>
-7.6050

> <Gold.Chemscore.Metal.Weighted>
-0.0000

> <Gold.Chemscore.Lipo.Weighted>
-5.0469

> <Gold.Chemscore.Internal_Hbond.Weighted>
0.0000

> <Gold.Chemscore.DEClash.Weighted>
0.8229

> <Gold.Chemscore.DEInternal.Weighted>
1.1382

> <Gold.Chemscore.Rot.Weighted>
2.5600

> <Gold.Chemscore.Internal.Correction.Weighted>
   9.000000E+99

> <Gold.Protein.RotatedTorsions>
[ 6907 6896 6895 6894 ] final  178.61 input  -60.11 | X-H torsion
[ 7974 7965 7964 7962 ] final   71.08 input  175.53 | X-H torsion
[ 8008 7997 7996 7995 ] final  -50.03 input   59.86 | X-H torsion
[ 10167 10162 10161 10158 ] final  166.23 input  -65.29 | X-H torsion
[ 10718 10713 10712 10709 ] final   51.37 input   66.30 | X-H torsion
[ 10763 10752 10751 10750 ] final  -21.75 input  -60.55 | X-H torsion
[ 11005 11000 10999 10996 ] final  152.99 input  -57.11 | X-H torsion

> <Gold.Protein.ActiveResidues>
 VAL166  LYS551  ARG553  GLY616  TRP617  ASP618  TYR619  PRO620  LYS621  CYS622 
 ASP623  PHE694  ASN695  SER759  ASP760  ASP761  ALA762  ILE779  LEU786  VAL792 
 PHE793  MET794  SER795  GLU796  ALA797  LYS798  CYS799  TRP800  GLU811  SER814 

> <Gold.Protein.RotatedAtoms>
  151.6850  133.3311  159.3228 H   0  0  0  0  0  0  0  0  0  0  0  0  # atno 6907 bound_to 6896
  150.7805  134.6748  159.6421 H   0  0  0  0  0  0  0  0  0  0  0  0  # atno 6908 bound_to 6896
  152.3861  134.6518  160.0177 H   0  0  0  0  0  0  0  0  0  0  0  0  # atno 6909 bound_to 6896
  145.7702  139.2839  143.1325 H   0  0  0  0  0  0  0  0  0  0  0  0  # atno 7974 bound_to 7965
  154.4054  140.1282  156.4599 H   0  0  0  0  0  0  0  0  0  0  0  0  # atno 8008 bound_to 7997
  155.7283  140.3492  155.5027 H   0  0  0  0  0  0  0  0  0  0  0  0  # atno 8009 bound_to 7997
  155.9151  140.1042  157.1240 H   0  0  0  0  0  0  0  0  0  0  0  0  # atno 8010 bound_to 7997
  139.4921  144.4049  151.9367 H   0  0  0  0  0  0  0  0  0  0  0  0  # atno 10167 bound_to 10162
  157.4974  130.8415  149.8275 H   0  0  0  0  0  0  0  0  0  0  0  0  # atno 10718 bound_to 10713
  153.6410  135.6985  153.5241 H   0  0  0  0  0  0  0  0  0  0  0  0  # atno 10763 bound_to 10752
  153.2782  135.4194  155.1053 H   0  0  0  0  0  0  0  0  0  0  0  0  # atno 10764 bound_to 10752
  154.8499  135.3595  154.5954 H   0  0  0  0  0  0  0  0  0  0  0  0  # atno 10765 bound_to 10752
  140.1357  134.8772  157.2264 H   0  0  0  0  0  0  0  0  0  0  0  0  # atno 11005 bound_to 11000
  146.0178  140.8376  142.9939 LP  0  0  0  0  0  0  0  0  0  0  0  0  # atno 17320 bound_to 7965
  144.6814  140.2583  143.7322 LP  0  0  0  0  0  0  0  0  0  0  0  0  # atno 17321 bound_to 7965
  140.3489  144.3113  150.5953 LP  0  0  0  0  0  0  0  0  0  0  0  0  # atno 17342 bound_to 10162
  140.5502  143.2207  151.7939 LP  0  0  0  0  0  0  0  0  0  0  0  0  # atno 17343 bound_to 10162
  156.0209  130.3796  150.1966 LP  0  0  0  0  0  0  0  0  0  0  0  0  # atno 17370 bound_to 10713
  157.0156  130.9964  151.3354 LP  0  0  0  0  0  0  0  0  0  0  0  0  # atno 17371 bound_to 10713
  140.2785  134.3377  155.7350 LP  0  0  0  0  0  0  0  0  0  0  0  0  # atno 17394 bound_to 11000
  141.2178  133.7464  156.9328 LP  0  0  0  0  0  0  0  0  0  0  0  0  # atno 17395 bound_to 11000

$$$$
