AV-unprocessed.smi:1677|AV-procd|sdf|6720|dock4
  -GOLD-   22720 7463D 1   1.00000     0.00000
 Structure written by MMmdl.
 37 38  0  0  0  0  0  0  0  0  2 V2000
  151.3901  139.7453  155.6751 C   0  0  0  0  0  0  0  0  0  0  0  0
  150.0735  140.5076  155.8761 C   0  0  2  0  0  0  0  0  0  0  0  0
  149.4903  140.9820  154.5274 C   0  0  0  0  0  0  0  0  0  0  0  0
  148.0413  141.2060  154.5782 N   0  0  0  0  0  0  0  0  0  0  0  0
  147.3645  142.0799  155.3898 C   0  0  0  0  0  0  0  0  0  0  0  0
  146.0358  141.9563  155.0752 C   0  0  0  0  0  0  0  0  0  0  0  0
  145.9569  141.0090  154.0898 N   0  3  0  0  0  0  0  0  0  0  0  0
  147.1766  140.5499  153.7928 C   0  0  0  0  0  0  0  0  0  0  0  0
  150.3138  141.6384  156.7718 N   0  0  0  0  0  0  0  0  0  0  0  0
  151.0431  141.6052  157.8991 C   0  0  0  0  0  0  0  0  0  0  0  0
  151.6056  140.5899  158.3102 O   0  0  0  0  0  0  0  0  0  0  0  0
  151.1283  142.9114  158.6981 C   0  0  2  0  0  0  0  0  0  0  0  0
  151.6075  144.0832  157.8107 C   0  0  0  0  0  0  0  0  0  0  0  0
  151.9499  145.3165  158.6276 C   0  0  0  0  0  0  0  0  0  0  0  0
  152.1463  145.2918  159.9571 C   0  0  0  0  0  0  0  0  0  0  0  0
  152.0525  144.0275  160.7929 C   0  0  0  0  0  0  0  0  0  0  0  0
  152.0473  142.7539  159.9263 C   0  0  0  0  0  0  0  0  0  0  0  0
  151.2444  138.8722  155.0384 H   0  0  0  0  0  0  0  0  0  0  0  0
  151.7904  139.3932  156.6265 H   0  0  0  0  0  0  0  0  0  0  0  0
  152.1476  140.3750  155.2071 H   0  0  0  0  0  0  0  0  0  0  0  0
  149.3696  139.8142  156.3404 H   0  0  0  0  0  0  0  0  0  0  0  0
  149.9757  141.9003  154.1932 H   0  0  0  0  0  0  0  0  0  0  0  0
  149.6688  140.2325  153.7554 H   0  0  0  0  0  0  0  0  0  0  0  0
  147.8667  142.7143  156.1059 H   0  0  0  0  0  0  0  0  0  0  0  0
  145.1639  142.4594  155.4671 H   0  0  0  0  0  0  0  0  0  0  0  0
  147.4161  139.8053  153.0547 H   0  0  0  0  0  0  0  0  0  0  0  0
  149.8907  142.5185  156.5133 H   0  0  0  0  0  0  0  0  0  0  0  0
  150.1284  143.1532  159.0640 H   0  0  0  0  0  0  0  0  0  0  0  0
  152.4906  143.8095  157.2315 H   0  0  0  0  0  0  0  0  0  0  0  0
  150.8280  144.3464  157.0949 H   0  0  0  0  0  0  0  0  0  0  0  0
  152.0474  146.2470  158.0878 H   0  0  0  0  0  0  0  0  0  0  0  0
  152.3748  146.2074  160.4828 H   0  0  0  0  0  0  0  0  0  0  0  0
  152.8866  143.9966  161.4942 H   0  0  0  0  0  0  0  0  0  0  0  0
  151.1399  144.0831  161.3868 H   0  0  0  0  0  0  0  0  0  0  0  0
  151.7416  141.8997  160.5323 H   0  0  0  0  0  0  0  0  0  0  0  0
  153.0660  142.5456  159.5946 H   0  0  0  0  0  0  0  0  0  0  0  0
  145.1002  140.7004  153.6472 H   0  0  0  0  0  0  0  0  0  0  0  0
  1  2  1  0  0  0  0
  1 18  1  0  0  0  0
  1 19  1  0  0  0  0
  1 20  1  0  0  0  0
  2  3  1  0  0  0  0
  2  9  1  0  0  0  0
  2 21  1  0  0  0  0
  3  4  1  0  0  0  0
  3 22  1  0  0  0  0
  3 23  1  0  0  0  0
  4  8  1  0  0  0  0
  4  5  1  0  0  0  0
  5  6  2  0  0  0  0
  5 24  1  0  0  0  0
  6  7  1  0  0  0  0
  6 25  1  0  0  0  0
  7  8  2  0  0  0  0
  7 37  1  0  0  0  0
  8 26  1  0  0  0  0
  9 10  1  0  0  0  0
  9 27  1  0  0  0  0
 10 11  2  0  0  0  0
 10 12  1  0  0  0  0
 12 17  1  0  0  0  0
 12 13  1  0  0  0  0
 12 28  1  0  0  0  0
 13 14  1  0  0  0  0
 13 29  1  0  0  0  0
 13 30  1  0  0  0  0
 14 15  2  0  0  0  0
 14 31  1  0  0  0  0
 15 16  1  0  0  0  0
 15 32  1  0  0  0  0
 16 17  1  0  0  0  0
 16 33  1  0  0  0  0
 16 34  1  0  0  0  0
 17 35  1  0  0  0  0
 17 36  1  0  0  0  0
M  CHG  1   7   1
M  END
> <s_m_source_file>
AV-unprocessed.smi

> <i_m_source_file_index>
1677

> <i_lp_mmshare_version>
43012

> <i_f3d_flags>
0

> <s_epik_input>
W2NIXTFuW2NIXVtjSF1uMVtDSDJdW0NAQEhdKFtDSDNdKVtOSF1DKD1PKVtDQEBIXTJbQ0gyXVtDSF09W0NIXVtDSDJdW0NIMl0y

> <s_epik_cmdline>
J2VwaWtfcHl0aG9uJywgJy1waCcsICc3LjAnLCAnLXRuJywgJzgnLCAnLW1hJywgJzIwMCcsICctbWV0YWxfYmluZGluZycsICctaW1hZScsICc8aW5maWxlLm1hZT4nLCAnLW9tYWUnLCAnPG91dGZpbGUubWFlPic=

> <r_lp_tautomer_probability>
1

> <r_epik_Ionization_Penalty>
0.245541

> <r_epik_Ionization_Penalty_Charging>
0

> <r_epik_Ionization_Penalty_Neutral>
0.245541

> <r_epik_State_Penalty>
0.236686

> <r_epik_Charging_Adjusted_Penalty>
0.236686

> <i_epik_Tot_Q>
1

> <i_epik_Tot_abs_Q>
1

> <r_epik_Metal_State_Penalty>
0.529594

> <b_epik_Metal_Only>
0

> <s_lp_Force_Field>
OPLS_2005

> <r_lp_Energy>
10.8723

> <b_lp_Chiralities_Consistent>
1

> <s_lp_Variant>
AV-unprocessed.smi:1677-1

> <Gold.Version>
5.8.1

> <Gold.Id.Protein>
6NUR|6NUR_protein|mol2

> <Gold.PLP.Fitness>
50.7693

> <Gold.PLP.PLP>
-39.9355

> <Gold.PLP.part.hbond>
-1.0000

> <Gold.PLP.part.metal>
0.0000

> <Gold.PLP.part.buried>
-0.2440

> <Gold.PLP.part.nonpolar>
-38.0282

> <Gold.PLP.part.repulsive>
0.0594

> <Gold.PLP.ligand.clash>
0.0000

> <Gold.PLP.ligand.torsion>
0.4899

> <Gold.PLP.Chemscore.Hbond>
2.0000

> <Gold.PLP.Chemscore.CHOScore>
1.9152

> <Gold.PLP.Chemscore.Metal>
0.0000

> <Gold.Chemscore.Hbonds>
donor molecule, donor type, donor heavy atom, donor atom, acceptor molecule, acceptor atom, score
      L1  H     7    37       P1 10175  2.00
      L1  C     5    24       P1  8028  0.92
      L1  C     8    26       P1  7957  0.08

> <Gold.PLP.Chemscore.Internal.Correction>
0.0681

> <Gold.Rescore>
     Score         DG    S(hbond)    S(metal)    S(lipo)     H(rot)  DE(clash)    DE(int)     intcor
     14.13     -15.77       0.97        0.00      99.86       1.81       0.10       1.54       ----

> <Gold.Chemscore.Fitness>
14.1269

> <Gold.Chemscore.DG>
-15.7739

> <Gold.Chemscore.ZeroCoef>
-5.4800

> <Gold.Chemscore.Hbond>
0.9747

> <Gold.Chemscore.Metal>
0.0000

> <Gold.Chemscore.Lipo>
99.8626

> <Gold.Chemscore.Internal_Hbond>
0.0000

> <Gold.Chemscore.DEClash>
0.1037

> <Gold.Chemscore.DEInternal>
1.5433

> <Gold.Chemscore.Rot>
1.8147

> <Gold.Chemscore.Internal.Correction>
   9.000000E+99

> <Gold.Chemscore.Hbonds>
donor molecule, donor type, donor heavy atom, donor atom, acceptor molecule, acceptor atom, score
      L1  H     7    37       P1 10175  0.96

> <Gold.Chemscore.Hbond.Weighted>
-3.2556

> <Gold.Chemscore.Metal.Weighted>
-0.0000

> <Gold.Chemscore.Lipo.Weighted>
-11.6839

> <Gold.Chemscore.Internal_Hbond.Weighted>
0.0000

> <Gold.Chemscore.DEClash.Weighted>
0.1037

> <Gold.Chemscore.DEInternal.Weighted>
1.5433

> <Gold.Chemscore.Rot.Weighted>
4.6456

> <Gold.Chemscore.Internal.Correction.Weighted>
   9.000000E+99

> <Gold.Protein.RotatedTorsions>
[ 6907 6896 6895 6894 ] final  173.50 input  -60.11 | X-H torsion
[ 7974 7965 7964 7962 ] final  -95.21 input  175.53 | X-H torsion
[ 8008 7997 7996 7995 ] final  176.52 input   59.86 | X-H torsion
[ 10167 10162 10161 10158 ] final    6.82 input  -65.29 | X-H torsion
[ 10718 10713 10712 10709 ] final  -25.08 input   66.30 | X-H torsion
[ 10763 10752 10751 10750 ] final   54.13 input  -60.55 | X-H torsion
[ 11005 11000 10999 10996 ] final  -59.92 input  -57.11 | X-H torsion

> <Gold.Protein.ActiveResidues>
 VAL166  LYS551  ARG553  GLY616  TRP617  ASP618  TYR619  PRO620  LYS621  CYS622 
 ASP623  PHE694  ASN695  SER759  ASP760  ASP761  ALA762  ILE779  LEU786  VAL792 
 PHE793  MET794  SER795  GLU796  ALA797  LYS798  CYS799  TRP800  GLU811  SER814 

> <Gold.Protein.RotatedAtoms>
  151.7672  133.3338  159.3434 H   0  0  0  0  0  0  0  0  0  0  0  0  # atno 6907 bound_to 6896
  150.7475  134.6051  159.6066 H   0  0  0  0  0  0  0  0  0  0  0  0  # atno 6908 bound_to 6896
  152.3365  134.7192  160.0327 H   0  0  0  0  0  0  0  0  0  0  0  0  # atno 6909 bound_to 6896
  145.3631  140.9494  143.2489 H   0  0  0  0  0  0  0  0  0  0  0  0  # atno 7974 bound_to 7965
  156.0756  140.1381  156.9776 H   0  0  0  0  0  0  0  0  0  0  0  0  # atno 8008 bound_to 7997
  154.4556  140.0963  156.6796 H   0  0  0  0  0  0  0  0  0  0  0  0  # atno 8009 bound_to 7997
  155.5159  140.3455  155.4399 H   0  0  0  0  0  0  0  0  0  0  0  0  # atno 8010 bound_to 7997
  140.6406  143.7782  150.7423 H   0  0  0  0  0  0  0  0  0  0  0  0  # atno 10167 bound_to 10162
  156.4691  130.4520  149.6880 H   0  0  0  0  0  0  0  0  0  0  0  0  # atno 10718 bound_to 10713
  152.9801  135.5755  154.4855 H   0  0  0  0  0  0  0  0  0  0  0  0  # atno 10763 bound_to 10752
  154.4397  135.2775  155.1858 H   0  0  0  0  0  0  0  0  0  0  0  0  # atno 10764 bound_to 10752
  154.3531  135.6205  153.5706 H   0  0  0  0  0  0  0  0  0  0  0  0  # atno 10765 bound_to 10752
  141.1267  133.6619  156.5144 H   0  0  0  0  0  0  0  0  0  0  0  0  # atno 11005 bound_to 11000
  144.8632  139.5147  143.6802 LP  0  0  0  0  0  0  0  0  0  0  0  0  # atno 17320 bound_to 7965
  146.2918  139.7163  142.9155 LP  0  0  0  0  0  0  0  0  0  0  0  0  # atno 17321 bound_to 7965
  140.1413  143.4439  152.2192 LP  0  0  0  0  0  0  0  0  0  0  0  0  # atno 17342 bound_to 10162
  139.5616  144.7409  151.4140 LP  0  0  0  0  0  0  0  0  0  0  0  0  # atno 17343 bound_to 10162
  156.3637  130.7494  151.2470 LP  0  0  0  0  0  0  0  0  0  0  0  0  # atno 17370 bound_to 10713
  157.7492  131.0343  150.4310 LP  0  0  0  0  0  0  0  0  0  0  0  0  # atno 17371 bound_to 10713
  140.4343  134.7074  157.4958 LP  0  0  0  0  0  0  0  0  0  0  0  0  # atno 17394 bound_to 11000
  140.0272  134.6459  155.9156 LP  0  0  0  0  0  0  0  0  0  0  0  0  # atno 17395 bound_to 11000

$$$$
