AV-unprocessed.smi:1744|AV-procd|sdf|7024|dock3
  -GOLD-   22720 8243D 1   1.00000     0.00000
 Structure written by MMmdl.
 43 44  0  0  0  0  0  0  0  0  1 V2000
  153.9627  140.7730  160.7817 C   0  0  0  0  0  0  0  0  0  0  0  0
  153.6405  142.2265  161.1511 C   0  0  0  0  0  0  0  0  0  0  0  0
  152.7392  142.8430  160.1964 N   0  0  0  0  0  0  0  0  0  0  0  0
  152.1350  142.2661  159.0968 C   0  0  0  0  0  0  0  0  0  0  0  0
  151.3967  143.2537  158.5173 C   0  0  0  0  0  0  0  0  0  0  0  0
  150.6133  143.0971  157.3467 N   0  0  0  0  0  0  0  0  0  0  0  0
  150.4336  141.9735  156.6339 C   0  0  0  0  0  0  0  0  0  0  0  0
  150.9646  140.8893  156.8748 O   0  0  0  0  0  0  0  0  0  0  0  0
  149.5934  142.1768  155.6093 N   0  0  0  0  0  0  0  0  0  0  0  0
  149.1736  141.1600  154.6498 C   0  0  0  0  0  0  0  0  0  0  0  0
  147.9712  141.6449  153.8239 C   0  0  0  0  0  0  0  0  0  0  0  0
  147.4402  140.5261  152.9108 C   0  0  0  0  0  0  0  0  0  0  0  0
  147.0541  139.3516  153.7003 N   0  0  0  0  0  0  0  0  0  0  0  0
  146.4300  138.3476  152.8086 C   0  0  0  0  0  0  0  0  0  0  0  0
  145.9414  137.0803  153.5212 C   0  0  0  0  0  0  0  0  0  0  0  0
  146.5381  135.9300  153.1988 N   0  0  0  0  0  0  0  0  0  0  0  0
  145.0409  137.1413  154.3556 O   0  0  0  0  0  0  0  0  0  0  0  0
  148.2192  138.8188  154.4219 C   0  0  0  0  0  0  0  0  0  0  0  0
  148.7827  139.8737  155.3904 C   0  0  0  0  0  0  0  0  0  0  0  0
  151.5987  144.4120  159.3199 C   0  0  0  0  0  0  0  0  0  0  0  0
  152.4146  144.1530  160.3306 N   0  0  0  0  0  0  0  0  0  0  0  0
  154.6588  140.3372  161.4986 H   0  0  0  0  0  0  0  0  0  0  0  0
  154.4192  140.7100  159.7935 H   0  0  0  0  0  0  0  0  0  0  0  0
  153.0632  140.1565  160.7762 H   0  0  0  0  0  0  0  0  0  0  0  0
  153.1867  142.2756  162.1417 H   0  0  0  0  0  0  0  0  0  0  0  0
  154.5586  142.8137  161.1934 H   0  0  0  0  0  0  0  0  0  0  0  0
  152.2817  141.2298  158.8297 H   0  0  0  0  0  0  0  0  0  0  0  0
  150.1254  143.9217  157.0289 H   0  0  0  0  0  0  0  0  0  0  0  0
  149.2083  143.1019  155.4869 H   0  0  0  0  0  0  0  0  0  0  0  0
  150.0023  140.9312  153.9767 H   0  0  0  0  0  0  0  0  0  0  0  0
  147.1728  141.9804  154.4877 H   0  0  0  0  0  0  0  0  0  0  0  0
  148.2535  142.5076  153.2194 H   0  0  0  0  0  0  0  0  0  0  0  0
  146.5763  140.9028  152.3614 H   0  0  0  0  0  0  0  0  0  0  0  0
  148.1938  140.2550  152.1689 H   0  0  0  0  0  0  0  0  0  0  0  0
  145.5606  138.7896  152.3199 H   0  0  0  0  0  0  0  0  0  0  0  0
  147.1279  138.0791  152.0129 H   0  0  0  0  0  0  0  0  0  0  0  0
  146.2495  135.0697  153.6412 H   0  0  0  0  0  0  0  0  0  0  0  0
  147.2772  135.9263  152.5109 H   0  0  0  0  0  0  0  0  0  0  0  0
  147.9483  137.9386  155.0046 H   0  0  0  0  0  0  0  0  0  0  0  0
  148.9887  138.5044  153.7143 H   0  0  0  0  0  0  0  0  0  0  0  0
  149.6489  139.4669  155.9135 H   0  0  0  0  0  0  0  0  0  0  0  0
  148.0362  140.0950  156.1551 H   0  0  0  0  0  0  0  0  0  0  0  0
  151.1997  145.4097  159.2134 H   0  0  0  0  0  0  0  0  0  0  0  0
  1  2  1  0  0  0  0
  1 22  1  0  0  0  0
  1 23  1  0  0  0  0
  1 24  1  0  0  0  0
  2  3  1  0  0  0  0
  2 25  1  0  0  0  0
  2 26  1  0  0  0  0
  3 21  1  0  0  0  0
  3  4  1  0  0  0  0
  4  5  2  0  0  0  0
  4 27  1  0  0  0  0
  5  6  1  0  0  0  0
  5 20  1  0  0  0  0
  6  7  1  0  0  0  0
  6 28  1  0  0  0  0
  7  8  2  0  0  0  0
  7  9  1  0  0  0  0
  9 10  1  0  0  0  0
  9 29  1  0  0  0  0
 10 19  1  0  0  0  0
 10 11  1  0  0  0  0
 10 30  1  0  0  0  0
 11 12  1  0  0  0  0
 11 31  1  0  0  0  0
 11 32  1  0  0  0  0
 12 13  1  0  0  0  0
 12 33  1  0  0  0  0
 12 34  1  0  0  0  0
 13 14  1  0  0  0  0
 13 18  1  0  0  0  0
 14 15  1  0  0  0  0
 14 35  1  0  0  0  0
 14 36  1  0  0  0  0
 15 16  1  0  0  0  0
 15 17  2  0  0  0  0
 16 37  1  0  0  0  0
 16 38  1  0  0  0  0
 18 19  1  0  0  0  0
 18 39  1  0  0  0  0
 18 40  1  0  0  0  0
 19 41  1  0  0  0  0
 19 42  1  0  0  0  0
 20 21  2  0  0  0  0
 20 43  1  0  0  0  0
M  END
> <s_m_source_file>
AV-unprocessed.smi

> <i_m_source_file_index>
1744

> <i_lp_mmshare_version>
43012

> <i_f3d_flags>
0

> <s_epik_input>
W0NIM11bQ0gyXW4xW2NIXWMoW2NIXW4xKVtOSF1DKD1PKVtOSF1bQ0hdMltDSDJdW0NIMl1OKFtDSDJdW0NIMl0yKVtDSDJdQyg9TylbTkgyXQ==

> <s_epik_cmdline>
J2VwaWtfcHl0aG9uJywgJy1waCcsICc3LjAnLCAnLXRuJywgJzgnLCAnLW1hJywgJzIwMCcsICctbWV0YWxfYmluZGluZycsICctaW1hZScsICc8aW5maWxlLm1hZT4nLCAnLW9tYWUnLCAnPG91dGZpbGUubWFlPic=

> <r_lp_tautomer_probability>
1

> <r_epik_Ionization_Penalty>
0.164921

> <r_epik_Ionization_Penalty_Charging>
0

> <r_epik_Ionization_Penalty_Neutral>
0.164921

> <r_epik_State_Penalty>
0.154069

> <r_epik_Charging_Adjusted_Penalty>
0.154069

> <i_epik_Tot_Q>
0

> <i_epik_Tot_abs_Q>
0

> <r_epik_Metal_State_Penalty>
0.171357

> <b_epik_Metal_Only>
0

> <s_lp_Force_Field>
OPLS_2005

> <r_lp_Energy>
15.5637

> <b_lp_Chiralities_Consistent>
1

> <s_lp_Variant>
AV-unprocessed.smi:1744-1

> <Gold.Version>
5.8.1

> <Gold.Id.Protein>
6NUR|6NUR_protein|mol2

> <Gold.PLP.Fitness>
46.9158

> <Gold.PLP.PLP>
-38.3785

> <Gold.PLP.part.hbond>
-3.0000

> <Gold.PLP.part.metal>
0.0000

> <Gold.PLP.part.buried>
-4.0041

> <Gold.PLP.part.nonpolar>
-31.3768

> <Gold.PLP.part.repulsive>
0.4906

> <Gold.PLP.ligand.clash>
0.0000

> <Gold.PLP.ligand.torsion>
0.1902

> <Gold.PLP.Chemscore.Hbond>
2.9600

> <Gold.PLP.Chemscore.CHOScore>
0.0000

> <Gold.PLP.Chemscore.Metal>
0.0000

> <Gold.Chemscore.Hbonds>
donor molecule, donor type, donor heavy atom, donor atom, acceptor molecule, acceptor atom, score
      L1  H     6    28       P1  8028  0.96
      L1  H     9    29       P1  8028  1.00
      L1  H    16    38       P1  7948  1.00

> <Gold.PLP.Chemscore.Internal.Correction>
0.0378

> <Gold.Rescore>
     Score         DG    S(hbond)    S(metal)    S(lipo)     H(rot)  DE(clash)    DE(int)     intcor
     16.99     -20.35       2.93        0.00      91.35       2.19       0.48       2.88       ----

> <Gold.Chemscore.Fitness>
16.9895

> <Gold.Chemscore.DG>
-20.3494

> <Gold.Chemscore.ZeroCoef>
-5.4800

> <Gold.Chemscore.Hbond>
2.9292

> <Gold.Chemscore.Metal>
0.0000

> <Gold.Chemscore.Lipo>
91.3501

> <Gold.Chemscore.Internal_Hbond>
0.0000

> <Gold.Chemscore.DEClash>
0.4751

> <Gold.Chemscore.DEInternal>
2.8848

> <Gold.Chemscore.Rot>
2.1883

> <Gold.Chemscore.Internal.Correction>
   9.000000E+99

> <Gold.Chemscore.Hbonds>
donor molecule, donor type, donor heavy atom, donor atom, acceptor molecule, acceptor atom, score
      L1  H     6    28       P1  8028  0.86
      L1  H     9    29       P1  8028  1.00
      L1  H    16    38       P1  7948  0.99

> <Gold.Chemscore.Hbond.Weighted>
-9.7834

> <Gold.Chemscore.Metal.Weighted>
-0.0000

> <Gold.Chemscore.Lipo.Weighted>
-10.6880

> <Gold.Chemscore.Internal_Hbond.Weighted>
0.0000

> <Gold.Chemscore.DEClash.Weighted>
0.4751

> <Gold.Chemscore.DEInternal.Weighted>
2.8848

> <Gold.Chemscore.Rot.Weighted>
5.6020

> <Gold.Chemscore.Internal.Correction.Weighted>
   9.000000E+99

> <Gold.Protein.RotatedTorsions>
[ 6907 6896 6895 6894 ] final   71.67 input  -60.11 | X-H torsion
[ 7974 7965 7964 7962 ] final  -22.76 input  175.53 | X-H torsion
[ 8008 7997 7996 7995 ] final   56.26 input   59.86 | X-H torsion
[ 10167 10162 10161 10158 ] final -136.92 input  -65.29 | X-H torsion
[ 10718 10713 10712 10709 ] final   41.22 input   66.30 | X-H torsion
[ 10763 10752 10751 10750 ] final  -93.20 input  -60.55 | X-H torsion
[ 11005 11000 10999 10996 ] final  -77.07 input  -57.11 | X-H torsion

> <Gold.Protein.ActiveResidues>
 VAL166  LYS551  ARG553  GLY616  TRP617  ASP618  TYR619  PRO620  LYS621  CYS622 
 ASP623  PHE694  ASN695  SER759  ASP760  ASP761  ALA762  ILE779  LEU786  VAL792 
 PHE793  MET794  SER795  GLU796  ALA797  LYS798  CYS799  TRP800  GLU811  SER814 

> <Gold.Protein.RotatedAtoms>
  152.4824  134.4685  159.9627 H   0  0  0  0  0  0  0  0  0  0  0  0  # atno 6907 bound_to 6896
  151.4688  133.3568  159.2828 H   0  0  0  0  0  0  0  0  0  0  0  0  # atno 6908 bound_to 6896
  150.8906  134.8335  159.7351 H   0  0  0  0  0  0  0  0  0  0  0  0  # atno 6909 bound_to 6896
  146.1656  140.4524  142.8553 H   0  0  0  0  0  0  0  0  0  0  0  0  # atno 7974 bound_to 7965
  155.5145  140.3478  155.4395 H   0  0  0  0  0  0  0  0  0  0  0  0  # atno 8008 bound_to 7997
  156.0826  140.1390  156.9720 H   0  0  0  0  0  0  0  0  0  0  0  0  # atno 8009 bound_to 7997
  154.4588  140.0943  156.6812 H   0  0  0  0  0  0  0  0  0  0  0  0  # atno 8010 bound_to 7997
  139.8630  143.7054  152.2648 H   0  0  0  0  0  0  0  0  0  0  0  0  # atno 10167 bound_to 10162
  157.3911  130.7807  149.7270 H   0  0  0  0  0  0  0  0  0  0  0  0  # atno 10718 bound_to 10713
  154.6936  135.5203  153.8426 H   0  0  0  0  0  0  0  0  0  0  0  0  # atno 10763 bound_to 10752
  153.0650  135.6582  154.0384 H   0  0  0  0  0  0  0  0  0  0  0  0  # atno 10764 bound_to 10752
  154.0254  135.2990  155.3355 H   0  0  0  0  0  0  0  0  0  0  0  0  # atno 10765 bound_to 10752
  141.1658  133.7008  156.7765 H   0  0  0  0  0  0  0  0  0  0  0  0  # atno 11005 bound_to 11000
  144.8088  140.6348  143.6429 LP  0  0  0  0  0  0  0  0  0  0  0  0  # atno 17320 bound_to 7965
  145.4475  139.1527  143.3936 LP  0  0  0  0  0  0  0  0  0  0  0  0  # atno 17321 bound_to 7965
  139.7356  144.7572  151.0733 LP  0  0  0  0  0  0  0  0  0  0  0  0  # atno 17342 bound_to 10162
  140.7772  143.5035  150.9742 LP  0  0  0  0  0  0  0  0  0  0  0  0  # atno 17343 bound_to 10162
  155.9798  130.4035  150.3562 LP  0  0  0  0  0  0  0  0  0  0  0  0  # atno 17370 bound_to 10713
  157.1679  131.0361  151.2810 LP  0  0  0  0  0  0  0  0  0  0  0  0  # atno 17371 bound_to 10713
  140.2426  134.8602  157.3588 LP  0  0  0  0  0  0  0  0  0  0  0  0  # atno 17394 bound_to 11000
  140.1781  134.4524  155.7789 LP  0  0  0  0  0  0  0  0  0  0  0  0  # atno 17395 bound_to 11000

$$$$
