#       Name:                AV-unprocessed.smi:2344
#       Creating user name   scv26
#       Creation time:       Fri Mar 27 12:58:01 2020


#       File generated by GOLD software.
#

@<TRIPOS>MOLECULE
AV-unprocessed.smi:2344
    40    41     1
SMALL
NO_CHARGES


@<TRIPOS>ATOM
      1 ****        -5.5815   3.6524   0.3509 C.3            1 S1                 0.0000
      2 ****        -4.3820   2.7738   0.0641 C.ar           1 S1                 0.0000
      3 ****        -4.5477   1.4658  -0.4282 C.ar           1 S1                 0.0000
      4 ****        -3.4031   0.6863  -0.6833 C.ar           1 S1                 0.0000
      5 ****        -2.1220   1.2315  -0.4412 C.ar           1 S1                 0.0000
      6 ****        -1.0352   0.3638  -0.7295 N.am           1 S1                 0.0000
      7 ****         0.2801   0.6023  -0.5839 C.2            1 S1                 0.0000
      8 ****         0.7739   1.6530  -0.1734 O.2            1 S1                 0.0000
      9 ****         1.0093  -0.4639  -0.9431 N.am           1 S1                 0.0000
     10 ****         2.4652  -0.5325  -0.8910 C.3            1 S1                 0.0000
     11 ****         2.9595  -1.7646  -1.5980 C.2            1 S1                 0.0000
     12 ****         3.7195  -2.5330  -0.8213 C.2            1 S1                 0.0000
     13 ****         3.8845  -1.9775   0.5704 C.3            1 S1                 0.0000
     14 ****         3.4739  -2.9768   1.6657 C.3            1 S1                 0.0000
     15 ****         4.3414  -4.0911   1.6727 O.3            1 S1                 0.0000
     16 ****         3.0079  -0.6994   0.5532 C.3            1 S1                 0.0000
     17 ****        -1.9726   2.4937   0.0323 N.ar           1 S1                 0.0000
     18 ****        -3.0699   3.2404   0.2761 C.ar           1 S1                 0.0000
     19 ****         2.9036   0.3419  -1.3748 H              1 S1                 0.0000
     20 ****         4.9314  -1.6990   0.6995 H              1 S1                 0.0000
     21 ****        -6.3581   3.0843   0.8638 H              1 S1                 0.0000
     22 ****        -5.9956   4.0392  -0.5803 H              1 S1                 0.0000
     23 ****        -5.3071   4.4981   0.9823 H              1 S1                 0.0000
     24 ****        -5.5340   1.0640  -0.6081 H              1 S1                 0.0000
     25 ****        -3.5126  -0.3200  -1.0610 H              1 S1                 0.0000
     26 ****        -1.2895  -0.5477  -1.0800 H              1 S1                 0.0000
     27 ****         0.5256  -1.2877  -1.2693 H              1 S1                 0.0000
     28 ****         2.7207  -1.9705  -2.6311 H              1 S1                 0.0000
     29 ****         4.1882  -3.4555  -1.1309 H              1 S1                 0.0000
     30 ****         3.5156  -2.5013   2.6460 H              1 S1                 0.0000
     31 ****         2.4496  -3.3201   1.5158 H              1 S1                 0.0000
     32 ****         4.0731  -4.6775   2.3637 H              1 S1                 0.0000
     33 ****         3.5902   0.1741   0.8492 H              1 S1                 0.0000
     34 ****         2.1911  -0.7846   1.2720 H              1 S1                 0.0000
     35 ****        -2.8922   4.2378   0.6505 H              1 S1                 0.0000
     36 ****         0.1818   2.4168   0.0836 LP             1 S1                 0.0000
     37 ****         1.7669   1.7424  -0.0970 LP             1 S1                 0.0000
     38 ****         5.2799  -3.7864   1.8348 LP             1 S1                 0.0000
     39 ****         4.2913  -4.5626   0.7923 LP             1 S1                 0.0000
     40 ****        -1.0599   2.8667   0.1988 LP             1 S1                 0.0000
@<TRIPOS>BOND
    1    1    2 1     
    2    1   21 1     
    3    1   22 1     
    4    1   23 1     
    5    2   18 ar    
    6    2    3 ar    
    7    3    4 ar    
    8    3   24 1     
    9    4    5 ar    
   10    4   25 1     
   11    5    6 1     
   12    5   17 ar    
   13    6    7 am    
   14    6   26 1     
   15    7    8 2     
   16    7    9 am    
   17    9   10 1     
   18    9   27 1     
   19   10   19 1     
   20   10   16 1     
   21   10   11 1     
   22   11   12 2     
   23   11   28 1     
   24   12   13 1     
   25   12   29 1     
   26   13   20 1     
   27   13   14 1     
   28   13   16 1     
   29   14   15 1     
   30   14   30 1     
   31   14   31 1     
   32   15   32 1     
   33   16   33 1     
   34   16   34 1     
   35   17   18 ar    
   36   18   35 1     
   37    8   36 1     
   38    8   37 1     
   39   15   38 1     
   40   15   39 1     
   41   17   40 1     
@<TRIPOS>SUBSTRUCTURE
      1 S1             1
@<TRIPOS>SET
LONE_PAIRS      STATIC     ATOMS    <user>   **** ""
5 36 37 38 39 40
DONOR_HYDROGENS      STATIC     ATOMS    <user>   **** ""
3 26 27 32
ATOM$BLUE        STATIC     ATOMS    COLORGROUP SYSTEM
5 36 37 38 39 40
ATOM$RED        STATIC     ATOMS    COLORGROUP SYSTEM
3 26 27 32
