AV-unprocessed.smi:1319|AV-procd|sdf|5458|dock4
  -GOLD-   22720 5 23D 1   1.00000     0.00000
 Structure written by MMmdl.
 28 29  0  0  0  0  0  0  0  0  1 V2000
  153.6279  137.2131  156.8358 N   0  0  0  0  0  0  0  0  0  0  0  0
  152.7577  138.0762  156.2151 C   0  0  0  0  0  0  0  0  0  0  0  0
  152.2290  137.6547  155.0594 N   0  0  0  0  0  0  0  0  0  0  0  0
  151.3923  138.5499  154.5194 C   0  0  0  0  0  0  0  0  0  0  0  0
  150.8060  138.1930  153.3292 N   0  0  0  0  0  0  0  0  0  0  0  0
  151.0601  139.7512  155.0048 N   0  0  0  0  0  0  0  0  0  0  0  0
  151.6772  140.0130  156.1626 C   0  0  0  0  0  0  0  0  0  0  0  0
  151.3052  141.5817  156.9021 S   0  0  0  0  0  0  0  0  0  0  0  0
  151.9768  141.2888  158.5603 C   0  0  0  0  0  0  0  0  0  0  0  0
  152.2284  142.6029  159.3104 C   0  0  2  0  0  0  0  0  0  0  0  0
  152.8526  142.4210  160.6921 C   0  0  0  0  0  0  0  0  0  0  0  0
  152.4307  143.6776  161.4380 C   0  0  0  0  0  0  0  0  0  0  0  0
  151.2907  144.2523  160.5908 C   0  0  0  0  0  0  0  0  0  0  0  0
  151.0077  143.2576  159.6164 O   0  0  0  0  0  0  0  0  0  0  0  0
  152.5360  139.2399  156.8365 N   0  0  0  0  0  0  0  0  0  0  0  0
  154.0623  137.4669  157.7110 H   0  0  0  0  0  0  0  0  0  0  0  0
  153.8251  136.3089  156.4322 H   0  0  0  0  0  0  0  0  0  0  0  0
  151.0115  137.2995  152.9062 H   0  0  0  0  0  0  0  0  0  0  0  0
  150.1394  138.8066  152.8837 H   0  0  0  0  0  0  0  0  0  0  0  0
  151.2845  140.6570  159.1180 H   0  0  0  0  0  0  0  0  0  0  0  0
  152.9094  140.7329  158.4600 H   0  0  0  0  0  0  0  0  0  0  0  0
  152.8495  143.2700  158.7098 H   0  0  0  0  0  0  0  0  0  0  0  0
  152.4284  141.5452  161.1852 H   0  0  0  0  0  0  0  0  0  0  0  0
  153.9347  142.2932  160.6515 H   0  0  0  0  0  0  0  0  0  0  0  0
  152.1038  143.4399  162.4509 H   0  0  0  0  0  0  0  0  0  0  0  0
  153.2513  144.3924  161.5092 H   0  0  0  0  0  0  0  0  0  0  0  0
  150.4041  144.4825  161.1822 H   0  0  0  0  0  0  0  0  0  0  0  0
  151.6107  145.1661  160.0880 H   0  0  0  0  0  0  0  0  0  0  0  0
  1  2  1  0  0  0  0
  1 16  1  0  0  0  0
  1 17  1  0  0  0  0
  2 15  1  0  0  0  0
  2  3  2  0  0  0  0
  3  4  1  0  0  0  0
  4  5  1  0  0  0  0
  4  6  2  0  0  0  0
  5 18  1  0  0  0  0
  5 19  1  0  0  0  0
  6  7  1  0  0  0  0
  7  8  1  0  0  0  0
  7 15  2  0  0  0  0
  8  9  1  0  0  0  0
  9 10  1  0  0  0  0
  9 20  1  0  0  0  0
  9 21  1  0  0  0  0
 10 14  1  0  0  0  0
 10 11  1  0  0  0  0
 10 22  1  0  0  0  0
 11 12  1  0  0  0  0
 11 23  1  0  0  0  0
 11 24  1  0  0  0  0
 12 13  1  0  0  0  0
 12 25  1  0  0  0  0
 12 26  1  0  0  0  0
 13 14  1  0  0  0  0
 13 27  1  0  0  0  0
 13 28  1  0  0  0  0
M  END
> <s_m_source_file>
AV-unprocessed.smi

> <i_m_source_file_index>
1319

> <i_lp_mmshare_version>
43012

> <i_f3d_flags>
0

> <s_epik_input>
W05IMl1jMW5jKFtOSDJdKW5jKG4xKVNbQ0gyXVtDQEBIXTJbQ0gyXVtDSDJdW0NIMl1PMg==

> <s_epik_cmdline>
J2VwaWtfcHl0aG9uJywgJy1waCcsICc3LjAnLCAnLXRuJywgJzgnLCAnLW1hJywgJzIwMCcsICctbWV0YWxfYmluZGluZycsICctaW1hZScsICc8aW5maWxlLm1hZT4nLCAnLW9tYWUnLCAnPG91dGZpbGUubWFlPic=

> <r_lp_tautomer_probability>
1

> <r_epik_Ionization_Penalty>
0.000877611

> <r_epik_Ionization_Penalty_Charging>
0

> <r_epik_Ionization_Penalty_Neutral>
0.000877611

> <r_epik_State_Penalty>
-0

> <r_epik_Charging_Adjusted_Penalty>
0

> <i_epik_Tot_Q>
0

> <i_epik_Tot_abs_Q>
0

> <r_epik_Metal_State_Penalty>
-0

> <b_epik_Metal_Only>
0

> <s_lp_Force_Field>
OPLS_2005

> <r_lp_Energy>
8.74089

> <b_lp_Chiralities_Consistent>
1

> <s_lp_Variant>
AV-unprocessed.smi:1319-1

> <Gold.Version>
5.8.1

> <Gold.Id.Protein>
6NUR|6NUR_protein|mol2

> <Gold.PLP.Fitness>
40.9147

> <Gold.PLP.PLP>
-29.4541

> <Gold.PLP.part.hbond>
-6.0502

> <Gold.PLP.part.metal>
0.0000

> <Gold.PLP.part.buried>
-2.0753

> <Gold.PLP.part.nonpolar>
-21.7968

> <Gold.PLP.part.repulsive>
0.4292

> <Gold.PLP.ligand.clash>
0.0000

> <Gold.PLP.ligand.torsion>
0.2689

> <Gold.PLP.Chemscore.Hbond>
3.9968

> <Gold.PLP.Chemscore.CHOScore>
0.0000

> <Gold.PLP.Chemscore.Metal>
0.0000

> <Gold.Chemscore.Hbonds>
donor molecule, donor type, donor heavy atom, donor atom, acceptor molecule, acceptor atom, score
      L1  H     5    18       P1  7949  1.00
      L1  H     5    19       P1  7957  0.63
      P1  H  7989  7998       L1     6  0.95
      P1  H  7997  8008       L1    15  0.91
      P1  H 10752 10763       L1     3  0.37

> <Gold.PLP.Chemscore.Internal.Correction>
0.0082

> <Gold.Rescore>
     Score         DG    S(hbond)    S(metal)    S(lipo)     H(rot)  DE(clash)    DE(int)     intcor
     12.61     -13.45       1.79        0.00      59.94       1.96       0.52       0.32       ----

> <Gold.Chemscore.Fitness>
12.6149

> <Gold.Chemscore.DG>
-13.4545

> <Gold.Chemscore.ZeroCoef>
-5.4800

> <Gold.Chemscore.Hbond>
1.7916

> <Gold.Chemscore.Metal>
0.0000

> <Gold.Chemscore.Lipo>
59.9385

> <Gold.Chemscore.Internal_Hbond>
0.0000

> <Gold.Chemscore.DEClash>
0.5239

> <Gold.Chemscore.DEInternal>
0.3157

> <Gold.Chemscore.Rot>
1.9619

> <Gold.Chemscore.Internal.Correction>
   9.000000E+99

> <Gold.Chemscore.Hbonds>
donor molecule, donor type, donor heavy atom, donor atom, acceptor molecule, acceptor atom, score
      L1  H     5    18       P1  7949  0.29
      L1  H     5    19       P1  7957  0.37
      P1  H  7989  7998       L1     6  0.19
      P1  H  7997  8008       L1    15  0.17
      P1  H 10752 10763       L1     3  0.28

> <Gold.Chemscore.Hbond.Weighted>
-5.9841

> <Gold.Chemscore.Metal.Weighted>
-0.0000

> <Gold.Chemscore.Lipo.Weighted>
-7.0128

> <Gold.Chemscore.Internal_Hbond.Weighted>
0.0000

> <Gold.Chemscore.DEClash.Weighted>
0.5239

> <Gold.Chemscore.DEInternal.Weighted>
0.3157

> <Gold.Chemscore.Rot.Weighted>
5.0224

> <Gold.Chemscore.Internal.Correction.Weighted>
   9.000000E+99

> <Gold.Protein.RotatedTorsions>
[ 6907 6896 6895 6894 ] final  -89.41 input  -60.11 | X-H torsion
[ 7974 7965 7964 7962 ] final   67.49 input  175.53 | X-H torsion
[ 8008 7997 7996 7995 ] final  -69.59 input   59.86 | X-H torsion
[ 10167 10162 10161 10158 ] final  116.99 input  -65.29 | X-H torsion
[ 10718 10713 10712 10709 ] final  -65.58 input   66.30 | X-H torsion
[ 10763 10752 10751 10750 ] final   58.98 input  -60.55 | X-H torsion
[ 11005 11000 10999 10996 ] final  130.19 input  -57.11 | X-H torsion

> <Gold.Protein.ActiveResidues>
 VAL166  LYS551  ARG553  GLY616  TRP617  ASP618  TYR619  PRO620  LYS621  CYS622 
 ASP623  PHE694  ASN695  SER759  ASP760  ASP761  ALA762  ILE779  LEU786  VAL792 
 PHE793  MET794  SER795  GLU796  ALA797  LYS798  CYS799  TRP800  GLU811  SER814 

> <Gold.Protein.RotatedAtoms>
  150.6874  134.2591  159.4541 H   0  0  0  0  0  0  0  0  0  0  0  0  # atno 6907 bound_to 6896
  152.0523  134.9643  160.0584 H   0  0  0  0  0  0  0  0  0  0  0  0  # atno 6908 bound_to 6896
  152.1103  133.4262  159.4665 H   0  0  0  0  0  0  0  0  0  0  0  0  # atno 6909 bound_to 6896
  145.8141  139.3048  143.1082 H   0  0  0  0  0  0  0  0  0  0  0  0  # atno 7974 bound_to 7965
  154.4950  140.0850  156.7676 H   0  0  0  0  0  0  0  0  0  0  0  0  # atno 8008 bound_to 7997
  155.4139  140.3442  155.4247 H   0  0  0  0  0  0  0  0  0  0  0  0  # atno 8009 bound_to 7997
  156.1381  140.1521  156.8951 H   0  0  0  0  0  0  0  0  0  0  0  0  # atno 8010 bound_to 7997
  139.6209  144.7101  151.2636 H   0  0  0  0  0  0  0  0  0  0  0  0  # atno 10167 bound_to 10162
  156.0661  130.4249  150.1585 H   0  0  0  0  0  0  0  0  0  0  0  0  # atno 10718 bound_to 10713
  152.9883  135.5588  154.5639 H   0  0  0  0  0  0  0  0  0  0  0  0  # atno 10763 bound_to 10752
  154.5053  135.2799  155.1390 H   0  0  0  0  0  0  0  0  0  0  0  0  # atno 10764 bound_to 10752
  154.2803  135.6346  153.5397 H   0  0  0  0  0  0  0  0  0  0  0  0  # atno 10765 bound_to 10752
  139.9658  134.9591  156.9257 H   0  0  0  0  0  0  0  0  0  0  0  0  # atno 11005 bound_to 11000
  145.9746  140.8732  143.0145 LP  0  0  0  0  0  0  0  0  0  0  0  0  # atno 17320 bound_to 7965
  144.6754  140.1994  143.7388 LP  0  0  0  0  0  0  0  0  0  0  0  0  # atno 17321 bound_to 7965
  140.7381  143.6657  150.8125 LP  0  0  0  0  0  0  0  0  0  0  0  0  # atno 17342 bound_to 10162
  140.0267  143.5485  152.2777 LP  0  0  0  0  0  0  0  0  0  0  0  0  # atno 17343 bound_to 10162
  156.9644  130.9815  151.3472 LP  0  0  0  0  0  0  0  0  0  0  0  0  # atno 17370 bound_to 10713
  157.5704  130.8306  149.8383 LP  0  0  0  0  0  0  0  0  0  0  0  0  # atno 17371 bound_to 10713
  140.5401  134.0729  155.7339 LP  0  0  0  0  0  0  0  0  0  0  0  0  # atno 17394 bound_to 11000
  141.1337  133.9258  157.2480 LP  0  0  0  0  0  0  0  0  0  0  0  0  # atno 17395 bound_to 11000

$$$$
