AV-unprocessed.smi:2784|AV-procd|sdf|10743|dock5
  -GOLD-   2272015183D 1   1.00000     0.00000
 Structure written by MMmdl.
 30 31  0  0  0  0  0  0  0  0  2 V2000
  154.0142  141.3041  160.3735 C   0  0  0  0  0  0  0  0  0  0  0  0
  153.6313  142.5824  159.8935 O   0  0  0  0  0  0  0  0  0  0  0  0
  152.2534  142.8827  160.0968 C   0  0  1  0  0  0  0  0  0  0  0  0
  152.0964  144.4003  160.2399 C   0  0  0  0  0  0  0  0  0  0  0  0
  152.0893  144.9103  158.8015 C   0  0  0  0  0  0  0  0  0  0  0  0
  151.3365  143.8373  158.0100 C   0  0  0  0  0  0  0  0  0  0  0  0
  151.4390  142.5353  158.8292 C   0  0  1  0  0  0  0  0  0  0  0  0
  152.0324  141.4567  158.0403 N   0  0  0  0  0  0  0  0  0  0  0  0
  151.6821  141.1174  156.7913 C   0  0  0  0  0  0  0  0  0  0  0  0
  150.7885  141.7408  156.2135 O   0  0  0  0  0  0  0  0  0  0  0  0
  152.3845  140.0753  156.2923 N   0  5  0  0  0  0  0  0  0  0  0  0
  151.8273  139.2740  155.3702 C   0  0  0  0  0  0  0  0  0  0  0  0
  150.8374  139.5969  154.5360 N   0  0  0  0  0  0  0  0  0  0  0  0
  150.6033  138.4656  153.7698 C   0  0  0  0  0  0  0  0  0  0  0  0
  151.4792  137.4958  154.1747 C   0  0  0  0  0  0  0  0  0  0  0  0
  152.2586  137.9947  155.1814 O   0  0  0  0  0  0  0  0  0  0  0  0
  155.0791  141.1535  160.1980 H   0  0  0  0  0  0  0  0  0  0  0  0
  153.4750  140.5130  159.8507 H   0  0  0  0  0  0  0  0  0  0  0  0
  153.8323  141.2033  161.4434 H   0  0  0  0  0  0  0  0  0  0  0  0
  151.8622  142.3430  160.9613 H   0  0  0  0  0  0  0  0  0  0  0  0
  151.1376  144.6247  160.7092 H   0  0  0  0  0  0  0  0  0  0  0  0
  152.8747  144.8647  160.8451 H   0  0  0  0  0  0  0  0  0  0  0  0
  151.6346  145.8966  158.7079 H   0  0  0  0  0  0  0  0  0  0  0  0
  153.1148  144.9815  158.4364 H   0  0  0  0  0  0  0  0  0  0  0  0
  150.2883  144.1196  157.9048 H   0  0  0  0  0  0  0  0  0  0  0  0
  151.7424  143.7391  157.0021 H   0  0  0  0  0  0  0  0  0  0  0  0
  150.4285  142.2455  159.1235 H   0  0  0  0  0  0  0  0  0  0  0  0
  152.7626  140.9168  158.4807 H   0  0  0  0  0  0  0  0  0  0  0  0
  149.8420  138.4415  153.0046 H   0  0  0  0  0  0  0  0  0  0  0  0
  151.6657  136.4760  153.8734 H   0  0  0  0  0  0  0  0  0  0  0  0
  1  2  1  0  0  0  0
  1 17  1  0  0  0  0
  1 18  1  0  0  0  0
  1 19  1  0  0  0  0
  2  3  1  0  0  0  0
  3  7  1  0  0  0  0
  3  4  1  0  0  0  0
  3 20  1  0  0  0  0
  4  5  1  0  0  0  0
  4 21  1  0  0  0  0
  4 22  1  0  0  0  0
  5  6  1  0  0  0  0
  5 23  1  0  0  0  0
  5 24  1  0  0  0  0
  6  7  1  0  0  0  0
  6 25  1  0  0  0  0
  6 26  1  0  0  0  0
  7  8  1  0  0  0  0
  7 27  1  0  0  0  0
  8 28  1  0  0  0  0
  8  9  1  0  0  0  0
  9 11  1  0  0  0  0
  9 10  2  0  0  0  0
 11 12  1  0  0  0  0
 12 16  1  0  0  0  0
 12 13  2  0  0  0  0
 13 14  1  0  0  0  0
 14 29  1  0  0  0  0
 14 15  2  0  0  0  0
 15 30  1  0  0  0  0
 15 16  1  0  0  0  0
M  CHG  1  11  -1
M  END
> <s_m_source_file>
AV-unprocessed.smi

> <i_m_source_file_index>
2784

> <i_lp_mmshare_version>
43012

> <i_f3d_flags>
0

> <s_epik_input>
W0NIM11PW0NAQEhdMVtDSDJdW0NIMl1bQ0gyXVtDQEhdMVtOSF1DKD1PKVtOSF1jMm5bY0hdW2NIXW8y

> <s_epik_cmdline>
J2VwaWtfcHl0aG9uJywgJy1waCcsICc3LjAnLCAnLXRuJywgJzgnLCAnLW1hJywgJzIwMCcsICctbWV0YWxfYmluZGluZycsICctaW1hZScsICc8aW5maWxlLm1hZT4nLCAnLW9tYWUnLCAnPG91dGZpbGUubWFlPic=

> <r_lp_tautomer_probability>
0.107061

> <r_epik_Ionization_Penalty>
10.8857

> <r_epik_Ionization_Penalty_Charging>
7.67908

> <r_epik_Ionization_Penalty_Neutral>
3.20665

> <r_epik_State_Penalty>
5.80296

> <r_epik_Charging_Adjusted_Penalty>
13.482

> <i_epik_Tot_Q>
-1

> <i_epik_Tot_abs_Q>
1

> <r_epik_Metal_State_Penalty>
1.73217

> <b_epik_Metal_Only>
1

> <s_lp_Force_Field>
OPLS_2005

> <r_lp_Energy>
16.6072

> <b_lp_Chiralities_Consistent>
1

> <s_lp_Variant>
AV-unprocessed.smi:2784-18

> <Gold.Version>
5.8.1

> <Gold.Id.Protein>
6NUR|6NUR_protein|mol2

> <Gold.PLP.Fitness>
48.5693

> <Gold.PLP.PLP>
-34.1772

> <Gold.PLP.part.hbond>
-2.0000

> <Gold.PLP.part.metal>
0.0000

> <Gold.PLP.part.buried>
-4.2018

> <Gold.PLP.part.nonpolar>
-28.3196

> <Gold.PLP.part.repulsive>
0.2905

> <Gold.PLP.ligand.clash>
0.0000

> <Gold.PLP.ligand.torsion>
0.8442

> <Gold.PLP.Chemscore.Hbond>
3.0000

> <Gold.PLP.Chemscore.CHOScore>
2.3555

> <Gold.PLP.Chemscore.Metal>
0.0000

> <Gold.Chemscore.Hbonds>
donor molecule, donor type, donor heavy atom, donor atom, acceptor molecule, acceptor atom, score
      P1  H  7989  7998       L1    13  1.00
      P1  H  7997  8009       L1    11  2.00
      L1  C    14    29       P1  7948  0.74
      L1  C    14    29       P1  7957  0.92
      L1  C    15    30       P1  7949  0.71

> <Gold.PLP.Chemscore.Internal.Correction>
0.0140

> <Gold.Rescore>
     Score         DG    S(hbond)    S(metal)    S(lipo)     H(rot)  DE(clash)    DE(int)     intcor
     14.57     -18.44       1.88        0.00      85.75       1.31       0.08       3.79       ----

> <Gold.Chemscore.Fitness>
14.5721

> <Gold.Chemscore.DG>
-18.4434

> <Gold.Chemscore.ZeroCoef>
-5.4800

> <Gold.Chemscore.Hbond>
1.8820

> <Gold.Chemscore.Metal>
0.0000

> <Gold.Chemscore.Lipo>
85.7478

> <Gold.Chemscore.Internal_Hbond>
0.0000

> <Gold.Chemscore.DEClash>
0.0773

> <Gold.Chemscore.DEInternal>
3.7940

> <Gold.Chemscore.Rot>
1.3106

> <Gold.Chemscore.Internal.Correction>
   9.000000E+99

> <Gold.Chemscore.Hbonds>
donor molecule, donor type, donor heavy atom, donor atom, acceptor molecule, acceptor atom, score
      P1  H  7989  7998       L1    13  0.24
      P1  H  7997  8009       L1    11  0.90

> <Gold.Chemscore.Hbond.Weighted>
-6.2859

> <Gold.Chemscore.Metal.Weighted>
-0.0000

> <Gold.Chemscore.Lipo.Weighted>
-10.0325

> <Gold.Chemscore.Internal_Hbond.Weighted>
0.0000

> <Gold.Chemscore.DEClash.Weighted>
0.0773

> <Gold.Chemscore.DEInternal.Weighted>
3.7940

> <Gold.Chemscore.Rot.Weighted>
3.3550

> <Gold.Chemscore.Internal.Correction.Weighted>
   9.000000E+99

> <Gold.Protein.RotatedTorsions>
[ 6907 6896 6895 6894 ] final -174.28 input  -60.11 | X-H torsion
[ 7974 7965 7964 7962 ] final -176.75 input  175.53 | X-H torsion
[ 8008 7997 7996 7995 ] final -170.54 input   59.86 | X-H torsion
[ 10167 10162 10161 10158 ] final -117.03 input  -65.29 | X-H torsion
[ 10718 10713 10712 10709 ] final    3.32 input   66.30 | X-H torsion
[ 10763 10752 10751 10750 ] final  144.62 input  -60.55 | X-H torsion
[ 11005 11000 10999 10996 ] final   56.25 input  -57.11 | X-H torsion

> <Gold.Protein.ActiveResidues>
 VAL166  LYS551  ARG553  GLY616  TRP617  ASP618  TYR619  PRO620  LYS621  CYS622 
 ASP623  PHE694  ASN695  SER759  ASP760  ASP761  ALA762  ILE779  LEU786  VAL792 
 PHE793  MET794  SER795  GLU796  ALA797  LYS798  CYS799  TRP800  GLU811  SER814 

> <Gold.Protein.RotatedAtoms>
  151.5698  133.3391  159.2987 H   0  0  0  0  0  0  0  0  0  0  0  0  # atno 6907 bound_to 6896
  150.8374  134.7656  159.6915 H   0  0  0  0  0  0  0  0  0  0  0  0  # atno 6908 bound_to 6896
  152.4448  134.5524  159.9922 H   0  0  0  0  0  0  0  0  0  0  0  0  # atno 6909 bound_to 6896
  144.7127  140.1122  143.6410 H   0  0  0  0  0  0  0  0  0  0  0  0  # atno 7974 bound_to 7965
  155.9197  140.1072  157.1216 H   0  0  0  0  0  0  0  0  0  0  0  0  # atno 8008 bound_to 7997
  154.4052  140.1258  156.4729 H   0  0  0  0  0  0  0  0  0  0  0  0  # atno 8009 bound_to 7997
  155.7211  140.3470  155.5018 H   0  0  0  0  0  0  0  0  0  0  0  0  # atno 8010 bound_to 7997
  140.0728  143.4861  152.1970 H   0  0  0  0  0  0  0  0  0  0  0  0  # atno 10167 bound_to 10162
  156.8761  130.5637  149.5655 H   0  0  0  0  0  0  0  0  0  0  0  0  # atno 10718 bound_to 10713
  153.9919  135.2931  155.3411 H   0  0  0  0  0  0  0  0  0  0  0  0  # atno 10763 bound_to 10752
  154.7209  135.5109  153.8814 H   0  0  0  0  0  0  0  0  0  0  0  0  # atno 10764 bound_to 10752
  153.0806  135.6677  154.0170 H   0  0  0  0  0  0  0  0  0  0  0  0  # atno 10765 bound_to 10752
  140.0544  134.5691  155.9225 H   0  0  0  0  0  0  0  0  0  0  0  0  # atno 11005 bound_to 11000
  145.9444  139.2691  143.1249 LP  0  0  0  0  0  0  0  0  0  0  0  0  # atno 17320 bound_to 7965
  145.9389  140.8994  143.0318 LP  0  0  0  0  0  0  0  0  0  0  0  0  # atno 17321 bound_to 7965
  139.5826  144.7517  151.3601 LP  0  0  0  0  0  0  0  0  0  0  0  0  # atno 17342 bound_to 10162
  140.7117  143.7373  150.7579 LP  0  0  0  0  0  0  0  0  0  0  0  0  # atno 17343 bound_to 10162
  156.0701  130.5736  150.9366 LP  0  0  0  0  0  0  0  0  0  0  0  0  # atno 17370 bound_to 10713
  157.6167  131.0933  150.8697 LP  0  0  0  0  0  0  0  0  0  0  0  0  # atno 17371 bound_to 10713
  141.1945  133.6583  156.5598 LP  0  0  0  0  0  0  0  0  0  0  0  0  # atno 17394 bound_to 11000
  140.3867  134.7476  157.4696 LP  0  0  0  0  0  0  0  0  0  0  0  0  # atno 17395 bound_to 11000

$$$$
