AV-unprocessed.smi:3291|AV-procd|sdf|12620|dock7
  -GOLD-   2272018553D 1   1.00000     0.00000
 Structure written by MMmdl.
 43 45  0  0  0  0  0  0  0  0  2 V2000
  151.5961  132.1062  155.9036 C   0  0  0  0  0  0  0  0  0  0  0  0
  150.3419  132.7877  156.3716 C   0  0  0  0  0  0  0  0  0  0  0  0
  150.2125  133.1059  157.6474 N   0  0  0  0  0  0  0  0  0  0  0  0
  148.9601  133.7133  157.7641 O   0  0  0  0  0  0  0  0  0  0  0  0
  148.3758  133.7388  156.5397 C   0  0  0  0  0  0  0  0  0  0  0  0
  147.0216  134.3632  156.4754 C   0  0  0  0  0  0  0  0  0  0  0  0
  149.2032  133.1713  155.6045 C   0  0  0  0  0  0  0  0  0  0  0  0
  149.0036  132.9790  154.1158 C   0  0  1  0  0  0  0  0  0  0  0  0
  149.2715  131.5218  153.7117 C   0  0  0  0  0  0  0  0  0  0  0  0
  147.6099  133.4439  153.6550 C   0  0  0  0  0  0  0  0  0  0  0  0
  147.6072  133.7896  152.2172 N   0  3  0  0  0  0  0  0  0  0  0  0
  146.2813  133.7690  151.5642 C   0  0  0  0  0  0  0  0  0  0  0  0
  145.4580  134.9297  152.0924 C   0  0  0  0  0  0  0  0  0  0  0  0
  144.2782  135.4701  151.3178 C   0  0  0  0  0  0  0  0  0  0  0  0
  145.5357  136.2955  151.4510 C   0  0  0  0  0  0  0  0  0  0  0  0
  145.5783  132.4438  151.8197 C   0  0  0  0  0  0  0  0  0  0  0  0
  145.8409  131.2307  150.9553 C   0  0  0  0  0  0  0  0  0  0  0  0
  144.5089  131.9343  150.8796 C   0  0  0  0  0  0  0  0  0  0  0  0
  151.3733  131.1202  155.4958 H   0  0  0  0  0  0  0  0  0  0  0  0
  152.3128  131.9741  156.7149 H   0  0  0  0  0  0  0  0  0  0  0  0
  152.0868  132.6864  155.1222 H   0  0  0  0  0  0  0  0  0  0  0  0
  146.3613  133.8042  155.8134 H   0  0  0  0  0  0  0  0  0  0  0  0
  147.0862  135.3862  156.1059 H   0  0  0  0  0  0  0  0  0  0  0  0
  146.5569  134.3918  157.4611 H   0  0  0  0  0  0  0  0  0  0  0  0
  149.7307  133.5855  153.5743 H   0  0  0  0  0  0  0  0  0  0  0  0
  150.2819  131.2192  153.9890 H   0  0  0  0  0  0  0  0  0  0  0  0
  149.1748  131.3891  152.6339 H   0  0  0  0  0  0  0  0  0  0  0  0
  148.5756  130.8341  154.1920 H   0  0  0  0  0  0  0  0  0  0  0  0
  146.8786  132.6528  153.8261 H   0  0  0  0  0  0  0  0  0  0  0  0
  147.2883  134.2999  154.2461 H   0  0  0  0  0  0  0  0  0  0  0  0
  148.0097  134.7087  152.1007 H   0  0  0  0  0  0  0  0  0  0  0  0
  146.4119  133.9040  150.4889 H   0  0  0  0  0  0  0  0  0  0  0  0
  145.3388  134.9217  153.1747 H   0  0  0  0  0  0  0  0  0  0  0  0
  144.0666  135.0440  150.3392 H   0  0  0  0  0  0  0  0  0  0  0  0
  143.4060  135.7852  151.8872 H   0  0  0  0  0  0  0  0  0  0  0  0
  145.5008  137.1621  152.1084 H   0  0  0  0  0  0  0  0  0  0  0  0
  146.1563  136.4076  150.5641 H   0  0  0  0  0  0  0  0  0  0  0  0
  145.3938  132.2469  152.8746 H   0  0  0  0  0  0  0  0  0  0  0  0
  146.5145  131.3442  150.1082 H   0  0  0  0  0  0  0  0  0  0  0  0
  145.8724  130.2615  151.4488 H   0  0  0  0  0  0  0  0  0  0  0  0
  143.6498  131.4332  151.3209 H   0  0  0  0  0  0  0  0  0  0  0  0
  144.3015  132.5051  149.9769 H   0  0  0  0  0  0  0  0  0  0  0  0
  148.1972  133.1206  151.7433 H   0  0  0  0  0  0  0  0  0  0  0  0
  1  2  1  0  0  0  0
  1 19  1  0  0  0  0
  1 20  1  0  0  0  0
  1 21  1  0  0  0  0
  2  7  1  0  0  0  0
  2  3  2  0  0  0  0
  3  4  1  0  0  0  0
  4  5  1  0  0  0  0
  5  6  1  0  0  0  0
  5  7  2  0  0  0  0
  6 22  1  0  0  0  0
  6 23  1  0  0  0  0
  6 24  1  0  0  0  0
  7  8  1  0  0  0  0
  8  9  1  0  0  0  0
  8 10  1  0  0  0  0
  8 25  1  0  0  0  0
  9 26  1  0  0  0  0
  9 27  1  0  0  0  0
  9 28  1  0  0  0  0
 10 11  1  0  0  0  0
 10 29  1  0  0  0  0
 10 30  1  0  0  0  0
 11 12  1  0  0  0  0
 11 31  1  0  0  0  0
 11 43  1  0  0  0  0
 12 13  1  0  0  0  0
 12 16  1  0  0  0  0
 12 32  1  0  0  0  0
 13 15  1  0  0  0  0
 13 14  1  0  0  0  0
 13 33  1  0  0  0  0
 14 15  1  0  0  0  0
 14 34  1  0  0  0  0
 14 35  1  0  0  0  0
 15 36  1  0  0  0  0
 15 37  1  0  0  0  0
 16 18  1  0  0  0  0
 16 17  1  0  0  0  0
 16 38  1  0  0  0  0
 17 18  1  0  0  0  0
 17 39  1  0  0  0  0
 17 40  1  0  0  0  0
 18 41  1  0  0  0  0
 18 42  1  0  0  0  0
M  CHG  1  11   1
M  END
> <s_m_source_file>
AV-unprocessed.smi

> <i_m_source_file_index>
3291

> <i_lp_mmshare_version>
43012

> <i_f3d_flags>
0

> <s_epik_input>
W0NIM11jMW5vYyhbQ0gzXSljMVtDQEhdKFtDSDNdKVtDSDJdW05IXVtDSF0oW0NIXTJbQ0gyXVtDSDJdMilbQ0hdM1tDSDJdW0NIMl0z

> <s_epik_cmdline>
J2VwaWtfcHl0aG9uJywgJy1waCcsICc3LjAnLCAnLXRuJywgJzgnLCAnLW1hJywgJzIwMCcsICctbWV0YWxfYmluZGluZycsICctaW1hZScsICc8aW5maWxlLm1hZT4nLCAnLW9tYWUnLCAnPG91dGZpbGUubWFlPic=

> <r_lp_tautomer_probability>
1

> <r_epik_Ionization_Penalty>
0.000158108

> <r_epik_Ionization_Penalty_Charging>
0.000158108

> <r_epik_Ionization_Penalty_Neutral>
1.14678e-10

> <r_epik_State_Penalty>
-0

> <r_epik_Charging_Adjusted_Penalty>
0.000158108

> <i_epik_Tot_Q>
1

> <i_epik_Tot_abs_Q>
1

> <r_epik_Metal_State_Penalty>
-0

> <b_epik_Metal_Only>
0

> <s_lp_Force_Field>
OPLS_2005

> <r_lp_Energy>
24.4944

> <b_lp_Chiralities_Consistent>
1

> <s_lp_Variant>
AV-unprocessed.smi:3291-2

> <Gold.Version>
5.8.1

> <Gold.Id.Protein>
6NUR|6NUR_protein|mol2

> <Gold.PLP.Fitness>
37.9678

> <Gold.PLP.PLP>
-29.7714

> <Gold.PLP.part.hbond>
-2.1232

> <Gold.PLP.part.metal>
0.0000

> <Gold.PLP.part.buried>
-3.9284

> <Gold.PLP.part.nonpolar>
-23.3529

> <Gold.PLP.part.repulsive>
0.0275

> <Gold.PLP.ligand.clash>
0.0000

> <Gold.PLP.ligand.torsion>
1.5045

> <Gold.PLP.Chemscore.Hbond>
3.0000

> <Gold.PLP.Chemscore.CHOScore>
0.0000

> <Gold.PLP.Chemscore.Metal>
0.0000

> <Gold.Chemscore.Hbonds>
donor molecule, donor type, donor heavy atom, donor atom, acceptor molecule, acceptor atom, score
      L1  H    11    31       P1  7948  2.00
      P1  H  6896  6909       L1     3  1.00

> <Gold.PLP.Chemscore.Internal.Correction>
2.2054

> <Gold.Rescore>
     Score         DG    S(hbond)    S(metal)    S(lipo)     H(rot)  DE(clash)    DE(int)     intcor
     14.06     -16.33       1.82        0.00      73.68       1.50       0.02       2.25       ----

> <Gold.Chemscore.Fitness>
14.0613

> <Gold.Chemscore.DG>
-16.3278

> <Gold.Chemscore.ZeroCoef>
-5.4800

> <Gold.Chemscore.Hbond>
1.8176

> <Gold.Chemscore.Metal>
0.0000

> <Gold.Chemscore.Lipo>
73.6840

> <Gold.Chemscore.Internal_Hbond>
0.0000

> <Gold.Chemscore.DEClash>
0.0203

> <Gold.Chemscore.DEInternal>
2.2462

> <Gold.Chemscore.Rot>
1.5015

> <Gold.Chemscore.Internal.Correction>
   9.000000E+99

> <Gold.Chemscore.Hbonds>
donor molecule, donor type, donor heavy atom, donor atom, acceptor molecule, acceptor atom, score
      L1  H    11    31       P1  7948  0.35
      P1  H  6896  6909       L1     3  0.49

> <Gold.Chemscore.Hbond.Weighted>
-6.0706

> <Gold.Chemscore.Metal.Weighted>
-0.0000

> <Gold.Chemscore.Lipo.Weighted>
-8.6210

> <Gold.Chemscore.Internal_Hbond.Weighted>
0.0000

> <Gold.Chemscore.DEClash.Weighted>
0.0203

> <Gold.Chemscore.DEInternal.Weighted>
2.2462

> <Gold.Chemscore.Rot.Weighted>
3.8438

> <Gold.Chemscore.Internal.Correction.Weighted>
   9.000000E+99

> <Gold.Protein.RotatedTorsions>
[ 6907 6896 6895 6894 ] final  -24.60 input  -60.11 | X-H torsion
[ 7974 7965 7964 7962 ] final  -49.79 input  175.53 | X-H torsion
[ 8008 7997 7996 7995 ] final  -42.56 input   59.86 | X-H torsion
[ 10167 10162 10161 10158 ] final  -96.74 input  -65.29 | X-H torsion
[ 10718 10713 10712 10709 ] final  -67.34 input   66.30 | X-H torsion
[ 10763 10752 10751 10750 ] final -151.65 input  -60.55 | X-H torsion
[ 11005 11000 10999 10996 ] final -152.00 input  -57.11 | X-H torsion

> <Gold.Protein.ActiveResidues>
 VAL166  LYS551  ARG553  GLY616  TRP617  ASP618  TYR619  PRO620  LYS621  CYS622 
 ASP623  PHE694  ASN695  SER759  ASP760  ASP761  ALA762  ILE779  LEU786  VAL792 
 PHE793  MET794  SER795  GLU796  ALA797  LYS798  CYS799  TRP800  GLU811  SER814 

> <Gold.Protein.RotatedAtoms>
  151.1872  135.0387  159.8817 H   0  0  0  0  0  0  0  0  0  0  0  0  # atno 6907 bound_to 6896
  152.5441  134.0997  159.8322 H   0  0  0  0  0  0  0  0  0  0  0  0  # atno 6908 bound_to 6896
  151.1121  133.5118  159.2637 H   0  0  0  0  0  0  0  0  0  0  0  0  # atno 6909 bound_to 6896
  145.9368  140.7699  142.9572 H   0  0  0  0  0  0  0  0  0  0  0  0  # atno 7974 bound_to 7965
  154.3998  140.1470  156.3375 H   0  0  0  0  0  0  0  0  0  0  0  0  # atno 8008 bound_to 7997
  155.8386  140.3463  155.5596 H   0  0  0  0  0  0  0  0  0  0  0  0  # atno 8009 bound_to 7997
  155.8111  140.0884  157.1894 H   0  0  0  0  0  0  0  0  0  0  0  0  # atno 8010 bound_to 7997
  140.2907  143.3223  152.0348 H   0  0  0  0  0  0  0  0  0  0  0  0  # atno 10167 bound_to 10162
  156.0563  130.4276  150.1839 H   0  0  0  0  0  0  0  0  0  0  0  0  # atno 10718 bound_to 10713
  154.8044  135.3255  154.7468 H   0  0  0  0  0  0  0  0  0  0  0  0  # atno 10763 bound_to 10752
  153.8130  135.6894  153.4842 H   0  0  0  0  0  0  0  0  0  0  0  0  # atno 10764 bound_to 10752
  153.1780  135.4597  154.9935 H   0  0  0  0  0  0  0  0  0  0  0  0  # atno 10765 bound_to 10752
  140.7236  134.3700  157.5179 H   0  0  0  0  0  0  0  0  0  0  0  0  # atno 11005 bound_to 11000
  144.6773  140.2215  143.7366 LP  0  0  0  0  0  0  0  0  0  0  0  0  # atno 17320 bound_to 7965
  145.8353  139.2105  143.1859 LP  0  0  0  0  0  0  0  0  0  0  0  0  # atno 17321 bound_to 7965
  139.4939  144.6527  151.6641 LP  0  0  0  0  0  0  0  0  0  0  0  0  # atno 17342 bound_to 10162
  140.5734  144.0069  150.6229 LP  0  0  0  0  0  0  0  0  0  0  0  0  # atno 17343 bound_to 10162
  156.9915  130.9895  151.3413 LP  0  0  0  0  0  0  0  0  0  0  0  0  # atno 17370 bound_to 10713
  157.5536  130.8198  149.8175 LP  0  0  0  0  0  0  0  0  0  0  0  0  # atno 17371 bound_to 10713
  139.8842  134.8971  156.2716 LP  0  0  0  0  0  0  0  0  0  0  0  0  # atno 17394 bound_to 11000
  140.9982  133.7167  156.0919 LP  0  0  0  0  0  0  0  0  0  0  0  0  # atno 17395 bound_to 11000

$$$$
