AV-unprocessed.smi:227|AV-procd|sdf|1739|dock5
  -GOLD-   2262020243D 1   1.00000     0.00000
 Structure written by MMmdl.
 54 58  0  0  0  0  0  0  0  0  1 V2000
  147.4570  137.4936  161.6006 O   0  0  0  0  0  0  0  0  0  0  0  0
  146.9963  136.1587  161.6518 C   0  0  0  0  0  0  0  0  0  0  0  0
  147.8252  135.2326  160.7252 C   0  0  2  0  0  0  0  0  0  0  0  0
  147.7433  135.7018  159.2423 C   0  0  0  0  0  0  0  0  0  0  0  0
  148.5058  136.9083  158.9550 N   0  0  0  0  0  0  0  0  0  0  0  0
  149.8357  137.1260  159.2339 C   0  0  0  0  0  0  0  0  0  0  0  0
  150.2921  138.2980  158.8888 N   0  0  0  0  0  0  0  0  0  0  0  0
  149.2000  138.9368  158.3129 C   0  0  0  0  0  0  0  0  0  0  0  0
  148.9856  140.2238  157.7387 C   0  0  0  0  0  0  0  0  0  0  0  0
  149.9422  141.1885  157.6683 N   0  0  0  0  0  0  0  0  0  0  0  0
  151.2464  141.0058  158.2867 C   0  0  2  0  0  0  0  0  0  0  0  0
  151.8693  142.4056  158.1477 C   0  0  0  0  0  0  0  0  0  0  0  0
  151.2945  142.8575  156.7946 C   0  0  0  0  0  0  0  0  0  0  0  0
  150.4763  141.6195  156.3840 C   0  0  1  0  0  0  0  0  0  0  0  0
  151.4618  140.5015  155.9586 C   0  0  2  0  0  0  0  0  0  0  0  0
  150.8233  139.3870  155.1061 C   0  0  0  0  0  0  0  0  0  0  0  0
  150.4062  139.9055  153.8612 O   0  0  0  0  0  0  0  0  0  0  0  0
  151.9724  140.0311  157.3359 C   0  0  0  0  0  0  0  0  0  0  0  0
  147.7520  140.4785  157.2268 N   0  0  0  0  0  0  0  0  0  0  0  0
  146.7853  139.5601  157.2978 C   0  0  0  0  0  0  0  0  0  0  0  0
  146.8362  138.3371  157.8256 N   0  0  0  0  0  0  0  0  0  0  0  0
  148.0742  138.0641  158.3263 C   0  0  0  0  0  0  0  0  0  0  0  0
  147.4306  133.7319  160.9032 C   0  0  1  0  0  0  0  0  0  0  0  0
  146.7210  133.4288  162.2200 C   0  0  0  0  0  0  0  0  0  0  0  0
  145.2525  133.7358  161.9245 C   0  0  0  0  0  0  0  0  0  0  0  0
  145.1152  133.6634  160.5100 O   0  0  0  0  0  0  0  0  0  0  0  0
  146.3420  133.2230  159.9469 C   0  0  0  0  0  0  0  0  0  0  0  0
  146.7371  138.0683  161.8126 H   0  0  0  0  0  0  0  0  0  0  0  0
  147.0787  135.8575  162.6935 H   0  0  0  0  0  0  0  0  0  0  0  0
  145.9368  136.1288  161.3978 H   0  0  0  0  0  0  0  0  0  0  0  0
  148.8676  135.3364  161.0298 H   0  0  0  0  0  0  0  0  0  0  0  0
  148.0992  134.9159  158.5760 H   0  0  0  0  0  0  0  0  0  0  0  0
  146.7115  135.8674  158.9374 H   0  0  0  0  0  0  0  0  0  0  0  0
  150.4591  136.3857  159.7138 H   0  0  0  0  0  0  0  0  0  0  0  0
  151.2196  140.6632  159.3218 H   0  0  0  0  0  0  0  0  0  0  0  0
  151.5308  143.0661  158.9470 H   0  0  0  0  0  0  0  0  0  0  0  0
  152.9595  142.3840  158.1615 H   0  0  0  0  0  0  0  0  0  0  0  0
  150.6448  143.7237  156.9268 H   0  0  0  0  0  0  0  0  0  0  0  0
  152.0655  143.1225  156.0703 H   0  0  0  0  0  0  0  0  0  0  0  0
  149.7398  141.8609  155.6195 H   0  0  0  0  0  0  0  0  0  0  0  0
  152.2777  140.9383  155.3804 H   0  0  0  0  0  0  0  0  0  0  0  0
  151.5144  138.5639  154.9277 H   0  0  0  0  0  0  0  0  0  0  0  0
  149.9536  138.9721  155.6162 H   0  0  0  0  0  0  0  0  0  0  0  0
  150.3991  139.2024  153.2296 H   0  0  0  0  0  0  0  0  0  0  0  0
  153.0577  140.0878  157.4245 H   0  0  0  0  0  0  0  0  0  0  0  0
  151.6774  139.0007  157.5395 H   0  0  0  0  0  0  0  0  0  0  0  0
  145.8344  139.8481  156.8745 H   0  0  0  0  0  0  0  0  0  0  0  0
  148.3236  133.1150  160.7971 H   0  0  0  0  0  0  0  0  0  0  0  0
  146.8280  132.3668  162.4463 H   0  0  0  0  0  0  0  0  0  0  0  0
  147.0906  133.9721  163.0868 H   0  0  0  0  0  0  0  0  0  0  0  0
  144.5840  133.0328  162.4220 H   0  0  0  0  0  0  0  0  0  0  0  0
  144.9902  134.7428  162.2501 H   0  0  0  0  0  0  0  0  0  0  0  0
  146.4434  133.5339  158.9098 H   0  0  0  0  0  0  0  0  0  0  0  0
  146.3385  132.1317  159.9434 H   0  0  0  0  0  0  0  0  0  0  0  0
  1  2  1  0  0  0  0
  1 28  1  0  0  0  0
  2  3  1  0  0  0  0
  2 29  1  0  0  0  0
  2 30  1  0  0  0  0
  3  4  1  0  0  0  0
  3 23  1  0  0  0  0
  3 31  1  0  0  0  0
  4  5  1  0  0  0  0
  4 32  1  0  0  0  0
  4 33  1  0  0  0  0
  5 22  1  0  0  0  0
  5  6  1  0  0  0  0
  6  7  2  0  0  0  0
  6 34  1  0  0  0  0
  7  8  1  0  0  0  0
  8 22  2  0  0  0  0
  8  9  1  0  0  0  0
  9 10  1  0  0  0  0
  9 19  2  0  0  0  0
 10 14  1  0  0  0  0
 10 11  1  0  0  0  0
 11 18  1  0  0  0  0
 11 12  1  0  0  0  0
 11 35  1  0  0  0  0
 12 13  1  0  0  0  0
 12 36  1  0  0  0  0
 12 37  1  0  0  0  0
 13 14  1  0  0  0  0
 13 38  1  0  0  0  0
 13 39  1  0  0  0  0
 14 15  1  0  0  0  0
 14 40  1  0  0  0  0
 15 16  1  0  0  0  0
 15 18  1  0  0  0  0
 15 41  1  0  0  0  0
 16 17  1  0  0  0  0
 16 42  1  0  0  0  0
 16 43  1  0  0  0  0
 17 44  1  0  0  0  0
 18 45  1  0  0  0  0
 18 46  1  0  0  0  0
 19 20  1  0  0  0  0
 20 21  2  0  0  0  0
 20 47  1  0  0  0  0
 21 22  1  0  0  0  0
 23 27  1  0  0  0  0
 23 24  1  0  0  0  0
 23 48  1  0  0  0  0
 24 25  1  0  0  0  0
 24 49  1  0  0  0  0
 24 50  1  0  0  0  0
 25 26  1  0  0  0  0
 25 51  1  0  0  0  0
 25 52  1  0  0  0  0
 26 27  1  0  0  0  0
 27 53  1  0  0  0  0
 27 54  1  0  0  0  0
M  END
> <s_m_source_file>
AV-unprocessed.smi

> <i_m_source_file_index>
227

> <i_lp_mmshare_version>
43012

> <i_f3d_flags>
0

> <s_epik_input>
W0NIMl0xT1tDSDJdW0NIMl1bQ0BIXTFbQ0BIXShbQ0gyXVtPSF0pW0NIMl1uKFtjSF1uMiljKGMyMyluW2NIXW5jM04oW0NASF00NSlbQ0BASF0oW0NIMl1bQ0gyXTQpW0NASF0oW0NIMl01KVtDSDJdW09IXQ==

> <s_epik_cmdline>
J2VwaWtfcHl0aG9uJywgJy1waCcsICc3LjAnLCAnLXRuJywgJzgnLCAnLW1hJywgJzIwMCcsICctbWV0YWxfYmluZGluZycsICctaW1hZScsICc8aW5maWxlLm1hZT4nLCAnLW9tYWUnLCAnPG91dGZpbGUubWFlPic=

> <r_lp_tautomer_probability>
1

> <r_epik_Ionization_Penalty>
0.0055791

> <r_epik_Ionization_Penalty_Charging>
0

> <r_epik_Ionization_Penalty_Neutral>
0.0055791

> <r_epik_State_Penalty>
0.00401299

> <r_epik_Charging_Adjusted_Penalty>
0.00401299

> <i_epik_Tot_Q>
0

> <i_epik_Tot_abs_Q>
0

> <r_epik_Metal_State_Penalty>
-0

> <b_epik_Metal_Only>
0

> <s_lp_Force_Field>
OPLS_2005

> <r_lp_Energy>
89.9209

> <b_lp_Chiralities_Consistent>
1

> <s_lp_Variant>
AV-unprocessed.smi:227-13

> <Gold.Version>
5.8.1

> <Gold.Id.Protein>
6NUR|6NUR_protein|mol2

> <Gold.PLP.Fitness>
40.9269

> <Gold.PLP.PLP>
-37.2334

> <Gold.PLP.part.hbond>
-3.9696

> <Gold.PLP.part.metal>
0.0000

> <Gold.PLP.part.buried>
-2.3356

> <Gold.PLP.part.nonpolar>
-29.4617

> <Gold.PLP.part.repulsive>
0.0517

> <Gold.PLP.ligand.clash>
0.0806

> <Gold.PLP.ligand.torsion>
1.1408

> <Gold.PLP.Chemscore.Hbond>
1.9418

> <Gold.PLP.Chemscore.CHOScore>
0.0000

> <Gold.PLP.Chemscore.Metal>
0.0000

> <Gold.Chemscore.Hbonds>
donor molecule, donor type, donor heavy atom, donor atom, acceptor molecule, acceptor atom, score
      L1  H    17    44       P1  7957  0.04
      P1  H  6931  6943       L1     1  0.78
      P1  H  7989  7998       L1    17  0.99

> <Gold.PLP.Chemscore.Internal.Correction>
0.2303

> <Gold.Rescore>
     Score         DG    S(hbond)    S(metal)    S(lipo)     H(rot)  DE(clash)    DE(int)     intcor
      8.64     -13.48       1.71        0.00      98.43       3.61       0.12       4.71       ----

> <Gold.Chemscore.Fitness>
8.6449

> <Gold.Chemscore.DG>
-13.4790

> <Gold.Chemscore.ZeroCoef>
-5.4800

> <Gold.Chemscore.Hbond>
1.7117

> <Gold.Chemscore.Metal>
0.0000

> <Gold.Chemscore.Lipo>
98.4273

> <Gold.Chemscore.Internal_Hbond>
0.0000

> <Gold.Chemscore.DEClash>
0.1230

> <Gold.Chemscore.DEInternal>
4.7110

> <Gold.Chemscore.Rot>
3.6071

> <Gold.Chemscore.Internal.Correction>
   9.000000E+99

> <Gold.Chemscore.Hbonds>
donor molecule, donor type, donor heavy atom, donor atom, acceptor molecule, acceptor atom, score
      L1  H    17    44       P1  7957  0.03
      P1  H  6931  6943       L1     1  0.61
      P1  H  7989  7998       L1    17  0.22

> <Gold.Chemscore.Hbond.Weighted>
-5.7172

> <Gold.Chemscore.Metal.Weighted>
-0.0000

> <Gold.Chemscore.Lipo.Weighted>
-11.5160

> <Gold.Chemscore.Internal_Hbond.Weighted>
0.0000

> <Gold.Chemscore.DEClash.Weighted>
0.1230

> <Gold.Chemscore.DEInternal.Weighted>
4.7110

> <Gold.Chemscore.Rot.Weighted>
9.2342

> <Gold.Chemscore.Internal.Correction.Weighted>
   9.000000E+99

> <Gold.Protein.RotatedTorsions>
[ 6907 6896 6895 6894 ] final  -55.81 input  -60.11 | X-H torsion
[ 7974 7965 7964 7962 ] final   30.41 input  175.53 | X-H torsion
[ 8008 7997 7996 7995 ] final   11.62 input   59.86 | X-H torsion
[ 10167 10162 10161 10158 ] final   34.12 input  -65.29 | X-H torsion
[ 10718 10713 10712 10709 ] final  141.08 input   66.30 | X-H torsion
[ 10763 10752 10751 10750 ] final -154.77 input  -60.55 | X-H torsion
[ 11005 11000 10999 10996 ] final  121.06 input  -57.11 | X-H torsion

> <Gold.Protein.ActiveResidues>
 VAL166  LYS551  ARG553  GLY616  TRP617  ASP618  TYR619  PRO620  LYS621  CYS622 
 ASP623  PHE694  ASN695  SER759  ASP760  ASP761  ALA762  ILE779  LEU786  VAL792 
 PHE793  MET794  SER795  GLU796  ALA797  LYS798  CYS799  TRP800  GLU811  SER814 

> <Gold.Protein.RotatedAtoms>
  150.8220  134.7433  159.6780 H   0  0  0  0  0  0  0  0  0  0  0  0  # atno 6907 bound_to 6896
  152.4335  134.5728  159.9936 H   0  0  0  0  0  0  0  0  0  0  0  0  # atno 6908 bound_to 6896
  151.5910  133.3329  159.3063 H   0  0  0  0  0  0  0  0  0  0  0  0  # atno 6909 bound_to 6896
  146.1613  139.6792  142.9031 H   0  0  0  0  0  0  0  0  0  0  0  0  # atno 7974 bound_to 7965
  154.8094  140.2865  155.5864 H   0  0  0  0  0  0  0  0  0  0  0  0  # atno 8008 bound_to 7997
  156.2986  140.2571  156.2908 H   0  0  0  0  0  0  0  0  0  0  0  0  # atno 8009 bound_to 7997
  154.9466  140.0380  157.2112 H   0  0  0  0  0  0  0  0  0  0  0  0  # atno 8010 bound_to 7997
  140.4345  144.1277  150.6164 H   0  0  0  0  0  0  0  0  0  0  0  0  # atno 10167 bound_to 10162
  157.3960  131.1011  151.0599 H   0  0  0  0  0  0  0  0  0  0  0  0  # atno 10718 bound_to 10713
  154.7835  135.3182  154.7938 H   0  0  0  0  0  0  0  0  0  0  0  0  # atno 10763 bound_to 10752
  153.8644  135.6850  153.4784 H   0  0  0  0  0  0  0  0  0  0  0  0  # atno 10764 bound_to 10752
  153.1479  135.4712  154.9531 H   0  0  0  0  0  0  0  0  0  0  0  0  # atno 10765 bound_to 10752
  139.9210  134.9637  156.7901 H   0  0  0  0  0  0  0  0  0  0  0  0  # atno 11005 bound_to 11000
  145.4580  141.0431  143.2767 LP  0  0  0  0  0  0  0  0  0  0  0  0  # atno 17320 bound_to 7965
  144.8031  139.6102  143.7062 LP  0  0  0  0  0  0  0  0  0  0  0  0  # atno 17321 bound_to 7965
  140.4390  143.2535  151.9498 LP  0  0  0  0  0  0  0  0  0  0  0  0  # atno 17342 bound_to 10162
  139.4786  144.5673  151.8145 LP  0  0  0  0  0  0  0  0  0  0  0  0  # atno 17343 bound_to 10162
  157.1616  130.6228  149.5612 LP  0  0  0  0  0  0  0  0  0  0  0  0  # atno 17370 bound_to 10713
  155.9810  130.4815  150.6806 LP  0  0  0  0  0  0  0  0  0  0  0  0  # atno 17371 bound_to 10713
  140.6474  133.9763  155.7738 LP  0  0  0  0  0  0  0  0  0  0  0  0  # atno 17394 bound_to 11000
  141.0731  134.0176  157.3497 LP  0  0  0  0  0  0  0  0  0  0  0  0  # atno 17395 bound_to 11000

$$$$
