AV-unprocessed.smi:48|AV-procd|sdf|448|dock6
  -GOLD-   2262016313D 1   1.00000     0.00000
 Structure written by MMmdl.
 30 32  0  0  0  0  0  0  0  0  1 V2000
  148.7463  142.7791  154.3186 O   0  0  0  0  0  0  0  0  0  0  0  0
  148.2619  141.4797  154.0536 C   0  0  0  0  0  0  0  0  0  0  0  0
  149.0703  140.4438  154.8540 C   0  0  2  0  0  0  0  0  0  0  0  0
  150.4279  140.4008  154.4258 O   0  0  0  0  0  0  0  0  0  0  0  0
  151.0223  139.2207  154.8785 C   0  0  1  0  0  0  0  0  0  0  0  0
  151.7507  139.5186  156.1530 N   0  0  0  0  0  0  0  0  0  0  0  0
  152.7270  138.8176  156.7702 C   0  0  0  0  0  0  0  0  0  0  0  0
  153.1987  139.3044  157.9180 N   0  0  0  0  0  0  0  0  0  0  0  0
  152.4315  140.4474  158.0705 C   0  0  0  0  0  0  0  0  0  0  0  0
  152.3880  141.4521  159.0677 C   0  0  0  0  0  0  0  0  0  0  0  0
  153.4382  141.3933  160.4356 Cl  0  0  0  0  0  0  0  0  0  0  0  0
  151.4987  142.4642  158.9247 N   0  0  0  0  0  0  0  0  0  0  0  0
  150.6939  142.4845  157.8546 C   0  0  0  0  0  0  0  0  0  0  0  0
  150.6213  141.6148  156.8399 N   0  0  0  0  0  0  0  0  0  0  0  0
  151.5202  140.5972  156.9877 C   0  0  0  0  0  0  0  0  0  0  0  0
  149.8810  138.2213  155.1477 C   0  0  2  0  0  0  0  0  0  0  0  0
  150.0507  136.9841  154.4822 O   0  0  0  0  0  0  0  0  0  0  0  0
  148.6416  138.9825  154.6765 C   0  0  2  0  0  0  0  0  0  0  0  0
  148.3226  138.7199  153.3194 O   0  0  0  0  0  0  0  0  0  0  0  0
  149.0345  140.6841  155.9187 H   0  0  0  0  0  0  0  0  0  0  0  0
  151.7923  138.8705  154.1898 H   0  0  0  0  0  0  0  0  0  0  0  0
  149.8027  138.0366  156.2204 H   0  0  0  0  0  0  0  0  0  0  0  0
  147.7684  138.7406  155.2833 H   0  0  0  0  0  0  0  0  0  0  0  0
  148.9620  142.8368  155.2370 H   0  0  0  0  0  0  0  0  0  0  0  0
  147.2146  141.4539  154.3563 H   0  0  0  0  0  0  0  0  0  0  0  0
  148.2978  141.2743  152.9833 H   0  0  0  0  0  0  0  0  0  0  0  0
  153.1174  137.8984  156.3581 H   0  0  0  0  0  0  0  0  0  0  0  0
  150.0079  143.3171  157.8040 H   0  0  0  0  0  0  0  0  0  0  0  0
  149.5590  137.0097  153.6751 H   0  0  0  0  0  0  0  0  0  0  0  0
  148.7466  137.9139  153.0661 H   0  0  0  0  0  0  0  0  0  0  0  0
  1  2  1  0  0  0  0
  1 24  1  0  0  0  0
  2  3  1  0  0  0  0
  2 25  1  0  0  0  0
  2 26  1  0  0  0  0
  3 20  1  0  0  0  0
  3 18  1  0  0  0  0
  3  4  1  0  0  0  0
  4  5  1  0  0  0  0
  5 21  1  0  0  0  0
  5  6  1  0  0  0  0
  5 16  1  0  0  0  0
  6 15  1  0  0  0  0
  6  7  1  0  0  0  0
  7  8  2  0  0  0  0
  7 27  1  0  0  0  0
  8  9  1  0  0  0  0
  9 15  2  0  0  0  0
  9 10  1  0  0  0  0
 10 11  1  0  0  0  0
 10 12  2  0  0  0  0
 12 13  1  0  0  0  0
 13 14  2  0  0  0  0
 13 28  1  0  0  0  0
 14 15  1  0  0  0  0
 16 22  1  0  0  0  0
 16 17  1  0  0  0  0
 16 18  1  0  0  0  0
 17 29  1  0  0  0  0
 18 23  1  0  0  0  0
 18 19  1  0  0  0  0
 19 30  1  0  0  0  0
M  END
> <s_m_source_file>
AV-unprocessed.smi

> <i_m_source_file_index>
48

> <i_lp_mmshare_version>
43012

> <i_f3d_flags>
0

> <s_epik_input>
W09IXVtDSDJdW0NASF0xT1tDQEhdKFtDQEhdKFtPSF0pW0NAQEhdMVtPSF0pbihbY0hdbjIpYyhjMjMpbltjSF1uYzNDbA==

> <s_epik_cmdline>
J2VwaWtfcHl0aG9uJywgJy1waCcsICc3LjAnLCAnLXRuJywgJzgnLCAnLW1hJywgJzIwMCcsICctbWV0YWxfYmluZGluZycsICctaW1hZScsICc8aW5maWxlLm1hZT4nLCAnLW9tYWUnLCAnPG91dGZpbGUubWFlPic=

> <r_lp_tautomer_probability>
1

> <r_epik_Ionization_Penalty>
3.45505e-06

> <r_epik_Ionization_Penalty_Charging>
0

> <r_epik_Ionization_Penalty_Neutral>
3.45505e-06

> <r_epik_State_Penalty>
-0

> <r_epik_Charging_Adjusted_Penalty>
0

> <i_epik_Tot_Q>
0

> <i_epik_Tot_abs_Q>
0

> <r_epik_Metal_State_Penalty>
-0

> <b_epik_Metal_Only>
0

> <s_epik_Chemistry_Notes>
This compound contains an acetal/aminal-like group ( X-CH(R)-Y where X, Y are N, S, or O) that may be acid/base labile, releasing an aldehyde.

> <s_lp_Force_Field>
OPLS_2005

> <r_lp_Energy>
38.272

> <b_lp_Chiralities_Consistent>
1

> <s_lp_Variant>
AV-unprocessed.smi:48-2

> <Gold.Version>
5.8.1

> <Gold.Id.Protein>
6NUR|6NUR_protein|mol2

> <Gold.PLP.Fitness>
51.2620

> <Gold.PLP.PLP>
-34.9476

> <Gold.PLP.part.hbond>
-7.8829

> <Gold.PLP.part.metal>
0.0000

> <Gold.PLP.part.buried>
-1.8410

> <Gold.PLP.part.nonpolar>
-24.5004

> <Gold.PLP.part.repulsive>
0.2306

> <Gold.PLP.ligand.clash>
0.0000

> <Gold.PLP.ligand.torsion>
0.6069

> <Gold.PLP.Chemscore.Hbond>
4.8352

> <Gold.PLP.Chemscore.CHOScore>
1.0000

> <Gold.PLP.Chemscore.Metal>
0.0000

> <Gold.Chemscore.Hbonds>
donor molecule, donor type, donor heavy atom, donor atom, acceptor molecule, acceptor atom, score
      L1  H     1    24       P1  8028  0.08
      L1  H    17    29       P1  7948  0.99
      L1  H    19    30       P1  7948  0.93
      P1  H  7989  7998       L1     4  0.90
      P1  H  7997  8010       L1     8  0.70
      P1  H  8022  8030       L1     1  0.81
      L1  C    13    28       P1  8028  0.37

> <Gold.PLP.Chemscore.Internal.Correction>
0.0225

> <Gold.Rescore>
     Score         DG    S(hbond)    S(metal)    S(lipo)     H(rot)  DE(clash)    DE(int)     intcor
      6.34     -10.01       2.60        0.00      47.58       3.80       0.05       3.62       ----

> <Gold.Chemscore.Fitness>
6.3424

> <Gold.Chemscore.DG>
-10.0137

> <Gold.Chemscore.ZeroCoef>
-5.4800

> <Gold.Chemscore.Hbond>
2.6047

> <Gold.Chemscore.Metal>
0.0000

> <Gold.Chemscore.Lipo>
47.5754

> <Gold.Chemscore.Internal_Hbond>
0.0000

> <Gold.Chemscore.DEClash>
0.0516

> <Gold.Chemscore.DEInternal>
3.6197

> <Gold.Chemscore.Rot>
3.8017

> <Gold.Chemscore.Internal.Correction>
   9.000000E+99

> <Gold.Chemscore.Hbonds>
donor molecule, donor type, donor heavy atom, donor atom, acceptor molecule, acceptor atom, score
      L1  H     1    24       P1  8028  0.10
      L1  H    17    29       P1  7948  0.76
      L1  H    19    30       P1  7948  0.86
      P1  H  7989  7998       L1     4  0.17
      P1  H  7997  8010       L1     8  0.02
      P1  H  8022  8030       L1     1  0.48

> <Gold.Chemscore.Hbond.Weighted>
-8.6997

> <Gold.Chemscore.Metal.Weighted>
-0.0000

> <Gold.Chemscore.Lipo.Weighted>
-5.5663

> <Gold.Chemscore.Internal_Hbond.Weighted>
0.0000

> <Gold.Chemscore.DEClash.Weighted>
0.0516

> <Gold.Chemscore.DEInternal.Weighted>
3.6197

> <Gold.Chemscore.Rot.Weighted>
9.7324

> <Gold.Chemscore.Internal.Correction.Weighted>
   9.000000E+99

> <Gold.Protein.RotatedTorsions>
[ 6907 6896 6895 6894 ] final   44.20 input  -60.11 | X-H torsion
[ 7974 7965 7964 7962 ] final   26.10 input  175.53 | X-H torsion
[ 8008 7997 7996 7995 ] final   23.71 input   59.86 | X-H torsion
[ 10167 10162 10161 10158 ] final  178.60 input  -65.29 | X-H torsion
[ 10718 10713 10712 10709 ] final  -83.38 input   66.30 | X-H torsion
[ 10763 10752 10751 10750 ] final  -63.50 input  -60.55 | X-H torsion
[ 11005 11000 10999 10996 ] final   21.88 input  -57.11 | X-H torsion

> <Gold.Protein.ActiveResidues>
 VAL166  LYS551  ARG553  GLY616  TRP617  ASP618  TYR619  PRO620  LYS621  CYS622 
 ASP623  PHE694  ASN695  SER759  ASP760  ASP761  ALA762  ILE779  LEU786  VAL792 
 PHE793  MET794  SER795  GLU796  ALA797  LYS798  CYS799  TRP800  GLU811  SER814 

> <Gold.Protein.RotatedAtoms>
  152.2297  134.8334  160.0475 H   0  0  0  0  0  0  0  0  0  0  0  0  # atno 6907 bound_to 6896
  151.9088  133.3551  159.3864 H   0  0  0  0  0  0  0  0  0  0  0  0  # atno 6908 bound_to 6896
  150.7022  134.4679  159.5455 H   0  0  0  0  0  0  0  0  0  0  0  0  # atno 6909 bound_to 6896
  146.1855  139.7374  142.8870 H   0  0  0  0  0  0  0  0  0  0  0  0  # atno 7974 bound_to 7965
  154.9851  140.3107  155.4930 H   0  0  0  0  0  0  0  0  0  0  0  0  # atno 8008 bound_to 7997
  156.2948  140.2259  156.4892 H   0  0  0  0  0  0  0  0  0  0  0  0  # atno 8009 bound_to 7997
  154.7754  140.0449  157.1073 H   0  0  0  0  0  0  0  0  0  0  0  0  # atno 8010 bound_to 7997
  139.5301  144.2660  152.0667 H   0  0  0  0  0  0  0  0  0  0  0  0  # atno 10167 bound_to 10162
  156.0019  130.4664  150.4248 H   0  0  0  0  0  0  0  0  0  0  0  0  # atno 10718 bound_to 10713
  154.3160  135.6206  153.5486 H   0  0  0  0  0  0  0  0  0  0  0  0  # atno 10763 bound_to 10752
  152.9824  135.5712  154.5124 H   0  0  0  0  0  0  0  0  0  0  0  0  # atno 10764 bound_to 10752
  154.4783  135.2862  155.1567 H   0  0  0  0  0  0  0  0  0  0  0  0  # atno 10765 bound_to 10752
  140.3867  134.1862  155.7663 H   0  0  0  0  0  0  0  0  0  0  0  0  # atno 11005 bound_to 11000
  145.3952  141.0378  143.3101 LP  0  0  0  0  0  0  0  0  0  0  0  0  # atno 17320 bound_to 7965
  144.8389  139.5505  143.6909 LP  0  0  0  0  0  0  0  0  0  0  0  0  # atno 17321 bound_to 7965
  140.2122  144.4551  150.6380 LP  0  0  0  0  0  0  0  0  0  0  0  0  # atno 17342 bound_to 10162
  140.6473  143.2216  151.6157 LP  0  0  0  0  0  0  0  0  0  0  0  0  # atno 17343 bound_to 10162
  157.2301  131.0502  151.2497 LP  0  0  0  0  0  0  0  0  0  0  0  0  # atno 17370 bound_to 10713
  157.3719  130.7185  149.6570 LP  0  0  0  0  0  0  0  0  0  0  0  0  # atno 17371 bound_to 10713
  141.1905  133.8216  157.0917 LP  0  0  0  0  0  0  0  0  0  0  0  0  # atno 17394 bound_to 11000
  140.0437  134.9841  157.1009 LP  0  0  0  0  0  0  0  0  0  0  0  0  # atno 17395 bound_to 11000

$$$$
