AV-unprocessed.smi:1112|AV-procd|sdf|4796|dock4
  -GOLD-   22720 3343D 1   1.00000     0.00000
 Structure written by MMmdl.
 49 51  0  0  0  0  0  0  0  0  1 V2000
  154.4665  140.3961  162.2632 O   0  0  0  0  0  0  0  0  0  0  0  0
  154.0230  140.0457  161.1699 C   0  0  0  0  0  0  0  0  0  0  0  0
  154.2447  138.8391  160.6289 N   0  0  0  0  0  0  0  0  0  0  0  0
  154.9971  137.7468  161.2450 C   0  0  0  0  0  0  0  0  0  0  0  0
  154.1134  136.5109  161.5649 C   0  0  0  0  0  0  0  0  0  0  0  0
  153.5189  136.1180  160.3420 O   0  0  0  0  0  0  0  0  0  0  0  0
  154.9695  135.3084  162.0315 C   0  0  0  0  0  0  0  0  0  0  0  0
  155.4992  135.4748  163.4689 C   0  0  0  0  0  0  0  0  0  0  0  0
  154.3611  135.7630  164.4603 C   0  0  0  0  0  0  0  0  0  0  0  0
  153.5232  136.9705  164.0141 C   0  0  0  0  0  0  0  0  0  0  0  0
  152.9801  136.7693  162.5893 C   0  0  0  0  0  0  0  0  0  0  0  0
  153.2723  140.8084  160.3576 N   0  0  0  0  0  0  0  0  0  0  0  0
  152.8020  142.1375  160.5662 C   0  0  0  0  0  0  0  0  0  0  0  0
  152.9083  142.8081  161.8096 C   0  0  0  0  0  0  0  0  0  0  0  0
  152.3962  144.1128  161.9324 C   0  0  0  0  0  0  0  0  0  0  0  0
  151.7861  144.7001  160.8100 C   0  0  0  0  0  0  0  0  0  0  0  0
  151.6628  144.0710  159.6239 N   0  0  0  0  0  0  0  0  0  0  0  0
  152.1557  142.8141  159.4994 C   0  0  0  0  0  0  0  0  0  0  0  0
  152.0110  142.1787  158.2529 N   0  0  0  0  0  0  0  0  0  0  0  0
  151.5460  143.0256  157.1670 C   0  0  0  0  0  0  0  0  0  0  0  0
  151.1138  142.0634  156.0581 C   0  0  0  0  0  0  0  0  0  0  0  0
  150.8384  140.7353  156.7739 C   0  0  0  0  0  0  0  0  0  0  0  0
  151.1478  141.0094  158.2482 C   0  0  0  0  0  0  0  0  0  0  0  0
  153.8425  138.6472  159.7231 H   0  0  0  0  0  0  0  0  0  0  0  0
  155.8052  137.4665  160.5681 H   0  0  0  0  0  0  0  0  0  0  0  0
  155.4902  138.1015  162.1498 H   0  0  0  0  0  0  0  0  0  0  0  0
  154.1922  135.7632  159.7817 H   0  0  0  0  0  0  0  0  0  0  0  0
  154.3693  134.3977  161.9941 H   0  0  0  0  0  0  0  0  0  0  0  0
  155.8034  135.1467  161.3471 H   0  0  0  0  0  0  0  0  0  0  0  0
  156.0292  134.5716  163.7717 H   0  0  0  0  0  0  0  0  0  0  0  0
  156.2319  136.2804  163.5096 H   0  0  0  0  0  0  0  0  0  0  0  0
  153.7187  134.8856  164.5436 H   0  0  0  0  0  0  0  0  0  0  0  0
  154.7707  135.9409  165.4551 H   0  0  0  0  0  0  0  0  0  0  0  0
  152.6954  137.1225  164.7071 H   0  0  0  0  0  0  0  0  0  0  0  0
  154.1299  137.8749  164.0592 H   0  0  0  0  0  0  0  0  0  0  0  0
  152.3659  137.6216  162.2981 H   0  0  0  0  0  0  0  0  0  0  0  0
  152.3024  135.9140  162.6001 H   0  0  0  0  0  0  0  0  0  0  0  0
  153.0622  140.4171  159.4509 H   0  0  0  0  0  0  0  0  0  0  0  0
  153.3569  142.3446  162.6744 H   0  0  0  0  0  0  0  0  0  0  0  0
  152.4642  144.6487  162.8675 H   0  0  0  0  0  0  0  0  0  0  0  0
  151.3791  145.6989  160.8679 H   0  0  0  0  0  0  0  0  0  0  0  0
  150.6974  143.6316  157.4873 H   0  0  0  0  0  0  0  0  0  0  0  0
  152.3338  143.6998  156.8298 H   0  0  0  0  0  0  0  0  0  0  0  0
  150.2406  142.4355  155.5212 H   0  0  0  0  0  0  0  0  0  0  0  0
  151.9193  141.9344  155.3343 H   0  0  0  0  0  0  0  0  0  0  0  0
  149.8108  140.3971  156.6379 H   0  0  0  0  0  0  0  0  0  0  0  0
  151.4981  139.9592  156.3846 H   0  0  0  0  0  0  0  0  0  0  0  0
  151.6385  140.1578  158.7205 H   0  0  0  0  0  0  0  0  0  0  0  0
  150.2251  141.2118  158.7940 H   0  0  0  0  0  0  0  0  0  0  0  0
  1  2  2  0  0  0  0
  2  3  1  0  0  0  0
  2 12  1  0  0  0  0
  3  4  1  0  0  0  0
  3 24  1  0  0  0  0
  4  5  1  0  0  0  0
  4 25  1  0  0  0  0
  4 26  1  0  0  0  0
  5 11  1  0  0  0  0
  5  6  1  0  0  0  0
  5  7  1  0  0  0  0
  6 27  1  0  0  0  0
  7  8  1  0  0  0  0
  7 28  1  0  0  0  0
  7 29  1  0  0  0  0
  8  9  1  0  0  0  0
  8 30  1  0  0  0  0
  8 31  1  0  0  0  0
  9 10  1  0  0  0  0
  9 32  1  0  0  0  0
  9 33  1  0  0  0  0
 10 11  1  0  0  0  0
 10 34  1  0  0  0  0
 10 35  1  0  0  0  0
 11 36  1  0  0  0  0
 11 37  1  0  0  0  0
 12 13  1  0  0  0  0
 12 38  1  0  0  0  0
 13 18  1  0  0  0  0
 13 14  2  0  0  0  0
 14 15  1  0  0  0  0
 14 39  1  0  0  0  0
 15 16  2  0  0  0  0
 15 40  1  0  0  0  0
 16 17  1  0  0  0  0
 16 41  1  0  0  0  0
 17 18  2  0  0  0  0
 18 19  1  0  0  0  0
 19 23  1  0  0  0  0
 19 20  1  0  0  0  0
 20 21  1  0  0  0  0
 20 42  1  0  0  0  0
 20 43  1  0  0  0  0
 21 22  1  0  0  0  0
 21 44  1  0  0  0  0
 21 45  1  0  0  0  0
 22 23  1  0  0  0  0
 22 46  1  0  0  0  0
 22 47  1  0  0  0  0
 23 48  1  0  0  0  0
 23 49  1  0  0  0  0
M  END
> <s_m_source_file>
AV-unprocessed.smi

> <i_m_source_file_index>
1112

> <i_lp_mmshare_version>
43012

> <i_f3d_flags>
0

> <s_epik_input>
W0NIMl0xW0NIMl1bQ0gyXVtDSDJdW0NIMl1DMShbT0hdKVtDSDJdW05IXUMoPU8pW05IXWMyW2NIXVtjSF1bY0hdbmMyTjNbQ0gyXVtDSDJdW0NIMl1bQ0gyXTM=

> <s_epik_cmdline>
J2VwaWtfcHl0aG9uJywgJy1waCcsICc3LjAnLCAnLXRuJywgJzgnLCAnLW1hJywgJzIwMCcsICctbWV0YWxfYmluZGluZycsICctaW1hZScsICc8aW5maWxlLm1hZT4nLCAnLW9tYWUnLCAnPG91dGZpbGUubWFlPic=

> <r_lp_tautomer_probability>
1

> <r_epik_Ionization_Penalty>
0.100401

> <r_epik_Ionization_Penalty_Charging>
0

> <r_epik_Ionization_Penalty_Neutral>
0.100401

> <r_epik_State_Penalty>
0.0898606

> <r_epik_Charging_Adjusted_Penalty>
0.0898606

> <i_epik_Tot_Q>
0

> <i_epik_Tot_abs_Q>
0

> <r_epik_Metal_State_Penalty>
0.0767935

> <b_epik_Metal_Only>
0

> <s_lp_Force_Field>
OPLS_2005

> <r_lp_Energy>
45.6108

> <b_lp_Chiralities_Consistent>
1

> <s_lp_Variant>
AV-unprocessed.smi:1112-1

> <Gold.Version>
5.8.1

> <Gold.Id.Protein>
6NUR|6NUR_protein|mol2

> <Gold.PLP.Fitness>
46.1825

> <Gold.PLP.PLP>
-43.5055

> <Gold.PLP.part.hbond>
-1.0000

> <Gold.PLP.part.metal>
0.0000

> <Gold.PLP.part.buried>
-7.6109

> <Gold.PLP.part.nonpolar>
-34.2611

> <Gold.PLP.part.repulsive>
0.1436

> <Gold.PLP.ligand.clash>
0.0000

> <Gold.PLP.ligand.torsion>
0.1773

> <Gold.PLP.Chemscore.Hbond>
1.0000

> <Gold.PLP.Chemscore.CHOScore>
0.0000

> <Gold.PLP.Chemscore.Metal>
0.0000

> <Gold.Chemscore.Hbonds>
donor molecule, donor type, donor heavy atom, donor atom, acceptor molecule, acceptor atom, score
      P1  H  6896  6907       L1     6  1.00

> <Gold.PLP.Chemscore.Internal.Correction>
0.0316

> <Gold.Rescore>
     Score         DG    S(hbond)    S(metal)    S(lipo)     H(rot)  DE(clash)    DE(int)     intcor
     14.90     -17.50       0.93        0.00     117.54       1.89       0.18       2.42       ----

> <Gold.Chemscore.Fitness>
14.9003

> <Gold.Chemscore.DG>
-17.4960

> <Gold.Chemscore.ZeroCoef>
-5.4800

> <Gold.Chemscore.Hbond>
0.9262

> <Gold.Chemscore.Metal>
0.0000

> <Gold.Chemscore.Lipo>
117.5394

> <Gold.Chemscore.Internal_Hbond>
0.0000

> <Gold.Chemscore.DEClash>
0.1783

> <Gold.Chemscore.DEInternal>
2.4175

> <Gold.Chemscore.Rot>
1.8866

> <Gold.Chemscore.Internal.Correction>
   9.000000E+99

> <Gold.Chemscore.Hbonds>
donor molecule, donor type, donor heavy atom, donor atom, acceptor molecule, acceptor atom, score
      P1  H  6896  6907       L1     6  0.30

> <Gold.Chemscore.Hbond.Weighted>
-3.0936

> <Gold.Chemscore.Metal.Weighted>
-0.0000

> <Gold.Chemscore.Lipo.Weighted>
-13.7521

> <Gold.Chemscore.Internal_Hbond.Weighted>
0.0000

> <Gold.Chemscore.DEClash.Weighted>
0.1783

> <Gold.Chemscore.DEInternal.Weighted>
2.4175

> <Gold.Chemscore.Rot.Weighted>
4.8297

> <Gold.Chemscore.Internal.Correction.Weighted>
   9.000000E+99

> <Gold.Protein.RotatedTorsions>
[ 6907 6896 6895 6894 ] final   38.05 input  -60.11 | X-H torsion
[ 7974 7965 7964 7962 ] final -108.86 input  175.53 | X-H torsion
[ 8008 7997 7996 7995 ] final   77.11 input   59.86 | X-H torsion
[ 10167 10162 10161 10158 ] final  -69.01 input  -65.29 | X-H torsion
[ 10718 10713 10712 10709 ] final -175.26 input   66.30 | X-H torsion
[ 10763 10752 10751 10750 ] final   72.77 input  -60.55 | X-H torsion
[ 11005 11000 10999 10996 ] final    1.00 input  -57.11 | X-H torsion

> <Gold.Protein.ActiveResidues>
 VAL166  LYS551  ARG553  GLY616  TRP617  ASP618  TYR619  PRO620  LYS621  CYS622 
 ASP623  PHE694  ASN695  SER759  ASP760  ASP761  ALA762  ILE779  LEU786  VAL792 
 PHE793  MET794  SER795  GLU796  ALA797  LYS798  CYS799  TRP800  GLU811  SER814 

> <Gold.Protein.RotatedAtoms>
  152.1513  134.8986  160.0547 H   0  0  0  0  0  0  0  0  0  0  0  0  # atno 6907 bound_to 6896
  152.0017  133.3823  159.4192 H   0  0  0  0  0  0  0  0  0  0  0  0  # atno 6908 bound_to 6896
  150.6876  134.3749  159.5052 H   0  0  0  0  0  0  0  0  0  0  0  0  # atno 6909 bound_to 6896
  145.1876  140.9000  143.3443 H   0  0  0  0  0  0  0  0  0  0  0  0  # atno 7974 bound_to 7965
  155.8369  140.3464  155.5607 H   0  0  0  0  0  0  0  0  0  0  0  0  # atno 8008 bound_to 7997
  155.8182  140.0909  157.1884 H   0  0  0  0  0  0  0  0  0  0  0  0  # atno 8009 bound_to 7997
  154.4004  140.1435  156.3455 H   0  0  0  0  0  0  0  0  0  0  0  0  # atno 8010 bound_to 7997
  140.5464  143.2313  151.6994 H   0  0  0  0  0  0  0  0  0  0  0  0  # atno 10167 bound_to 10162
  156.7972  130.9539  151.3119 H   0  0  0  0  0  0  0  0  0  0  0  0  # atno 10718 bound_to 10713
  153.0479  135.5087  154.7794 H   0  0  0  0  0  0  0  0  0  0  0  0  # atno 10763 bound_to 10752
  154.6679  135.2948  154.9783 H   0  0  0  0  0  0  0  0  0  0  0  0  # atno 10764 bound_to 10752
  154.0612  135.6690  153.4864 H   0  0  0  0  0  0  0  0  0  0  0  0  # atno 10765 bound_to 10752
  140.6203  133.9667  155.8221 H   0  0  0  0  0  0  0  0  0  0  0  0  # atno 11005 bound_to 11000
  145.0073  139.3542  143.6137 LP  0  0  0  0  0  0  0  0  0  0  0  0  # atno 17320 bound_to 7965
  146.3442  139.9321  142.8752 LP  0  0  0  0  0  0  0  0  0  0  0  0  # atno 17321 bound_to 7965
  139.5009  144.3888  152.0301 LP  0  0  0  0  0  0  0  0  0  0  0  0  # atno 17342 bound_to 10162
  140.3001  144.3656  150.6063 LP  0  0  0  0  0  0  0  0  0  0  0  0  # atno 17343 bound_to 10162
  157.6572  130.8934  149.9753 LP  0  0  0  0  0  0  0  0  0  0  0  0  # atno 17370 bound_to 10713
  156.1123  130.3649  150.0028 LP  0  0  0  0  0  0  0  0  0  0  0  0  # atno 17371 bound_to 10713
  141.0747  134.0153  157.3475 LP  0  0  0  0  0  0  0  0  0  0  0  0  # atno 17394 bound_to 11000
  139.9156  135.0196  156.7868 LP  0  0  0  0  0  0  0  0  0  0  0  0  # atno 17395 bound_to 11000

$$$$
