AV-unprocessed.smi:1008|AV-procd|sdf|4411|dock3
  -GOLD-   22720 2353D 1   1.00000     0.00000
 Structure written by MMmdl.
 23 23  0  0  0  0  0  0  0  0  1 V2000
  150.9490  138.7820  154.5588 C   0  0  0  0  0  0  0  0  0  0  0  0
  149.6406  139.4328  154.1452 C   0  0  0  0  0  0  0  0  0  0  0  0
  148.8795  138.6841  153.2651 N   0  0  0  0  0  0  0  0  0  0  0  0
  147.6684  139.1964  152.8256 C   0  0  0  0  0  0  0  0  0  0  0  0
  146.9861  138.3744  151.9534 N   0  0  0  0  0  0  0  0  0  0  0  0
  147.1958  140.3502  153.1897 N   0  0  0  0  0  0  0  0  0  0  0  0
  147.9236  141.1563  154.0789 C   0  0  0  0  0  0  0  0  0  0  0  0
  147.4870  142.2523  154.4276 O   0  0  0  0  0  0  0  0  0  0  0  0
  149.2223  140.6491  154.5717 C   0  0  0  0  0  0  0  0  0  0  0  0
  150.0176  141.5117  155.5476 C   0  0  0  0  0  0  0  0  0  0  0  0
  149.3263  141.6280  156.9137 C   0  0  0  0  0  0  0  0  0  0  0  0
  149.7146  142.8284  157.5453 O   0  0  0  0  0  0  0  0  0  0  0  0
  146.0916  138.6044  151.5458 H   0  0  0  0  0  0  0  0  0  0  0  0
  151.7890  139.4396  154.3332 H   0  0  0  0  0  0  0  0  0  0  0  0
  151.1128  137.8386  154.0365 H   0  0  0  0  0  0  0  0  0  0  0  0
  150.9492  138.5756  155.6293 H   0  0  0  0  0  0  0  0  0  0  0  0
  147.3352  137.4742  151.6568 H   0  0  0  0  0  0  0  0  0  0  0  0
  149.2371  137.7857  152.9750 H   0  0  0  0  0  0  0  0  0  0  0  0
  150.1682  142.5071  155.1305 H   0  0  0  0  0  0  0  0  0  0  0  0
  151.0195  141.0962  155.6668 H   0  0  0  0  0  0  0  0  0  0  0  0
  148.2419  141.6222  156.7989 H   0  0  0  0  0  0  0  0  0  0  0  0
  149.5919  140.7883  157.5567 H   0  0  0  0  0  0  0  0  0  0  0  0
  149.6522  143.5322  156.9174 H   0  0  0  0  0  0  0  0  0  0  0  0
  1 14  1  0  0  0  0
  1 15  1  0  0  0  0
  1 16  1  0  0  0  0
  1  2  1  0  0  0  0
  2  9  2  0  0  0  0
  2  3  1  0  0  0  0
  3 18  1  0  0  0  0
  3  4  1  0  0  0  0
  4  5  1  0  0  0  0
  4  6  2  0  0  0  0
  5 17  1  0  0  0  0
  5 13  1  0  0  0  0
  6  7  1  0  0  0  0
  7  8  2  0  0  0  0
  7  9  1  0  0  0  0
  9 10  1  0  0  0  0
 10 11  1  0  0  0  0
 10 19  1  0  0  0  0
 10 20  1  0  0  0  0
 11 12  1  0  0  0  0
 11 21  1  0  0  0  0
 11 22  1  0  0  0  0
 12 23  1  0  0  0  0
M  END
> <s_m_source_file>
AV-unprocessed.smi

> <i_m_source_file_index>
1008

> <i_lp_mmshare_version>
43012

> <i_f3d_flags>
0

> <s_epik_input>
W0NIM11jMW5jKFtOSDJdKVtuSF1jKD1PKWMxW0NIMl1bQ0gyXVtPSF0=

> <s_epik_cmdline>
J2VwaWtfcHl0aG9uJywgJy1waCcsICc3LjAnLCAnLXRuJywgJzgnLCAnLW1hJywgJzIwMCcsICctbWV0YWxfYmluZGluZycsICctaW1hZScsICc8aW5maWxlLm1hZT4nLCAnLW9tYWUnLCAnPG91dGZpbGUubWFlPic=

> <r_lp_tautomer_probability>
0.108277

> <r_epik_Ionization_Penalty>
0.666207

> <r_epik_Ionization_Penalty_Charging>
0.00797854

> <r_epik_Ionization_Penalty_Neutral>
0.658229

> <r_epik_State_Penalty>
1.38976

> <r_epik_Charging_Adjusted_Penalty>
1.39774

> <i_epik_Tot_Q>
0

> <i_epik_Tot_abs_Q>
0

> <r_epik_Metal_State_Penalty>
0.86313

> <b_epik_Metal_Only>
0

> <s_lp_Force_Field>
OPLS_2005

> <r_lp_Energy>
8.84659

> <b_lp_Chiralities_Consistent>
1

> <s_lp_Variant>
AV-unprocessed.smi:1008-2

> <Gold.Version>
5.8.1

> <Gold.Id.Protein>
6NUR|6NUR_protein|mol2

> <Gold.PLP.Fitness>
29.5830

> <Gold.PLP.PLP>
-21.6380

> <Gold.PLP.part.hbond>
-4.5369

> <Gold.PLP.part.metal>
0.0000

> <Gold.PLP.part.buried>
-0.6188

> <Gold.PLP.part.nonpolar>
-18.0011

> <Gold.PLP.part.repulsive>
0.9260

> <Gold.PLP.ligand.clash>
0.0000

> <Gold.PLP.ligand.torsion>
0.2158

> <Gold.PLP.Chemscore.Hbond>
2.7920

> <Gold.PLP.Chemscore.CHOScore>
0.0000

> <Gold.PLP.Chemscore.Metal>
0.0000

> <Gold.Chemscore.Hbonds>
donor molecule, donor type, donor heavy atom, donor atom, acceptor molecule, acceptor atom, score
      L1  H     3    18       P1  7948  0.93
      L1  H     5    17       P1  7948  0.85
      L1  H    12    23       P1  8028  1.00

> <Gold.PLP.Chemscore.Internal.Correction>
0.0006

> <Gold.Rescore>
     Score         DG    S(hbond)    S(metal)    S(lipo)     H(rot)  DE(clash)    DE(int)     intcor
     12.39     -12.81       2.57        0.00      34.27       2.06       0.19       0.23       ----

> <Gold.Chemscore.Fitness>
12.3888

> <Gold.Chemscore.DG>
-12.8110

> <Gold.Chemscore.ZeroCoef>
-5.4800

> <Gold.Chemscore.Hbond>
2.5729

> <Gold.Chemscore.Metal>
0.0000

> <Gold.Chemscore.Lipo>
34.2718

> <Gold.Chemscore.Internal_Hbond>
0.0000

> <Gold.Chemscore.DEClash>
0.1885

> <Gold.Chemscore.DEInternal>
0.2336

> <Gold.Chemscore.Rot>
2.0595

> <Gold.Chemscore.Internal.Correction>
   9.000000E+99

> <Gold.Chemscore.Hbonds>
donor molecule, donor type, donor heavy atom, donor atom, acceptor molecule, acceptor atom, score
      L1  H     3    18       P1  7948  0.89
      L1  H     5    17       P1  7948  0.79
      L1  H    12    23       P1  8028  0.97

> <Gold.Chemscore.Hbond.Weighted>
-8.5935

> <Gold.Chemscore.Metal.Weighted>
-0.0000

> <Gold.Chemscore.Lipo.Weighted>
-4.0098

> <Gold.Chemscore.Internal_Hbond.Weighted>
0.0000

> <Gold.Chemscore.DEClash.Weighted>
0.1885

> <Gold.Chemscore.DEInternal.Weighted>
0.2336

> <Gold.Chemscore.Rot.Weighted>
5.2724

> <Gold.Chemscore.Internal.Correction.Weighted>
   9.000000E+99

> <Gold.Protein.RotatedTorsions>
[ 6907 6896 6895 6894 ] final   61.66 input  -60.11 | X-H torsion
[ 7974 7965 7964 7962 ] final  119.34 input  175.53 | X-H torsion
[ 8008 7997 7996 7995 ] final   48.36 input   59.86 | X-H torsion
[ 10167 10162 10161 10158 ] final   16.35 input  -65.29 | X-H torsion
[ 10718 10713 10712 10709 ] final -128.35 input   66.30 | X-H torsion
[ 10763 10752 10751 10750 ] final -132.23 input  -60.55 | X-H torsion
[ 11005 11000 10999 10996 ] final  -39.23 input  -57.11 | X-H torsion

> <Gold.Protein.ActiveResidues>
 VAL166  LYS551  ARG553  GLY616  TRP617  ASP618  TYR619  PRO620  LYS621  CYS622 
 ASP623  PHE694  ASN695  SER759  ASP760  ASP761  ALA762  ILE779  LEU786  VAL792 
 PHE793  MET794  SER795  GLU796  ALA797  LYS798  CYS799  TRP800  GLU811  SER814 

> <Gold.Protein.RotatedAtoms>
  152.4107  134.6129  160.0030 H   0  0  0  0  0  0  0  0  0  0  0  0  # atno 6907 bound_to 6896
  151.6307  133.3326  159.3116 H   0  0  0  0  0  0  0  0  0  0  0  0  # atno 6908 bound_to 6896
  150.7998  134.7124  159.6656 H   0  0  0  0  0  0  0  0  0  0  0  0  # atno 6909 bound_to 6896
  145.1443  139.3249  143.4600 H   0  0  0  0  0  0  0  0  0  0  0  0  # atno 7974 bound_to 7965
  155.3844  140.3430  155.4248 H   0  0  0  0  0  0  0  0  0  0  0  0  # atno 8008 bound_to 7997
  156.1592  140.1595  156.8674 H   0  0  0  0  0  0  0  0  0  0  0  0  # atno 8009 bound_to 7997
  154.5124  140.0787  156.7997 H   0  0  0  0  0  0  0  0  0  0  0  0  # atno 8010 bound_to 7997
  140.5804  143.8992  150.6785 H   0  0  0  0  0  0  0  0  0  0  0  0  # atno 10167 bound_to 10162
  156.1943  130.6816  151.0462 H   0  0  0  0  0  0  0  0  0  0  0  0  # atno 10718 bound_to 10713
  154.8745  135.3804  154.4376 H   0  0  0  0  0  0  0  0  0  0  0  0  # atno 10763 bound_to 10752
  153.5064  135.7030  153.5809 H   0  0  0  0  0  0  0  0  0  0  0  0  # atno 10764 bound_to 10752
  153.4118  135.3923  155.2022 H   0  0  0  0  0  0  0  0  0  0  0  0  # atno 10765 bound_to 10752
  141.0086  133.6919  156.2159 H   0  0  0  0  0  0  0  0  0  0  0  0  # atno 11005 bound_to 11000
  146.3502  140.1492  142.8593 LP  0  0  0  0  0  0  0  0  0  0  0  0  # atno 17320 bound_to 7965
  145.0499  140.9009  143.5002 LP  0  0  0  0  0  0  0  0  0  0  0  0  # atno 17321 bound_to 7965
  140.2490  143.3607  152.1422 LP  0  0  0  0  0  0  0  0  0  0  0  0  # atno 17342 bound_to 10162
  139.5166  144.6980  151.5575 LP  0  0  0  0  0  0  0  0  0  0  0  0  # atno 17343 bound_to 10162
  157.6948  131.0798  150.7002 LP  0  0  0  0  0  0  0  0  0  0  0  0  # atno 17370 bound_to 10713
  156.7058  130.4637  149.5560 LP  0  0  0  0  0  0  0  0  0  0  0  0  # atno 17371 bound_to 10713
  140.6771  134.4807  157.5588 LP  0  0  0  0  0  0  0  0  0  0  0  0  # atno 17394 bound_to 11000
  139.9077  134.8412  156.1643 LP  0  0  0  0  0  0  0  0  0  0  0  0  # atno 17395 bound_to 11000

$$$$
