#       Name:                AV-unprocessed.smi:54
#       Creating user name   scv26
#       Creation time:       Thu Mar 26 16:43:08 2020


#       File generated by GOLD software.
#

@<TRIPOS>MOLECULE
AV-unprocessed.smi:54
    58    60     1
SMALL
NO_CHARGES


@<TRIPOS>ATOM
      1 ****        -0.7276   5.2983  -1.2819 C.3            1 S1                 0.0000
      2 ****        -1.0929   4.7397   0.1028 C.3            1 S1                 0.0000
      3 ****        -0.2980   5.4420   1.2155 C.3            1 S1                 0.0000
      4 ****        -0.8665   3.2242   0.1468 C.2            1 S1                 0.0000
      5 ****         0.2555   2.7280   0.0363 O.2            1 S1                 0.0000
      6 ****        -2.0645   2.4205   0.3148 N.am           1 S1                 0.0000
      7 ****        -2.1463   1.0707   0.3647 C.2            1 S1                 0.0000
      8 ****        -1.0844   0.2854   0.4768 N.2            1 S1                 0.0000
      9 ****        -1.3659  -1.0519   0.5028 C.2            1 S1                 0.0000
     10 ****        -2.6156  -1.6308   0.4390 C.2            1 S1                 0.0000
     11 ****        -2.5041  -3.0152   0.4983 N.2            1 S1                 0.0000
     12 ****        -1.2208  -3.2267   0.5947 C.2            1 S1                 0.0000
     13 ****        -0.4553  -2.0829   0.5885 N.pl3          1 S1                 0.0000
     14 ****         1.0306  -1.9231   0.6992 C.3            1 S1                 0.0000
     15 ****         1.5967  -3.1920   0.8356 O.3            1 S1                 0.0000
     16 ****         2.0117  -3.6636  -0.4417 C.3            1 S1                 0.0000
     17 ****         2.9896  -4.8441  -0.3118 C.3            1 S1                 0.0000
     18 ****         2.2711  -6.0434  -0.1173 O.3            1 S1                 0.0000
     19 ****         2.5848  -2.3886  -1.0719 C.3            1 S1                 0.0000
     20 ****         3.9042  -2.1540  -0.6060 O.3            1 S1                 0.0000
     21 ****         1.5954  -1.3214  -0.6031 C.3            1 S1                 0.0000
     22 ****         2.1983  -0.0535  -0.4223 O.3            1 S1                 0.0000
     23 ****        -3.7765  -0.7945   0.3328 C.2            1 S1                 0.0000
     24 ****        -4.9564  -1.1328   0.2695 O.2            1 S1                 0.0000
     25 ****        -3.4457   0.5669   0.3009 N.am           1 S1                 0.0000
     26 ****         1.1821  -1.3169   1.5934 H              1 S1                 0.0000
     27 ****         1.1348  -3.9668  -1.0178 H              1 S1                 0.0000
     28 ****         2.6164  -2.4550  -2.1599 H              1 S1                 0.0000
     29 ****         0.7949  -1.2273  -1.3389 H              1 S1                 0.0000
     30 ****        -1.2912   4.8000  -2.0718 H              1 S1                 0.0000
     31 ****         0.3339   5.1715  -1.4993 H              1 S1                 0.0000
     32 ****        -0.9520   6.3634  -1.3434 H              1 S1                 0.0000
     33 ****        -2.1531   4.9309   0.2753 H              1 S1                 0.0000
     34 ****        -0.5480   5.0389   2.1977 H              1 S1                 0.0000
     35 ****        -0.5179   6.5096   1.2355 H              1 S1                 0.0000
     36 ****         0.7778   5.3303   1.0731 H              1 S1                 0.0000
     37 ****        -2.9343   2.9297   0.3659 H              1 S1                 0.0000
     38 ****        -0.8063  -4.2215   0.6708 H              1 S1                 0.0000
     39 ****         3.5682  -4.9545  -1.2293 H              1 S1                 0.0000
     40 ****         3.6967  -4.6915   0.5041 H              1 S1                 0.0000
     41 ****         1.7856  -5.9723   0.6904 H              1 S1                 0.0000
     42 ****         4.1739  -1.2967  -0.8995 H              1 S1                 0.0000
     43 ****         1.5348   0.5545  -0.1312 H              1 S1                 0.0000
     44 ****        -4.2151   1.2154   0.2211 H              1 S1                 0.0000
     45 ****         1.0534   3.3182  -0.0864 LP             1 S1                 0.0000
     46 ****         0.3685   1.7350   0.0694 LP             1 S1                 0.0000
     47 ****        -0.1523   0.6426   0.5375 LP             1 S1                 0.0000
     48 ****        -3.2389  -3.6930   0.4729 LP             1 S1                 0.0000
     49 ****         0.9198  -3.8200   1.2195 LP             1 S1                 0.0000
     50 ****         2.3875  -3.1408   1.4456 LP             1 S1                 0.0000
     51 ****         2.9071  -6.8131  -0.0625 LP             1 S1                 0.0000
     52 ****         1.6398  -6.1863  -0.8795 LP             1 S1                 0.0000
     53 ****         4.5220  -2.8480  -0.9757 LP             1 S1                 0.0000
     54 ****         3.9217  -2.1905   0.3932 LP             1 S1                 0.0000
     55 ****         2.5884   0.2613  -1.2876 LP             1 S1                 0.0000
     56 ****         2.9216  -0.1185   0.2652 LP             1 S1                 0.0000
     57 ****        -5.2003  -2.1023   0.2902 LP             1 S1                 0.0000
     58 ****        -5.6724  -0.4385   0.1973 LP             1 S1                 0.0000
@<TRIPOS>BOND
    1    1    2 1     
    2    1   30 1     
    3    1   31 1     
    4    1   32 1     
    5    2    3 1     
    6    2    4 1     
    7    2   33 1     
    8    3   34 1     
    9    3   35 1     
   10    3   36 1     
   11    4    5 2     
   12    4    6 am    
   13    6   37 1     
   14    6    7 1     
   15    7   25 1     
   16    7    8 2     
   17    8    9 1     
   18    9   13 1     
   19    9   10 2     
   20   10   11 1     
   21   10   23 1     
   22   11   12 2     
   23   12   13 1     
   24   12   38 1     
   25   13   14 1     
   26   14   26 1     
   27   14   21 1     
   28   14   15 1     
   29   15   16 1     
   30   16   27 1     
   31   16   17 1     
   32   16   19 1     
   33   17   18 1     
   34   17   39 1     
   35   17   40 1     
   36   18   41 1     
   37   19   28 1     
   38   19   20 1     
   39   19   21 1     
   40   20   42 1     
   41   21   29 1     
   42   21   22 1     
   43   22   43 1     
   44   23   24 2     
   45   23   25 am    
   46   25   44 1     
   47    5   45 1     
   48    5   46 1     
   49    8   47 1     
   50   11   48 1     
   51   15   49 1     
   52   15   50 1     
   53   18   51 1     
   54   18   52 1     
   55   20   53 1     
   56   20   54 1     
   57   22   55 1     
   58   22   56 1     
   59   24   57 1     
   60   24   58 1     
@<TRIPOS>SUBSTRUCTURE
      1 S1             1
@<TRIPOS>SET
LONE_PAIRS      STATIC     ATOMS    <user>   **** ""
14 45 46 47 48 49 50 51 52 53 54 55 56 57 58
DONOR_HYDROGENS      STATIC     ATOMS    <user>   **** ""
5 37 41 42 43 44
ATOM$BLUE        STATIC     ATOMS    COLORGROUP SYSTEM
14 45 46 47 48 49 50 51 52 53 54 55 56 57 58
ATOM$RED        STATIC     ATOMS    COLORGROUP SYSTEM
5 37 41 42 43 44
