AV-unprocessed.smi:1221|AV-procd|sdf|5119|dock2
  -GOLD-   22720 4173D 1   1.00000     0.00000
 Structure written by MMmdl.
 39 40  0  0  0  0  0  0  0  0  2 V2000
  144.5002  144.2293  154.3740 C   0  0  0  0  0  0  0  0  0  0  0  0
  145.7307  143.3881  154.3697 C   0  0  0  0  0  0  0  0  0  0  0  0
  146.7660  143.2626  153.4875 C   0  0  0  0  0  0  0  0  0  0  0  0
  147.5993  142.2872  154.1006 C   0  0  0  0  0  0  0  0  0  0  0  0
  148.7475  141.8023  153.6037 N   0  5  0  0  0  0  0  0  0  0  0  0
  149.6910  141.2949  154.4308 C   0  0  0  0  0  0  0  0  0  0  0  0
  150.2732  140.2154  154.3027 O   0  0  0  0  0  0  0  0  0  0  0  0
  149.9745  142.0885  155.4733 N   0  0  0  0  0  0  0  0  0  0  0  0
  150.9395  141.8040  156.5288 C   0  0  0  0  0  0  0  0  0  0  0  0
  150.6422  142.6204  157.7999 C   0  0  0  0  0  0  0  0  0  0  0  0
  151.8059  142.6614  158.6928 N   0  0  0  0  0  0  0  0  0  0  0  0
  152.4451  143.9765  158.8594 C   0  0  0  0  0  0  0  0  0  0  0  0
  152.2540  144.5930  160.2645 C   0  0  0  0  0  0  0  0  0  0  0  0
  152.1033  143.5975  161.4320 C   0  0  0  0  0  0  0  0  0  0  0  0
  153.2118  142.5284  161.5279 C   0  0  0  0  0  0  0  0  0  0  0  0
  153.4765  141.6919  160.2533 C   0  0  0  0  0  0  0  0  0  0  0  0
  152.2606  141.5506  159.3231 C   0  0  0  0  0  0  0  0  0  0  0  0
  151.7462  140.4405  159.1850 O   0  0  0  0  0  0  0  0  0  0  0  0
  147.1047  141.8483  155.2458 N   0  0  0  0  0  0  0  0  0  0  0  0
  145.9092  142.5534  155.4285 O   0  0  0  0  0  0  0  0  0  0  0  0
  143.7700  143.8456  153.6618 H   0  0  0  0  0  0  0  0  0  0  0  0
  144.7341  145.2576  154.0985 H   0  0  0  0  0  0  0  0  0  0  0  0
  144.0363  144.2420  155.3606 H   0  0  0  0  0  0  0  0  0  0  0  0
  146.9076  143.7854  152.5536 H   0  0  0  0  0  0  0  0  0  0  0  0
  149.4748  142.9632  155.5364 H   0  0  0  0  0  0  0  0  0  0  0  0
  150.9607  140.7348  156.7461 H   0  0  0  0  0  0  0  0  0  0  0  0
  151.9274  142.0614  156.1463 H   0  0  0  0  0  0  0  0  0  0  0  0
  150.3447  143.6346  157.5293 H   0  0  0  0  0  0  0  0  0  0  0  0
  149.7803  142.2019  158.3230 H   0  0  0  0  0  0  0  0  0  0  0  0
  153.5089  143.8854  158.6395 H   0  0  0  0  0  0  0  0  0  0  0  0
  152.0855  144.6817  158.1089 H   0  0  0  0  0  0  0  0  0  0  0  0
  153.0842  145.2707  160.4665 H   0  0  0  0  0  0  0  0  0  0  0  0
  151.3619  145.2200  160.2477 H   0  0  0  0  0  0  0  0  0  0  0  0
  152.0715  144.1561  162.3678 H   0  0  0  0  0  0  0  0  0  0  0  0
  151.1309  143.1075  161.3642 H   0  0  0  0  0  0  0  0  0  0  0  0
  154.1435  143.0109  161.8250 H   0  0  0  0  0  0  0  0  0  0  0  0
  152.9617  141.8507  162.3450 H   0  0  0  0  0  0  0  0  0  0  0  0
  154.3044  142.1204  159.6891 H   0  0  0  0  0  0  0  0  0  0  0  0
  153.8233  140.6990  160.5426 H   0  0  0  0  0  0  0  0  0  0  0  0
  1  2  1  0  0  0  0
  1 21  1  0  0  0  0
  1 22  1  0  0  0  0
  1 23  1  0  0  0  0
  2 20  1  0  0  0  0
  2  3  2  0  0  0  0
  3  4  1  0  0  0  0
  3 24  1  0  0  0  0
  4  5  1  0  0  0  0
  4 19  2  0  0  0  0
  5  6  1  0  0  0  0
  6  7  2  0  0  0  0
  6  8  1  0  0  0  0
  8  9  1  0  0  0  0
  8 25  1  0  0  0  0
  9 10  1  0  0  0  0
  9 26  1  0  0  0  0
  9 27  1  0  0  0  0
 10 11  1  0  0  0  0
 10 28  1  0  0  0  0
 10 29  1  0  0  0  0
 11 17  1  0  0  0  0
 11 12  1  0  0  0  0
 12 13  1  0  0  0  0
 12 30  1  0  0  0  0
 12 31  1  0  0  0  0
 13 14  1  0  0  0  0
 13 32  1  0  0  0  0
 13 33  1  0  0  0  0
 14 15  1  0  0  0  0
 14 34  1  0  0  0  0
 14 35  1  0  0  0  0
 15 16  1  0  0  0  0
 15 36  1  0  0  0  0
 15 37  1  0  0  0  0
 16 17  1  0  0  0  0
 16 38  1  0  0  0  0
 16 39  1  0  0  0  0
 17 18  2  0  0  0  0
 19 20  1  0  0  0  0
M  CHG  1   5  -1
M  END
> <s_m_source_file>
AV-unprocessed.smi

> <i_m_source_file_index>
1221

> <i_lp_mmshare_version>
43012

> <i_f3d_flags>
0

> <s_epik_input>
W0NIM11jMVtjSF1jKG5vMSlbTkhdQyg9TylbTkhdW0NIMl1bQ0gyXU4yW0NIMl1bQ0gyXVtDSDJdW0NIMl1bQ0gyXUMyPU8=

> <s_epik_cmdline>
J2VwaWtfcHl0aG9uJywgJy1waCcsICc3LjAnLCAnLXRuJywgJzgnLCAnLW1hJywgJzIwMCcsICctbWV0YWxfYmluZGluZycsICctaW1hZScsICc8aW5maWxlLm1hZT4nLCAnLW9tYWUnLCAnPG91dGZpbGUubWFlPic=

> <r_lp_tautomer_probability>
1

> <r_epik_Ionization_Penalty>
6.46803

> <r_epik_Ionization_Penalty_Charging>
6.46791

> <r_epik_Ionization_Penalty_Neutral>
0.00012322

> <r_epik_State_Penalty>
6.4679

> <r_epik_Charging_Adjusted_Penalty>
12.9358

> <i_epik_Tot_Q>
-1

> <i_epik_Tot_abs_Q>
1

> <r_epik_Metal_State_Penalty>
2.39627

> <b_epik_Metal_Only>
1

> <s_lp_Force_Field>
OPLS_2005

> <r_lp_Energy>
15.4009

> <b_lp_Chiralities_Consistent>
1

> <s_lp_Variant>
AV-unprocessed.smi:1221-2

> <Gold.Version>
5.8.1

> <Gold.Id.Protein>
6NUR|6NUR_protein|mol2

> <Gold.PLP.Fitness>
52.8402

> <Gold.PLP.PLP>
-47.5357

> <Gold.PLP.part.hbond>
-3.0000

> <Gold.PLP.part.metal>
0.0000

> <Gold.PLP.part.buried>
-6.2617

> <Gold.PLP.part.nonpolar>
-37.5690

> <Gold.PLP.part.repulsive>
0.6713

> <Gold.PLP.ligand.clash>
0.0000

> <Gold.PLP.ligand.torsion>
0.8449

> <Gold.PLP.Chemscore.Hbond>
2.3252

> <Gold.PLP.Chemscore.CHOScore>
0.0000

> <Gold.PLP.Chemscore.Metal>
0.0000

> <Gold.Chemscore.Hbonds>
donor molecule, donor type, donor heavy atom, donor atom, acceptor molecule, acceptor atom, score
      L1  H     8    25       P1  8028  1.00
      P1  H  7989  7998       L1     7  0.75
      P1  H  8011  8017       L1     5  0.59

> <Gold.PLP.Chemscore.Internal.Correction>
0.0189

> <Gold.Rescore>
     Score         DG    S(hbond)    S(metal)    S(lipo)     H(rot)  DE(clash)    DE(int)     intcor
     14.53     -15.65       1.00        0.00      93.24       1.60       0.01       1.12       ----

> <Gold.Chemscore.Fitness>
14.5254

> <Gold.Chemscore.DG>
-15.6528

> <Gold.Chemscore.ZeroCoef>
-5.4800

> <Gold.Chemscore.Hbond>
1.0041

> <Gold.Chemscore.Metal>
0.0000

> <Gold.Chemscore.Lipo>
93.2411

> <Gold.Chemscore.Internal_Hbond>
0.0000

> <Gold.Chemscore.DEClash>
0.0064

> <Gold.Chemscore.DEInternal>
1.1210

> <Gold.Chemscore.Rot>
1.5978

> <Gold.Chemscore.Internal.Correction>
   9.000000E+99

> <Gold.Chemscore.Hbonds>
donor molecule, donor type, donor heavy atom, donor atom, acceptor molecule, acceptor atom, score
      L1  H     8    25       P1  8028  1.00
      P1  H  7989  7998       L1     7  0.09
      P1  H  8011  8017       L1     5  0.15

> <Gold.Chemscore.Hbond.Weighted>
-3.3538

> <Gold.Chemscore.Metal.Weighted>
-0.0000

> <Gold.Chemscore.Lipo.Weighted>
-10.9092

> <Gold.Chemscore.Internal_Hbond.Weighted>
0.0000

> <Gold.Chemscore.DEClash.Weighted>
0.0064

> <Gold.Chemscore.DEInternal.Weighted>
1.1210

> <Gold.Chemscore.Rot.Weighted>
4.0902

> <Gold.Chemscore.Internal.Correction.Weighted>
   9.000000E+99

> <Gold.Protein.RotatedTorsions>
[ 6907 6896 6895 6894 ] final  -79.09 input  -60.11 | X-H torsion
[ 7974 7965 7964 7962 ] final  -52.23 input  175.53 | X-H torsion
[ 8008 7997 7996 7995 ] final -179.37 input   59.86 | X-H torsion
[ 10167 10162 10161 10158 ] final  -76.68 input  -65.29 | X-H torsion
[ 10718 10713 10712 10709 ] final -149.39 input   66.30 | X-H torsion
[ 10763 10752 10751 10750 ] final   56.28 input  -60.55 | X-H torsion
[ 11005 11000 10999 10996 ] final   99.65 input  -57.11 | X-H torsion

> <Gold.Protein.ActiveResidues>
 VAL166  LYS551  ARG553  GLY616  TRP617  ASP618  TYR619  PRO620  LYS621  CYS622 
 ASP623  PHE694  ASN695  SER759  ASP760  ASP761  ALA762  ILE779  LEU786  VAL792 
 PHE793  MET794  SER795  GLU796  ALA797  LYS798  CYS799  TRP800  GLU811  SER814 

> <Gold.Protein.RotatedAtoms>
  150.6957  134.4173  159.5188 H   0  0  0  0  0  0  0  0  0  0  0  0  # atno 6907 bound_to 6896
  152.1922  134.8659  160.0525 H   0  0  0  0  0  0  0  0  0  0  0  0  # atno 6908 bound_to 6896
  151.9610  133.3660  159.4072 H   0  0  0  0  0  0  0  0  0  0  0  0  # atno 6909 bound_to 6896
  145.9102  140.7921  142.9699 H   0  0  0  0  0  0  0  0  0  0  0  0  # atno 7974 bound_to 7965
  156.0298  140.1279  157.0270 H   0  0  0  0  0  0  0  0  0  0  0  0  # atno 8008 bound_to 7997
  154.4345  140.1052  156.6153 H   0  0  0  0  0  0  0  0  0  0  0  0  # atno 8009 bound_to 7997
  155.5824  140.3468  155.4546 H   0  0  0  0  0  0  0  0  0  0  0  0  # atno 8010 bound_to 7997
  140.4836  143.2396  151.8020 H   0  0  0  0  0  0  0  0  0  0  0  0  # atno 10167 bound_to 10162
  156.4325  130.8082  151.2310 H   0  0  0  0  0  0  0  0  0  0  0  0  # atno 10718 bound_to 10713
  152.9829  135.5682  154.5202 H   0  0  0  0  0  0  0  0  0  0  0  0  # atno 10763 bound_to 10752
  154.4692  135.2784  155.1657 H   0  0  0  0  0  0  0  0  0  0  0  0  # atno 10764 bound_to 10752
  154.3213  135.6268  153.5562 H   0  0  0  0  0  0  0  0  0  0  0  0  # atno 10765 bound_to 10752
  139.8770  134.9105  156.4638 H   0  0  0  0  0  0  0  0  0  0  0  0  # atno 11005 bound_to 11000
  144.6742  140.1814  143.7405 LP  0  0  0  0  0  0  0  0  0  0  0  0  # atno 17320 bound_to 7965
  145.8681  139.2257  143.1677 LP  0  0  0  0  0  0  0  0  0  0  0  0  # atno 17321 bound_to 7965
  139.4838  144.4741  151.9388 LP  0  0  0  0  0  0  0  0  0  0  0  0  # atno 17342 bound_to 10162
  140.3827  144.2716  150.5907 LP  0  0  0  0  0  0  0  0  0  0  0  0  # atno 17343 bound_to 10162
  157.7508  131.0194  150.3664 LP  0  0  0  0  0  0  0  0  0  0  0  0  # atno 17370 bound_to 10713
  156.4004  130.3915  149.6963 LP  0  0  0  0  0  0  0  0  0  0  0  0  # atno 17371 bound_to 10713
  140.8845  133.7893  155.9503 LP  0  0  0  0  0  0  0  0  0  0  0  0  # atno 17394 bound_to 11000
  140.8819  134.2601  157.5139 LP  0  0  0  0  0  0  0  0  0  0  0  0  # atno 17395 bound_to 11000

$$$$
