AV-unprocessed.smi:2126|AV-procd|sdf|8675|dock8
  -GOLD-   2272011423D 1   1.00000     0.00000
 Structure written by MMmdl.
 40 42  0  0  0  0  0  0  0  0  1 V2000
  155.3013  139.4902  169.6680 C   0  0  0  0  0  0  0  0  0  0  0  0
  155.4231  140.7996  169.1321 O   0  0  0  0  0  0  0  0  0  0  0  0
  155.3026  140.9552  167.7679 C   0  0  0  0  0  0  0  0  0  0  0  0
  154.8128  142.1260  167.1388 C   0  0  0  0  0  0  0  0  0  0  0  0
  154.7228  142.1959  165.7352 C   0  0  0  0  0  0  0  0  0  0  0  0
  155.1166  141.1103  164.9280 C   0  0  0  0  0  0  0  0  0  0  0  0
  154.9956  141.2662  163.5637 O   0  0  0  0  0  0  0  0  0  0  0  0
  155.2470  140.1396  162.7338 C   0  0  0  0  0  0  0  0  0  0  0  0
  154.5780  140.3606  161.3693 C   0  0  2  0  0  0  0  0  0  0  0  0
  155.5741  140.7480  160.4433 O   0  0  0  0  0  0  0  0  0  0  0  0
  153.4677  141.4285  161.4225 C   0  0  0  0  0  0  0  0  0  0  0  0
  152.7676  141.5666  160.1577 N   0  0  0  0  0  0  0  0  0  0  0  0
  152.7371  140.6765  159.1473 C   0  0  0  0  0  0  0  0  0  0  0  0
  152.0316  141.0034  158.0682 N   0  0  0  0  0  0  0  0  0  0  0  0
  151.5459  142.2514  158.4192 C   0  0  0  0  0  0  0  0  0  0  0  0
  150.7210  143.1491  157.7042 C   0  0  0  0  0  0  0  0  0  0  0  0
  150.3517  144.3865  158.2717 C   0  0  0  0  0  0  0  0  0  0  0  0
  150.8005  144.7454  159.5593 C   0  0  0  0  0  0  0  0  0  0  0  0
  151.6233  143.8676  160.2909 C   0  0  0  0  0  0  0  0  0  0  0  0
  151.9888  142.6334  159.7216 C   0  0  0  0  0  0  0  0  0  0  0  0
  155.6062  139.9396  165.5576 C   0  0  0  0  0  0  0  0  0  0  0  0
  155.6958  139.8695  166.9609 C   0  0  0  0  0  0  0  0  0  0  0  0
  155.4271  139.5316  170.7498 H   0  0  0  0  0  0  0  0  0  0  0  0
  156.0691  138.8240  169.2723 H   0  0  0  0  0  0  0  0  0  0  0  0
  154.3161  139.0673  169.4662 H   0  0  0  0  0  0  0  0  0  0  0  0
  154.4989  142.9859  167.7108 H   0  0  0  0  0  0  0  0  0  0  0  0
  154.3458  143.0961  165.2724 H   0  0  0  0  0  0  0  0  0  0  0  0
  156.3196  139.9860  162.6030 H   0  0  0  0  0  0  0  0  0  0  0  0
  154.8322  139.2465  163.2047 H   0  0  0  0  0  0  0  0  0  0  0  0
  154.1582  139.4156  161.0220 H   0  0  0  0  0  0  0  0  0  0  0  0
  155.2901  141.5395  160.0116 H   0  0  0  0  0  0  0  0  0  0  0  0
  152.7359  141.1746  162.1905 H   0  0  0  0  0  0  0  0  0  0  0  0
  153.8822  142.3985  161.6996 H   0  0  0  0  0  0  0  0  0  0  0  0
  153.2653  139.7359  159.2066 H   0  0  0  0  0  0  0  0  0  0  0  0
  150.3725  142.8860  156.7166 H   0  0  0  0  0  0  0  0  0  0  0  0
  149.7213  145.0645  157.7155 H   0  0  0  0  0  0  0  0  0  0  0  0
  150.5133  145.6961  159.9844 H   0  0  0  0  0  0  0  0  0  0  0  0
  151.9715  144.1400  161.2762 H   0  0  0  0  0  0  0  0  0  0  0  0
  155.9196  139.0790  164.9869 H   0  0  0  0  0  0  0  0  0  0  0  0
  156.0712  138.9687  167.4238 H   0  0  0  0  0  0  0  0  0  0  0  0
  1  2  1  0  0  0  0
  1 23  1  0  0  0  0
  1 24  1  0  0  0  0
  1 25  1  0  0  0  0
  2  3  1  0  0  0  0
  3 22  1  0  0  0  0
  3  4  2  0  0  0  0
  4  5  1  0  0  0  0
  4 26  1  0  0  0  0
  5  6  2  0  0  0  0
  5 27  1  0  0  0  0
  6  7  1  0  0  0  0
  6 21  1  0  0  0  0
  7  8  1  0  0  0  0
  8  9  1  0  0  0  0
  8 28  1  0  0  0  0
  8 29  1  0  0  0  0
  9 10  1  0  0  0  0
  9 11  1  0  0  0  0
  9 30  1  0  0  0  0
 10 31  1  0  0  0  0
 11 12  1  0  0  0  0
 11 32  1  0  0  0  0
 11 33  1  0  0  0  0
 12 20  1  0  0  0  0
 12 13  1  0  0  0  0
 13 14  2  0  0  0  0
 13 34  1  0  0  0  0
 14 15  1  0  0  0  0
 15 20  2  0  0  0  0
 15 16  1  0  0  0  0
 16 17  2  0  0  0  0
 16 35  1  0  0  0  0
 17 18  1  0  0  0  0
 17 36  1  0  0  0  0
 18 19  2  0  0  0  0
 18 37  1  0  0  0  0
 19 20  1  0  0  0  0
 19 38  1  0  0  0  0
 21 22  2  0  0  0  0
 21 39  1  0  0  0  0
 22 40  1  0  0  0  0
M  END
> <s_m_source_file>
AV-unprocessed.smi

> <i_m_source_file_index>
2126

> <i_lp_mmshare_version>
43012

> <i_f3d_flags>
0

> <s_epik_input>
W0NIM11PYzFbY0hdW2NIXWMoW2NIXVtjSF0xKU9bQ0gyXVtDQEhdKFtPSF0pW0NIMl1uKFtjSF1uMiljKGMyMylbY0hdW2NIXVtjSF1bY0hdMw==

> <s_epik_cmdline>
J2VwaWtfcHl0aG9uJywgJy1waCcsICc3LjAnLCAnLXRuJywgJzgnLCAnLW1hJywgJzIwMCcsICctbWV0YWxfYmluZGluZycsICctaW1hZScsICc8aW5maWxlLm1hZT4nLCAnLW9tYWUnLCAnPG91dGZpbGUubWFlPic=

> <r_lp_tautomer_probability>
1

> <r_epik_Ionization_Penalty>
0.0608933

> <r_epik_Ionization_Penalty_Charging>
0

> <r_epik_Ionization_Penalty_Neutral>
0.0608933

> <r_epik_State_Penalty>
0.0528196

> <r_epik_Charging_Adjusted_Penalty>
0.0528196

> <i_epik_Tot_Q>
0

> <i_epik_Tot_abs_Q>
0

> <r_epik_Metal_State_Penalty>
5.52429e-05

> <b_epik_Metal_Only>
0

> <s_lp_Force_Field>
OPLS_2005

> <r_lp_Energy>
18.1491

> <b_lp_Chiralities_Consistent>
1

> <s_lp_Variant>
AV-unprocessed.smi:2126-1

> <Gold.Version>
5.8.1

> <Gold.Id.Protein>
6NUR|6NUR_protein|mol2

> <Gold.PLP.Fitness>
51.8142

> <Gold.PLP.PLP>
-54.5044

> <Gold.PLP.part.hbond>
-2.0000

> <Gold.PLP.part.metal>
0.0000

> <Gold.PLP.part.buried>
-6.0488

> <Gold.PLP.part.nonpolar>
-45.4599

> <Gold.PLP.part.repulsive>
0.1722

> <Gold.PLP.ligand.clash>
0.0000

> <Gold.PLP.ligand.torsion>
1.3721

> <Gold.PLP.Chemscore.Hbond>
0.0000

> <Gold.PLP.Chemscore.CHOScore>
0.0000

> <Gold.PLP.Chemscore.Metal>
0.0000

> <Gold.PLP.Chemscore.Internal.Correction>
0.0540

> <Gold.Rescore>
     Score         DG    S(hbond)    S(metal)    S(lipo)     H(rot)  DE(clash)    DE(int)     intcor
     14.02     -15.35       0.00        0.00     139.22       2.51       0.12       1.21       ----

> <Gold.Chemscore.Fitness>
14.0202

> <Gold.Chemscore.DG>
-15.3479

> <Gold.Chemscore.ZeroCoef>
-5.4800

> <Gold.Chemscore.Hbond>
0.0000

> <Gold.Chemscore.Metal>
0.0000

> <Gold.Chemscore.Lipo>
139.2233

> <Gold.Chemscore.Internal_Hbond>
0.0000

> <Gold.Chemscore.DEClash>
0.1222

> <Gold.Chemscore.DEInternal>
1.2056

> <Gold.Chemscore.Rot>
2.5083

> <Gold.Chemscore.Internal.Correction>
   9.000000E+99

> <Gold.Chemscore.Hbond.Weighted>
-0.0000

> <Gold.Chemscore.Metal.Weighted>
-0.0000

> <Gold.Chemscore.Lipo.Weighted>
-16.2891

> <Gold.Chemscore.Internal_Hbond.Weighted>
0.0000

> <Gold.Chemscore.DEClash.Weighted>
0.1222

> <Gold.Chemscore.DEInternal.Weighted>
1.2056

> <Gold.Chemscore.Rot.Weighted>
6.4212

> <Gold.Chemscore.Internal.Correction.Weighted>
   9.000000E+99

> <Gold.Protein.RotatedTorsions>
[ 6907 6896 6895 6894 ] final  -28.98 input  -60.11 | X-H torsion
[ 7974 7965 7964 7962 ] final   40.16 input  175.53 | X-H torsion
[ 8008 7997 7996 7995 ] final  -65.14 input   59.86 | X-H torsion
[ 10167 10162 10161 10158 ] final  101.53 input  -65.29 | X-H torsion
[ 10718 10713 10712 10709 ] final   19.15 input   66.30 | X-H torsion
[ 10763 10752 10751 10750 ] final  130.82 input  -60.55 | X-H torsion
[ 11005 11000 10999 10996 ] final   31.15 input  -57.11 | X-H torsion

> <Gold.Protein.ActiveResidues>
 VAL166  LYS551  ARG553  GLY616  TRP617  ASP618  TYR619  PRO620  LYS621  CYS622 
 ASP623  PHE694  ASN695  SER759  ASP760  ASP761  ALA762  ILE779  LEU786  VAL792 
 PHE793  MET794  SER795  GLU796  ALA797  LYS798  CYS799  TRP800  GLU811  SER814 

> <Gold.Protein.RotatedAtoms>
  151.1255  135.0102  159.8557 H   0  0  0  0  0  0  0  0  0  0  0  0  # atno 6907 bound_to 6896
  152.5449  134.1672  159.8592 H   0  0  0  0  0  0  0  0  0  0  0  0  # atno 6908 bound_to 6896
  151.1734  133.4725  159.2627 H   0  0  0  0  0  0  0  0  0  0  0  0  # atno 6909 bound_to 6896
  146.0926  139.5565  142.9465 H   0  0  0  0  0  0  0  0  0  0  0  0  # atno 7974 bound_to 7965
  154.4654  140.0939  156.7005 H   0  0  0  0  0  0  0  0  0  0  0  0  # atno 8008 bound_to 7997
  155.4874  140.3469  155.4331 H   0  0  0  0  0  0  0  0  0  0  0  0  # atno 8009 bound_to 7997
  156.0946  140.1406  156.9536 H   0  0  0  0  0  0  0  0  0  0  0  0  # atno 8010 bound_to 7997
  139.7430  144.7006  151.0546 H   0  0  0  0  0  0  0  0  0  0  0  0  # atno 10167 bound_to 10162
  157.1064  130.6490  149.5886 H   0  0  0  0  0  0  0  0  0  0  0  0  # atno 10718 bound_to 10713
  153.7642  135.3191  155.3342 H   0  0  0  0  0  0  0  0  0  0  0  0  # atno 10763 bound_to 10752
  154.8219  135.4597  154.0808 H   0  0  0  0  0  0  0  0  0  0  0  0  # atno 10764 bound_to 10752
  153.2048  135.6927  153.8270 H   0  0  0  0  0  0  0  0  0  0  0  0  # atno 10765 bound_to 10752
  140.2870  134.2908  155.7786 H   0  0  0  0  0  0  0  0  0  0  0  0  # atno 11005 bound_to 11000
  145.6009  141.0355  143.2019 LP  0  0  0  0  0  0  0  0  0  0  0  0  # atno 17320 bound_to 7965
  144.7372  139.7552  143.7325 LP  0  0  0  0  0  0  0  0  0  0  0  0  # atno 17321 bound_to 7965
  140.7788  143.4901  150.9905 LP  0  0  0  0  0  0  0  0  0  0  0  0  # atno 17342 bound_to 10162
  139.8589  143.7340  152.3174 LP  0  0  0  0  0  0  0  0  0  0  0  0  # atno 17343 bound_to 10162
  155.9861  130.4894  150.7063 LP  0  0  0  0  0  0  0  0  0  0  0  0  # atno 17370 bound_to 10713
  157.4597  131.0882  151.0759 LP  0  0  0  0  0  0  0  0  0  0  0  0  # atno 17371 bound_to 10713
  141.2153  133.7561  156.9566 LP  0  0  0  0  0  0  0  0  0  0  0  0  # atno 17394 bound_to 11000
  140.1231  134.9404  157.2231 LP  0  0  0  0  0  0  0  0  0  0  0  0  # atno 17395 bound_to 11000

$$$$
