AV-unprocessed.smi:1643|AV-procd|sdf|6577|dock2
  -GOLD-   22720 7263D 1   1.00000     0.00000
 Structure written by MMmdl.
 53 55  0  0  0  0  0  0  0  0  1 V2000
  147.0141  143.1511  158.6752 C   0  0  0  0  0  0  0  0  0  0  0  0
  145.9378  142.1005  158.3917 C   0  0  0  0  0  0  0  0  0  0  0  0
  145.7022  141.2589  159.2591 O   0  0  0  0  0  0  0  0  0  0  0  0
  145.2891  142.1259  157.2026 N   0  0  0  0  0  0  0  0  0  0  0  0
  144.2986  141.1093  156.8320 C   0  0  0  0  0  0  0  0  0  0  0  0
  144.9834  139.9360  156.1131 C   0  0  0  0  0  0  0  0  0  0  0  0
  145.8054  140.3360  154.8697 C   0  0  0  0  0  0  0  0  0  0  0  0
  147.0058  141.1272  155.1765 N   0  0  0  0  0  0  0  0  0  0  0  0
  148.1102  140.8460  154.2563 C   0  0  0  0  0  0  0  0  0  0  0  0
  149.4162  140.3947  154.9402 C   0  0  1  0  0  0  0  0  0  0  0  0
  150.3003  139.9243  153.9432 O   0  0  0  0  0  0  0  0  0  0  0  0
  150.0965  141.5411  155.7145 C   0  0  0  0  0  0  0  0  0  0  0  0
  151.0624  141.0510  156.6791 N   0  0  0  0  0  0  0  0  0  0  0  0
  151.8504  139.9638  156.5745 C   0  0  0  0  0  0  0  0  0  0  0  0
  152.6658  139.7043  157.5932 N   0  0  0  0  0  0  0  0  0  0  0  0
  152.3757  140.7477  158.4565 C   0  0  0  0  0  0  0  0  0  0  0  0
  152.9001  141.0606  159.7299 C   0  0  0  0  0  0  0  0  0  0  0  0
  152.4478  142.1951  160.4414 C   0  0  0  0  0  0  0  0  0  0  0  0
  153.0391  142.4944  161.8076 C   0  0  0  0  0  0  0  0  0  0  0  0
  151.4539  143.0370  159.8798 C   0  0  0  0  0  0  0  0  0  0  0  0
  150.9506  144.2612  160.6242 C   0  0  0  0  0  0  0  0  0  0  0  0
  150.9193  142.7383  158.6097 C   0  0  0  0  0  0  0  0  0  0  0  0
  151.3781  141.6074  157.9124 C   0  0  0  0  0  0  0  0  0  0  0  0
  146.7302  142.5713  155.1972 C   0  0  0  0  0  0  0  0  0  0  0  0
  145.5879  143.0644  156.1146 C   0  0  0  0  0  0  0  0  0  0  0  0
  147.7969  143.1227  157.9172 H   0  0  0  0  0  0  0  0  0  0  0  0
  147.4832  142.9661  159.6422 H   0  0  0  0  0  0  0  0  0  0  0  0
  146.5817  144.1516  158.7015 H   0  0  0  0  0  0  0  0  0  0  0  0
  143.7630  140.7437  157.7095 H   0  0  0  0  0  0  0  0  0  0  0  0
  143.5258  141.5340  156.1902 H   0  0  0  0  0  0  0  0  0  0  0  0
  145.6295  139.4059  156.8142 H   0  0  0  0  0  0  0  0  0  0  0  0
  144.2187  139.2185  155.8147 H   0  0  0  0  0  0  0  0  0  0  0  0
  146.0821  139.4080  154.3727 H   0  0  0  0  0  0  0  0  0  0  0  0
  145.1781  140.8631  154.1493 H   0  0  0  0  0  0  0  0  0  0  0  0
  147.7916  140.0950  153.5314 H   0  0  0  0  0  0  0  0  0  0  0  0
  148.3382  141.7409  153.6753 H   0  0  0  0  0  0  0  0  0  0  0  0
  149.2280  139.5603  155.6146 H   0  0  0  0  0  0  0  0  0  0  0  0
  149.8772  140.0130  153.1028 H   0  0  0  0  0  0  0  0  0  0  0  0
  150.5926  142.2316  155.0307 H   0  0  0  0  0  0  0  0  0  0  0  0
  149.3535  142.1247  156.2595 H   0  0  0  0  0  0  0  0  0  0  0  0
  151.8213  139.3255  155.7033 H   0  0  0  0  0  0  0  0  0  0  0  0
  153.6564  140.4189  160.1576 H   0  0  0  0  0  0  0  0  0  0  0  0
  153.4894  143.4872  161.8211 H   0  0  0  0  0  0  0  0  0  0  0  0
  153.8129  141.7734  162.0731 H   0  0  0  0  0  0  0  0  0  0  0  0
  152.2654  142.4535  162.5746 H   0  0  0  0  0  0  0  0  0  0  0  0
  150.1850  144.7869  160.0525 H   0  0  0  0  0  0  0  0  0  0  0  0
  151.7676  144.9591  160.8087 H   0  0  0  0  0  0  0  0  0  0  0  0
  150.5155  143.9743  161.5817 H   0  0  0  0  0  0  0  0  0  0  0  0
  150.1621  143.3694  158.1687 H   0  0  0  0  0  0  0  0  0  0  0  0
  147.6406  143.0840  155.5098 H   0  0  0  0  0  0  0  0  0  0  0  0
  146.5356  142.9235  154.1831 H   0  0  0  0  0  0  0  0  0  0  0  0
  144.6972  143.2131  155.5033 H   0  0  0  0  0  0  0  0  0  0  0  0
  145.8139  144.0610  156.4939 H   0  0  0  0  0  0  0  0  0  0  0  0
  1  2  1  0  0  0  0
  1 26  1  0  0  0  0
  1 27  1  0  0  0  0
  1 28  1  0  0  0  0
  2  3  2  0  0  0  0
  2  4  1  0  0  0  0
  4 25  1  0  0  0  0
  4  5  1  0  0  0  0
  5  6  1  0  0  0  0
  5 29  1  0  0  0  0
  5 30  1  0  0  0  0
  6  7  1  0  0  0  0
  6 31  1  0  0  0  0
  6 32  1  0  0  0  0
  7  8  1  0  0  0  0
  7 33  1  0  0  0  0
  7 34  1  0  0  0  0
  8  9  1  0  0  0  0
  8 24  1  0  0  0  0
  9 10  1  0  0  0  0
  9 35  1  0  0  0  0
  9 36  1  0  0  0  0
 10 11  1  0  0  0  0
 10 12  1  0  0  0  0
 10 37  1  0  0  0  0
 11 38  1  0  0  0  0
 12 13  1  0  0  0  0
 12 39  1  0  0  0  0
 12 40  1  0  0  0  0
 13 23  1  0  0  0  0
 13 14  1  0  0  0  0
 14 15  2  0  0  0  0
 14 41  1  0  0  0  0
 15 16  1  0  0  0  0
 16 23  2  0  0  0  0
 16 17  1  0  0  0  0
 17 18  2  0  0  0  0
 17 42  1  0  0  0  0
 18 19  1  0  0  0  0
 18 20  1  0  0  0  0
 19 43  1  0  0  0  0
 19 44  1  0  0  0  0
 19 45  1  0  0  0  0
 20 21  1  0  0  0  0
 20 22  2  0  0  0  0
 21 46  1  0  0  0  0
 21 47  1  0  0  0  0
 21 48  1  0  0  0  0
 22 23  1  0  0  0  0
 22 49  1  0  0  0  0
 24 25  1  0  0  0  0
 24 50  1  0  0  0  0
 24 51  1  0  0  0  0
 25 52  1  0  0  0  0
 25 53  1  0  0  0  0
M  END
> <s_m_source_file>
AV-unprocessed.smi

> <i_m_source_file_index>
1643

> <i_lp_mmshare_version>
43012

> <i_f3d_flags>
0

> <s_epik_input>
W0NIM11DKD1PKU4xW0NIMl1bQ0gyXVtDSDJdTihbQ0gyXVtDSDJdMSlbQ0gyXVtDQEhdKFtPSF0pW0NIMl1uKFtjSF1uMiljKGMyMylbY0hdYyhbQ0gzXSljKFtjSF0zKVtDSDNd

> <s_epik_cmdline>
J2VwaWtfcHl0aG9uJywgJy1waCcsICc3LjAnLCAnLXRuJywgJzgnLCAnLW1hJywgJzIwMCcsICctbWV0YWxfYmluZGluZycsICctaW1hZScsICc8aW5maWxlLm1hZT4nLCAnLW9tYWUnLCAnPG91dGZpbGUubWFlPic=

> <r_epik_Ionization_Penalty>
1.17666

> <r_epik_Ionization_Penalty_Charging>
0

> <r_epik_Ionization_Penalty_Neutral>
1.17666

> <r_epik_State_Penalty>
1.20405

> <r_epik_Charging_Adjusted_Penalty>
1.20405

> <i_epik_Tot_Q>
0

> <i_epik_Tot_abs_Q>
0

> <r_epik_Metal_State_Penalty>
1.13307

> <b_epik_Metal_Only>
0

> <s_lp_Force_Field>
OPLS_2005

> <r_lp_Energy>
45.5249

> <b_lp_Chiralities_Consistent>
1

> <s_lp_Variant>
AV-unprocessed.smi:1643-6

> <Gold.Version>
5.8.1

> <Gold.Id.Protein>
6NUR|6NUR_protein|mol2

> <Gold.PLP.Fitness>
52.0399

> <Gold.PLP.PLP>
-43.3357

> <Gold.PLP.part.hbond>
-4.0000

> <Gold.PLP.part.metal>
0.0000

> <Gold.PLP.part.buried>
-4.5178

> <Gold.PLP.part.nonpolar>
-34.8633

> <Gold.PLP.part.repulsive>
0.0852

> <Gold.PLP.ligand.clash>
0.0000

> <Gold.PLP.ligand.torsion>
1.3019

> <Gold.PLP.Chemscore.Hbond>
3.7440

> <Gold.PLP.Chemscore.CHOScore>
0.0000

> <Gold.PLP.Chemscore.Metal>
0.0000

> <Gold.Chemscore.Hbonds>
donor molecule, donor type, donor heavy atom, donor atom, acceptor molecule, acceptor atom, score
      L1  H    11    38       P1  7957  1.00
      P1  H  6934  6946       L1     3  0.80
      P1  H  7989  7998       L1    11  0.64
      P1  H  7997  8008       L1    15  0.90

> <Gold.PLP.Chemscore.Internal.Correction>
0.0761

> <Gold.Rescore>
     Score         DG    S(hbond)    S(metal)    S(lipo)     H(rot)  DE(clash)    DE(int)     intcor
     21.14     -22.52       3.09        0.00     102.70       2.07       0.09       1.28       ----

> <Gold.Chemscore.Fitness>
21.1412

> <Gold.Chemscore.DG>
-22.5153

> <Gold.Chemscore.ZeroCoef>
-5.4800

> <Gold.Chemscore.Hbond>
3.0856

> <Gold.Chemscore.Metal>
0.0000

> <Gold.Chemscore.Lipo>
102.6993

> <Gold.Chemscore.Internal_Hbond>
0.0000

> <Gold.Chemscore.DEClash>
0.0938

> <Gold.Chemscore.DEInternal>
1.2803

> <Gold.Chemscore.Rot>
2.0650

> <Gold.Chemscore.Internal.Correction>
   9.000000E+99

> <Gold.Chemscore.Hbonds>
donor molecule, donor type, donor heavy atom, donor atom, acceptor molecule, acceptor atom, score
      L1  H    11    38       P1  7957  0.98
      P1  H  6934  6946       L1     3  0.79
      P1  H  7989  7998       L1    11  0.05
      P1  H  7997  8008       L1    15  0.12

> <Gold.Chemscore.Hbond.Weighted>
-10.3060

> <Gold.Chemscore.Metal.Weighted>
-0.0000

> <Gold.Chemscore.Lipo.Weighted>
-12.0158

> <Gold.Chemscore.Internal_Hbond.Weighted>
0.0000

> <Gold.Chemscore.DEClash.Weighted>
0.0938

> <Gold.Chemscore.DEInternal.Weighted>
1.2803

> <Gold.Chemscore.Rot.Weighted>
5.2865

> <Gold.Chemscore.Internal.Correction.Weighted>
   9.000000E+99

> <Gold.Protein.RotatedTorsions>
[ 6907 6896 6895 6894 ] final  158.41 input  -60.11 | X-H torsion
[ 7974 7965 7964 7962 ] final   79.82 input  175.53 | X-H torsion
[ 8008 7997 7996 7995 ] final  -60.43 input   59.86 | X-H torsion
[ 10167 10162 10161 10158 ] final   94.35 input  -65.29 | X-H torsion
[ 10718 10713 10712 10709 ] final   47.41 input   66.30 | X-H torsion
[ 10763 10752 10751 10750 ] final -115.09 input  -60.55 | X-H torsion
[ 11005 11000 10999 10996 ] final  -10.18 input  -57.11 | X-H torsion

> <Gold.Protein.ActiveResidues>
 VAL166  LYS551  ARG553  GLY616  TRP617  ASP618  TYR619  PRO620  LYS621  CYS622 
 ASP623  PHE694  ASN695  SER759  ASP760  ASP761  ALA762  ILE779  LEU786  VAL792 
 PHE793  MET794  SER795  GLU796  ALA797  LYS798  CYS799  TRP800  GLU811  SER814 

> <Gold.Protein.RotatedAtoms>
  152.0008  133.3825  159.4180 H   0  0  0  0  0  0  0  0  0  0  0  0  # atno 6907 bound_to 6896
  150.6910  134.3836  159.5054 H   0  0  0  0  0  0  0  0  0  0  0  0  # atno 6908 bound_to 6896
  152.1583  134.8933  160.0594 H   0  0  0  0  0  0  0  0  0  0  0  0  # atno 6909 bound_to 6896
  145.6593  139.2467  143.1932 H   0  0  0  0  0  0  0  0  0  0  0  0  # atno 7974 bound_to 7965
  154.4398  140.1040  156.6272 H   0  0  0  0  0  0  0  0  0  0  0  0  # atno 8008 bound_to 7997
  155.5644  140.3488  155.4481 H   0  0  0  0  0  0  0  0  0  0  0  0  # atno 8009 bound_to 7997
  156.0436  140.1287  157.0118 H   0  0  0  0  0  0  0  0  0  0  0  0  # atno 8010 bound_to 7997
  139.8092  144.6781  150.9662 H   0  0  0  0  0  0  0  0  0  0  0  0  # atno 10167 bound_to 10162
  157.4582  130.8180  149.7859 H   0  0  0  0  0  0  0  0  0  0  0  0  # atno 10718 bound_to 10713
  154.8467  135.4394  154.1609 H   0  0  0  0  0  0  0  0  0  0  0  0  # atno 10763 bound_to 10752
  153.2746  135.6948  153.7452 H   0  0  0  0  0  0  0  0  0  0  0  0  # atno 10764 bound_to 10752
  153.6680  135.3423  155.3120 H   0  0  0  0  0  0  0  0  0  0  0  0  # atno 10765 bound_to 10752
  140.7420  133.8662  155.8976 H   0  0  0  0  0  0  0  0  0  0  0  0  # atno 11005 bound_to 11000
  146.1139  140.7394  142.9490 LP  0  0  0  0  0  0  0  0  0  0  0  0  # atno 17320 bound_to 7965
  144.7095  140.3983  143.7092 LP  0  0  0  0  0  0  0  0  0  0  0  0  # atno 17321 bound_to 7965
  140.7818  143.4202  151.0853 LP  0  0  0  0  0  0  0  0  0  0  0  0  # atno 17342 bound_to 10162
  139.7870  143.8274  152.3146 LP  0  0  0  0  0  0  0  0  0  0  0  0  # atno 17343 bound_to 10162
  156.0017  130.3877  150.2582 LP  0  0  0  0  0  0  0  0  0  0  0  0  # atno 17370 bound_to 10713
  157.0758  131.0129  151.3174 LP  0  0  0  0  0  0  0  0  0  0  0  0  # atno 17371 bound_to 10713
  140.9828  134.1383  157.4479 LP  0  0  0  0  0  0  0  0  0  0  0  0  # atno 17394 bound_to 11000
  139.8804  135.0016  156.6076 LP  0  0  0  0  0  0  0  0  0  0  0  0  # atno 17395 bound_to 11000

$$$$
