AV-unprocessed.smi:829|AV-procd|sdf|3867|dock1
  -GOLD-   22720 1323D 1   1.00000     0.00000
 Structure written by MMmdl.
 49 51  0  0  0  0  0  0  0  0  2 V2000
  149.8095  140.4876  156.2977 O   0  0  0  0  0  0  0  0  0  0  0  0
  149.6208  141.6756  156.0377 C   0  0  0  0  0  0  0  0  0  0  0  0
  150.2124  142.7132  156.6550 N   0  0  0  0  0  0  0  0  0  0  0  0
  151.1614  142.6927  157.7133 C   0  0  0  0  0  0  0  0  0  0  0  0
  151.7674  143.9135  158.0746 C   0  0  0  0  0  0  0  0  0  0  0  0
  152.7222  143.9177  159.1113 C   0  0  0  0  0  0  0  0  0  0  0  0
  153.0989  142.8058  159.7769 N   0  0  0  0  0  0  0  0  0  0  0  0
  152.5291  141.6354  159.4194 C   0  0  0  0  0  0  0  0  0  0  0  0
  151.5646  141.5209  158.3982 C   0  0  0  0  0  0  0  0  0  0  0  0
  148.7613  142.0958  155.0974 N   0  0  0  0  0  0  0  0  0  0  0  0
  147.9436  141.2253  154.2527 C   0  0  2  0  0  0  0  0  0  0  0  0
  147.1779  142.0526  153.2048 C   0  0  0  0  0  0  0  0  0  0  0  0
  146.0300  142.8676  153.8301 C   0  0  0  0  0  0  0  0  0  0  0  0
  145.1051  141.9939  154.5976 N   0  3  2  0  0  0  0  0  0  0  0  0
  143.9003  142.7126  155.0877 C   0  0  0  0  0  0  0  0  0  0  0  0
  144.1978  144.1928  155.3989 C   0  0  0  0  0  0  0  0  0  0  0  0
  143.2170  144.8061  156.4011 C   0  0  0  0  0  0  0  0  0  0  0  0
  143.3906  146.3184  156.2410 C   0  0  0  0  0  0  0  0  0  0  0  0
  143.8603  146.5387  154.7965 C   0  0  0  0  0  0  0  0  0  0  0  0
  144.0991  145.1455  154.2015 C   0  0  0  0  0  0  0  0  0  0  0  0
  145.8220  141.2556  155.6696 C   0  0  0  0  0  0  0  0  0  0  0  0
  146.9481  140.3888  155.0819 C   0  0  0  0  0  0  0  0  0  0  0  0
  149.8988  143.6316  156.3777 H   0  0  0  0  0  0  0  0  0  0  0  0
  151.5054  144.8345  157.5747 H   0  0  0  0  0  0  0  0  0  0  0  0
  153.1974  144.8396  159.4121 H   0  0  0  0  0  0  0  0  0  0  0  0
  152.8562  140.7599  159.9603 H   0  0  0  0  0  0  0  0  0  0  0  0
  151.1694  140.5464  158.1571 H   0  0  0  0  0  0  0  0  0  0  0  0
  148.6716  143.0904  154.9496 H   0  0  0  0  0  0  0  0  0  0  0  0
  148.6161  140.5482  153.7227 H   0  0  0  0  0  0  0  0  0  0  0  0
  147.8612  142.7140  152.6704 H   0  0  0  0  0  0  0  0  0  0  0  0
  146.7631  141.3784  152.4538 H   0  0  0  0  0  0  0  0  0  0  0  0
  146.4259  143.6457  154.4849 H   0  0  0  0  0  0  0  0  0  0  0  0
  145.4819  143.3726  153.0337 H   0  0  0  0  0  0  0  0  0  0  0  0
  143.0735  142.6128  154.3824 H   0  0  0  0  0  0  0  0  0  0  0  0
  143.5535  142.2478  156.0119 H   0  0  0  0  0  0  0  0  0  0  0  0
  145.1998  144.2732  155.8247 H   0  0  0  0  0  0  0  0  0  0  0  0
  142.1944  144.5275  156.1416 H   0  0  0  0  0  0  0  0  0  0  0  0
  143.4005  144.4748  157.4240 H   0  0  0  0  0  0  0  0  0  0  0  0
  142.4702  146.8589  156.4634 H   0  0  0  0  0  0  0  0  0  0  0  0
  144.1553  146.6772  156.9312 H   0  0  0  0  0  0  0  0  0  0  0  0
  143.1198  147.0874  154.2137 H   0  0  0  0  0  0  0  0  0  0  0  0
  144.7801  147.1248  154.7872 H   0  0  0  0  0  0  0  0  0  0  0  0
  144.9902  145.1188  153.5737 H   0  0  0  0  0  0  0  0  0  0  0  0
  143.2463  144.8726  153.5781 H   0  0  0  0  0  0  0  0  0  0  0  0
  146.2285  141.9637  156.3936 H   0  0  0  0  0  0  0  0  0  0  0  0
  145.1317  140.6159  156.2169 H   0  0  0  0  0  0  0  0  0  0  0  0
  146.5080  139.6216  154.4435 H   0  0  0  0  0  0  0  0  0  0  0  0
  147.4626  139.8531  155.8803 H   0  0  0  0  0  0  0  0  0  0  0  0
  144.7695  141.3039  153.9409 H   0  0  0  0  0  0  0  0  0  0  0  0
  1  2  2  0  0  0  0
  2  3  1  0  0  0  0
  2 10  1  0  0  0  0
  3  4  1  0  0  0  0
  3 23  1  0  0  0  0
  4  9  1  0  0  0  0
  4  5  2  0  0  0  0
  5  6  1  0  0  0  0
  5 24  1  0  0  0  0
  6  7  2  0  0  0  0
  6 25  1  0  0  0  0
  7  8  1  0  0  0  0
  8  9  2  0  0  0  0
  8 26  1  0  0  0  0
  9 27  1  0  0  0  0
 10 11  1  0  0  0  0
 10 28  1  0  0  0  0
 11 22  1  0  0  0  0
 11 12  1  0  0  0  0
 11 29  1  0  0  0  0
 12 13  1  0  0  0  0
 12 30  1  0  0  0  0
 12 31  1  0  0  0  0
 13 14  1  0  0  0  0
 13 32  1  0  0  0  0
 13 33  1  0  0  0  0
 14 15  1  0  0  0  0
 14 21  1  0  0  0  0
 14 49  1  0  0  0  0
 15 16  1  0  0  0  0
 15 34  1  0  0  0  0
 15 35  1  0  0  0  0
 16 20  1  0  0  0  0
 16 17  1  0  0  0  0
 16 36  1  0  0  0  0
 17 18  1  0  0  0  0
 17 37  1  0  0  0  0
 17 38  1  0  0  0  0
 18 19  1  0  0  0  0
 18 39  1  0  0  0  0
 18 40  1  0  0  0  0
 19 20  1  0  0  0  0
 19 41  1  0  0  0  0
 19 42  1  0  0  0  0
 20 43  1  0  0  0  0
 20 44  1  0  0  0  0
 21 22  1  0  0  0  0
 21 45  1  0  0  0  0
 21 46  1  0  0  0  0
 22 47  1  0  0  0  0
 22 48  1  0  0  0  0
M  CHG  1  14   1
M  END
> <s_m_source_file>
AV-unprocessed.smi

> <i_m_source_file_index>
829

> <i_lp_mmshare_version>
43012

> <i_f3d_flags>
0

> <s_epik_input>
W2NIXTFbY0hdbltjSF1bY0hdYzFbTkhdQyg9TylbTkhdW0NIXTJbQ0gyXVtDSDJdTihbQ0gyXVtDSDJdMilbQ0gyXVtDSF0zW0NIMl1bQ0gyXVtDSDJdW0NIMl0z

> <s_epik_cmdline>
J2VwaWtfcHl0aG9uJywgJy1waCcsICc3LjAnLCAnLXRuJywgJzgnLCAnLW1hJywgJzIwMCcsICctbWV0YWxfYmluZGluZycsICctaW1hZScsICc8aW5maWxlLm1hZT4nLCAnLW9tYWUnLCAnPG91dGZpbGUubWFlPic=

> <r_epik_Ionization_Penalty>
0.101981

> <r_epik_Ionization_Penalty_Charging>
0.00207989

> <r_epik_Ionization_Penalty_Neutral>
0.0999008

> <r_epik_State_Penalty>
0.0935668

> <r_epik_Charging_Adjusted_Penalty>
0.0956467

> <i_epik_Tot_Q>
1

> <i_epik_Tot_abs_Q>
1

> <r_epik_Metal_State_Penalty>
0.0787682

> <b_epik_Metal_Only>
0

> <s_lp_Force_Field>
OPLS_2005

> <r_lp_Energy>
43.3749

> <b_lp_Chiralities_Consistent>
1

> <s_lp_Variant>
AV-unprocessed.smi:829-2

> <Gold.Version>
5.8.1

> <Gold.Id.Protein>
6NUR|6NUR_protein|mol2

> <Gold.PLP.Fitness>
50.5316

> <Gold.PLP.PLP>
-40.0132

> <Gold.PLP.part.hbond>
-3.0000

> <Gold.PLP.part.metal>
0.0000

> <Gold.PLP.part.buried>
-6.8941

> <Gold.PLP.part.nonpolar>
-31.1585

> <Gold.PLP.part.repulsive>
0.2845

> <Gold.PLP.ligand.clash>
0.0000

> <Gold.PLP.ligand.torsion>
0.7138

> <Gold.PLP.Chemscore.Hbond>
3.9585

> <Gold.PLP.Chemscore.CHOScore>
0.0000

> <Gold.PLP.Chemscore.Metal>
0.0000

> <Gold.Chemscore.Hbonds>
donor molecule, donor type, donor heavy atom, donor atom, acceptor molecule, acceptor atom, score
      L1  H     3    23       P1  8028  1.00
      L1  H    10    28       P1  8028  0.94
      L1  H    14    49       P1 10175  2.00

> <Gold.PLP.Chemscore.Internal.Correction>
0.0704

> <Gold.Rescore>
     Score         DG    S(hbond)    S(metal)    S(lipo)     H(rot)  DE(clash)    DE(int)     intcor
     20.56     -23.88       2.73        0.00     108.82       1.35       1.15       2.18       ----

> <Gold.Chemscore.Fitness>
20.5579

> <Gold.Chemscore.DG>
-23.8827

> <Gold.Chemscore.ZeroCoef>
-5.4800

> <Gold.Chemscore.Hbond>
2.7291

> <Gold.Chemscore.Metal>
0.0000

> <Gold.Chemscore.Lipo>
108.8210

> <Gold.Chemscore.Internal_Hbond>
0.0000

> <Gold.Chemscore.DEClash>
1.1477

> <Gold.Chemscore.DEInternal>
2.1772

> <Gold.Chemscore.Rot>
1.3455

> <Gold.Chemscore.Internal.Correction>
   9.000000E+99

> <Gold.Chemscore.Hbonds>
donor molecule, donor type, donor heavy atom, donor atom, acceptor molecule, acceptor atom, score
      L1  H     3    23       P1  8028  0.98
      L1  H    10    28       P1  8028  0.91
      L1  H    14    49       P1 10175  0.49

> <Gold.Chemscore.Hbond.Weighted>
-9.1152

> <Gold.Chemscore.Metal.Weighted>
-0.0000

> <Gold.Chemscore.Lipo.Weighted>
-12.7321

> <Gold.Chemscore.Internal_Hbond.Weighted>
0.0000

> <Gold.Chemscore.DEClash.Weighted>
1.1477

> <Gold.Chemscore.DEInternal.Weighted>
2.1772

> <Gold.Chemscore.Rot.Weighted>
3.4445

> <Gold.Chemscore.Internal.Correction.Weighted>
   9.000000E+99

> <Gold.Protein.RotatedTorsions>
[ 6907 6896 6895 6894 ] final  115.24 input  -60.11 | X-H torsion
[ 7974 7965 7964 7962 ] final -117.69 input  175.53 | X-H torsion
[ 8008 7997 7996 7995 ] final -122.69 input   59.86 | X-H torsion
[ 10167 10162 10161 10158 ] final    5.84 input  -65.29 | X-H torsion
[ 10718 10713 10712 10709 ] final  148.74 input   66.30 | X-H torsion
[ 10763 10752 10751 10750 ] final  167.01 input  -60.55 | X-H torsion
[ 11005 11000 10999 10996 ] final -122.31 input  -57.11 | X-H torsion

> <Gold.Protein.ActiveResidues>
 VAL166  LYS551  ARG553  GLY616  TRP617  ASP618  TYR619  PRO620  LYS621  CYS622 
 ASP623  PHE694  ASN695  SER759  ASP760  ASP761  ALA762  ILE779  LEU786  VAL792 
 PHE793  MET794  SER795  GLU796  ALA797  LYS798  CYS799  TRP800  GLU811  SER814 

> <Gold.Protein.RotatedAtoms>
  152.4753  133.8125  159.7010 H   0  0  0  0  0  0  0  0  0  0  0  0  # atno 6907 bound_to 6896
  150.8767  133.7419  159.2951 H   0  0  0  0  0  0  0  0  0  0  0  0  # atno 6908 bound_to 6896
  151.4937  135.1062  159.9862 H   0  0  0  0  0  0  0  0  0  0  0  0  # atno 6909 bound_to 6896
  145.0824  140.8434  143.4031 H   0  0  0  0  0  0  0  0  0  0  0  0  # atno 7974 bound_to 7965
  155.1684  140.0407  157.2857 H   0  0  0  0  0  0  0  0  0  0  0  0  # atno 8008 bound_to 7997
  154.6287  140.2518  155.7433 H   0  0  0  0  0  0  0  0  0  0  0  0  # atno 8009 bound_to 7997
  156.2473  140.2880  156.0628 H   0  0  0  0  0  0  0  0  0  0  0  0  # atno 8010 bound_to 7997
  140.6460  143.7660  150.7500 H   0  0  0  0  0  0  0  0  0  0  0  0  # atno 10167 bound_to 10162
  157.3048  131.0877  151.1362 H   0  0  0  0  0  0  0  0  0  0  0  0  # atno 10718 bound_to 10713
  154.3475  135.2753  155.2390 H   0  0  0  0  0  0  0  0  0  0  0  0  # atno 10763 bound_to 10752
  154.4633  135.5901  153.6274 H   0  0  0  0  0  0  0  0  0  0  0  0  # atno 10764 bound_to 10752
  152.9852  135.6070  154.3682 H   0  0  0  0  0  0  0  0  0  0  0  0  # atno 10765 bound_to 10752
  141.0005  134.0409  157.3543 H   0  0  0  0  0  0  0  0  0  0  0  0  # atno 11005 bound_to 11000
  145.1162  139.2723  143.5612 LP  0  0  0  0  0  0  0  0  0  0  0  0  # atno 17320 bound_to 7965
  146.3531  140.0773  142.8619 LP  0  0  0  0  0  0  0  0  0  0  0  0  # atno 17321 bound_to 7965
  140.1301  143.4533  152.2259 LP  0  0  0  0  0  0  0  0  0  0  0  0  # atno 17342 bound_to 10162
  139.5671  144.7441  151.3992 LP  0  0  0  0  0  0  0  0  0  0  0  0  # atno 17343 bound_to 10162
  157.2707  130.6703  149.6018 LP  0  0  0  0  0  0  0  0  0  0  0  0  # atno 17370 bound_to 10713
  155.9674  130.4480  150.5602 LP  0  0  0  0  0  0  0  0  0  0  0  0  # atno 17371 bound_to 10713
  139.9036  135.0173  156.7385 LP  0  0  0  0  0  0  0  0  0  0  0  0  # atno 17394 bound_to 11000
  140.6897  133.9401  155.7958 LP  0  0  0  0  0  0  0  0  0  0  0  0  # atno 17395 bound_to 11000

$$$$
