AV-unprocessed.smi:166|AV-procd|sdf|1390|dock5
  -GOLD-   2262019123D 1   1.00000     0.00000
 Structure written by MMmdl.
 54 58  0  0  0  0  0  0  0  0  1 V2000
  144.9710  133.0116  160.4389 O   0  0  0  0  0  0  0  0  0  0  0  0
  146.0999  133.8427  160.6371 C   0  0  1  0  0  0  0  0  0  0  0  0
  146.0121  135.0494  159.6704 C   0  0  0  0  0  0  0  0  0  0  0  0
  147.2106  135.8754  159.6465 N   0  0  0  0  0  0  0  0  0  0  0  0
  147.8100  136.4897  160.7236 C   0  0  0  0  0  0  0  0  0  0  0  0
  148.8791  137.1844  160.4456 N   0  0  0  0  0  0  0  0  0  0  0  0
  149.0180  137.0559  159.0691 C   0  0  0  0  0  0  0  0  0  0  0  0
  149.9469  137.5512  158.1108 C   0  0  0  0  0  0  0  0  0  0  0  0
  151.0025  138.3409  158.3981 N   0  0  0  0  0  0  0  0  0  0  0  0
  151.9127  137.7452  159.3713 C   0  0  0  0  0  0  0  0  0  0  0  0
  153.2094  138.5651  159.4724 C   0  0  0  0  0  0  0  0  0  0  0  0
  152.9032  140.0430  159.7627 C   0  0  0  0  0  0  0  0  0  0  0  0
  151.9312  140.6112  158.7139 C   0  0  2  0  0  0  0  0  0  0  0  0
  151.6185  141.9437  159.0982 O   0  0  0  0  0  0  0  0  0  0  0  0
  152.7279  142.8293  159.1063 C   0  0  0  0  0  0  0  0  0  0  0  0
  152.3814  144.0354  159.9524 C   0  0  0  0  0  0  0  0  0  0  0  0
  151.0170  144.6776  159.8412 C   0  0  0  0  0  0  0  0  0  0  0  0
  152.2336  145.4037  159.3263 C   0  0  0  0  0  0  0  0  0  0  0  0
  150.6600  139.7396  158.6455 C   0  0  0  0  0  0  0  0  0  0  0  0
  149.7720  137.2009  156.8132 N   0  0  0  0  0  0  0  0  0  0  0  0
  148.7427  136.4225  156.4654 C   0  0  0  0  0  0  0  0  0  0  0  0
  147.7954  135.8932  157.2430 N   0  0  0  0  0  0  0  0  0  0  0  0
  147.9764  136.2360  158.5509 C   0  0  0  0  0  0  0  0  0  0  0  0
  146.1420  134.2779  162.1028 C   0  0  0  0  0  0  0  0  0  0  0  0
  147.5945  134.0489  162.4997 C   0  0  0  0  0  0  0  0  0  0  0  0
  147.9236  132.8713  161.7857 O   0  0  0  0  0  0  0  0  0  0  0  0
  147.3894  133.0101  160.4765 C   0  0  0  0  0  0  0  0  0  0  0  0
  145.2245  132.2855  159.8896 H   0  0  0  0  0  0  0  0  0  0  0  0
  145.8130  134.7064  158.6540 H   0  0  0  0  0  0  0  0  0  0  0  0
  145.1699  135.6853  159.9462 H   0  0  0  0  0  0  0  0  0  0  0  0
  147.4288  136.4052  161.7309 H   0  0  0  0  0  0  0  0  0  0  0  0
  151.4234  137.7000  160.3454 H   0  0  0  0  0  0  0  0  0  0  0  0
  152.1464  136.7194  159.0821 H   0  0  0  0  0  0  0  0  0  0  0  0
  153.8512  138.1540  160.2521 H   0  0  0  0  0  0  0  0  0  0  0  0
  153.7657  138.4855  158.5377 H   0  0  0  0  0  0  0  0  0  0  0  0
  152.4657  140.1350  160.7578 H   0  0  0  0  0  0  0  0  0  0  0  0
  153.8268  140.6226  159.7726 H   0  0  0  0  0  0  0  0  0  0  0  0
  152.4323  140.6134  157.7439 H   0  0  0  0  0  0  0  0  0  0  0  0
  153.6130  142.3358  159.5108 H   0  0  0  0  0  0  0  0  0  0  0  0
  152.9644  143.1701  158.0987 H   0  0  0  0  0  0  0  0  0  0  0  0
  152.8054  144.0048  160.9544 H   0  0  0  0  0  0  0  0  0  0  0  0
  150.3243  144.2740  159.1052 H   0  0  0  0  0  0  0  0  0  0  0  0
  150.5604  145.0475  160.7570 H   0  0  0  0  0  0  0  0  0  0  0  0
  152.5903  146.2578  159.8982 H   0  0  0  0  0  0  0  0  0  0  0  0
  152.3528  145.4835  158.2476 H   0  0  0  0  0  0  0  0  0  0  0  0
  149.9958  140.0894  157.8549 H   0  0  0  0  0  0  0  0  0  0  0  0
  150.1141  139.8246  159.5853 H   0  0  0  0  0  0  0  0  0  0  0  0
  148.6667  136.1910  155.4131 H   0  0  0  0  0  0  0  0  0  0  0  0
  145.8227  135.3083  162.2623 H   0  0  0  0  0  0  0  0  0  0  0  0
  145.5054  133.6397  162.7182 H   0  0  0  0  0  0  0  0  0  0  0  0
  148.2284  134.8732  162.1686 H   0  0  0  0  0  0  0  0  0  0  0  0
  147.7241  133.9206  163.5744 H   0  0  0  0  0  0  0  0  0  0  0  0
  147.2264  132.0369  160.0118 H   0  0  0  0  0  0  0  0  0  0  0  0
  148.1310  133.5395  159.8783 H   0  0  0  0  0  0  0  0  0  0  0  0
  1  2  1  0  0  0  0
  1 28  1  0  0  0  0
  2 27  1  0  0  0  0
  2  3  1  0  0  0  0
  2 24  1  0  0  0  0
  3  4  1  0  0  0  0
  3 29  1  0  0  0  0
  3 30  1  0  0  0  0
  4 23  1  0  0  0  0
  4  5  1  0  0  0  0
  5  6  2  0  0  0  0
  5 31  1  0  0  0  0
  6  7  1  0  0  0  0
  7 23  2  0  0  0  0
  7  8  1  0  0  0  0
  8  9  1  0  0  0  0
  8 20  2  0  0  0  0
  9 19  1  0  0  0  0
  9 10  1  0  0  0  0
 10 11  1  0  0  0  0
 10 32  1  0  0  0  0
 10 33  1  0  0  0  0
 11 12  1  0  0  0  0
 11 34  1  0  0  0  0
 11 35  1  0  0  0  0
 12 13  1  0  0  0  0
 12 36  1  0  0  0  0
 12 37  1  0  0  0  0
 13 14  1  0  0  0  0
 13 19  1  0  0  0  0
 13 38  1  0  0  0  0
 14 15  1  0  0  0  0
 15 16  1  0  0  0  0
 15 39  1  0  0  0  0
 15 40  1  0  0  0  0
 16 18  1  0  0  0  0
 16 17  1  0  0  0  0
 16 41  1  0  0  0  0
 17 18  1  0  0  0  0
 17 42  1  0  0  0  0
 17 43  1  0  0  0  0
 18 44  1  0  0  0  0
 18 45  1  0  0  0  0
 19 46  1  0  0  0  0
 19 47  1  0  0  0  0
 20 21  1  0  0  0  0
 21 22  2  0  0  0  0
 21 48  1  0  0  0  0
 22 23  1  0  0  0  0
 24 25  1  0  0  0  0
 24 49  1  0  0  0  0
 24 50  1  0  0  0  0
 25 26  1  0  0  0  0
 25 51  1  0  0  0  0
 25 52  1  0  0  0  0
 26 27  1  0  0  0  0
 27 53  1  0  0  0  0
 27 54  1  0  0  0  0
M  END
> <s_m_source_file>
AV-unprocessed.smi

> <i_m_source_file_index>
166

> <i_lp_mmshare_version>
43012

> <i_f3d_flags>
0

> <s_epik_input>
W0NIMl0xT1tDSDJdW0NIMl1bQ0BAXTEoW09IXSlbQ0gyXW4oW2NIXW4yKWMoYzIzKW5bY0hdbmMzTjRbQ0gyXVtDSDJdW0NIMl1bQ0BIXShbQ0gyXTQpT1tDSDJdW0NIXTVbQ0gyXVtDSDJdNQ==

> <s_epik_cmdline>
J2VwaWtfcHl0aG9uJywgJy1waCcsICc3LjAnLCAnLXRuJywgJzgnLCAnLW1hJywgJzIwMCcsICctbWV0YWxfYmluZGluZycsICctaW1hZScsICc8aW5maWxlLm1hZT4nLCAnLW9tYWUnLCAnPG91dGZpbGUubWFlPic=

> <r_lp_tautomer_probability>
1

> <r_epik_Ionization_Penalty>
0.00342552

> <r_epik_Ionization_Penalty_Charging>
0

> <r_epik_Ionization_Penalty_Neutral>
0.00342552

> <r_epik_State_Penalty>
0.0022204

> <r_epik_Charging_Adjusted_Penalty>
0.0022204

> <i_epik_Tot_Q>
0

> <i_epik_Tot_abs_Q>
0

> <r_epik_Metal_State_Penalty>
-0

> <b_epik_Metal_Only>
0

> <s_lp_Force_Field>
OPLS_2005

> <r_lp_Energy>
47.3104

> <b_lp_Chiralities_Consistent>
1

> <s_lp_Variant>
AV-unprocessed.smi:166-3

> <Gold.Version>
5.8.1

> <Gold.Id.Protein>
6NUR|6NUR_protein|mol2

> <Gold.PLP.Fitness>
43.2099

> <Gold.PLP.PLP>
-42.1286

> <Gold.PLP.part.hbond>
-1.5925

> <Gold.PLP.part.metal>
0.0000

> <Gold.PLP.part.buried>
-6.6441

> <Gold.PLP.part.nonpolar>
-33.7401

> <Gold.PLP.part.repulsive>
0.0010

> <Gold.PLP.ligand.clash>
0.0000

> <Gold.PLP.ligand.torsion>
0.8343

> <Gold.PLP.Chemscore.Hbond>
0.6240

> <Gold.PLP.Chemscore.CHOScore>
0.0000

> <Gold.PLP.Chemscore.Metal>
0.0000

> <Gold.Chemscore.Hbonds>
donor molecule, donor type, donor heavy atom, donor atom, acceptor molecule, acceptor atom, score
      P1  H  6931  6943       L1     6  0.64

> <Gold.PLP.Chemscore.Internal.Correction>
0.8780

> <Gold.Rescore>
     Score         DG    S(hbond)    S(metal)    S(lipo)     H(rot)  DE(clash)    DE(int)     intcor
     12.61     -13.60       0.70        0.00     108.09       2.68       0.12       0.87       ----

> <Gold.Chemscore.Fitness>
12.6122

> <Gold.Chemscore.DG>
-13.6020

> <Gold.Chemscore.ZeroCoef>
-5.4800

> <Gold.Chemscore.Hbond>
0.7008

> <Gold.Chemscore.Metal>
0.0000

> <Gold.Chemscore.Lipo>
108.0898

> <Gold.Chemscore.Internal_Hbond>
0.0000

> <Gold.Chemscore.DEClash>
0.1181

> <Gold.Chemscore.DEInternal>
0.8718

> <Gold.Chemscore.Rot>
2.6817

> <Gold.Chemscore.Internal.Correction>
   9.000000E+99

> <Gold.Chemscore.Hbonds>
donor molecule, donor type, donor heavy atom, donor atom, acceptor molecule, acceptor atom, score
      P1  H  6931  6943       L1     6  0.29

> <Gold.Chemscore.Hbond.Weighted>
-2.3406

> <Gold.Chemscore.Metal.Weighted>
-0.0000

> <Gold.Chemscore.Lipo.Weighted>
-12.6465

> <Gold.Chemscore.Internal_Hbond.Weighted>
0.0000

> <Gold.Chemscore.DEClash.Weighted>
0.1181

> <Gold.Chemscore.DEInternal.Weighted>
0.8718

> <Gold.Chemscore.Rot.Weighted>
6.8651

> <Gold.Chemscore.Internal.Correction.Weighted>
   9.000000E+99

> <Gold.Protein.RotatedTorsions>
[ 6907 6896 6895 6894 ] final -108.60 input  -60.11 | X-H torsion
[ 7974 7965 7964 7962 ] final   52.95 input  175.53 | X-H torsion
[ 8008 7997 7996 7995 ] final   64.41 input   59.86 | X-H torsion
[ 10167 10162 10161 10158 ] final  -72.55 input  -65.29 | X-H torsion
[ 10718 10713 10712 10709 ] final -124.08 input   66.30 | X-H torsion
[ 10763 10752 10751 10750 ] final -124.42 input  -60.55 | X-H torsion
[ 11005 11000 10999 10996 ] final  -23.42 input  -57.11 | X-H torsion

> <Gold.Protein.ActiveResidues>
 VAL166  LYS551  ARG553  GLY616  TRP617  ASP618  TYR619  PRO620  LYS621  CYS622 
 ASP623  PHE694  ASN695  SER759  ASP760  ASP761  ALA762  ILE779  LEU786  VAL792 
 PHE793  MET794  SER795  GLU796  ALA797  LYS798  CYS799  TRP800  GLU811  SER814 

> <Gold.Protein.RotatedAtoms>
  150.7511  133.9654  159.3528 H   0  0  0  0  0  0  0  0  0  0  0  0  # atno 6907 bound_to 6896
  151.7583  135.0814  160.0351 H   0  0  0  0  0  0  0  0  0  0  0  0  # atno 6908 bound_to 6896
  152.3420  133.6041  159.5919 H   0  0  0  0  0  0  0  0  0  0  0  0  # atno 6909 bound_to 6896
  145.9761  139.4196  143.0160 H   0  0  0  0  0  0  0  0  0  0  0  0  # atno 7974 bound_to 7965
  155.6457  140.3497  155.4730 H   0  0  0  0  0  0  0  0  0  0  0  0  # atno 8008 bound_to 7997
  155.9890  140.1190  157.0680 H   0  0  0  0  0  0  0  0  0  0  0  0  # atno 8009 bound_to 7997
  154.4213  140.1123  156.5525 H   0  0  0  0  0  0  0  0  0  0  0  0  # atno 8010 bound_to 7997
  140.5183  143.2335  151.7474 H   0  0  0  0  0  0  0  0  0  0  0  0  # atno 10167 bound_to 10162
  156.1557  130.6566  150.9978 H   0  0  0  0  0  0  0  0  0  0  0  0  # atno 10718 bound_to 10713
  154.8723  135.4064  154.3102 H   0  0  0  0  0  0  0  0  0  0  0  0  # atno 10763 bound_to 10752
  153.3947  135.7016  153.6475 H   0  0  0  0  0  0  0  0  0  0  0  0  # atno 10764 bound_to 10752
  153.5243  135.3681  155.2617 H   0  0  0  0  0  0  0  0  0  0  0  0  # atno 10765 bound_to 10752
  140.8750  133.7694  156.0232 H   0  0  0  0  0  0  0  0  0  0  0  0  # atno 11005 bound_to 11000
  145.7837  140.9845  143.1086 LP  0  0  0  0  0  0  0  0  0  0  0  0  # atno 17320 bound_to 7965
  144.6849  139.9596  143.7480 LP  0  0  0  0  0  0  0  0  0  0  0  0  # atno 17321 bound_to 7965
  139.4916  144.4291  151.9892 LP  0  0  0  0  0  0  0  0  0  0  0  0  # atno 17342 bound_to 10162
  140.3387  144.3230  150.5972 LP  0  0  0  0  0  0  0  0  0  0  0  0  # atno 17343 bound_to 10162
  157.6693  131.0865  150.7652 LP  0  0  0  0  0  0  0  0  0  0  0  0  # atno 17370 bound_to 10713
  156.7718  130.4831  149.5417 LP  0  0  0  0  0  0  0  0  0  0  0  0  # atno 17371 bound_to 10713
  140.8529  134.2933  157.5268 LP  0  0  0  0  0  0  0  0  0  0  0  0  # atno 17394 bound_to 11000
  139.8715  134.9477  156.3975 LP  0  0  0  0  0  0  0  0  0  0  0  0  # atno 17395 bound_to 11000

$$$$
