AV-unprocessed.smi:1705|AV-procd|sdf|6882|dock1
  -GOLD-   22720 8 83D 1   1.00000     0.00000
 Structure written by MMmdl.
 38 39  0  0  0  0  0  0  0  0  1 V2000
  149.4763  141.6017  157.1088 C   0  0  0  0  0  0  0  0  0  0  0  0
  150.6311  140.7725  157.6915 C   0  0  2  0  0  0  0  0  0  0  0  0
  150.1353  139.4743  158.1237 N   0  0  0  0  0  0  0  0  0  0  0  0
  150.2705  138.2667  157.4458 C   0  0  0  0  0  0  0  0  0  0  0  0
  150.9134  138.1823  156.2470 C   0  0  0  0  0  0  0  0  0  0  0  0
  151.4612  139.3100  155.5612 C   0  0  0  0  0  0  0  0  0  0  0  0
  151.9183  140.2038  154.9838 N   0  0  0  0  0  0  0  0  0  0  0  0
  151.0668  136.9137  155.5380 C   0  0  0  0  0  0  0  0  0  0  0  0
  151.6467  136.7974  154.4556 O   0  0  0  0  0  0  0  0  0  0  0  0
  150.5005  135.7995  156.1893 N   0  0  0  0  0  0  0  0  0  0  0  0
  150.6477  134.5213  155.5211 C   0  0  0  0  0  0  0  0  0  0  0  0
  149.8336  135.8578  157.4307 C   0  0  0  0  0  0  0  0  0  0  0  0
  149.3738  134.8461  157.9689 O   0  0  0  0  0  0  0  0  0  0  0  0
  149.7159  137.1301  158.0425 N   0  0  0  0  0  0  0  0  0  0  0  0
  149.0282  137.1235  159.3183 C   0  0  0  0  0  0  0  0  0  0  0  0
  151.3173  141.4788  158.8752 C   0  0  2  0  0  0  0  0  0  0  0  0
  151.7330  142.9247  158.6084 C   0  0  0  0  0  0  0  0  0  0  0  0
  152.8449  143.1582  159.6168 C   0  0  0  0  0  0  0  0  0  0  0  0
  153.3170  141.7473  159.9804 C   0  0  0  0  0  0  0  0  0  0  0  0
  152.5711  140.8702  159.1468 O   0  0  0  0  0  0  0  0  0  0  0  0
  149.8325  142.5471  156.6995 H   0  0  0  0  0  0  0  0  0  0  0  0
  148.7291  141.8280  157.8701 H   0  0  0  0  0  0  0  0  0  0  0  0
  148.9727  141.0693  156.3022 H   0  0  0  0  0  0  0  0  0  0  0  0
  151.3808  140.6276  156.9142 H   0  0  0  0  0  0  0  0  0  0  0  0
  150.1583  139.3817  159.1291 H   0  0  0  0  0  0  0  0  0  0  0  0
  150.0993  133.7339  156.0365 H   0  0  0  0  0  0  0  0  0  0  0  0
  151.7140  134.2897  155.5055 H   0  0  0  0  0  0  0  0  0  0  0  0
  150.2492  134.6306  154.5108 H   0  0  0  0  0  0  0  0  0  0  0  0
  149.6523  136.5653  160.0182 H   0  0  0  0  0  0  0  0  0  0  0  0
  148.0553  136.6499  159.1728 H   0  0  0  0  0  0  0  0  0  0  0  0
  148.8762  138.1378  159.6799 H   0  0  0  0  0  0  0  0  0  0  0  0
  150.6941  141.4286  159.7705 H   0  0  0  0  0  0  0  0  0  0  0  0
  152.1299  143.0205  157.5967 H   0  0  0  0  0  0  0  0  0  0  0  0
  150.9094  143.6307  158.7173 H   0  0  0  0  0  0  0  0  0  0  0  0
  153.6461  143.7652  159.1940 H   0  0  0  0  0  0  0  0  0  0  0  0
  152.4667  143.6701  160.5025 H   0  0  0  0  0  0  0  0  0  0  0  0
  154.3867  141.6117  159.8195 H   0  0  0  0  0  0  0  0  0  0  0  0
  153.0990  141.5261  161.0261 H   0  0  0  0  0  0  0  0  0  0  0  0
  1  2  1  0  0  0  0
  1 21  1  0  0  0  0
  1 22  1  0  0  0  0
  1 23  1  0  0  0  0
  2  3  1  0  0  0  0
  2 16  1  0  0  0  0
  2 24  1  0  0  0  0
  3  4  1  0  0  0  0
  3 25  1  0  0  0  0
  4 14  1  0  0  0  0
  4  5  2  0  0  0  0
  5  6  1  0  0  0  0
  5  8  1  0  0  0  0
  6  7  3  0  0  0  0
  8  9  2  0  0  0  0
  8 10  1  0  0  0  0
 10 11  1  0  0  0  0
 10 12  1  0  0  0  0
 11 26  1  0  0  0  0
 11 27  1  0  0  0  0
 11 28  1  0  0  0  0
 12 13  2  0  0  0  0
 12 14  1  0  0  0  0
 14 15  1  0  0  0  0
 15 29  1  0  0  0  0
 15 30  1  0  0  0  0
 15 31  1  0  0  0  0
 16 20  1  0  0  0  0
 16 17  1  0  0  0  0
 16 32  1  0  0  0  0
 17 18  1  0  0  0  0
 17 33  1  0  0  0  0
 17 34  1  0  0  0  0
 18 19  1  0  0  0  0
 18 35  1  0  0  0  0
 18 36  1  0  0  0  0
 19 20  1  0  0  0  0
 19 37  1  0  0  0  0
 19 38  1  0  0  0  0
M  END
> <s_m_source_file>
AV-unprocessed.smi

> <i_m_source_file_index>
1705

> <i_lp_mmshare_version>
43012

> <i_f3d_flags>
0

> <s_epik_input>
TzFbQ0gyXVtDSDJdW0NIMl1bQ0BIXTFbQ0BIXShbQ0gzXSlbTkhdYzJjKEMjTiljKD1PKW4oW0NIM10pYyg9TyluMltDSDNd

> <s_epik_cmdline>
J2VwaWtfcHl0aG9uJywgJy1waCcsICc3LjAnLCAnLXRuJywgJzgnLCAnLW1hJywgJzIwMCcsICctbWV0YWxfYmluZGluZycsICctaW1hZScsICc8aW5maWxlLm1hZT4nLCAnLW9tYWUnLCAnPG91dGZpbGUubWFlPic=

> <r_epik_Ionization_Penalty>
0.000446268

> <r_epik_Ionization_Penalty_Charging>
9.41922e-10

> <r_epik_Ionization_Penalty_Neutral>
0.000446267

> <r_epik_State_Penalty>
0.000275531

> <r_epik_Charging_Adjusted_Penalty>
0.000275532

> <i_epik_Tot_Q>
0

> <i_epik_Tot_abs_Q>
0

> <r_epik_Metal_State_Penalty>
-0

> <b_epik_Metal_Only>
0

> <s_lp_Force_Field>
OPLS_2005

> <r_lp_Energy>
37.8394

> <b_lp_Chiralities_Consistent>
1

> <s_lp_Variant>
AV-unprocessed.smi:1705-1

> <Gold.Version>
5.8.1

> <Gold.Id.Protein>
6NUR|6NUR_protein|mol2

> <Gold.PLP.Fitness>
38.4496

> <Gold.PLP.PLP>
-30.6222

> <Gold.PLP.part.hbond>
-2.9718

> <Gold.PLP.part.metal>
0.0000

> <Gold.PLP.part.buried>
-5.8377

> <Gold.PLP.part.nonpolar>
-22.8984

> <Gold.PLP.part.repulsive>
0.3659

> <Gold.PLP.ligand.clash>
9.0766

> <Gold.PLP.ligand.torsion>
0.3490

> <Gold.PLP.Chemscore.Hbond>
2.8320

> <Gold.PLP.Chemscore.CHOScore>
0.0000

> <Gold.PLP.Chemscore.Metal>
0.0000

> <Gold.Chemscore.Hbonds>
donor molecule, donor type, donor heavy atom, donor atom, acceptor molecule, acceptor atom, score
      P1  H  6896  6907       L1    13  1.00
      P1  H  7989  7998       L1     7  0.82
      P1  H 10752 10764       L1     9  1.00

> <Gold.PLP.Chemscore.Internal.Correction>
9.1059

> <Gold.Rescore>
     Score         DG    S(hbond)    S(metal)    S(lipo)     H(rot)  DE(clash)    DE(int)     intcor
     16.18     -18.86       2.89        0.00      59.67       1.28       0.09       2.58       ----

> <Gold.Chemscore.Fitness>
16.1828

> <Gold.Chemscore.DG>
-18.8574

> <Gold.Chemscore.ZeroCoef>
-5.4800

> <Gold.Chemscore.Hbond>
2.8947

> <Gold.Chemscore.Metal>
0.0000

> <Gold.Chemscore.Lipo>
59.6651

> <Gold.Chemscore.Internal_Hbond>
0.0000

> <Gold.Chemscore.DEClash>
0.0914

> <Gold.Chemscore.DEInternal>
2.5832

> <Gold.Chemscore.Rot>
1.2780

> <Gold.Chemscore.Internal.Correction>
   9.000000E+99

> <Gold.Chemscore.Hbonds>
donor molecule, donor type, donor heavy atom, donor atom, acceptor molecule, acceptor atom, score
      P1  H  6896  6907       L1    13  0.70
      P1  H  7989  7998       L1     7  0.81
      P1  H 10752 10764       L1     9  0.98

> <Gold.Chemscore.Hbond.Weighted>
-9.6683

> <Gold.Chemscore.Metal.Weighted>
-0.0000

> <Gold.Chemscore.Lipo.Weighted>
-6.9808

> <Gold.Chemscore.Internal_Hbond.Weighted>
0.0000

> <Gold.Chemscore.DEClash.Weighted>
0.0914

> <Gold.Chemscore.DEInternal.Weighted>
2.5832

> <Gold.Chemscore.Rot.Weighted>
3.2717

> <Gold.Chemscore.Internal.Correction.Weighted>
   9.000000E+99

> <Gold.Protein.RotatedTorsions>
[ 6907 6896 6895 6894 ] final  -96.46 input  -60.11 | X-H torsion
[ 7974 7965 7964 7962 ] final  -31.72 input  175.53 | X-H torsion
[ 8008 7997 7996 7995 ] final   98.54 input   59.86 | X-H torsion
[ 10167 10162 10161 10158 ] final -140.32 input  -65.29 | X-H torsion
[ 10718 10713 10712 10709 ] final  -38.43 input   66.30 | X-H torsion
[ 10763 10752 10751 10750 ] final  -80.09 input  -60.55 | X-H torsion
[ 11005 11000 10999 10996 ] final   72.29 input  -57.11 | X-H torsion

> <Gold.Protein.ActiveResidues>
 VAL166  LYS551  ARG553  GLY616  TRP617  ASP618  TYR619  PRO620  LYS621  CYS622 
 ASP623  PHE694  ASN695  SER759  ASP760  ASP761  ALA762  ILE779  LEU786  VAL792 
 PHE793  MET794  SER795  GLU796  ALA797  LYS798  CYS799  TRP800  GLU811  SER814 

> <Gold.Protein.RotatedAtoms>
  150.6989  134.1500  159.4136 H   0  0  0  0  0  0  0  0  0  0  0  0  # atno 6907 bound_to 6896
  151.9483  135.0179  160.0549 H   0  0  0  0  0  0  0  0  0  0  0  0  # atno 6908 bound_to 6896
  152.2034  133.4822  159.5107 H   0  0  0  0  0  0  0  0  0  0  0  0  # atno 6909 bound_to 6896
  146.1045  140.5703  142.8806 H   0  0  0  0  0  0  0  0  0  0  0  0  # atno 7974 bound_to 7965
  156.1015  140.3242  155.7948 H   0  0  0  0  0  0  0  0  0  0  0  0  # atno 8008 bound_to 7997
  155.4829  140.0555  157.2982 H   0  0  0  0  0  0  0  0  0  0  0  0  # atno 8009 bound_to 7997
  154.4700  140.2007  156.0035 H   0  0  0  0  0  0  0  0  0  0  0  0  # atno 8010 bound_to 7997
  139.8293  143.7468  152.2666 H   0  0  0  0  0  0  0  0  0  0  0  0  # atno 10167 bound_to 10162
  156.3039  130.4243  149.8116 H   0  0  0  0  0  0  0  0  0  0  0  0  # atno 10718 bound_to 10713
  154.5468  135.5673  153.6887 H   0  0  0  0  0  0  0  0  0  0  0  0  # atno 10763 bound_to 10752
  152.9978  135.6241  154.2428 H   0  0  0  0  0  0  0  0  0  0  0  0  # atno 10764 bound_to 10752
  154.2361  135.2864  155.2851 H   0  0  0  0  0  0  0  0  0  0  0  0  # atno 10765 bound_to 10752
  139.9498  134.7247  156.0890 H   0  0  0  0  0  0  0  0  0  0  0  0  # atno 11005 bound_to 11000
  144.7460  140.5068  143.6835 LP  0  0  0  0  0  0  0  0  0  0  0  0  # atno 17320 bound_to 7965
  145.5788  139.1487  143.3247 LP  0  0  0  0  0  0  0  0  0  0  0  0  # atno 17321 bound_to 7965
  139.7671  144.7488  151.0279 LP  0  0  0  0  0  0  0  0  0  0  0  0  # atno 17342 bound_to 10162
  140.7808  143.4686  151.0177 LP  0  0  0  0  0  0  0  0  0  0  0  0  # atno 17343 bound_to 10162
  156.5484  130.8331  151.3291 LP  0  0  0  0  0  0  0  0  0  0  0  0  # atno 17370 bound_to 10713
  157.7375  130.9796  150.2195 LP  0  0  0  0  0  0  0  0  0  0  0  0  # atno 17371 bound_to 10713
  141.1158  133.6628  156.3091 LP  0  0  0  0  0  0  0  0  0  0  0  0  # atno 17394 bound_to 11000
  140.5746  134.5806  157.5465 LP  0  0  0  0  0  0  0  0  0  0  0  0  # atno 17395 bound_to 11000

$$$$
