AV-unprocessed.smi:1047|AV-procd|sdf|4573|dock5
  -GOLD-   22720 3 33D 1   1.00000     0.00000
 Structure written by MMmdl.
 56 58  0  0  0  0  0  0  0  0  2 V2000
  150.9576  139.0987  154.8745 C   0  0  0  0  0  0  0  0  0  0  0  0
  150.1248  137.8256  155.0807 C   0  0  0  0  0  0  0  0  0  0  0  0
  150.9038  136.7306  155.7178 N   0  3  2  0  0  0  0  0  0  0  0  0
  150.0956  135.5203  156.0035 C   0  0  0  0  0  0  0  0  0  0  0  0
  149.2311  135.7140  157.2622 C   0  0  0  0  0  0  0  0  0  0  0  0
  150.0660  136.0532  158.3630 O   0  0  0  0  0  0  0  0  0  0  0  0
  150.7659  137.2771  158.1641 C   0  0  1  0  0  0  0  0  0  0  0  0
  151.5663  137.5665  159.4432 C   0  0  0  0  0  0  0  0  0  0  0  0
  152.6636  136.6184  159.6107 N   0  0  0  0  0  0  0  0  0  0  0  0
  153.8937  137.0293  158.9409 C   0  0  0  0  0  0  0  0  0  0  0  0
  154.2543  138.4889  159.2758 C   0  0  2  0  0  0  0  0  0  0  0  0
  155.4037  138.8464  158.5340 O   0  0  0  0  0  0  0  0  0  0  0  0
  154.5390  138.7187  160.7762 C   0  0  0  0  0  0  0  0  0  0  0  0
  154.2862  140.0814  161.2187 N   0  0  0  0  0  0  0  0  0  0  0  0
  154.7542  140.6721  162.3356 C   0  0  0  0  0  0  0  0  0  0  0  0
  154.3988  141.9347  162.5529 N   0  0  0  0  0  0  0  0  0  0  0  0
  153.5987  142.1921  161.4532 C   0  0  0  0  0  0  0  0  0  0  0  0
  152.9014  143.3623  161.0813 C   0  0  0  0  0  0  0  0  0  0  0  0
  152.1304  143.4013  159.8979 C   0  0  0  0  0  0  0  0  0  0  0  0
  151.3962  144.6806  159.5366 C   0  0  0  0  0  0  0  0  0  0  0  0
  152.0490  142.2564  159.0652 C   0  0  0  0  0  0  0  0  0  0  0  0
  151.2266  142.2743  157.7890 C   0  0  0  0  0  0  0  0  0  0  0  0
  152.7399  141.0794  159.4216 C   0  0  0  0  0  0  0  0  0  0  0  0
  153.5048  141.0529  160.6011 C   0  0  0  0  0  0  0  0  0  0  0  0
  151.6758  137.1312  156.9220 C   0  0  0  0  0  0  0  0  0  0  0  0
  150.3885  139.8399  154.3133 H   0  0  0  0  0  0  0  0  0  0  0  0
  151.8678  138.8884  154.3124 H   0  0  0  0  0  0  0  0  0  0  0  0
  151.2426  139.5614  155.8189 H   0  0  0  0  0  0  0  0  0  0  0  0
  149.2247  138.0499  155.6523 H   0  0  0  0  0  0  0  0  0  0  0  0
  149.7866  137.4921  154.0991 H   0  0  0  0  0  0  0  0  0  0  0  0
  149.4779  135.2555  155.1445 H   0  0  0  0  0  0  0  0  0  0  0  0
  150.7759  134.6824  156.1603 H   0  0  0  0  0  0  0  0  0  0  0  0
  148.4733  136.4837  157.1098 H   0  0  0  0  0  0  0  0  0  0  0  0
  148.7008  134.7908  157.4961 H   0  0  0  0  0  0  0  0  0  0  0  0
  150.0374  138.0766  158.0194 H   0  0  0  0  0  0  0  0  0  0  0  0
  151.9711  138.5776  159.3869 H   0  0  0  0  0  0  0  0  0  0  0  0
  150.9061  137.5446  160.3111 H   0  0  0  0  0  0  0  0  0  0  0  0
  152.3835  135.7010  159.2782 H   0  0  0  0  0  0  0  0  0  0  0  0
  154.7055  136.3822  159.2756 H   0  0  0  0  0  0  0  0  0  0  0  0
  153.8129  136.8900  157.8618 H   0  0  0  0  0  0  0  0  0  0  0  0
  153.4384  139.1504  158.9810 H   0  0  0  0  0  0  0  0  0  0  0  0
  155.6662  138.1037  158.0117 H   0  0  0  0  0  0  0  0  0  0  0  0
  153.9393  138.0396  161.3838 H   0  0  0  0  0  0  0  0  0  0  0  0
  155.5810  138.4797  160.9933 H   0  0  0  0  0  0  0  0  0  0  0  0
  155.3965  140.1458  163.0266 H   0  0  0  0  0  0  0  0  0  0  0  0
  152.9632  144.2338  161.7164 H   0  0  0  0  0  0  0  0  0  0  0  0
  150.3246  144.4973  159.4562 H   0  0  0  0  0  0  0  0  0  0  0  0
  151.7544  145.0699  158.5833 H   0  0  0  0  0  0  0  0  0  0  0  0
  151.5469  145.4530  160.2912 H   0  0  0  0  0  0  0  0  0  0  0  0
  151.2896  141.3219  157.2620 H   0  0  0  0  0  0  0  0  0  0  0  0
  151.5831  143.0533  157.1149 H   0  0  0  0  0  0  0  0  0  0  0  0
  150.1769  142.4636  158.0143 H   0  0  0  0  0  0  0  0  0  0  0  0
  152.6866  140.2005  158.7961 H   0  0  0  0  0  0  0  0  0  0  0  0
  152.4227  136.3593  157.1125 H   0  0  0  0  0  0  0  0  0  0  0  0
  152.2347  138.0479  156.7390 H   0  0  0  0  0  0  0  0  0  0  0  0
  151.5812  136.4518  155.0223 H   0  0  0  0  0  0  0  0  0  0  0  0
  1  2  1  0  0  0  0
  1 26  1  0  0  0  0
  1 27  1  0  0  0  0
  1 28  1  0  0  0  0
  2  3  1  0  0  0  0
  2 29  1  0  0  0  0
  2 30  1  0  0  0  0
  3 25  1  0  0  0  0
  3  4  1  0  0  0  0
  3 56  1  0  0  0  0
  4  5  1  0  0  0  0
  4 31  1  0  0  0  0
  4 32  1  0  0  0  0
  5  6  1  0  0  0  0
  5 33  1  0  0  0  0
  5 34  1  0  0  0  0
  6  7  1  0  0  0  0
  7  8  1  0  0  0  0
  7 25  1  0  0  0  0
  7 35  1  0  0  0  0
  8  9  1  0  0  0  0
  8 36  1  0  0  0  0
  8 37  1  0  0  0  0
  9 10  1  0  0  0  0
  9 38  1  0  0  0  0
 10 11  1  0  0  0  0
 10 39  1  0  0  0  0
 10 40  1  0  0  0  0
 11 12  1  0  0  0  0
 11 13  1  0  0  0  0
 11 41  1  0  0  0  0
 12 42  1  0  0  0  0
 13 14  1  0  0  0  0
 13 43  1  0  0  0  0
 13 44  1  0  0  0  0
 14 24  1  0  0  0  0
 14 15  1  0  0  0  0
 15 16  2  0  0  0  0
 15 45  1  0  0  0  0
 16 17  1  0  0  0  0
 17 24  2  0  0  0  0
 17 18  1  0  0  0  0
 18 19  2  0  0  0  0
 18 46  1  0  0  0  0
 19 20  1  0  0  0  0
 19 21  1  0  0  0  0
 20 47  1  0  0  0  0
 20 48  1  0  0  0  0
 20 49  1  0  0  0  0
 21 22  1  0  0  0  0
 21 23  2  0  0  0  0
 22 50  1  0  0  0  0
 22 51  1  0  0  0  0
 22 52  1  0  0  0  0
 23 24  1  0  0  0  0
 23 53  1  0  0  0  0
 25 54  1  0  0  0  0
 25 55  1  0  0  0  0
M  CHG  1   3   1
M  END
> <s_m_source_file>
AV-unprocessed.smi

> <i_m_source_file_index>
1047

> <i_lp_mmshare_version>
43012

> <i_f3d_flags>
0

> <s_epik_input>
W0NIM11bQ0gyXU4xW0NIMl1bQ0gyXU9bQ0BIXShbQ0gyXTEpW0NIMl1bTkhdW0NIMl1bQ0BIXShbT0hdKVtDSDJdbihbY0hdbjIpYyhjMjMpW2NIXWMoW0NIM10pYyhbY0hdMylbQ0gzXQ==

> <s_epik_cmdline>
J2VwaWtfcHl0aG9uJywgJy1waCcsICc3LjAnLCAnLXRuJywgJzgnLCAnLW1hJywgJzIwMCcsICctbWV0YWxfYmluZGluZycsICctaW1hZScsICc8aW5maWxlLm1hZT4nLCAnLW9tYWUnLCAnPG91dGZpbGUubWFlPic=

> <r_epik_Ionization_Penalty>
1.19246

> <r_epik_Ionization_Penalty_Charging>
0.210041

> <r_epik_Ionization_Penalty_Neutral>
0.982415

> <r_epik_State_Penalty>
1.57595

> <r_epik_Charging_Adjusted_Penalty>
1.78599

> <i_epik_Tot_Q>
1

> <i_epik_Tot_abs_Q>
1

> <r_epik_Metal_State_Penalty>
1.46172

> <b_epik_Metal_Only>
0

> <s_lp_Force_Field>
OPLS_2005

> <r_lp_Energy>
32.195

> <b_lp_Chiralities_Consistent>
1

> <s_lp_Variant>
AV-unprocessed.smi:1047-14

> <Gold.Version>
5.8.1

> <Gold.Id.Protein>
6NUR|6NUR_protein|mol2

> <Gold.PLP.Fitness>
51.1490

> <Gold.PLP.PLP>
-46.8980

> <Gold.PLP.part.hbond>
-4.0000

> <Gold.PLP.part.metal>
0.0000

> <Gold.PLP.part.buried>
-5.0609

> <Gold.PLP.part.nonpolar>
-36.9586

> <Gold.PLP.part.repulsive>
0.1005

> <Gold.PLP.ligand.clash>
0.0000

> <Gold.PLP.ligand.torsion>
0.8429

> <Gold.PLP.Chemscore.Hbond>
1.9280

> <Gold.PLP.Chemscore.CHOScore>
0.0000

> <Gold.PLP.Chemscore.Metal>
0.0000

> <Gold.Chemscore.Hbonds>
donor molecule, donor type, donor heavy atom, donor atom, acceptor molecule, acceptor atom, score
      P1  H  6896  6908       L1     6  1.00
      P1  H  7997  8009       L1    12  0.95

> <Gold.PLP.Chemscore.Internal.Correction>
0.1528

> <Gold.Rescore>
     Score         DG    S(hbond)    S(metal)    S(lipo)     H(rot)  DE(clash)    DE(int)     intcor
     16.19     -19.38       1.75        0.00     126.35       2.62       1.29       1.91       ----

> <Gold.Chemscore.Fitness>
16.1861

> <Gold.Chemscore.DG>
-19.3849

> <Gold.Chemscore.ZeroCoef>
-5.4800

> <Gold.Chemscore.Hbond>
1.7461

> <Gold.Chemscore.Metal>
0.0000

> <Gold.Chemscore.Lipo>
126.3459

> <Gold.Chemscore.Internal_Hbond>
0.0000

> <Gold.Chemscore.DEClash>
1.2897

> <Gold.Chemscore.DEInternal>
1.9091

> <Gold.Chemscore.Rot>
2.6209

> <Gold.Chemscore.Internal.Correction>
   9.000000E+99

> <Gold.Chemscore.Hbonds>
donor molecule, donor type, donor heavy atom, donor atom, acceptor molecule, acceptor atom, score
      P1  H  6896  6908       L1     6  0.91
      P1  H  7997  8009       L1    12  0.21

> <Gold.Chemscore.Hbond.Weighted>
-5.8321

> <Gold.Chemscore.Metal.Weighted>
-0.0000

> <Gold.Chemscore.Lipo.Weighted>
-14.7825

> <Gold.Chemscore.Internal_Hbond.Weighted>
0.0000

> <Gold.Chemscore.DEClash.Weighted>
1.2897

> <Gold.Chemscore.DEInternal.Weighted>
1.9091

> <Gold.Chemscore.Rot.Weighted>
6.7096

> <Gold.Chemscore.Internal.Correction.Weighted>
   9.000000E+99

> <Gold.Protein.RotatedTorsions>
[ 6907 6896 6895 6894 ] final -177.51 input  -60.11 | X-H torsion
[ 7974 7965 7964 7962 ] final  114.74 input  175.53 | X-H torsion
[ 8008 7997 7996 7995 ] final  104.24 input   59.86 | X-H torsion
[ 10167 10162 10161 10158 ] final  -23.35 input  -65.29 | X-H torsion
[ 10718 10713 10712 10709 ] final -171.82 input   66.30 | X-H torsion
[ 10763 10752 10751 10750 ] final  -81.40 input  -60.55 | X-H torsion
[ 11005 11000 10999 10996 ] final -114.47 input  -57.11 | X-H torsion

> <Gold.Protein.ActiveResidues>
 VAL166  LYS551  ARG553  GLY616  TRP617  ASP618  TYR619  PRO620  LYS621  CYS622 
 ASP623  PHE694  ASN695  SER759  ASP760  ASP761  ALA762  ILE779  LEU786  VAL792 
 PHE793  MET794  SER795  GLU796  ALA797  LYS798  CYS799  TRP800  GLU811  SER814 

> <Gold.Protein.RotatedAtoms>
  151.6221  133.3338  159.3090 H   0  0  0  0  0  0  0  0  0  0  0  0  # atno 6907 bound_to 6896
  150.8100  134.7253  159.6691 H   0  0  0  0  0  0  0  0  0  0  0  0  # atno 6908 bound_to 6896
  152.4197  134.5983  160.0044 H   0  0  0  0  0  0  0  0  0  0  0  0  # atno 6909 bound_to 6896
  145.2007  139.2954  143.4320 H   0  0  0  0  0  0  0  0  0  0  0  0  # atno 7974 bound_to 7965
  156.1555  140.3151  155.8719 H   0  0  0  0  0  0  0  0  0  0  0  0  # atno 8008 bound_to 7997
  155.3886  140.0492  157.3058 H   0  0  0  0  0  0  0  0  0  0  0  0  # atno 8009 bound_to 7997
  154.5097  140.2160  155.9191 H   0  0  0  0  0  0  0  0  0  0  0  0  # atno 8010 bound_to 7997
  140.7288  143.4451  151.0599 H   0  0  0  0  0  0  0  0  0  0  0  0  # atno 10167 bound_to 10162
  156.7465  130.9362  151.3113 H   0  0  0  0  0  0  0  0  0  0  0  0  # atno 10718 bound_to 10713
  154.5631  135.5627  153.7025 H   0  0  0  0  0  0  0  0  0  0  0  0  # atno 10763 bound_to 10752
  153.0024  135.6278  154.2218 H   0  0  0  0  0  0  0  0  0  0  0  0  # atno 10764 bound_to 10752
  154.2156  135.2872  155.2923 H   0  0  0  0  0  0  0  0  0  0  0  0  # atno 10765 bound_to 10752
  141.0550  133.9627  157.2770 H   0  0  0  0  0  0  0  0  0  0  0  0  # atno 11005 bound_to 11000
  146.3418  140.2250  142.8592 LP  0  0  0  0  0  0  0  0  0  0  0  0  # atno 17320 bound_to 7965
  144.9951  140.8582  143.5316 LP  0  0  0  0  0  0  0  0  0  0  0  0  # atno 17321 bound_to 7965
  139.8122  143.7935  152.3172 LP  0  0  0  0  0  0  0  0  0  0  0  0  # atno 17342 bound_to 10162
  139.7989  144.7382  150.9852 LP  0  0  0  0  0  0  0  0  0  0  0  0  # atno 17343 bound_to 10162
  157.6796  130.9127  150.0234 LP  0  0  0  0  0  0  0  0  0  0  0  0  # atno 17370 bound_to 10713
  156.1430  130.3642  149.9554 LP  0  0  0  0  0  0  0  0  0  0  0  0  # atno 17371 bound_to 10713
  139.9382  135.0194  156.8625 LP  0  0  0  0  0  0  0  0  0  0  0  0  # atno 17394 bound_to 11000
  140.5982  134.0197  155.7526 LP  0  0  0  0  0  0  0  0  0  0  0  0  # atno 17395 bound_to 11000

$$$$
