AV-unprocessed.smi:107|AV-procd|sdf|1014|dock10
  -GOLD-   2262018 13D 1   1.00000     0.00000
 Structure written by MMmdl.
 31 32  0  0  0  0  0  0  0  0  1 V2000
  138.7188  139.1560  152.9082 C   0  0  0  0  0  0  0  0  0  0  0  0
  139.7667  138.1546  153.3644 C   0  0  0  0  0  0  0  0  0  0  0  0
  141.0636  138.2292  152.9707 C   0  0  0  0  0  0  0  0  0  0  0  0
  142.0446  137.3343  153.3720 N   0  0  0  0  0  0  0  0  0  0  0  0
  143.4679  137.5020  152.8955 C   0  0  1  0  0  0  0  0  0  0  0  0
  144.4346  137.6711  154.0757 C   0  0  0  0  0  0  0  0  0  0  0  0
  145.3982  136.5052  153.9062 C   0  0  1  0  0  0  0  0  0  0  0  0
  145.0766  135.4596  154.8050 O   0  0  0  0  0  0  0  0  0  0  0  0
  145.2084  136.0909  152.4387 C   0  0  1  0  0  0  0  0  0  0  0  0
  145.5627  134.6300  152.1087 C   0  0  0  0  0  0  0  0  0  0  0  0
  146.8962  134.3579  152.4833 O   0  0  0  0  0  0  0  0  0  0  0  0
  143.8314  136.3501  152.2020 O   0  0  0  0  0  0  0  0  0  0  0  0
  141.7035  136.2786  154.2434 C   0  0  0  0  0  0  0  0  0  0  0  0
  142.5136  135.4416  154.6394 O   0  0  0  0  0  0  0  0  0  0  0  0
  140.3718  136.2010  154.6481 N   0  0  0  0  0  0  0  0  0  0  0  0
  139.3521  137.0768  154.2667 C   0  0  0  0  0  0  0  0  0  0  0  0
  138.2109  136.9014  154.6907 O   0  0  0  0  0  0  0  0  0  0  0  0
  140.1218  135.4452  155.2690 H   0  0  0  0  0  0  0  0  0  0  0  0
  139.1371  139.8949  152.2241 H   0  0  0  0  0  0  0  0  0  0  0  0
  138.3042  139.6894  153.7642 H   0  0  0  0  0  0  0  0  0  0  0  0
  137.9028  138.6482  152.3929 H   0  0  0  0  0  0  0  0  0  0  0  0
  141.3505  139.0330  152.3084 H   0  0  0  0  0  0  0  0  0  0  0  0
  143.5047  138.3429  152.2018 H   0  0  0  0  0  0  0  0  0  0  0  0
  144.9507  138.6253  153.9628 H   0  0  0  0  0  0  0  0  0  0  0  0
  143.9160  137.6728  155.0360 H   0  0  0  0  0  0  0  0  0  0  0  0
  146.4275  136.8080  154.1008 H   0  0  0  0  0  0  0  0  0  0  0  0
  144.1399  135.3357  154.8004 H   0  0  0  0  0  0  0  0  0  0  0  0
  145.7957  136.7698  151.8170 H   0  0  0  0  0  0  0  0  0  0  0  0
  144.9226  133.9516  152.6734 H   0  0  0  0  0  0  0  0  0  0  0  0
  145.4150  134.4140  151.0500 H   0  0  0  0  0  0  0  0  0  0  0  0
  147.3888  135.1636  152.4502 H   0  0  0  0  0  0  0  0  0  0  0  0
  1  2  1  0  0  0  0
  1 19  1  0  0  0  0
  1 20  1  0  0  0  0
  1 21  1  0  0  0  0
  2 16  1  0  0  0  0
  2  3  2  0  0  0  0
  3  4  1  0  0  0  0
  3 22  1  0  0  0  0
  4  5  1  0  0  0  0
  4 13  1  0  0  0  0
  5 12  1  0  0  0  0
  5  6  1  0  0  0  0
  5 23  1  0  0  0  0
  6  7  1  0  0  0  0
  6 24  1  0  0  0  0
  6 25  1  0  0  0  0
  7  8  1  0  0  0  0
  7  9  1  0  0  0  0
  7 26  1  0  0  0  0
  8 27  1  0  0  0  0
  9 10  1  0  0  0  0
  9 12  1  0  0  0  0
  9 28  1  0  0  0  0
 10 11  1  0  0  0  0
 10 29  1  0  0  0  0
 10 30  1  0  0  0  0
 11 31  1  0  0  0  0
 13 14  2  0  0  0  0
 13 15  1  0  0  0  0
 15 18  1  0  0  0  0
 15 16  1  0  0  0  0
 16 17  2  0  0  0  0
M  END
> <s_m_source_file>
AV-unprocessed.smi

> <i_m_source_file_index>
107

> <i_lp_mmshare_version>
43012

> <i_f3d_flags>
0

> <s_epik_input>
Tz1jMVtuSF1jKD1PKW4oW2NIXWMxW0NIM10pW0NAQEhdMltDSDJdW0NAQEhdKFtPSF0pW0NASF0oTzIpW0NIMl1bT0hd

> <s_epik_cmdline>
J2VwaWtfcHl0aG9uJywgJy1waCcsICc3LjAnLCAnLXRuJywgJzgnLCAnLW1hJywgJzIwMCcsICctbWV0YWxfYmluZGluZycsICctaW1hZScsICc8aW5maWxlLm1hZT4nLCAnLW9tYWUnLCAnPG91dGZpbGUubWFlPic=

> <r_lp_tautomer_probability>
0.999537

> <r_epik_Ionization_Penalty>
0.00121888

> <r_epik_Ionization_Penalty_Charging>
0.00121876

> <r_epik_Ionization_Penalty_Neutral>
1.19946e-07

> <r_epik_State_Penalty>
0.000805124

> <r_epik_Charging_Adjusted_Penalty>
0.00202389

> <i_epik_Tot_Q>
0

> <i_epik_Tot_abs_Q>
0

> <r_epik_Metal_State_Penalty>
0.662472

> <b_epik_Metal_Only>
0

> <s_epik_Chemistry_Notes>
This compound contains an acetal/aminal-like group ( X-CH(R)-Y where X, Y are N, S, or O) that may be acid/base labile, releasing an aldehyde.

> <s_lp_Force_Field>
OPLS_2005

> <r_lp_Energy>
28.3693

> <b_lp_Chiralities_Consistent>
1

> <s_lp_Variant>
AV-unprocessed.smi:107-2

> <Gold.Version>
5.8.1

> <Gold.Id.Protein>
6NUR|6NUR_protein|mol2

> <Gold.PLP.Fitness>
35.7056

> <Gold.PLP.PLP>
-23.8504

> <Gold.PLP.part.hbond>
-2.1097

> <Gold.PLP.part.metal>
0.0000

> <Gold.PLP.part.buried>
-2.2969

> <Gold.PLP.part.nonpolar>
-18.9215

> <Gold.PLP.part.repulsive>
0.7223

> <Gold.PLP.ligand.clash>
0.0000

> <Gold.PLP.ligand.torsion>
0.0151

> <Gold.PLP.Chemscore.Hbond>
1.9600

> <Gold.PLP.Chemscore.CHOScore>
2.0000

> <Gold.PLP.Chemscore.Metal>
0.0000

> <Gold.Chemscore.Hbonds>
donor molecule, donor type, donor heavy atom, donor atom, acceptor molecule, acceptor atom, score
      L1  H    11    31       P1  7948  1.00
      L1  H    15    18       P1 11000  1.00
      L1  C     3    22       P1 10160  1.00
      L1  C     3    22       P1 10175  0.67

> <Gold.PLP.Chemscore.Internal.Correction>
0.0053

> <Gold.Rescore>
     Score         DG    S(hbond)    S(metal)    S(lipo)     H(rot)  DE(clash)    DE(int)     intcor
      4.66      -9.12       1.92        0.00      35.97       2.73       0.42       4.05       ----

> <Gold.Chemscore.Fitness>
4.6608

> <Gold.Chemscore.DG>
-9.1249

> <Gold.Chemscore.ZeroCoef>
-5.4800

> <Gold.Chemscore.Hbond>
1.9202

> <Gold.Chemscore.Metal>
0.0000

> <Gold.Chemscore.Lipo>
35.9669

> <Gold.Chemscore.Internal_Hbond>
0.0000

> <Gold.Chemscore.DEClash>
0.4160

> <Gold.Chemscore.DEInternal>
4.0481

> <Gold.Chemscore.Rot>
2.7253

> <Gold.Chemscore.Internal.Correction>
   9.000000E+99

> <Gold.Chemscore.Hbonds>
donor molecule, donor type, donor heavy atom, donor atom, acceptor molecule, acceptor atom, score
      L1  H    11    31       P1  7948  0.93
      L1  H    15    18       P1 11000  0.98

> <Gold.Chemscore.Hbond.Weighted>
-6.4136

> <Gold.Chemscore.Metal.Weighted>
-0.0000

> <Gold.Chemscore.Lipo.Weighted>
-4.2081

> <Gold.Chemscore.Internal_Hbond.Weighted>
0.0000

> <Gold.Chemscore.DEClash.Weighted>
0.4160

> <Gold.Chemscore.DEInternal.Weighted>
4.0481

> <Gold.Chemscore.Rot.Weighted>
6.9769

> <Gold.Chemscore.Internal.Correction.Weighted>
   9.000000E+99

> <Gold.Protein.RotatedTorsions>
[ 6907 6896 6895 6894 ] final  -49.05 input  -60.11 | X-H torsion
[ 7974 7965 7964 7962 ] final -110.98 input  175.53 | X-H torsion
[ 8008 7997 7996 7995 ] final  -89.87 input   59.86 | X-H torsion
[ 10167 10162 10161 10158 ] final   12.03 input  -65.29 | X-H torsion
[ 10718 10713 10712 10709 ] final  105.47 input   66.30 | X-H torsion
[ 10763 10752 10751 10750 ] final   14.99 input  -60.55 | X-H torsion
[ 11005 11000 10999 10996 ] final -130.52 input  -57.11 | X-H torsion

> <Gold.Protein.ActiveResidues>
 VAL166  LYS551  ARG553  GLY616  TRP617  ASP618  TYR619  PRO620  LYS621  CYS622 
 ASP623  PHE694  ASN695  SER759  ASP760  ASP761  ALA762  ILE779  LEU786  VAL792 
 PHE793  MET794  SER795  GLU796  ALA797  LYS798  CYS799  TRP800  GLU811  SER814 

> <Gold.Protein.RotatedAtoms>
  150.8844  134.8240  159.7248 H   0  0  0  0  0  0  0  0  0  0  0  0  # atno 6907 bound_to 6896
  152.4798  134.4746  159.9656 H   0  0  0  0  0  0  0  0  0  0  0  0  # atno 6908 bound_to 6896
  151.4816  133.3506  159.2874 H   0  0  0  0  0  0  0  0  0  0  0  0  # atno 6909 bound_to 6896
  145.1617  140.8881  143.3587 H   0  0  0  0  0  0  0  0  0  0  0  0  # atno 7974 bound_to 7965
  154.6918  140.0537  157.0371 H   0  0  0  0  0  0  0  0  0  0  0  0  # atno 8008 bound_to 7997
  155.0807  140.3209  155.4584 H   0  0  0  0  0  0  0  0  0  0  0  0  # atno 8009 bound_to 7997
  156.2731  140.2065  156.5934 H   0  0  0  0  0  0  0  0  0  0  0  0  # atno 8010 bound_to 7997
  140.6094  143.8440  150.7048 H   0  0  0  0  0  0  0  0  0  0  0  0  # atno 10167 bound_to 10162
  157.6704  131.0828  150.5861 H   0  0  0  0  0  0  0  0  0  0  0  0  # atno 10718 bound_to 10713
  153.1569  135.6789  153.8799 H   0  0  0  0  0  0  0  0  0  0  0  0  # atno 10763 bound_to 10752
  153.8208  135.3130  155.3411 H   0  0  0  0  0  0  0  0  0  0  0  0  # atno 10764 bound_to 10752
  154.7904  135.4838  154.0127 H   0  0  0  0  0  0  0  0  0  0  0  0  # atno 10765 bound_to 10752
  140.9338  134.1284  157.4211 H   0  0  0  0  0  0  0  0  0  0  0  0  # atno 11005 bound_to 11000
  145.0324  139.3329  143.6018 LP  0  0  0  0  0  0  0  0  0  0  0  0  # atno 17320 bound_to 7965
  146.3481  139.9667  142.8711 LP  0  0  0  0  0  0  0  0  0  0  0  0  # atno 17321 bound_to 7965
  140.2005  143.3963  152.1795 LP  0  0  0  0  0  0  0  0  0  0  0  0  # atno 17342 bound_to 10162
  139.5349  144.7199  151.4927 LP  0  0  0  0  0  0  0  0  0  0  0  0  # atno 17343 bound_to 10162
  156.6162  130.4393  149.5840 LP  0  0  0  0  0  0  0  0  0  0  0  0  # atno 17370 bound_to 10713
  156.2392  130.6841  151.1539 LP  0  0  0  0  0  0  0  0  0  0  0  0  # atno 17371 bound_to 10713
  139.8803  135.0014  156.6066 LP  0  0  0  0  0  0  0  0  0  0  0  0  # atno 17394 bound_to 11000
  140.7826  133.8647  155.8580 LP  0  0  0  0  0  0  0  0  0  0  0  0  # atno 17395 bound_to 11000

$$$$
