#       Name:                AV-unprocessed.smi:234
#       Creating user name   scv26
#       Creation time:       Thu Mar 26 20:36:14 2020


#       File generated by GOLD software.
#

@<TRIPOS>MOLECULE
AV-unprocessed.smi:234
    69    72     1
SMALL
NO_CHARGES


@<TRIPOS>ATOM
      1 ****        -7.4159  -0.2698  -1.2869 C.3            1 S1                 0.0000
      2 ****        -6.3647  -1.3585  -1.0602 C.3            1 S1                 0.0000
      3 ****        -5.1485  -0.9521  -1.6657 O.3            1 S1                 0.0000
      4 ****        -4.0775  -1.8639  -1.4487 C.3            1 S1                 0.0000
      5 ****        -2.9887  -1.6271  -2.4962 C.3            1 S1                 0.0000
      6 ****        -2.3788  -0.6264  -1.5096 C.3            1 S1                 0.0000
      7 ****        -0.9116  -0.6383  -1.5055 N.3            1 S1                 0.0000
      8 ****        -0.2330  -0.3509  -2.7659 C.3            1 S1                 0.0000
      9 ****        -0.2805  -0.0421  -0.4640 C.ar           1 S1                 0.0000
     10 ****        -0.8510   1.0185   0.1664 N.ar           1 S1                 0.0000
     11 ****        -0.2222   1.6126   1.1845 C.ar           1 S1                 0.0000
     12 ****         0.9665   1.3204   1.7159 N.ar           1 S1                 0.0000
     13 ****         1.5515   0.2686   1.0743 C.ar           1 S1                 0.0000
     14 ****         1.0000  -0.4645  -0.0135 C.ar           1 S1                 0.0000
     15 ****         1.8721  -1.4754  -0.3968 N.2            1 S1                 0.0000
     16 ****         2.8849  -1.3444   0.4156 C.2            1 S1                 0.0000
     17 ****         2.7844  -0.3112   1.3209 N.pl3          1 S1                 0.0000
     18 ****         3.7668   0.0600   2.3286 C.3            1 S1                 0.0000
     19 ****         4.8244   1.1003   1.8658 C.3            1 S1                 0.0000
     20 ****         5.7337   1.2435   2.9414 O.3            1 S1                 0.0000
     21 ****         5.5848   0.6940   0.6051 C.3            1 S1                 0.0000
     22 ****         4.8367   1.3885  -0.5372 C.3            1 S1                 0.0000
     23 ****         3.8993   2.2725   0.0708 O.3            1 S1                 0.0000
     24 ****         4.2188   2.4551   1.4449 C.3            1 S1                 0.0000
     25 ****         5.1617   3.6700   1.5514 C.3            1 S1                 0.0000
     26 ****        -3.0634  -1.4218  -0.3578 C.3            1 S1                 0.0000
     27 ****        -3.6316  -0.6044   0.8061 C.3            1 S1                 0.0000
     28 ****        -2.2774  -2.5847   0.2713 C.3            1 S1                 0.0000
     29 ****        -8.3677  -0.5461  -0.8331 H              1 S1                 0.0000
     30 ****        -7.5873  -0.1065  -2.3512 H              1 S1                 0.0000
     31 ****        -7.0987   0.6771  -0.8492 H              1 S1                 0.0000
     32 ****        -6.2279  -1.5255   0.0083 H              1 S1                 0.0000
     33 ****        -6.7020  -2.2989  -1.4984 H              1 S1                 0.0000
     34 ****        -4.3883  -2.9090  -1.3965 H              1 S1                 0.0000
     35 ****        -2.3690  -2.5078  -2.6735 H              1 S1                 0.0000
     36 ****        -3.3396  -1.1891  -3.4312 H              1 S1                 0.0000
     37 ****        -2.8103   0.3680  -1.6397 H              1 S1                 0.0000
     38 ****         0.2856   0.6091  -2.7400 H              1 S1                 0.0000
     39 ****        -0.9342  -0.3187  -3.5998 H              1 S1                 0.0000
     40 ****         0.5013  -1.1282  -2.9777 H              1 S1                 0.0000
     41 ****        -0.7462   2.4418   1.6365 H              1 S1                 0.0000
     42 ****         3.7441  -1.9977   0.3696 H              1 S1                 0.0000
     43 ****         3.2315   0.4354   3.2018 H              1 S1                 0.0000
     44 ****         4.2657  -0.8544   2.6532 H              1 S1                 0.0000
     45 ****         5.2617   1.5734   3.6906 H              1 S1                 0.0000
     46 ****         6.6063   1.0768   0.6347 H              1 S1                 0.0000
     47 ****         5.6552  -0.3857   0.4739 H              1 S1                 0.0000
     48 ****         5.5245   1.9485  -1.1715 H              1 S1                 0.0000
     49 ****         4.3054   0.6750  -1.1672 H              1 S1                 0.0000
     50 ****         3.3154   2.6784   2.0118 H              1 S1                 0.0000
     51 ****         5.4159   3.8856   2.5893 H              1 S1                 0.0000
     52 ****         4.6856   4.5616   1.1433 H              1 S1                 0.0000
     53 ****         6.0921   3.5143   1.0051 H              1 S1                 0.0000
     54 ****        -2.8505  -0.2792   1.4929 H              1 S1                 0.0000
     55 ****        -4.3471  -1.1841   1.3891 H              1 S1                 0.0000
     56 ****        -4.1439   0.2922   0.4564 H              1 S1                 0.0000
     57 ****        -1.4967  -2.2288   0.9442 H              1 S1                 0.0000
     58 ****        -1.7921  -3.2074  -0.4803 H              1 S1                 0.0000
     59 ****        -2.9312  -3.2370   0.8510 H              1 S1                 0.0000
     60 ****        -4.8888  -0.0626  -1.2897 LP             1 S1                 0.0000
     61 ****        -5.2977  -0.8669  -2.6508 LP             1 S1                 0.0000
     62 ****        -0.8052  -1.6214  -1.3561 LP             1 S1                 0.0000
     63 ****        -1.7439   1.3550  -0.1327 LP             1 S1                 0.0000
     64 ****         1.3759   1.8099   2.4859 LP             1 S1                 0.0000
     65 ****         1.7517  -2.1482  -1.1267 LP             1 S1                 0.0000
     66 ****         6.4570   1.8861   2.6886 LP             1 S1                 0.0000
     67 ****         6.1384   0.3559   3.1616 LP             1 S1                 0.0000
     68 ****         2.9809   1.8845  -0.0063 LP             1 S1                 0.0000
     69 ****         3.9280   3.1566  -0.3956 LP             1 S1                 0.0000
@<TRIPOS>BOND
    1    1    2 1     
    2    1   29 1     
    3    1   30 1     
    4    1   31 1     
    5    2    3 1     
    6    2   32 1     
    7    2   33 1     
    8    3    4 1     
    9    4   26 1     
   10    4    5 1     
   11    4   34 1     
   12    5    6 1     
   13    5   35 1     
   14    5   36 1     
   15    6    7 1     
   16    6   26 1     
   17    6   37 1     
   18    7    8 1     
   19    7    9 1     
   20    8   38 1     
   21    8   39 1     
   22    8   40 1     
   23    9   14 ar    
   24    9   10 ar    
   25   10   11 ar    
   26   11   12 ar    
   27   11   41 1     
   28   12   13 ar    
   29   13   17 1     
   30   13   14 ar    
   31   14   15 1     
   32   15   16 2     
   33   16   17 1     
   34   16   42 1     
   35   17   18 1     
   36   18   19 1     
   37   18   43 1     
   38   18   44 1     
   39   19   24 1     
   40   19   20 1     
   41   19   21 1     
   42   20   45 1     
   43   21   22 1     
   44   21   46 1     
   45   21   47 1     
   46   22   23 1     
   47   22   48 1     
   48   22   49 1     
   49   23   24 1     
   50   24   25 1     
   51   24   50 1     
   52   25   51 1     
   53   25   52 1     
   54   25   53 1     
   55   26   27 1     
   56   26   28 1     
   57   27   54 1     
   58   27   55 1     
   59   27   56 1     
   60   28   57 1     
   61   28   58 1     
   62   28   59 1     
   63    3   60 1     
   64    3   61 1     
   65    7   62 1     
   66   10   63 1     
   67   12   64 1     
   68   15   65 1     
   69   20   66 1     
   70   20   67 1     
   71   23   68 1     
   72   23   69 1     
@<TRIPOS>SUBSTRUCTURE
      1 S1             1
@<TRIPOS>SET
LONE_PAIRS      STATIC     ATOMS    <user>   **** ""
10 60 61 62 63 64 65 66 67 68 69
DONOR_HYDROGENS      STATIC     ATOMS    <user>   **** ""
1 45
ATOM$BLUE        STATIC     ATOMS    COLORGROUP SYSTEM
10 60 61 62 63 64 65 66 67 68 69
ATOM$RED        STATIC     ATOMS    COLORGROUP SYSTEM
1 45
