AV-unprocessed.smi:104|AV-procd|sdf|995|dock7
  -GOLD-   2262017573D 1   1.00000     0.00000
 Structure written by MMmdl.
 47 49  0  0  0  0  0  0  0  0  1 V2000
  152.8988  138.6232  154.9758 C   0  0  0  0  0  0  0  0  0  0  0  0
  151.4066  138.7605  155.2473 C   0  0  0  0  0  0  0  0  0  0  0  0
  150.7976  139.7956  154.9755 O   0  0  0  0  0  0  0  0  0  0  0  0
  150.8824  137.6523  155.7950 O   0  0  0  0  0  0  0  0  0  0  0  0
  149.5283  137.6417  156.2200 C   0  0  0  0  0  0  0  0  0  0  0  0
  149.2801  136.4062  157.0955 C   0  0  2  0  0  0  0  0  0  0  0  0
  149.5383  135.2355  156.3140 O   0  0  0  0  0  0  0  0  0  0  0  0
  148.3849  134.4621  156.2143 C   0  0  2  0  0  0  0  0  0  0  0  0
  148.2995  133.8609  154.8500 N   0  0  0  0  0  0  0  0  0  0  0  0
  148.9897  132.7856  154.3395 C   0  0  0  0  0  0  0  0  0  0  0  0
  150.2535  131.8069  155.3749 Br  0  0  0  0  0  0  0  0  0  0  0  0
  148.7329  132.4424  153.1083 N   0  0  0  0  0  0  0  0  0  0  0  0
  147.7612  133.3615  152.7315 C   0  0  0  0  0  0  0  0  0  0  0  0
  147.0237  133.5834  151.5409 C   0  0  0  0  0  0  0  0  0  0  0  0
  147.1756  132.8390  150.4368 N   0  0  0  0  0  0  0  0  0  0  0  0
  146.1221  134.5927  151.5163 N   0  0  0  0  0  0  0  0  0  0  0  0
  145.9491  135.3491  152.6050 C   0  0  0  0  0  0  0  0  0  0  0  0
  146.5643  135.2632  153.7871 N   0  0  0  0  0  0  0  0  0  0  0  0
  147.4764  134.2481  153.8114 C   0  0  0  0  0  0  0  0  0  0  0  0
  147.2159  135.3994  156.4616 C   0  0  1  0  0  0  0  0  0  0  0  0
  146.0643  134.6808  156.8839 O   0  0  0  0  0  0  0  0  0  0  0  0
  144.9291  135.3386  157.1643 C   0  0  0  0  0  0  0  0  0  0  0  0
  143.7852  134.3972  157.5166 C   0  0  0  0  0  0  0  0  0  0  0  0
  144.7795  136.5604  157.1584 O   0  0  0  0  0  0  0  0  0  0  0  0
  147.8075  136.3047  157.5297 C   0  0  1  0  0  0  0  0  0  0  0  0
  147.7197  135.6915  158.8136 O   0  0  0  0  0  0  0  0  0  0  0  0
  147.7381  136.4428  159.9278 C   0  0  0  0  0  0  0  0  0  0  0  0
  147.3701  135.6445  161.1711 C   0  0  0  0  0  0  0  0  0  0  0  0
  148.0181  137.6398  159.9908 O   0  0  0  0  0  0  0  0  0  0  0  0
  153.1237  137.6375  154.5677 H   0  0  0  0  0  0  0  0  0  0  0  0
  153.4641  138.7548  155.8986 H   0  0  0  0  0  0  0  0  0  0  0  0
  153.2273  139.3756  154.2584 H   0  0  0  0  0  0  0  0  0  0  0  0
  149.3387  138.5509  156.7914 H   0  0  0  0  0  0  0  0  0  0  0  0
  148.8384  137.6440  155.3754 H   0  0  0  0  0  0  0  0  0  0  0  0
  149.9451  136.4331  157.9599 H   0  0  0  0  0  0  0  0  0  0  0  0
  148.4376  133.6291  156.9159 H   0  0  0  0  0  0  0  0  0  0  0  0
  147.8407  132.0790  150.4296 H   0  0  0  0  0  0  0  0  0  0  0  0
  146.6263  133.0405  149.6138 H   0  0  0  0  0  0  0  0  0  0  0  0
  145.2136  136.1354  152.5177 H   0  0  0  0  0  0  0  0  0  0  0  0
  147.0297  135.9647  155.5466 H   0  0  0  0  0  0  0  0  0  0  0  0
  143.7538  133.5583  156.8207 H   0  0  0  0  0  0  0  0  0  0  0  0
  142.8303  134.9212  157.4683 H   0  0  0  0  0  0  0  0  0  0  0  0
  143.9154  134.0067  158.5260 H   0  0  0  0  0  0  0  0  0  0  0  0
  147.3049  137.2733  157.5342 H   0  0  0  0  0  0  0  0  0  0  0  0
  146.4575  135.0733  160.9992 H   0  0  0  0  0  0  0  0  0  0  0  0
  147.2058  136.3102  162.0187 H   0  0  0  0  0  0  0  0  0  0  0  0
  148.1717  134.9509  161.4256 H   0  0  0  0  0  0  0  0  0  0  0  0
  1  2  1  0  0  0  0
  1 30  1  0  0  0  0
  1 31  1  0  0  0  0
  1 32  1  0  0  0  0
  2  3  2  0  0  0  0
  2  4  1  0  0  0  0
  4  5  1  0  0  0  0
  5  6  1  0  0  0  0
  5 33  1  0  0  0  0
  5 34  1  0  0  0  0
  6 25  1  0  0  0  0
  6  7  1  0  0  0  0
  6 35  1  0  0  0  0
  7  8  1  0  0  0  0
  8  9  1  0  0  0  0
  8 20  1  0  0  0  0
  8 36  1  0  0  0  0
  9 19  1  0  0  0  0
  9 10  1  0  0  0  0
 10 11  1  0  0  0  0
 10 12  2  0  0  0  0
 12 13  1  0  0  0  0
 13 19  2  0  0  0  0
 13 14  1  0  0  0  0
 14 15  1  0  0  0  0
 14 16  2  0  0  0  0
 15 37  1  0  0  0  0
 15 38  1  0  0  0  0
 16 17  1  0  0  0  0
 17 18  2  0  0  0  0
 17 39  1  0  0  0  0
 18 19  1  0  0  0  0
 20 21  1  0  0  0  0
 20 25  1  0  0  0  0
 20 40  1  0  0  0  0
 21 22  1  0  0  0  0
 22 23  1  0  0  0  0
 22 24  2  0  0  0  0
 23 41  1  0  0  0  0
 23 42  1  0  0  0  0
 23 43  1  0  0  0  0
 25 26  1  0  0  0  0
 25 44  1  0  0  0  0
 26 27  1  0  0  0  0
 27 28  1  0  0  0  0
 27 29  2  0  0  0  0
 28 45  1  0  0  0  0
 28 46  1  0  0  0  0
 28 47  1  0  0  0  0
M  END
> <s_m_source_file>
AV-unprocessed.smi

> <i_m_source_file_index>
104

> <i_lp_mmshare_version>
43012

> <i_f3d_flags>
0

> <s_epik_input>
W0NIM11DKD1PKU9bQ0gyXVtDQEBIXTFPW0NASF0oW0NAQEhdKE9DKD1PKVtDSDNdKVtDQEhdMU9DKD1PKVtDSDNdKW4oYyhCciluMiljKGMyMyluW2NIXW5jM1tOSDJd

> <s_epik_cmdline>
J2VwaWtfcHl0aG9uJywgJy1waCcsICc3LjAnLCAnLXRuJywgJzgnLCAnLW1hJywgJzIwMCcsICctbWV0YWxfYmluZGluZycsICctaW1hZScsICc8aW5maWxlLm1hZT4nLCAnLW9tYWUnLCAnPG91dGZpbGUubWFlPic=

> <r_lp_tautomer_probability>
1

> <r_epik_Ionization_Penalty>
7.36622e-05

> <r_epik_Ionization_Penalty_Charging>
0

> <r_epik_Ionization_Penalty_Neutral>
7.36622e-05

> <r_epik_State_Penalty>
-0

> <r_epik_Charging_Adjusted_Penalty>
0

> <i_epik_Tot_Q>
0

> <i_epik_Tot_abs_Q>
0

> <r_epik_Metal_State_Penalty>
-0

> <b_epik_Metal_Only>
0

> <s_epik_Chemistry_Notes>
This compound has an ester and may undergo hydrolysis at high or low pH. This compound contains an acetal/aminal-like group ( X-CH(R)-Y where X, Y are N, S, or O) that may be acid/base labile, releasing an aldehyde.

> <s_lp_Force_Field>
OPLS_2005

> <r_lp_Energy>
18.6996

> <b_lp_Chiralities_Consistent>
1

> <s_lp_Variant>
AV-unprocessed.smi:104-3

> <Gold.Version>
5.8.1

> <Gold.Id.Protein>
6NUR|6NUR_protein|mol2

> <Gold.PLP.Fitness>
37.3650

> <Gold.PLP.PLP>
-30.7465

> <Gold.PLP.part.hbond>
-4.0000

> <Gold.PLP.part.metal>
0.0000

> <Gold.PLP.part.buried>
-4.9993

> <Gold.PLP.part.nonpolar>
-22.9498

> <Gold.PLP.part.repulsive>
0.6664

> <Gold.PLP.ligand.clash>
0.0000

> <Gold.PLP.ligand.torsion>
0.8959

> <Gold.PLP.Chemscore.Hbond>
2.7602

> <Gold.PLP.Chemscore.CHOScore>
0.0000

> <Gold.PLP.Chemscore.Metal>
0.0000

> <Gold.Chemscore.Hbonds>
donor molecule, donor type, donor heavy atom, donor atom, acceptor molecule, acceptor atom, score
      L1  H    15    37       P1 10747  1.00
      P1  H  6931  6943       L1    29  0.20
      P1  H  6934  6947       L1    29  0.59
      P1  H  7989  7998       L1     3  1.00

> <Gold.PLP.Chemscore.Internal.Correction>
0.1297

> <Gold.Rescore>
     Score         DG    S(hbond)    S(metal)    S(lipo)     H(rot)  DE(clash)    DE(int)     intcor
      6.30      -8.80       3.05        0.00      35.65       4.31       0.02       2.48       ----

> <Gold.Chemscore.Fitness>
6.2996

> <Gold.Chemscore.DG>
-8.7960

> <Gold.Chemscore.ZeroCoef>
-5.4800

> <Gold.Chemscore.Hbond>
3.0453

> <Gold.Chemscore.Metal>
0.0000

> <Gold.Chemscore.Lipo>
35.6451

> <Gold.Chemscore.Internal_Hbond>
0.0000

> <Gold.Chemscore.DEClash>
0.0153

> <Gold.Chemscore.DEInternal>
2.4811

> <Gold.Chemscore.Rot>
4.3070

> <Gold.Chemscore.Internal.Correction>
   9.000000E+99

> <Gold.Chemscore.Hbonds>
donor molecule, donor type, donor heavy atom, donor atom, acceptor molecule, acceptor atom, score
      L1  H    15    37       P1 10747  1.00
      P1  H  6931  6943       L1    29  0.19
      P1  H  6934  6947       L1    29  0.58
      P1  H  7989  7998       L1     3  0.84

> <Gold.Chemscore.Hbond.Weighted>
-10.1714

> <Gold.Chemscore.Metal.Weighted>
-0.0000

> <Gold.Chemscore.Lipo.Weighted>
-4.1705

> <Gold.Chemscore.Internal_Hbond.Weighted>
0.0000

> <Gold.Chemscore.DEClash.Weighted>
0.0153

> <Gold.Chemscore.DEInternal.Weighted>
2.4811

> <Gold.Chemscore.Rot.Weighted>
11.0259

> <Gold.Chemscore.Internal.Correction.Weighted>
   9.000000E+99

> <Gold.Protein.RotatedTorsions>
[ 6907 6896 6895 6894 ] final  -89.44 input  -60.11 | X-H torsion
[ 7974 7965 7964 7962 ] final  -58.46 input  175.53 | X-H torsion
[ 8008 7997 7996 7995 ] final -155.71 input   59.86 | X-H torsion
[ 10167 10162 10161 10158 ] final  -85.57 input  -65.29 | X-H torsion
[ 10718 10713 10712 10709 ] final  136.50 input   66.30 | X-H torsion
[ 10763 10752 10751 10750 ] final  172.03 input  -60.55 | X-H torsion
[ 11005 11000 10999 10996 ] final    6.08 input  -57.11 | X-H torsion

> <Gold.Protein.ActiveResidues>
 VAL166  LYS551  ARG553  GLY616  TRP617  ASP618  TYR619  PRO620  LYS621  CYS622 
 ASP623  PHE694  ASN695  SER759  ASP760  ASP761  ALA762  ILE779  LEU786  VAL792 
 PHE793  MET794  SER795  GLU796  ALA797  LYS798  CYS799  TRP800  GLU811  SER814 

> <Gold.Protein.RotatedAtoms>
  150.6874  134.2587  159.4540 H   0  0  0  0  0  0  0  0  0  0  0  0  # atno 6907 bound_to 6896
  152.0519  134.9646  160.0584 H   0  0  0  0  0  0  0  0  0  0  0  0  # atno 6908 bound_to 6896
  152.1107  133.4264  159.4666 H   0  0  0  0  0  0  0  0  0  0  0  0  # atno 6909 bound_to 6896
  145.8390  140.8430  143.0044 H   0  0  0  0  0  0  0  0  0  0  0  0  # atno 7974 bound_to 7965
  155.7060  140.0772  157.2391 H   0  0  0  0  0  0  0  0  0  0  0  0  # atno 8008 bound_to 7997
  154.4066  140.1639  156.2296 H   0  0  0  0  0  0  0  0  0  0  0  0  # atno 8009 bound_to 7997
  155.9326  140.3390  155.6264 H   0  0  0  0  0  0  0  0  0  0  0  0  # atno 8010 bound_to 7997
  140.4025  143.2657  151.9124 H   0  0  0  0  0  0  0  0  0  0  0  0  # atno 10167 bound_to 10162
  157.4460  131.1062  151.0089 H   0  0  0  0  0  0  0  0  0  0  0  0  # atno 10718 bound_to 10713
  154.4203  135.2758  155.1980 H   0  0  0  0  0  0  0  0  0  0  0  0  # atno 10763 bound_to 10752
  154.3928  135.6062  153.5856 H   0  0  0  0  0  0  0  0  0  0  0  0  # atno 10764 bound_to 10752
  152.9833  135.5907  154.4498 H   0  0  0  0  0  0  0  0  0  0  0  0  # atno 10765 bound_to 10752
  140.5635  134.0170  155.7980 H   0  0  0  0  0  0  0  0  0  0  0  0  # atno 11005 bound_to 11000
  144.6734  140.0784  143.7470 LP  0  0  0  0  0  0  0  0  0  0  0  0  # atno 17320 bound_to 7965
  145.9486  139.2718  143.1225 LP  0  0  0  0  0  0  0  0  0  0  0  0  # atno 17321 bound_to 7965
  139.4784  144.5619  151.8225 LP  0  0  0  0  0  0  0  0  0  0  0  0  # atno 17342 bound_to 10162
  140.4725  144.1567  150.5920 LP  0  0  0  0  0  0  0  0  0  0  0  0  # atno 17343 bound_to 10162
  157.0935  130.5952  149.5445 LP  0  0  0  0  0  0  0  0  0  0  0  0  # atno 17370 bound_to 10713
  155.9967  130.5037  150.7508 LP  0  0  0  0  0  0  0  0  0  0  0  0  # atno 17371 bound_to 10713
  141.1100  133.9631  157.2927 LP  0  0  0  0  0  0  0  0  0  0  0  0  # atno 17394 bound_to 11000
  139.9396  135.0192  156.8667 LP  0  0  0  0  0  0  0  0  0  0  0  0  # atno 17395 bound_to 11000

$$$$
