AV-unprocessed.smi:2794|AV-procd|sdf|10776|dock2
  -GOLD-   2272015213D 1   1.00000     0.00000
 Structure written by MMmdl.
 34 35  0  0  0  0  0  0  0  0  1 V2000
  150.5886  137.9478  154.1009 C   0  0  0  0  0  0  0  0  0  0  0  0
  149.7483  139.2059  154.0401 C   0  0  0  0  0  0  0  0  0  0  0  0
  148.6157  139.2823  153.2060 C   0  0  0  0  0  0  0  0  0  0  0  0
  147.8780  140.4796  153.1989 C   0  0  0  0  0  0  0  0  0  0  0  0
  148.2997  141.5428  154.0204 C   0  0  0  0  0  0  0  0  0  0  0  0
  149.4486  141.3841  154.8273 C   0  0  0  0  0  0  0  0  0  0  0  0
  149.7894  142.5144  155.6158 N   0  0  0  0  0  0  0  0  0  0  0  0
  150.8199  142.6584  156.4730 C   0  0  0  0  0  0  0  0  0  0  0  0
  151.6534  141.7882  156.7193 O   0  0  0  0  0  0  0  0  0  0  0  0
  150.8864  143.8688  157.0589 N   0  0  0  0  0  0  0  0  0  0  0  0
  151.8649  144.3627  158.0306 C   0  0  2  0  0  0  0  0  0  0  0  0
  152.3255  143.2417  158.9548 C   0  0  0  0  0  0  0  0  0  0  0  0
  152.4535  143.3758  160.2858 C   0  0  0  0  0  0  0  0  0  0  0  0
  152.1646  144.6666  161.0288 C   0  0  0  0  0  0  0  0  0  0  0  0
  152.0700  145.8731  160.0784 C   0  0  0  0  0  0  0  0  0  0  0  0
  151.2542  145.5409  158.8198 C   0  0  0  0  0  0  0  0  0  0  0  0
  150.1534  140.2255  154.8274 N   0  0  0  0  0  0  0  0  0  0  0  0
  150.2371  137.2020  153.3877 H   0  0  0  0  0  0  0  0  0  0  0  0
  150.5444  137.5122  155.0996 H   0  0  0  0  0  0  0  0  0  0  0  0
  151.6299  138.1745  153.8703 H   0  0  0  0  0  0  0  0  0  0  0  0
  148.3178  138.4481  152.5881 H   0  0  0  0  0  0  0  0  0  0  0  0
  147.0031  140.5819  152.5741 H   0  0  0  0  0  0  0  0  0  0  0  0
  147.7445  142.4695  154.0265 H   0  0  0  0  0  0  0  0  0  0  0  0
  149.1855  143.3159  155.5089 H   0  0  0  0  0  0  0  0  0  0  0  0
  150.1800  144.5344  156.7800 H   0  0  0  0  0  0  0  0  0  0  0  0
  152.7483  144.7316  157.5071 H   0  0  0  0  0  0  0  0  0  0  0  0
  152.5587  142.2918  158.4962 H   0  0  0  0  0  0  0  0  0  0  0  0
  152.7660  142.5310  160.8818 H   0  0  0  0  0  0  0  0  0  0  0  0
  151.2290  144.5403  161.5742 H   0  0  0  0  0  0  0  0  0  0  0  0
  152.9452  144.8387  161.7702 H   0  0  0  0  0  0  0  0  0  0  0  0
  151.6316  146.7238  160.6008 H   0  0  0  0  0  0  0  0  0  0  0  0
  153.0736  146.1793  159.7801 H   0  0  0  0  0  0  0  0  0  0  0  0
  151.1787  146.4196  158.1781 H   0  0  0  0  0  0  0  0  0  0  0  0
  150.2351  145.2954  159.1233 H   0  0  0  0  0  0  0  0  0  0  0  0
  1  2  1  0  0  0  0
  1 18  1  0  0  0  0
  1 19  1  0  0  0  0
  1 20  1  0  0  0  0
  2 17  1  0  0  0  0
  2  3  2  0  0  0  0
  3  4  1  0  0  0  0
  3 21  1  0  0  0  0
  4  5  2  0  0  0  0
  4 22  1  0  0  0  0
  5  6  1  0  0  0  0
  5 23  1  0  0  0  0
  6  7  1  0  0  0  0
  6 17  2  0  0  0  0
  7  8  1  0  0  0  0
  7 24  1  0  0  0  0
  8  9  2  0  0  0  0
  8 10  1  0  0  0  0
 10 11  1  0  0  0  0
 10 25  1  0  0  0  0
 11 16  1  0  0  0  0
 11 12  1  0  0  0  0
 11 26  1  0  0  0  0
 12 13  2  0  0  0  0
 12 27  1  0  0  0  0
 13 14  1  0  0  0  0
 13 28  1  0  0  0  0
 14 15  1  0  0  0  0
 14 29  1  0  0  0  0
 14 30  1  0  0  0  0
 15 16  1  0  0  0  0
 15 31  1  0  0  0  0
 15 32  1  0  0  0  0
 16 33  1  0  0  0  0
 16 34  1  0  0  0  0
M  END
> <s_m_source_file>
AV-unprocessed.smi

> <i_m_source_file_index>
2794

> <i_lp_mmshare_version>
43012

> <i_f3d_flags>
0

> <s_epik_input>
W0NIM11jMVtjSF1bY0hdW2NIXWMobjEpW05IXUMoPU8pW05IXVtDQEBIXTJbQ0hdPVtDSF1bQ0gyXVtDSDJdW0NIMl0y

> <s_epik_cmdline>
J2VwaWtfcHl0aG9uJywgJy1waCcsICc3LjAnLCAnLXRuJywgJzgnLCAnLW1hJywgJzIwMCcsICctbWV0YWxfYmluZGluZycsICctaW1hZScsICc8aW5maWxlLm1hZT4nLCAnLW9tYWUnLCAnPG91dGZpbGUubWFlPic=

> <r_lp_tautomer_probability>
1

> <r_epik_Ionization_Penalty>
8.4544e-05

> <r_epik_Ionization_Penalty_Charging>
0

> <r_epik_Ionization_Penalty_Neutral>
8.4544e-05

> <r_epik_State_Penalty>
-0

> <r_epik_Charging_Adjusted_Penalty>
0

> <i_epik_Tot_Q>
0

> <i_epik_Tot_abs_Q>
0

> <r_epik_Metal_State_Penalty>
-0

> <b_epik_Metal_Only>
0

> <s_lp_Force_Field>
OPLS_2005

> <r_lp_Energy>
18.5134

> <b_lp_Chiralities_Consistent>
1

> <s_lp_Variant>
AV-unprocessed.smi:2794-1

> <Gold.Version>
5.8.1

> <Gold.Id.Protein>
6NUR|6NUR_protein|mol2

> <Gold.PLP.Fitness>
44.3738

> <Gold.PLP.PLP>
-39.3107

> <Gold.PLP.part.hbond>
-2.0000

> <Gold.PLP.part.metal>
0.0000

> <Gold.PLP.part.buried>
-1.0827

> <Gold.PLP.part.nonpolar>
-36.5357

> <Gold.PLP.part.repulsive>
0.1945

> <Gold.PLP.ligand.clash>
0.0038

> <Gold.PLP.ligand.torsion>
0.3381

> <Gold.PLP.Chemscore.Hbond>
1.9120

> <Gold.PLP.Chemscore.CHOScore>
0.0000

> <Gold.PLP.Chemscore.Metal>
0.0000

> <Gold.Chemscore.Hbonds>
donor molecule, donor type, donor heavy atom, donor atom, acceptor molecule, acceptor atom, score
      L1  H     7    24       P1  8028  0.78
      L1  H    10    25       P1  8028  0.85
      P1  H  7989  7998       L1    17  0.45

> <Gold.PLP.Chemscore.Internal.Correction>
0.0071

> <Gold.Rescore>
     Score         DG    S(hbond)    S(metal)    S(lipo)     H(rot)  DE(clash)    DE(int)     intcor
     16.86     -19.88       1.53        0.00     101.35       1.00       0.10       2.92       ----

> <Gold.Chemscore.Fitness>
16.8583

> <Gold.Chemscore.DG>
-19.8823

> <Gold.Chemscore.ZeroCoef>
-5.4800

> <Gold.Chemscore.Hbond>
1.5282

> <Gold.Chemscore.Metal>
0.0000

> <Gold.Chemscore.Lipo>
101.3512

> <Gold.Chemscore.Internal_Hbond>
0.0000

> <Gold.Chemscore.DEClash>
0.1021

> <Gold.Chemscore.DEInternal>
2.9220

> <Gold.Chemscore.Rot>
1.0000

> <Gold.Chemscore.Internal.Correction>
   9.000000E+99

> <Gold.Chemscore.Hbonds>
donor molecule, donor type, donor heavy atom, donor atom, acceptor molecule, acceptor atom, score
      L1  H     7    24       P1  8028  0.74
      L1  H    10    25       P1  8028  0.70
      P1  H  7989  7998       L1    17  0.01

> <Gold.Chemscore.Hbond.Weighted>
-5.1042

> <Gold.Chemscore.Metal.Weighted>
-0.0000

> <Gold.Chemscore.Lipo.Weighted>
-11.8581

> <Gold.Chemscore.Internal_Hbond.Weighted>
0.0000

> <Gold.Chemscore.DEClash.Weighted>
0.1021

> <Gold.Chemscore.DEInternal.Weighted>
2.9220

> <Gold.Chemscore.Rot.Weighted>
2.5600

> <Gold.Chemscore.Internal.Correction.Weighted>
   9.000000E+99

> <Gold.Protein.RotatedTorsions>
[ 6907 6896 6895 6894 ] final  117.63 input  -60.11 | X-H torsion
[ 7974 7965 7964 7962 ] final  -77.10 input  175.53 | X-H torsion
[ 8008 7997 7996 7995 ] final   -1.15 input   59.86 | X-H torsion
[ 10167 10162 10161 10158 ] final   88.45 input  -65.29 | X-H torsion
[ 10718 10713 10712 10709 ] final  162.39 input   66.30 | X-H torsion
[ 10763 10752 10751 10750 ] final  155.97 input  -60.55 | X-H torsion
[ 11005 11000 10999 10996 ] final  174.17 input  -57.11 | X-H torsion

> <Gold.Protein.ActiveResidues>
 VAL166  LYS551  ARG553  GLY616  TRP617  ASP618  TYR619  PRO620  LYS621  CYS622 
 ASP623  PHE694  ASN695  SER759  ASP760  ASP761  ALA762  ILE779  LEU786  VAL792 
 PHE793  MET794  SER795  GLU796  ALA797  LYS798  CYS799  TRP800  GLU811  SER814 

> <Gold.Protein.RotatedAtoms>
  152.4599  133.7800  159.6844 H   0  0  0  0  0  0  0  0  0  0  0  0  # atno 6907 bound_to 6896
  150.8538  133.7736  159.3022 H   0  0  0  0  0  0  0  0  0  0  0  0  # atno 6908 bound_to 6896
  151.5323  135.1071  159.9957 H   0  0  0  0  0  0  0  0  0  0  0  0  # atno 6909 bound_to 6896
  145.6041  140.9402  143.1225 H   0  0  0  0  0  0  0  0  0  0  0  0  # atno 7974 bound_to 7965
  154.6501  140.2566  155.7224 H   0  0  0  0  0  0  0  0  0  0  0  0  # atno 8008 bound_to 7997
  156.2571  140.2870  156.0852 H   0  0  0  0  0  0  0  0  0  0  0  0  # atno 8009 bound_to 7997
  155.1464  140.0381  157.2801 H   0  0  0  0  0  0  0  0  0  0  0  0  # atno 8010 bound_to 7997
  139.8671  144.6513  150.8991 H   0  0  0  0  0  0  0  0  0  0  0  0  # atno 10167 bound_to 10162
  157.1232  131.0498  151.2405 H   0  0  0  0  0  0  0  0  0  0  0  0  # atno 10718 bound_to 10713
  154.1768  135.2801  155.3064 H   0  0  0  0  0  0  0  0  0  0  0  0  # atno 10763 bound_to 10752
  154.6033  135.5522  153.7400 H   0  0  0  0  0  0  0  0  0  0  0  0  # atno 10764 bound_to 10752
  153.0149  135.6397  154.1908 H   0  0  0  0  0  0  0  0  0  0  0  0  # atno 10765 bound_to 10752
  140.3484  134.7216  157.4251 H   0  0  0  0  0  0  0  0  0  0  0  0  # atno 11005 bound_to 11000
  144.7297  139.7763  143.7351 LP  0  0  0  0  0  0  0  0  0  0  0  0  # atno 17320 bound_to 7965
  146.1554  139.4650  143.0022 LP  0  0  0  0  0  0  0  0  0  0  0  0  # atno 17321 bound_to 7965
  140.7766  143.3695  151.1676 LP  0  0  0  0  0  0  0  0  0  0  0  0  # atno 17342 bound_to 10162
  139.7319  143.9060  152.3022 LP  0  0  0  0  0  0  0  0  0  0  0  0  # atno 17343 bound_to 10162
  157.4458  130.7570  149.7108 LP  0  0  0  0  0  0  0  0  0  0  0  0  # atno 17370 bound_to 10713
  155.9824  130.4010  150.3420 LP  0  0  0  0  0  0  0  0  0  0  0  0  # atno 17371 bound_to 10713
  140.0723  134.5845  155.8628 LP  0  0  0  0  0  0  0  0  0  0  0  0  # atno 17394 bound_to 11000
  141.2019  133.6621  156.5976 LP  0  0  0  0  0  0  0  0  0  0  0  0  # atno 17395 bound_to 11000

$$$$
