#       Name:                AV-unprocessed.smi:833
#       Creating user name   scv26
#       Creation time:       Fri Mar 27 01:33:31 2020


#       File generated by GOLD software.
#

@<TRIPOS>MOLECULE
AV-unprocessed.smi:833
    45    46     1
SMALL
NO_CHARGES


@<TRIPOS>ATOM
      1 ****        -2.5355   5.1730   0.4395 C.3            1 S1                 0.0000
      2 ****        -2.1767   3.6824   0.4926 C.3            1 S1                 0.0000
      3 ****        -3.2180   3.0210   1.1816 O.3            1 S1                 0.0000
      4 ****        -0.8503   3.4367   1.2382 C.3            1 S1                 0.0000
      5 ****        -0.3187   2.1022   0.9799 N.am           1 S1                 0.0000
      6 ****         0.3629   1.7429  -0.1169 C.2            1 S1                 0.0000
      7 ****         0.6129   2.5135  -1.0436 O.2            1 S1                 0.0000
      8 ****         0.7066   0.4449  -0.0690 N.am           1 S1                 0.0000
      9 ****         1.4042  -0.3283  -1.0412 C.ar           1 S1                 0.0000
     10 ****         2.3330   0.2548  -1.9384 C.ar           1 S1                 0.0000
     11 ****         2.9765  -0.5559  -2.8894 C.ar           1 S1                 0.0000
     12 ****         2.6718  -1.9267  -2.9095 C.ar           1 S1                 0.0000
     13 ****         1.8064  -2.5008  -2.0505 N.ar           1 S1                 0.0000
     14 ****         1.1890  -1.7345  -1.1177 C.ar           1 S1                 0.0000
     15 ****         0.3116  -2.3948  -0.2276 N.3            1 S1                 0.0000
     16 ****        -0.1754  -3.7372  -0.5280 C.3            1 S1                 0.0000
     17 ****        -0.7343  -4.2585   0.7925 C.3            1 S1                 0.0000
     18 ****         0.2251  -3.6519   1.8117 C.3            1 S1                 0.0000
     19 ****         0.5887  -2.2937   1.2022 C.3            1 S1                 0.0000
     20 ****        -1.7761   5.7376  -0.1022 H              1 S1                 0.0000
     21 ****        -2.6165   5.5999   1.4398 H              1 S1                 0.0000
     22 ****        -3.4866   5.3311  -0.0699 H              1 S1                 0.0000
     23 ****        -2.1254   3.2975  -0.5267 H              1 S1                 0.0000
     24 ****        -3.0332   2.0944   1.1836 H              1 S1                 0.0000
     25 ****        -0.1064   4.1733   0.9291 H              1 S1                 0.0000
     26 ****        -0.9779   3.5724   2.3128 H              1 S1                 0.0000
     27 ****        -0.4838   1.4026   1.6886 H              1 S1                 0.0000
     28 ****         0.3463  -0.0781   0.7156 H              1 S1                 0.0000
     29 ****         2.5702   1.3069  -1.9100 H              1 S1                 0.0000
     30 ****         3.6852  -0.1356  -3.5875 H              1 S1                 0.0000
     31 ****         3.1409  -2.5819  -3.6284 H              1 S1                 0.0000
     32 ****        -0.9342  -3.7188  -1.3109 H              1 S1                 0.0000
     33 ****         0.6399  -4.3835  -0.8550 H              1 S1                 0.0000
     34 ****        -1.7416  -3.8710   0.9518 H              1 S1                 0.0000
     35 ****        -0.7757  -5.3471   0.8376 H              1 S1                 0.0000
     36 ****        -0.2086  -3.5671   2.8082 H              1 S1                 0.0000
     37 ****         1.1195  -4.2720   1.8854 H              1 S1                 0.0000
     38 ****         1.6289  -2.0327   1.4028 H              1 S1                 0.0000
     39 ****        -0.0446  -1.5151   1.6280 H              1 S1                 0.0000
     40 ****        -4.0890   3.1906   0.7205 LP             1 S1                 0.0000
     41 ****        -3.2676   3.3574   2.1220 LP             1 S1                 0.0000
     42 ****         0.3028   3.4632  -1.0016 LP             1 S1                 0.0000
     43 ****         1.1261   2.1897  -1.8385 LP             1 S1                 0.0000
     44 ****         1.6214  -3.4823  -2.1006 LP             1 S1                 0.0000
     45 ****        -0.4469  -1.7847  -0.4564 LP             1 S1                 0.0000
@<TRIPOS>BOND
    1    1    2 1     
    2    1   20 1     
    3    1   21 1     
    4    1   22 1     
    5    2    3 1     
    6    2    4 1     
    7    2   23 1     
    8    3   24 1     
    9    4    5 1     
   10    4   25 1     
   11    4   26 1     
   12    5    6 am    
   13    5   27 1     
   14    6    7 2     
   15    6    8 am    
   16    8    9 1     
   17    8   28 1     
   18    9   14 ar    
   19    9   10 ar    
   20   10   11 ar    
   21   10   29 1     
   22   11   12 ar    
   23   11   30 1     
   24   12   13 ar    
   25   12   31 1     
   26   13   14 ar    
   27   14   15 1     
   28   15   19 1     
   29   15   16 1     
   30   16   17 1     
   31   16   32 1     
   32   16   33 1     
   33   17   18 1     
   34   17   34 1     
   35   17   35 1     
   36   18   19 1     
   37   18   36 1     
   38   18   37 1     
   39   19   38 1     
   40   19   39 1     
   41    3   40 1     
   42    3   41 1     
   43    7   42 1     
   44    7   43 1     
   45   13   44 1     
   46   15   45 1     
@<TRIPOS>SUBSTRUCTURE
      1 S1             1
@<TRIPOS>SET
LONE_PAIRS      STATIC     ATOMS    <user>   **** ""
6 40 41 42 43 44 45
DONOR_HYDROGENS      STATIC     ATOMS    <user>   **** ""
3 24 27 28
ATOM$BLUE        STATIC     ATOMS    COLORGROUP SYSTEM
6 40 41 42 43 44 45
ATOM$RED        STATIC     ATOMS    COLORGROUP SYSTEM
3 24 27 28
