#       Name:                AV-unprocessed.smi:1005
#       Creating user name   scv26
#       Creation time:       Fri Mar 27 02:26:55 2020


#       File generated by GOLD software.
#

@<TRIPOS>MOLECULE
AV-unprocessed.smi:1005
    62    64     1
SMALL
NO_CHARGES


@<TRIPOS>ATOM
      1 ****        -6.9495   4.2809  -0.8041 C.3            1 S1                 0.0000
      2 ****        -5.6108   3.8054  -0.2674 C.ar           1 S1                 0.0000
      3 ****        -5.4928   3.4928   1.1056 C.ar           1 S1                 0.0000
      4 ****        -4.2655   3.0484   1.6443 C.ar           1 S1                 0.0000
      5 ****        -3.9291   2.6924   2.9393 N.2            1 S1                 0.0000
      6 ****        -2.6458   2.3712   2.8036 C.2            1 S1                 0.0000
      7 ****        -2.1098   2.4775   1.5728 N.pl3          1 S1                 0.0000
      8 ****        -0.7398   2.1844   1.1901 C.3            1 S1                 0.0000
      9 ****        -0.4985   0.6798   0.9626 C.3            1 S1                 0.0000
     10 ****        -1.3443   0.2220  -0.0752 O.3            1 S1                 0.0000
     11 ****         0.9659   0.3983   0.5678 C.3            1 S1                 0.0000
     12 ****         1.3471  -1.0143   0.5018 N.3            1 S1                 0.0000
     13 ****         1.3638  -1.6571   1.8140 C.3            1 S1                 0.0000
     14 ****         1.8097  -3.1258   1.7262 C.3            1 S1                 0.0000
     15 ****         3.0814  -3.1983   1.0914 O.3            1 S1                 0.0000
     16 ****         3.0821  -2.6508  -0.2246 C.3            1 S1                 0.0000
     17 ****         4.4910  -2.7995  -0.8311 C.3            1 S1                 0.0000
     18 ****         4.7533  -4.1519  -1.3894 N.4            1 S1                 1.0000
     19 ****         4.8814  -5.2082  -0.3589 C.3            1 S1                 0.0000
     20 ****         5.9124  -4.1524  -2.3098 C.3            1 S1                 0.0000
     21 ****         2.6591  -1.1709  -0.1170 C.3            1 S1                 0.0000
     22 ****        -3.1500   2.9248   0.7651 C.ar           1 S1                 0.0000
     23 ****        -3.2556   3.2311  -0.6033 C.ar           1 S1                 0.0000
     24 ****        -4.4893   3.6733  -1.1251 C.ar           1 S1                 0.0000
     25 ****        -4.5932   4.0012  -2.6040 C.3            1 S1                 0.0000
     26 ****        -7.7002   4.3320  -0.0149 H              1 S1                 0.0000
     27 ****        -7.3170   3.5991  -1.5714 H              1 S1                 0.0000
     28 ****        -6.8548   5.2756  -1.2404 H              1 S1                 0.0000
     29 ****        -6.3470   3.5916   1.7592 H              1 S1                 0.0000
     30 ****        -2.0599   2.0381   3.6479 H              1 S1                 0.0000
     31 ****        -0.4973   2.7536   0.2919 H              1 S1                 0.0000
     32 ****        -0.0823   2.5543   1.9780 H              1 S1                 0.0000
     33 ****        -0.7620   0.1514   1.8778 H              1 S1                 0.0000
     34 ****        -1.1328   0.6926  -0.8665 H              1 S1                 0.0000
     35 ****         1.1480   0.8657  -0.4012 H              1 S1                 0.0000
     36 ****         1.6279   0.9099   1.2683 H              1 S1                 0.0000
     37 ****         2.0349  -1.1162   2.4828 H              1 S1                 0.0000
     38 ****         0.3751  -1.6250   2.2691 H              1 S1                 0.0000
     39 ****         1.8836  -3.5603   2.7231 H              1 S1                 0.0000
     40 ****         1.0824  -3.7195   1.1702 H              1 S1                 0.0000
     41 ****         2.3607  -3.1836  -0.8473 H              1 S1                 0.0000
     42 ****         4.5757  -2.0860  -1.6522 H              1 S1                 0.0000
     43 ****         5.2605  -2.5242  -0.1082 H              1 S1                 0.0000
     44 ****         5.6684  -4.9657   0.3563 H              1 S1                 0.0000
     45 ****         5.1242  -6.1673  -0.8176 H              1 S1                 0.0000
     46 ****         3.9483  -5.3465   0.1856 H              1 S1                 0.0000
     47 ****         6.8295  -3.8851  -1.7830 H              1 S1                 0.0000
     48 ****         5.7643  -3.4407  -3.1228 H              1 S1                 0.0000
     49 ****         6.0499  -5.1369  -2.7584 H              1 S1                 0.0000
     50 ****         2.6457  -0.7287  -1.1140 H              1 S1                 0.0000
     51 ****         3.4063  -0.6200   0.4570 H              1 S1                 0.0000
     52 ****        -2.3942   3.1252  -1.2458 H              1 S1                 0.0000
     53 ****        -3.6462   3.8298  -3.1167 H              1 S1                 0.0000
     54 ****        -4.8652   5.0475  -2.7446 H              1 S1                 0.0000
     55 ****        -5.3497   3.3785  -3.0822 H              1 S1                 0.0000
     56 ****         3.9510  -4.3935  -1.9537 H              1 S1                 0.0000
     57 ****        -4.5003   2.6801   3.7600 LP             1 S1                 0.0000
     58 ****        -2.2993   0.3883   0.1705 LP             1 S1                 0.0000
     59 ****        -1.2026  -0.7576  -0.2178 LP             1 S1                 0.0000
     60 ****         0.6483  -1.4626  -0.0557 LP             1 S1                 0.0000
     61 ****         3.3554  -4.1585   1.0367 LP             1 S1                 0.0000
     62 ****         3.7431  -2.6940   1.6461 LP             1 S1                 0.0000
@<TRIPOS>BOND
    1    1    2 1     
    2    1   26 1     
    3    1   27 1     
    4    1   28 1     
    5    2   24 ar    
    6    2    3 ar    
    7    3    4 ar    
    8    3   29 1     
    9    4   22 ar    
   10    4    5 1     
   11    5    6 2     
   12    6    7 1     
   13    6   30 1     
   14    7    8 1     
   15    7   22 1     
   16    8    9 1     
   17    8   31 1     
   18    8   32 1     
   19    9   10 1     
   20    9   11 1     
   21    9   33 1     
   22   10   34 1     
   23   11   12 1     
   24   11   35 1     
   25   11   36 1     
   26   12   21 1     
   27   12   13 1     
   28   13   14 1     
   29   13   37 1     
   30   13   38 1     
   31   14   15 1     
   32   14   39 1     
   33   14   40 1     
   34   15   16 1     
   35   16   17 1     
   36   16   21 1     
   37   16   41 1     
   38   17   18 1     
   39   17   42 1     
   40   17   43 1     
   41   18   19 1     
   42   18   20 1     
   43   18   56 1     
   44   19   44 1     
   45   19   45 1     
   46   19   46 1     
   47   20   47 1     
   48   20   48 1     
   49   20   49 1     
   50   21   50 1     
   51   21   51 1     
   52   22   23 ar    
   53   23   24 ar    
   54   23   52 1     
   55   24   25 1     
   56   25   53 1     
   57   25   54 1     
   58   25   55 1     
   59    5   57 1     
   60   10   58 1     
   61   10   59 1     
   62   12   60 1     
   63   15   61 1     
   64   15   62 1     
@<TRIPOS>SUBSTRUCTURE
      1 S1             1
@<TRIPOS>SET
LONE_PAIRS      STATIC     ATOMS    <user>   **** ""
6 57 58 59 60 61 62
DONOR_HYDROGENS      STATIC     ATOMS    <user>   **** ""
2 34 56
ATOM$BLUE        STATIC     ATOMS    COLORGROUP SYSTEM
6 57 58 59 60 61 62
ATOM$RED        STATIC     ATOMS    COLORGROUP SYSTEM
2 34 56
