AV-unprocessed.smi:1753|AV-procd|sdf|7062|dock8
  -GOLD-   22720 8283D 1   1.00000     0.00000
 Structure written by MMmdl.
 37 38  0  0  0  0  0  0  0  0  1 V2000
  145.8278  129.4710  152.0455 C   0  0  0  0  0  0  0  0  0  0  0  0
  146.3610  130.8719  152.1055 C   0  0  0  0  0  0  0  0  0  0  0  0
  147.5498  131.3321  152.7430 C   0  0  0  0  0  0  0  0  0  0  0  0
  147.5324  132.6744  152.4792 C   0  0  0  0  0  0  0  0  0  0  0  0
  148.4266  133.6301  152.8470 N   0  0  0  0  0  0  0  0  0  0  0  0
  149.3769  133.5713  153.7960 C   0  0  0  0  0  0  0  0  0  0  0  0
  149.6141  132.5981  154.5117 O   0  0  0  0  0  0  0  0  0  0  0  0
  150.0514  134.7271  153.8768 N   0  0  0  0  0  0  0  0  0  0  0  0
  151.1385  134.9998  154.8116 C   0  0  0  0  0  0  0  0  0  0  0  0
  151.2847  136.5027  155.1246 C   0  0  2  0  0  0  0  0  0  0  0  0
  151.7698  137.3394  153.9219 C   0  0  0  0  0  0  0  0  0  0  0  0
  152.1559  138.7342  154.4221 C   0  0  0  0  0  0  0  0  0  0  0  0
  152.8599  138.4783  156.0922 S   0  0  0  0  0  0  0  0  0  0  0  0
  154.3277  138.4483  156.0048 O   0  0  0  0  0  0  0  0  0  0  0  0
  152.1758  139.3675  157.0432 O   0  0  0  0  0  0  0  0  0  0  0  0
  152.2434  136.7634  156.2977 C   0  0  0  0  0  0  0  0  0  0  0  0
  146.4092  132.9680  151.7385 N   0  0  0  0  0  0  0  0  0  0  0  0
  145.9542  134.2443  151.2226 C   0  0  0  0  0  0  0  0  0  0  0  0
  145.6873  131.8497  151.5099 N   0  0  0  0  0  0  0  0  0  0  0  0
  146.4606  128.7842  152.6079 H   0  0  0  0  0  0  0  0  0  0  0  0
  145.7820  129.1126  151.0169 H   0  0  0  0  0  0  0  0  0  0  0  0
  144.8230  129.4143  152.4649 H   0  0  0  0  0  0  0  0  0  0  0  0
  148.2770  130.7562  153.2953 H   0  0  0  0  0  0  0  0  0  0  0  0
  148.3582  134.4995  152.3389 H   0  0  0  0  0  0  0  0  0  0  0  0
  149.7941  135.4743  153.2487 H   0  0  0  0  0  0  0  0  0  0  0  0
  150.9813  134.4354  155.7324 H   0  0  0  0  0  0  0  0  0  0  0  0
  152.0607  134.6187  154.3725 H   0  0  0  0  0  0  0  0  0  0  0  0
  150.3098  136.8958  155.4173 H   0  0  0  0  0  0  0  0  0  0  0  0
  152.6493  136.8642  153.4855 H   0  0  0  0  0  0  0  0  0  0  0  0
  151.0159  137.3992  153.1362 H   0  0  0  0  0  0  0  0  0  0  0  0
  152.8776  139.2378  153.7787 H   0  0  0  0  0  0  0  0  0  0  0  0
  151.2731  139.3663  154.5214 H   0  0  0  0  0  0  0  0  0  0  0  0
  151.7622  136.6520  157.2695 H   0  0  0  0  0  0  0  0  0  0  0  0
  153.1050  136.0962  156.2604 H   0  0  0  0  0  0  0  0  0  0  0  0
  146.7344  134.6888  150.6040 H   0  0  0  0  0  0  0  0  0  0  0  0
  145.7307  134.9153  152.0525 H   0  0  0  0  0  0  0  0  0  0  0  0
  145.0548  134.1161  150.6182 H   0  0  0  0  0  0  0  0  0  0  0  0
  1  2  1  0  0  0  0
  1 20  1  0  0  0  0
  1 21  1  0  0  0  0
  1 22  1  0  0  0  0
  2 19  2  0  0  0  0
  2  3  1  0  0  0  0
  3  4  2  0  0  0  0
  3 23  1  0  0  0  0
  4  5  1  0  0  0  0
  4 17  1  0  0  0  0
  5  6  1  0  0  0  0
  5 24  1  0  0  0  0
  6  7  2  0  0  0  0
  6  8  1  0  0  0  0
  8  9  1  0  0  0  0
  8 25  1  0  0  0  0
  9 10  1  0  0  0  0
  9 26  1  0  0  0  0
  9 27  1  0  0  0  0
 10 16  1  0  0  0  0
 10 11  1  0  0  0  0
 10 28  1  0  0  0  0
 11 12  1  0  0  0  0
 11 29  1  0  0  0  0
 11 30  1  0  0  0  0
 12 13  1  0  0  0  0
 12 31  1  0  0  0  0
 12 32  1  0  0  0  0
 13 14  2  0  0  0  0
 13 15  2  0  0  0  0
 13 16  1  0  0  0  0
 16 33  1  0  0  0  0
 16 34  1  0  0  0  0
 17 18  1  0  0  0  0
 17 19  1  0  0  0  0
 18 35  1  0  0  0  0
 18 36  1  0  0  0  0
 18 37  1  0  0  0  0
M  END
> <s_m_source_file>
AV-unprocessed.smi

> <i_m_source_file_index>
1753

> <i_lp_mmshare_version>
43012

> <i_f3d_flags>
0

> <s_epik_input>
W0NIM11jMVtjSF1jKG4objEpW0NIM10pW05IXUMoPU8pW05IXVtDSDJdW0NAQEhdKFtDSDJdMilbQ0gyXVtDSDJdUzIoPU8pPU8=

> <s_epik_cmdline>
J2VwaWtfcHl0aG9uJywgJy1waCcsICc3LjAnLCAnLXRuJywgJzgnLCAnLW1hJywgJzIwMCcsICctbWV0YWxfYmluZGluZycsICctaW1hZScsICc8aW5maWxlLm1hZT4nLCAnLW9tYWUnLCAnPG91dGZpbGUubWFlPic=

> <r_lp_tautomer_probability>
1

> <r_epik_Ionization_Penalty>
9.06651e-05

> <r_epik_Ionization_Penalty_Charging>
0

> <r_epik_Ionization_Penalty_Neutral>
9.06651e-05

> <r_epik_State_Penalty>
-0

> <r_epik_Charging_Adjusted_Penalty>
0

> <i_epik_Tot_Q>
0

> <i_epik_Tot_abs_Q>
0

> <r_epik_Metal_State_Penalty>
-0

> <b_epik_Metal_Only>
0

> <s_lp_Force_Field>
OPLS_2005

> <r_lp_Energy>
5.34898

> <b_lp_Chiralities_Consistent>
1

> <s_lp_Variant>
AV-unprocessed.smi:1753-1

> <Gold.Version>
5.8.1

> <Gold.Id.Protein>
6NUR|6NUR_protein|mol2

> <Gold.PLP.Fitness>
39.9132

> <Gold.PLP.PLP>
-31.4807

> <Gold.PLP.part.hbond>
-2.8049

> <Gold.PLP.part.metal>
0.0000

> <Gold.PLP.part.buried>
-3.1632

> <Gold.PLP.part.nonpolar>
-24.9119

> <Gold.PLP.part.repulsive>
0.1763

> <Gold.PLP.ligand.clash>
0.0000

> <Gold.PLP.ligand.torsion>
0.2857

> <Gold.PLP.Chemscore.Hbond>
3.0000

> <Gold.PLP.Chemscore.CHOScore>
0.0000

> <Gold.PLP.Chemscore.Metal>
0.0000

> <Gold.Chemscore.Hbonds>
donor molecule, donor type, donor heavy atom, donor atom, acceptor molecule, acceptor atom, score
      L1  H     5    24       P1  7948  0.70
      L1  H     8    25       P1  7948  0.30
      P1  H  7997  8010       L1    14  0.16

> <Gold.PLP.Chemscore.Internal.Correction>
0.0039

> <Gold.Rescore>
     Score         DG    S(hbond)    S(metal)    S(lipo)     H(rot)  DE(clash)    DE(int)     intcor
     16.21     -16.69       2.60        0.00      50.18       1.31       0.00       0.48       ----

> <Gold.Chemscore.Fitness>
16.2099

> <Gold.Chemscore.DG>
-16.6900

> <Gold.Chemscore.ZeroCoef>
-5.4800

> <Gold.Chemscore.Hbond>
2.6009

> <Gold.Chemscore.Metal>
0.0000

> <Gold.Chemscore.Lipo>
50.1844

> <Gold.Chemscore.Internal_Hbond>
0.0000

> <Gold.Chemscore.DEClash>
0.0000

> <Gold.Chemscore.DEInternal>
0.4801

> <Gold.Chemscore.Rot>
1.3080

> <Gold.Chemscore.Internal.Correction>
   9.000000E+99

> <Gold.Chemscore.Hbonds>
donor molecule, donor type, donor heavy atom, donor atom, acceptor molecule, acceptor atom, score
      L1  H     5    24       P1  7948  0.07
      P1  H  7997  8010       L1    14  0.01

> <Gold.Chemscore.Hbond.Weighted>
-8.6869

> <Gold.Chemscore.Metal.Weighted>
-0.0000

> <Gold.Chemscore.Lipo.Weighted>
-5.8716

> <Gold.Chemscore.Internal_Hbond.Weighted>
0.0000

> <Gold.Chemscore.DEClash.Weighted>
0.0000

> <Gold.Chemscore.DEInternal.Weighted>
0.4801

> <Gold.Chemscore.Rot.Weighted>
3.3485

> <Gold.Chemscore.Internal.Correction.Weighted>
   9.000000E+99

> <Gold.Protein.RotatedTorsions>
[ 6907 6896 6895 6894 ] final   32.12 input  -60.11 | X-H torsion
[ 7974 7965 7964 7962 ] final   77.75 input  175.53 | X-H torsion
[ 8008 7997 7996 7995 ] final   71.32 input   59.86 | X-H torsion
[ 10167 10162 10161 10158 ] final  103.08 input  -65.29 | X-H torsion
[ 10718 10713 10712 10709 ] final  -44.50 input   66.30 | X-H torsion
[ 10763 10752 10751 10750 ] final  -90.95 input  -60.55 | X-H torsion
[ 11005 11000 10999 10996 ] final  -86.38 input  -57.11 | X-H torsion

> <Gold.Protein.ActiveResidues>
 VAL166  LYS551  ARG553  GLY616  TRP617  ASP618  TYR619  PRO620  LYS621  CYS622 
 ASP623  PHE694  ASN695  SER759  ASP760  ASP761  ALA762  ILE779  LEU786  VAL792 
 PHE793  MET794  SER795  GLU796  ALA797  LYS798  CYS799  TRP800  GLU811  SER814 

> <Gold.Protein.RotatedAtoms>
  152.0699  134.9540  160.0574 H   0  0  0  0  0  0  0  0  0  0  0  0  # atno 6907 bound_to 6896
  152.0870  133.4176  159.4535 H   0  0  0  0  0  0  0  0  0  0  0  0  # atno 6908 bound_to 6896
  150.6836  134.2835  159.4680 H   0  0  0  0  0  0  0  0  0  0  0  0  # atno 6909 bound_to 6896
  145.6860  139.2538  143.1787 H   0  0  0  0  0  0  0  0  0  0  0  0  # atno 7974 bound_to 7965
  155.7522  140.3488  155.5156 H   0  0  0  0  0  0  0  0  0  0  0  0  # atno 8008 bound_to 7997
  155.8994  140.1031  157.1382 H   0  0  0  0  0  0  0  0  0  0  0  0  # atno 8009 bound_to 7997
  154.4042  140.1289  156.4404 H   0  0  0  0  0  0  0  0  0  0  0  0  # atno 8010 bound_to 7997
  139.7294  144.7039  151.0746 H   0  0  0  0  0  0  0  0  0  0  0  0  # atno 10167 bound_to 10162
  156.2379  130.4177  149.8796 H   0  0  0  0  0  0  0  0  0  0  0  0  # atno 10718 bound_to 10713
  154.6710  135.5286  153.8139 H   0  0  0  0  0  0  0  0  0  0  0  0  # atno 10763 bound_to 10752
  153.0502  135.6529  154.0724 H   0  0  0  0  0  0  0  0  0  0  0  0  # atno 10764 bound_to 10752
  154.0623  135.2961  155.3302 H   0  0  0  0  0  0  0  0  0  0  0  0  # atno 10765 bound_to 10752
  141.1631  133.7451  156.9152 H   0  0  0  0  0  0  0  0  0  0  0  0  # atno 11005 bound_to 11000
  146.0923  140.7641  142.9589 LP  0  0  0  0  0  0  0  0  0  0  0  0  # atno 17320 bound_to 7965
  144.7011  140.3657  143.7155 LP  0  0  0  0  0  0  0  0  0  0  0  0  # atno 17321 bound_to 7965
  140.7768  143.5063  150.9708 LP  0  0  0  0  0  0  0  0  0  0  0  0  # atno 17342 bound_to 10162
  139.8751  143.7143  152.3163 LP  0  0  0  0  0  0  0  0  0  0  0  0  # atno 17343 bound_to 10162
  156.6387  130.8696  151.3510 LP  0  0  0  0  0  0  0  0  0  0  0  0  # atno 17370 bound_to 10713
  157.7162  130.9500  150.1265 LP  0  0  0  0  0  0  0  0  0  0  0  0  # atno 17371 bound_to 10713
  140.1489  134.9243  157.2567 LP  0  0  0  0  0  0  0  0  0  0  0  0  # atno 17394 bound_to 11000
  140.2746  134.3420  155.7362 LP  0  0  0  0  0  0  0  0  0  0  0  0  # atno 17395 bound_to 11000

$$$$
