AV-unprocessed.smi:221|AV-procd|sdf|1697|dock7
  -GOLD-   2262020153D 1   1.00000     0.00000
 Structure written by MMmdl.
 50 53  0  0  0  0  0  0  0  0  1 V2000
  144.3753  132.9957  160.2934 N   0  0  0  0  0  0  0  0  0  0  0  0
  144.7703  134.2006  159.8687 C   0  0  0  0  0  0  0  0  0  0  0  0
  144.4139  134.6468  158.7805 O   0  0  0  0  0  0  0  0  0  0  0  0
  145.6979  135.0398  160.7698 C   0  0  1  0  0  0  0  0  0  0  0  0
  146.0352  134.2831  162.0652 C   0  0  0  0  0  0  0  0  0  0  0  0
  147.3683  134.8808  162.5015 C   0  0  2  0  0  0  0  0  0  0  0  0
  147.1525  136.0306  163.1426 F   0  0  0  0  0  0  0  0  0  0  0  0
  148.0757  135.1622  161.1765 C   0  0  0  0  0  0  0  0  0  0  0  0
  147.0143  135.3462  160.1919 N   0  0  0  0  0  0  0  0  0  0  0  0
  147.1826  136.2797  159.2159 C   0  0  0  0  0  0  0  0  0  0  0  0
  146.1078  136.6999  158.4971 N   0  0  0  0  0  0  0  0  0  0  0  0
  146.2499  137.6123  157.5319 C   0  0  0  0  0  0  0  0  0  0  0  0
  147.3613  138.2228  157.1184 N   0  0  0  0  0  0  0  0  0  0  0  0
  148.4472  137.7993  157.8254 C   0  0  0  0  0  0  0  0  0  0  0  0
  148.4486  136.8425  158.8804 C   0  0  0  0  0  0  0  0  0  0  0  0
  149.7463  136.6635  159.3481 N   0  0  0  0  0  0  0  0  0  0  0  0
  150.4656  137.4739  158.6213 C   0  0  0  0  0  0  0  0  0  0  0  0
  149.7664  138.1872  157.6749 N   0  0  0  0  0  0  0  0  0  0  0  0
  150.3080  139.1470  156.7289 C   0  0  0  0  0  0  0  0  0  0  0  0
  150.6568  138.5092  155.3590 C   0  0  2  0  0  0  0  0  0  0  0  0
  152.1857  138.4627  155.1307 C   0  0  0  0  0  0  0  0  0  0  0  0
  152.7179  139.7588  154.9526 O   0  0  0  0  0  0  0  0  0  0  0  0
  149.9133  139.1711  154.1662 C   0  0  1  0  0  0  0  0  0  0  0  0
  148.5363  138.5932  153.8384 C   0  0  0  0  0  0  0  0  0  0  0  0
  147.6695  139.8238  153.5591 C   0  0  0  0  0  0  0  0  0  0  0  0
  148.5952  140.8798  153.3523 O   0  0  0  0  0  0  0  0  0  0  0  0
  149.6561  140.6780  154.2699 C   0  0  0  0  0  0  0  0  0  0  0  0
  145.1919  135.9707  161.0319 H   0  0  0  0  0  0  0  0  0  0  0  0
  147.9391  134.2339  163.1680 H   0  0  0  0  0  0  0  0  0  0  0  0
  143.7710  132.4325  159.7130 H   0  0  0  0  0  0  0  0  0  0  0  0
  144.6860  132.6526  161.1906 H   0  0  0  0  0  0  0  0  0  0  0  0
  145.2607  134.3843  162.8263 H   0  0  0  0  0  0  0  0  0  0  0  0
  146.1686  133.2175  161.8687 H   0  0  0  0  0  0  0  0  0  0  0  0
  148.7386  136.0249  161.2619 H   0  0  0  0  0  0  0  0  0  0  0  0
  148.6765  134.3031  160.8765 H   0  0  0  0  0  0  0  0  0  0  0  0
  145.3430  137.8915  157.0160 H   0  0  0  0  0  0  0  0  0  0  0  0
  151.5344  137.5657  158.7495 H   0  0  0  0  0  0  0  0  0  0  0  0
  149.5761  139.9464  156.6205 H   0  0  0  0  0  0  0  0  0  0  0  0
  151.1920  139.5997  157.1781 H   0  0  0  0  0  0  0  0  0  0  0  0
  150.3138  137.4741  155.3956 H   0  0  0  0  0  0  0  0  0  0  0  0
  152.6897  137.9755  155.9656 H   0  0  0  0  0  0  0  0  0  0  0  0
  152.4315  137.8933  154.2350 H   0  0  0  0  0  0  0  0  0  0  0  0
  152.5778  140.0219  154.0560 H   0  0  0  0  0  0  0  0  0  0  0  0
  150.5118  139.0222  153.2664 H   0  0  0  0  0  0  0  0  0  0  0  0
  148.5994  137.9550  152.9563 H   0  0  0  0  0  0  0  0  0  0  0  0
  148.1098  137.9902  154.6390 H   0  0  0  0  0  0  0  0  0  0  0  0
  147.0166  139.6913  152.6962 H   0  0  0  0  0  0  0  0  0  0  0  0
  147.0477  140.0583  154.4242 H   0  0  0  0  0  0  0  0  0  0  0  0
  149.3210  140.9798  155.2619 H   0  0  0  0  0  0  0  0  0  0  0  0
  150.5305  141.2737  154.0069 H   0  0  0  0  0  0  0  0  0  0  0  0
  1  2  1  0  0  0  0
  1 30  1  0  0  0  0
  1 31  1  0  0  0  0
  2  3  2  0  0  0  0
  2  4  1  0  0  0  0
  4 28  1  0  0  0  0
  4  9  1  0  0  0  0
  4  5  1  0  0  0  0
  5  6  1  0  0  0  0
  5 32  1  0  0  0  0
  5 33  1  0  0  0  0
  6 29  1  0  0  0  0
  6  7  1  0  0  0  0
  6  8  1  0  0  0  0
  8  9  1  0  0  0  0
  8 34  1  0  0  0  0
  8 35  1  0  0  0  0
  9 10  1  0  0  0  0
 10 15  1  0  0  0  0
 10 11  2  0  0  0  0
 11 12  1  0  0  0  0
 12 13  2  0  0  0  0
 12 36  1  0  0  0  0
 13 14  1  0  0  0  0
 14 18  1  0  0  0  0
 14 15  2  0  0  0  0
 15 16  1  0  0  0  0
 16 17  2  0  0  0  0
 17 18  1  0  0  0  0
 17 37  1  0  0  0  0
 18 19  1  0  0  0  0
 19 20  1  0  0  0  0
 19 38  1  0  0  0  0
 19 39  1  0  0  0  0
 20 21  1  0  0  0  0
 20 23  1  0  0  0  0
 20 40  1  0  0  0  0
 21 22  1  0  0  0  0
 21 41  1  0  0  0  0
 21 42  1  0  0  0  0
 22 43  1  0  0  0  0
 23 27  1  0  0  0  0
 23 24  1  0  0  0  0
 23 44  1  0  0  0  0
 24 25  1  0  0  0  0
 24 45  1  0  0  0  0
 24 46  1  0  0  0  0
 25 26  1  0  0  0  0
 25 47  1  0  0  0  0
 25 48  1  0  0  0  0
 26 27  1  0  0  0  0
 27 49  1  0  0  0  0
 27 50  1  0  0  0  0
M  END
> <s_m_source_file>
AV-unprocessed.smi

> <i_m_source_file_index>
221

> <i_lp_mmshare_version>
43012

> <i_f3d_flags>
0

> <s_epik_input>
W05IMl1DKD1PKVtDQEBIXTFbQ0gyXVtDQEBIXShGKVtDSDJdTjFjKG5bY0hdbjIpYyhjMjMpbltjSF1uM1tDSDJdW0NASF0oW0NIMl1bT0hdKVtDQEBIXTRbQ0gyXVtDSDJdT1tDSDJdNA==

> <s_epik_cmdline>
J2VwaWtfcHl0aG9uJywgJy1waCcsICc3LjAnLCAnLXRuJywgJzgnLCAnLW1hJywgJzIwMCcsICctbWV0YWxfYmluZGluZycsICctaW1hZScsICc8aW5maWxlLm1hZT4nLCAnLW9tYWUnLCAnPG91dGZpbGUubWFlPic=

> <r_lp_tautomer_probability>
1

> <r_epik_Ionization_Penalty>
0.000818822

> <r_epik_Ionization_Penalty_Charging>
0

> <r_epik_Ionization_Penalty_Neutral>
0.000818822

> <r_epik_State_Penalty>
0.000440551

> <r_epik_Charging_Adjusted_Penalty>
0.000440551

> <i_epik_Tot_Q>
0

> <i_epik_Tot_abs_Q>
0

> <r_epik_Metal_State_Penalty>
-0

> <b_epik_Metal_Only>
0

> <s_lp_Force_Field>
OPLS_2005

> <r_lp_Energy>
49.9883

> <b_lp_Chiralities_Consistent>
1

> <s_lp_Variant>
AV-unprocessed.smi:221-12

> <Gold.Version>
5.8.1

> <Gold.Id.Protein>
6NUR|6NUR_protein|mol2

> <Gold.PLP.Fitness>
40.8467

> <Gold.PLP.PLP>
-36.3171

> <Gold.PLP.part.hbond>
-4.0892

> <Gold.PLP.part.metal>
0.0000

> <Gold.PLP.part.buried>
-3.9135

> <Gold.PLP.part.nonpolar>
-28.5024

> <Gold.PLP.part.repulsive>
0.2883

> <Gold.PLP.ligand.clash>
0.0690

> <Gold.PLP.ligand.torsion>
2.0039

> <Gold.PLP.Chemscore.Hbond>
2.7520

> <Gold.PLP.Chemscore.CHOScore>
0.0000

> <Gold.PLP.Chemscore.Metal>
0.0000

> <Gold.Chemscore.Hbonds>
donor molecule, donor type, donor heavy atom, donor atom, acceptor molecule, acceptor atom, score
      P1  H  6896  6907       L1    16  0.60
      P1  H  7997  8008       L1    22  0.84
      P1  H  8011  8017       L1    26  0.29

> <Gold.PLP.Chemscore.Internal.Correction>
0.3504

> <Gold.Rescore>
     Score         DG    S(hbond)    S(metal)    S(lipo)     H(rot)  DE(clash)    DE(int)     intcor
      7.06     -13.02       2.11        0.00      76.57       3.31       1.22       4.74       ----

> <Gold.Chemscore.Fitness>
7.0646

> <Gold.Chemscore.DG>
-13.0211

> <Gold.Chemscore.ZeroCoef>
-5.4800

> <Gold.Chemscore.Hbond>
2.1117

> <Gold.Chemscore.Metal>
0.0000

> <Gold.Chemscore.Lipo>
76.5715

> <Gold.Chemscore.Internal_Hbond>
0.0000

> <Gold.Chemscore.DEClash>
1.2150

> <Gold.Chemscore.DEInternal>
4.7414

> <Gold.Chemscore.Rot>
3.3089

> <Gold.Chemscore.Internal.Correction>
   9.000000E+99

> <Gold.Chemscore.Hbonds>
donor molecule, donor type, donor heavy atom, donor atom, acceptor molecule, acceptor atom, score
      P1  H  6896  6907       L1    16  0.46
      P1  H  7997  8008       L1    22  0.68
      P1  H  8011  8017       L1    26  0.01

> <Gold.Chemscore.Hbond.Weighted>
-7.0531

> <Gold.Chemscore.Metal.Weighted>
-0.0000

> <Gold.Chemscore.Lipo.Weighted>
-8.9589

> <Gold.Chemscore.Internal_Hbond.Weighted>
0.0000

> <Gold.Chemscore.DEClash.Weighted>
1.2150

> <Gold.Chemscore.DEInternal.Weighted>
4.7414

> <Gold.Chemscore.Rot.Weighted>
8.4709

> <Gold.Chemscore.Internal.Correction.Weighted>
   9.000000E+99

> <Gold.Protein.RotatedTorsions>
[ 6907 6896 6895 6894 ] final  -60.79 input  -60.11 | X-H torsion
[ 7974 7965 7964 7962 ] final -126.03 input  175.53 | X-H torsion
[ 8008 7997 7996 7995 ] final  -36.47 input   59.86 | X-H torsion
[ 10167 10162 10161 10158 ] final   12.64 input  -65.29 | X-H torsion
[ 10718 10713 10712 10709 ] final  130.05 input   66.30 | X-H torsion
[ 10763 10752 10751 10750 ] final   57.50 input  -60.55 | X-H torsion
[ 11005 11000 10999 10996 ] final   99.13 input  -57.11 | X-H torsion

> <Gold.Protein.ActiveResidues>
 VAL166  LYS551  ARG553  GLY616  TRP617  ASP618  TYR619  PRO620  LYS621  CYS622 
 ASP623  PHE694  ASN695  SER759  ASP760  ASP761  ALA762  ILE779  LEU786  VAL792 
 PHE793  MET794  SER795  GLU796  ALA797  LYS798  CYS799  TRP800  GLU811  SER814 

> <Gold.Protein.RotatedAtoms>
  150.7831  134.6790  159.6433 H   0  0  0  0  0  0  0  0  0  0  0  0  # atno 6907 bound_to 6896
  152.3920  134.6423  160.0113 H   0  0  0  0  0  0  0  0  0  0  0  0  # atno 6908 bound_to 6896
  151.6720  133.3277  159.3235 H   0  0  0  0  0  0  0  0  0  0  0  0  # atno 6909 bound_to 6896
  144.9915  140.7736  143.4551 H   0  0  0  0  0  0  0  0  0  0  0  0  # atno 7974 bound_to 7965
  154.4072  140.1630  156.2380 H   0  0  0  0  0  0  0  0  0  0  0  0  # atno 8008 bound_to 7997
  155.9226  140.3420  155.6162 H   0  0  0  0  0  0  0  0  0  0  0  0  # atno 8009 bound_to 7997
  155.7204  140.0767  157.2324 H   0  0  0  0  0  0  0  0  0  0  0  0  # atno 8010 bound_to 7997
  140.6055  143.8517  150.7009 H   0  0  0  0  0  0  0  0  0  0  0  0  # atno 10167 bound_to 10162
  157.5097  131.1096  150.9310 H   0  0  0  0  0  0  0  0  0  0  0  0  # atno 10718 bound_to 10713
  152.9851  135.5639  154.5401 H   0  0  0  0  0  0  0  0  0  0  0  0  # atno 10763 bound_to 10752
  154.4857  135.2790  155.1538 H   0  0  0  0  0  0  0  0  0  0  0  0  # atno 10764 bound_to 10752
  154.3028  135.6304  153.5485 H   0  0  0  0  0  0  0  0  0  0  0  0  # atno 10765 bound_to 10752
  139.8771  134.9081  156.4559 H   0  0  0  0  0  0  0  0  0  0  0  0  # atno 11005 bound_to 11000
  145.2279  139.2128  143.5058 LP  0  0  0  0  0  0  0  0  0  0  0  0  # atno 17320 bound_to 7965
  146.3432  140.2150  142.8590 LP  0  0  0  0  0  0  0  0  0  0  0  0  # atno 17321 bound_to 7965
  140.2073  143.3911  152.1745 LP  0  0  0  0  0  0  0  0  0  0  0  0  # atno 17342 bound_to 10162
  139.5321  144.7171  151.5018 LP  0  0  0  0  0  0  0  0  0  0  0  0  # atno 17343 bound_to 10162
  156.9954  130.5579  149.5307 LP  0  0  0  0  0  0  0  0  0  0  0  0  # atno 17370 bound_to 10713
  156.0281  130.5374  150.8462 LP  0  0  0  0  0  0  0  0  0  0  0  0  # atno 17371 bound_to 10713
  140.8898  133.7856  155.9559 LP  0  0  0  0  0  0  0  0  0  0  0  0  # atno 17394 bound_to 11000
  140.8765  134.2663  157.5165 LP  0  0  0  0  0  0  0  0  0  0  0  0  # atno 17395 bound_to 11000

$$$$
