AV-unprocessed.smi:3032|AV-procd|sdf|11560|dock7
  -GOLD-   2272016523D 1   1.00000     0.00000
 Structure written by MMmdl.
 37 38  0  0  0  0  0  0  0  0  1 V2000
  153.0032  142.7521  162.3820 C   0  0  0  0  0  0  0  0  0  0  0  0
  152.3144  143.1797  161.0781 C   0  0  1  0  0  0  0  0  0  0  0  0
  152.2052  144.7125  160.9785 C   0  0  0  0  0  0  0  0  0  0  0  0
  151.5169  145.1468  159.6761 C   0  0  0  0  0  0  0  0  0  0  0  0
  152.2427  144.5795  158.4425 C   0  0  0  0  0  0  0  0  0  0  0  0
  152.4394  143.0461  158.4913 C   0  0  2  0  0  0  0  0  0  0  0  0
  151.1585  142.2652  158.1410 C   0  0  0  0  0  0  0  0  0  0  0  0
  150.7001  141.4207  158.9101 O   0  0  0  0  0  0  0  0  0  0  0  0
  150.5887  142.5581  156.9614 N   0  0  0  0  0  0  0  0  0  0  0  0
  149.3894  141.9228  156.4274 C   0  0  0  0  0  0  0  0  0  0  0  0
  149.6396  141.3275  155.0323 C   0  0  0  0  0  0  0  0  0  0  0  0
  148.4165  140.6993  154.4491 C   0  0  0  0  0  0  0  0  0  0  0  0
  148.4272  140.0798  153.2672 N   0  0  0  0  0  0  0  0  0  0  0  0
  147.1870  139.6244  152.9914 N   0  0  0  0  0  0  0  0  0  0  0  0
  146.5002  140.0208  154.0613 C   0  0  0  0  0  0  0  0  0  0  0  0
  147.2113  140.7029  155.0087 N   0  0  0  0  0  0  0  0  0  0  0  0
  153.0491  142.6098  159.8447 C   0  0  0  0  0  0  0  0  0  0  0  0
  149.2139  139.9489  152.6472 H   0  0  0  0  0  0  0  0  0  0  0  0
  154.0247  143.1303  162.4344 H   0  0  0  0  0  0  0  0  0  0  0  0
  153.0452  141.6659  162.4651 H   0  0  0  0  0  0  0  0  0  0  0  0
  152.4646  143.1279  163.2521 H   0  0  0  0  0  0  0  0  0  0  0  0
  151.3044  142.7710  161.1038 H   0  0  0  0  0  0  0  0  0  0  0  0
  151.6490  145.1032  161.8313 H   0  0  0  0  0  0  0  0  0  0  0  0
  153.2001  145.1574  161.0290 H   0  0  0  0  0  0  0  0  0  0  0  0
  150.4753  144.8260  159.6852 H   0  0  0  0  0  0  0  0  0  0  0  0
  151.4945  146.2354  159.6185 H   0  0  0  0  0  0  0  0  0  0  0  0
  151.7038  144.8634  157.5375 H   0  0  0  0  0  0  0  0  0  0  0  0
  153.2215  145.0544  158.3647 H   0  0  0  0  0  0  0  0  0  0  0  0
  153.1717  142.7990  157.7205 H   0  0  0  0  0  0  0  0  0  0  0  0
  151.0227  143.2677  156.3889 H   0  0  0  0  0  0  0  0  0  0  0  0
  149.0331  141.1537  157.1148 H   0  0  0  0  0  0  0  0  0  0  0  0
  148.6053  142.6781  156.3724 H   0  0  0  0  0  0  0  0  0  0  0  0
  149.9967  142.1022  154.3526 H   0  0  0  0  0  0  0  0  0  0  0  0
  150.4244  140.5714  155.0789 H   0  0  0  0  0  0  0  0  0  0  0  0
  145.4452  139.8127  154.1640 H   0  0  0  0  0  0  0  0  0  0  0  0
  154.0913  142.9311  159.8740 H   0  0  0  0  0  0  0  0  0  0  0  0
  153.0754  141.5205  159.9045 H   0  0  0  0  0  0  0  0  0  0  0  0
  1  2  1  0  0  0  0
  1 19  1  0  0  0  0
  1 20  1  0  0  0  0
  1 21  1  0  0  0  0
  2 17  1  0  0  0  0
  2  3  1  0  0  0  0
  2 22  1  0  0  0  0
  3  4  1  0  0  0  0
  3 23  1  0  0  0  0
  3 24  1  0  0  0  0
  4  5  1  0  0  0  0
  4 25  1  0  0  0  0
  4 26  1  0  0  0  0
  5  6  1  0  0  0  0
  5 27  1  0  0  0  0
  5 28  1  0  0  0  0
  6  7  1  0  0  0  0
  6 17  1  0  0  0  0
  6 29  1  0  0  0  0
  7  8  2  0  0  0  0
  7  9  1  0  0  0  0
  9 10  1  0  0  0  0
  9 30  1  0  0  0  0
 10 11  1  0  0  0  0
 10 31  1  0  0  0  0
 10 32  1  0  0  0  0
 11 33  1  0  0  0  0
 11 34  1  0  0  0  0
 11 12  1  0  0  0  0
 12 16  2  0  0  0  0
 12 13  1  0  0  0  0
 13 18  1  0  0  0  0
 13 14  1  0  0  0  0
 14 15  2  0  0  0  0
 15 16  1  0  0  0  0
 15 35  1  0  0  0  0
 17 36  1  0  0  0  0
 17 37  1  0  0  0  0
M  END
> <s_m_source_file>
AV-unprocessed.smi

> <i_m_source_file_index>
3032

> <i_lp_mmshare_version>
43012

> <i_f3d_flags>
0

> <s_epik_input>
W0NIM11bQ0BASF0xW0NIMl1bQ0gyXVtDSDJdW0NASF0oW0NIMl0xKUMoPU8pW05IXVtDSDJdW0NIMl1jMm5uW2NIXVtuSF0y

> <s_epik_cmdline>
J2VwaWtfcHl0aG9uJywgJy1waCcsICc3LjAnLCAnLXRuJywgJzgnLCAnLW1hJywgJzIwMCcsICctbWV0YWxfYmluZGluZycsICctaW1hZScsICc8aW5maWxlLm1hZT4nLCAnLW9tYWUnLCAnPG91dGZpbGUubWFlPic=

> <r_lp_tautomer_probability>
0.948284

> <r_epik_Ionization_Penalty>
0.000474052

> <r_epik_Ionization_Penalty_Charging>
0

> <r_epik_Ionization_Penalty_Neutral>
0.000474052

> <r_epik_State_Penalty>
0.271807

> <r_epik_Charging_Adjusted_Penalty>
0.271807

> <i_epik_Tot_Q>
0

> <i_epik_Tot_abs_Q>
0

> <r_epik_Metal_State_Penalty>
0.397201

> <b_epik_Metal_Only>
0

> <s_lp_Force_Field>
OPLS_2005

> <r_lp_Energy>
9.09743

> <b_lp_Chiralities_Consistent>
1

> <s_lp_Variant>
AV-unprocessed.smi:3032-4

> <Gold.Version>
5.8.1

> <Gold.Id.Protein>
6NUR|6NUR_protein|mol2

> <Gold.PLP.Fitness>
44.9162

> <Gold.PLP.PLP>
-39.7865

> <Gold.PLP.part.hbond>
-1.9319

> <Gold.PLP.part.metal>
0.0000

> <Gold.PLP.part.buried>
-4.5319

> <Gold.PLP.part.nonpolar>
-33.7083

> <Gold.PLP.part.repulsive>
0.9844

> <Gold.PLP.ligand.clash>
0.0000

> <Gold.PLP.ligand.torsion>
0.0480

> <Gold.PLP.Chemscore.Hbond>
0.8320

> <Gold.PLP.Chemscore.CHOScore>
0.8947

> <Gold.PLP.Chemscore.Metal>
0.0000

> <Gold.Chemscore.Hbonds>
donor molecule, donor type, donor heavy atom, donor atom, acceptor molecule, acceptor atom, score
      L1  H    13    18       P1  7957  0.83
      L1  C    15    35       P1 10175  0.90

> <Gold.PLP.Chemscore.Internal.Correction>
0.0458

> <Gold.Rescore>
     Score         DG    S(hbond)    S(metal)    S(lipo)     H(rot)  DE(clash)    DE(int)     intcor
     14.44     -14.75       0.98        0.00     100.49       2.25       0.17       0.14       ----

> <Gold.Chemscore.Fitness>
14.4361

> <Gold.Chemscore.DG>
-14.7476

> <Gold.Chemscore.ZeroCoef>
-5.4800

> <Gold.Chemscore.Hbond>
0.9791

> <Gold.Chemscore.Metal>
0.0000

> <Gold.Chemscore.Lipo>
100.4950

> <Gold.Chemscore.Internal_Hbond>
0.0000

> <Gold.Chemscore.DEClash>
0.1673

> <Gold.Chemscore.DEInternal>
0.1443

> <Gold.Chemscore.Rot>
2.2501

> <Gold.Chemscore.Internal.Correction>
   9.000000E+99

> <Gold.Chemscore.Hbonds>
donor molecule, donor type, donor heavy atom, donor atom, acceptor molecule, acceptor atom, score
      L1  H    13    18       P1  7957  0.79

> <Gold.Chemscore.Hbond.Weighted>
-3.2700

> <Gold.Chemscore.Metal.Weighted>
-0.0000

> <Gold.Chemscore.Lipo.Weighted>
-11.7579

> <Gold.Chemscore.Internal_Hbond.Weighted>
0.0000

> <Gold.Chemscore.DEClash.Weighted>
0.1673

> <Gold.Chemscore.DEInternal.Weighted>
0.1443

> <Gold.Chemscore.Rot.Weighted>
5.7603

> <Gold.Chemscore.Internal.Correction.Weighted>
   9.000000E+99

> <Gold.Protein.RotatedTorsions>
[ 6907 6896 6895 6894 ] final -107.32 input  -60.11 | X-H torsion
[ 7974 7965 7964 7962 ] final  -95.31 input  175.53 | X-H torsion
[ 8008 7997 7996 7995 ] final   87.61 input   59.86 | X-H torsion
[ 10167 10162 10161 10158 ] final  157.84 input  -65.29 | X-H torsion
[ 10718 10713 10712 10709 ] final  -62.27 input   66.30 | X-H torsion
[ 10763 10752 10751 10750 ] final  125.72 input  -60.55 | X-H torsion
[ 11005 11000 10999 10996 ] final   41.69 input  -57.11 | X-H torsion

> <Gold.Protein.ActiveResidues>
 VAL166  LYS551  ARG553  GLY616  TRP617  ASP618  TYR619  PRO620  LYS621  CYS622 
 ASP623  PHE694  ASN695  SER759  ASP760  ASP761  ALA762  ILE779  LEU786  VAL792 
 PHE793  MET794  SER795  GLU796  ALA797  LYS798  CYS799  TRP800  GLU811  SER814 

> <Gold.Protein.RotatedAtoms>
  150.7437  133.9845  159.3586 H   0  0  0  0  0  0  0  0  0  0  0  0  # atno 6907 bound_to 6896
  151.7788  135.0765  160.0380 H   0  0  0  0  0  0  0  0  0  0  0  0  # atno 6908 bound_to 6896
  152.3288  133.5898  159.5831 H   0  0  0  0  0  0  0  0  0  0  0  0  # atno 6909 bound_to 6896
  145.3617  140.9492  143.2497 H   0  0  0  0  0  0  0  0  0  0  0  0  # atno 7974 bound_to 7965
  155.9775  140.3380  155.6632 H   0  0  0  0  0  0  0  0  0  0  0  0  # atno 8008 bound_to 7997
  155.6593  140.0714  157.2578 H   0  0  0  0  0  0  0  0  0  0  0  0  # atno 8009 bound_to 7997
  154.4183  140.1711  156.1746 H   0  0  0  0  0  0  0  0  0  0  0  0  # atno 8010 bound_to 7997
  139.4824  144.4880  151.8349 H   0  0  0  0  0  0  0  0  0  0  0  0  # atno 10167 bound_to 10162
  156.0866  130.4207  150.1112 H   0  0  0  0  0  0  0  0  0  0  0  0  # atno 10718 bound_to 10713
  153.6818  135.3313  155.3180 H   0  0  0  0  0  0  0  0  0  0  0  0  # atno 10763 bound_to 10752
  154.8464  135.4411  154.1598 H   0  0  0  0  0  0  0  0  0  0  0  0  # atno 10764 bound_to 10752
  153.2617  135.6992  153.7649 H   0  0  0  0  0  0  0  0  0  0  0  0  # atno 10765 bound_to 10752
  140.1810  134.4104  155.8200 H   0  0  0  0  0  0  0  0  0  0  0  0  # atno 11005 bound_to 11000
  144.8641  139.5133  143.6798 LP  0  0  0  0  0  0  0  0  0  0  0  0  # atno 17320 bound_to 7965
  146.2924  139.7179  142.9151 LP  0  0  0  0  0  0  0  0  0  0  0  0  # atno 17321 bound_to 7965
  140.4362  144.2049  150.5889 LP  0  0  0  0  0  0  0  0  0  0  0  0  # atno 17342 bound_to 10162
  140.4730  143.2406  151.9063 LP  0  0  0  0  0  0  0  0  0  0  0  0  # atno 17343 bound_to 10162
  156.9131  130.9658  151.3560 LP  0  0  0  0  0  0  0  0  0  0  0  0  # atno 17370 bound_to 10713
  157.6002  130.8507  149.8791 LP  0  0  0  0  0  0  0  0  0  0  0  0  # atno 17371 bound_to 10713
  141.2223  133.7000  156.7930 LP  0  0  0  0  0  0  0  0  0  0  0  0  # atno 17394 bound_to 11000
  140.2267  134.8716  157.3434 LP  0  0  0  0  0  0  0  0  0  0  0  0  # atno 17395 bound_to 11000

$$$$
