AV-unprocessed.smi:713|AV-procd|sdf|3476|dock4
  -GOLD-   22720 0463D 1   1.00000     0.00000
 Structure written by MMmdl.
 41 42  0  0  0  0  0  0  0  0  1 V2000
  153.6363  141.0695  159.7795 C   0  0  0  0  0  0  0  0  0  0  0  0
  152.1392  141.4067  159.6244 C   0  0  2  0  0  0  0  0  0  0  0  0
  151.4985  140.7259  158.4050 C   0  0  0  0  0  0  0  0  0  0  0  0
  150.5696  139.9288  158.5433 O   0  0  0  0  0  0  0  0  0  0  0  0
  152.0179  141.0455  157.2089 N   0  0  0  0  0  0  0  0  0  0  0  0
  151.5985  140.4835  155.9295 C   0  0  1  0  0  0  0  0  0  0  0  0
  152.0583  139.0177  155.8352 C   0  0  0  0  0  0  0  0  0  0  0  0
  151.5791  138.3653  154.5298 C   0  0  0  0  0  0  0  0  0  0  0  0
  150.0536  138.4700  154.3840 C   0  0  0  0  0  0  0  0  0  0  0  0
  149.5808  139.9326  154.4664 C   0  0  1  0  0  0  0  0  0  0  0  0
  147.7368  140.0015  154.3261 S   0  0  0  0  0  0  0  0  0  0  0  0
  147.4068  141.8055  154.1678 C   0  0  0  0  0  0  0  0  0  0  0  0
  147.3461  139.3463  153.0686 O   0  0  0  0  0  0  0  0  0  0  0  0
  147.1507  139.5433  155.5948 O   0  0  0  0  0  0  0  0  0  0  0  0
  150.0678  140.5915  155.7723 C   0  0  0  0  0  0  0  0  0  0  0  0
  151.8970  142.8444  159.5815 N   0  0  0  0  0  0  0  0  0  0  0  0
  152.8303  143.8592  159.5150 C   0  0  0  0  0  0  0  0  0  0  0  0
  152.1524  145.0440  159.5416 C   0  0  0  0  0  0  0  0  0  0  0  0
  150.7890  144.6510  159.6396 C   0  0  0  0  0  0  0  0  0  0  0  0
  150.6394  143.3372  159.6720 N   0  0  0  0  0  0  0  0  0  0  0  0
  153.7891  139.9932  159.8658 H   0  0  0  0  0  0  0  0  0  0  0  0
  154.0458  141.5292  160.6794 H   0  0  0  0  0  0  0  0  0  0  0  0
  154.2274  141.4193  158.9321 H   0  0  0  0  0  0  0  0  0  0  0  0
  151.6327  141.0240  160.5119 H   0  0  0  0  0  0  0  0  0  0  0  0
  152.7781  141.7093  157.1858 H   0  0  0  0  0  0  0  0  0  0  0  0
  152.0770  141.0407  155.1217 H   0  0  0  0  0  0  0  0  0  0  0  0
  153.1460  138.9619  155.8953 H   0  0  0  0  0  0  0  0  0  0  0  0
  151.6711  138.4519  156.6841 H   0  0  0  0  0  0  0  0  0  0  0  0
  152.0618  138.8491  153.6796 H   0  0  0  0  0  0  0  0  0  0  0  0
  151.8836  137.3188  154.5038 H   0  0  0  0  0  0  0  0  0  0  0  0
  149.7458  138.0292  153.4355 H   0  0  0  0  0  0  0  0  0  0  0  0
  149.5718  137.8830  155.1673 H   0  0  0  0  0  0  0  0  0  0  0  0
  149.9842  140.4820  153.6150 H   0  0  0  0  0  0  0  0  0  0  0  0
  146.3459  141.9600  153.9729 H   0  0  0  0  0  0  0  0  0  0  0  0
  147.9878  142.2132  153.3409 H   0  0  0  0  0  0  0  0  0  0  0  0
  147.6739  142.3166  155.0917 H   0  0  0  0  0  0  0  0  0  0  0  0
  149.5796  140.1189  156.6261 H   0  0  0  0  0  0  0  0  0  0  0  0
  149.7749  141.6408  155.7923 H   0  0  0  0  0  0  0  0  0  0  0  0
  153.8893  143.6555  159.4561 H   0  0  0  0  0  0  0  0  0  0  0  0
  152.5671  146.0403  159.5029 H   0  0  0  0  0  0  0  0  0  0  0  0
  149.9101  145.2765  159.6925 H   0  0  0  0  0  0  0  0  0  0  0  0
  1  2  1  0  0  0  0
  1 21  1  0  0  0  0
  1 22  1  0  0  0  0
  1 23  1  0  0  0  0
  2  3  1  0  0  0  0
  2 16  1  0  0  0  0
  2 24  1  0  0  0  0
  3  4  2  0  0  0  0
  3  5  1  0  0  0  0
  5  6  1  0  0  0  0
  5 25  1  0  0  0  0
  6 15  1  0  0  0  0
  6  7  1  0  0  0  0
  6 26  1  0  0  0  0
  7  8  1  0  0  0  0
  7 27  1  0  0  0  0
  7 28  1  0  0  0  0
  8  9  1  0  0  0  0
  8 29  1  0  0  0  0
  8 30  1  0  0  0  0
  9 10  1  0  0  0  0
  9 31  1  0  0  0  0
  9 32  1  0  0  0  0
 10 11  1  0  0  0  0
 10 15  1  0  0  0  0
 10 33  1  0  0  0  0
 11 12  1  0  0  0  0
 11 13  2  0  0  0  0
 11 14  2  0  0  0  0
 12 34  1  0  0  0  0
 12 35  1  0  0  0  0
 12 36  1  0  0  0  0
 15 37  1  0  0  0  0
 15 38  1  0  0  0  0
 16 20  1  0  0  0  0
 16 17  1  0  0  0  0
 17 18  2  0  0  0  0
 17 39  1  0  0  0  0
 18 19  1  0  0  0  0
 18 40  1  0  0  0  0
 19 20  2  0  0  0  0
 19 41  1  0  0  0  0
M  END
> <s_m_source_file>
AV-unprocessed.smi

> <i_m_source_file_index>
713

> <i_lp_mmshare_version>
43012

> <i_f3d_flags>
0

> <s_epik_input>
bjFbY0hdW2NIXVtjSF1uMVtDQEhdKFtDSDNdKUMoPU8pW05IXVtDQEBIXTJbQ0gyXVtDSDJdW0NIMl1bQ0BIXShbQ0gyXTIpUyg9TykoPU8pW0NIM10=

> <s_epik_cmdline>
J2VwaWtfcHl0aG9uJywgJy1waCcsICc3LjAnLCAnLXRuJywgJzgnLCAnLW1hJywgJzIwMCcsICctbWV0YWxfYmluZGluZycsICctaW1hZScsICc8aW5maWxlLm1hZT4nLCAnLW9tYWUnLCAnPG91dGZpbGUubWFlPic=

> <r_lp_tautomer_probability>
1

> <r_epik_Ionization_Penalty>
4.07816e-05

> <r_epik_Ionization_Penalty_Charging>
0

> <r_epik_Ionization_Penalty_Neutral>
4.07816e-05

> <r_epik_State_Penalty>
-0

> <r_epik_Charging_Adjusted_Penalty>
0

> <i_epik_Tot_Q>
0

> <i_epik_Tot_abs_Q>
0

> <r_epik_Metal_State_Penalty>
-0

> <b_epik_Metal_Only>
0

> <s_lp_Force_Field>
OPLS_2005

> <r_lp_Energy>
6.63175

> <b_lp_Chiralities_Consistent>
1

> <s_lp_Variant>
AV-unprocessed.smi:713-3

> <Gold.Version>
5.8.1

> <Gold.Id.Protein>
6NUR|6NUR_protein|mol2

> <Gold.PLP.Fitness>
41.4222

> <Gold.PLP.PLP>
-42.0235

> <Gold.PLP.part.hbond>
-0.7028

> <Gold.PLP.part.metal>
0.0000

> <Gold.PLP.part.buried>
-4.0427

> <Gold.PLP.part.nonpolar>
-37.7141

> <Gold.PLP.part.repulsive>
1.6414

> <Gold.PLP.ligand.clash>
0.0000

> <Gold.PLP.ligand.torsion>
0.4263

> <Gold.PLP.Chemscore.Hbond>
0.0000

> <Gold.PLP.Chemscore.CHOScore>
0.0000

> <Gold.PLP.Chemscore.Metal>
0.0000

> <Gold.PLP.Chemscore.Internal.Correction>
0.2512

> <Gold.Rescore>
     Score         DG    S(hbond)    S(metal)    S(lipo)     H(rot)  DE(clash)    DE(int)     intcor
     11.14     -13.40       0.00        0.00     105.45       1.72       0.53       1.73       ----

> <Gold.Chemscore.Fitness>
11.1424

> <Gold.Chemscore.DG>
-13.4022

> <Gold.Chemscore.ZeroCoef>
-5.4800

> <Gold.Chemscore.Hbond>
0.0000

> <Gold.Chemscore.Metal>
0.0000

> <Gold.Chemscore.Lipo>
105.4526

> <Gold.Chemscore.Internal_Hbond>
0.0000

> <Gold.Chemscore.DEClash>
0.5270

> <Gold.Chemscore.DEInternal>
1.7329

> <Gold.Chemscore.Rot>
1.7249

> <Gold.Chemscore.Internal.Correction>
   9.000000E+99

> <Gold.Chemscore.Hbond.Weighted>
-0.0000

> <Gold.Chemscore.Metal.Weighted>
-0.0000

> <Gold.Chemscore.Lipo.Weighted>
-12.3380

> <Gold.Chemscore.Internal_Hbond.Weighted>
0.0000

> <Gold.Chemscore.DEClash.Weighted>
0.5270

> <Gold.Chemscore.DEInternal.Weighted>
1.7329

> <Gold.Chemscore.Rot.Weighted>
4.4157

> <Gold.Chemscore.Internal.Correction.Weighted>
   9.000000E+99

> <Gold.Protein.RotatedTorsions>
[ 6907 6896 6895 6894 ] final  -46.33 input  -60.11 | X-H torsion
[ 7974 7965 7964 7962 ] final  114.12 input  175.53 | X-H torsion
[ 8008 7997 7996 7995 ] final   -8.46 input   59.86 | X-H torsion
[ 10167 10162 10161 10158 ] final  -59.35 input  -65.29 | X-H torsion
[ 10718 10713 10712 10709 ] final  131.88 input   66.30 | X-H torsion
[ 10763 10752 10751 10750 ] final   94.04 input  -60.55 | X-H torsion
[ 11005 11000 10999 10996 ] final  -60.71 input  -57.11 | X-H torsion

> <Gold.Protein.ActiveResidues>
 VAL166  LYS551  ARG553  GLY616  TRP617  ASP618  TYR619  PRO620  LYS621  CYS622 
 ASP623  PHE694  ASN695  SER759  ASP760  ASP761  ALA762  ILE779  LEU786  VAL792 
 PHE793  MET794  SER795  GLU796  ALA797  LYS798  CYS799  TRP800  GLU811  SER814 

> <Gold.Protein.RotatedAtoms>
  150.9124  134.8541  159.7434 H   0  0  0  0  0  0  0  0  0  0  0  0  # atno 6907 bound_to 6896
  152.4951  134.4339  159.9531 H   0  0  0  0  0  0  0  0  0  0  0  0  # atno 6908 bound_to 6896
  151.4380  133.3612  159.2813 H   0  0  0  0  0  0  0  0  0  0  0  0  # atno 6909 bound_to 6896
  145.2084  139.2918  143.4281 H   0  0  0  0  0  0  0  0  0  0  0  0  # atno 7974 bound_to 7965
  154.5739  140.2380  155.8151 H   0  0  0  0  0  0  0  0  0  0  0  0  # atno 8008 bound_to 7997
  156.2128  140.3021  155.9728 H   0  0  0  0  0  0  0  0  0  0  0  0  # atno 8009 bound_to 7997
  155.2663  140.0416  157.2993 H   0  0  0  0  0  0  0  0  0  0  0  0  # atno 8010 bound_to 7997
  140.6140  143.2396  151.5641 H   0  0  0  0  0  0  0  0  0  0  0  0  # atno 10167 bound_to 10162
  157.4925  131.1091  150.9538 H   0  0  0  0  0  0  0  0  0  0  0  0  # atno 10718 bound_to 10713
  153.2372  135.4304  155.0658 H   0  0  0  0  0  0  0  0  0  0  0  0  # atno 10763 bound_to 10752
  154.8324  135.3394  154.6702 H   0  0  0  0  0  0  0  0  0  0  0  0  # atno 10764 bound_to 10752
  153.7127  135.7022  153.5089 H   0  0  0  0  0  0  0  0  0  0  0  0  # atno 10765 bound_to 10752
  141.1297  133.6624  156.5265 H   0  0  0  0  0  0  0  0  0  0  0  0  # atno 11005 bound_to 11000
  146.3403  140.2352  142.8594 LP  0  0  0  0  0  0  0  0  0  0  0  0  # atno 17320 bound_to 7965
  144.9880  140.8520  143.5357 LP  0  0  0  0  0  0  0  0  0  0  0  0  # atno 17321 bound_to 7965
  139.5384  144.2717  152.1299 LP  0  0  0  0  0  0  0  0  0  0  0  0  # atno 17342 bound_to 10162
  140.1922  144.4741  150.6473 LP  0  0  0  0  0  0  0  0  0  0  0  0  # atno 17343 bound_to 10162
  157.0235  130.5683  149.5334 LP  0  0  0  0  0  0  0  0  0  0  0  0  # atno 17370 bound_to 10713
  156.0181  130.5276  150.8195 LP  0  0  0  0  0  0  0  0  0  0  0  0  # atno 17371 bound_to 10713
  140.4250  134.7153  157.4911 LP  0  0  0  0  0  0  0  0  0  0  0  0  # atno 17394 bound_to 11000
  140.0333  134.6374  155.9077 LP  0  0  0  0  0  0  0  0  0  0  0  0  # atno 17395 bound_to 11000

$$$$
