AV-unprocessed.smi:2813|AV-procd|sdf|10837|dock6
  -GOLD-   2272015273D 1   1.00000     0.00000
 Structure written by MMmdl.
 41 42  0  0  0  0  0  0  0  0  1 V2000
  144.4300  144.8926  156.2535 C   0  0  0  0  0  0  0  0  0  0  0  0
  145.3451  143.7699  155.7980 C   0  0  0  0  0  0  0  0  0  0  0  0
  145.8083  142.9210  156.8076 N   0  0  0  0  0  0  0  0  0  0  0  0
  146.6000  141.9419  156.5141 C   0  0  0  0  0  0  0  0  0  0  0  0
  147.0186  141.7020  155.1954 N   0  0  0  0  0  0  0  0  0  0  0  0
  147.9257  140.5602  154.9966 C   0  0  0  0  0  0  0  0  0  0  0  0
  149.2806  140.9953  154.3925 C   0  0  2  0  0  0  0  0  0  0  0  0
  149.9728  139.8433  153.9543 O   0  0  0  0  0  0  0  0  0  0  0  0
  150.1775  141.7032  155.4195 C   0  0  0  0  0  0  0  0  0  0  0  0
  150.5155  140.7747  156.4416 O   0  0  0  0  0  0  0  0  0  0  0  0
  151.2007  141.2340  157.5451 C   0  0  0  0  0  0  0  0  0  0  0  0
  151.9789  140.2934  158.2490 C   0  0  0  0  0  0  0  0  0  0  0  0
  152.7139  140.6755  159.3864 C   0  0  0  0  0  0  0  0  0  0  0  0
  152.6758  142.0085  159.8350 C   0  0  0  0  0  0  0  0  0  0  0  0
  151.8988  142.9654  159.1471 C   0  0  0  0  0  0  0  0  0  0  0  0
  151.8420  144.4133  159.6110 C   0  0  0  0  0  0  0  0  0  0  0  0
  150.5715  144.7900  159.7552 F   0  0  0  0  0  0  0  0  0  0  0  0
  152.4669  144.5890  160.7759 F   0  0  0  0  0  0  0  0  0  0  0  0
  152.4194  145.1930  158.6974 F   0  0  0  0  0  0  0  0  0  0  0  0
  151.1673  142.5747  158.0049 C   0  0  0  0  0  0  0  0  0  0  0  0
  146.5978  142.4684  154.1477 C   0  0  0  0  0  0  0  0  0  0  0  0
  146.9503  142.2315  152.9905 O   0  0  0  0  0  0  0  0  0  0  0  0
  145.7034  143.5838  154.4981 C   0  0  0  0  0  0  0  0  0  0  0  0
  145.2287  144.4746  153.3567 C   0  0  0  0  0  0  0  0  0  0  0  0
  144.8735  145.8618  156.0243 H   0  0  0  0  0  0  0  0  0  0  0  0
  144.2546  144.8515  157.3294 H   0  0  0  0  0  0  0  0  0  0  0  0
  143.4629  144.8242  155.7548 H   0  0  0  0  0  0  0  0  0  0  0  0
  146.9851  141.2477  157.2632 H   0  0  0  0  0  0  0  0  0  0  0  0
  148.0905  140.0864  155.9662 H   0  0  0  0  0  0  0  0  0  0  0  0
  147.4698  139.7702  154.3960 H   0  0  0  0  0  0  0  0  0  0  0  0
  149.1370  141.6579  153.5378 H   0  0  0  0  0  0  0  0  0  0  0  0
  150.1582  139.9357  153.0322 H   0  0  0  0  0  0  0  0  0  0  0  0
  151.0752  142.0897  154.9332 H   0  0  0  0  0  0  0  0  0  0  0  0
  149.6401  142.5449  155.8604 H   0  0  0  0  0  0  0  0  0  0  0  0
  152.0144  139.2679  157.9113 H   0  0  0  0  0  0  0  0  0  0  0  0
  153.3083  139.9449  159.9151 H   0  0  0  0  0  0  0  0  0  0  0  0
  153.2472  142.2866  160.7082 H   0  0  0  0  0  0  0  0  0  0  0  0
  150.5838  143.3266  157.4960 H   0  0  0  0  0  0  0  0  0  0  0  0
  144.6523  143.8902  152.6388 H   0  0  0  0  0  0  0  0  0  0  0  0
  146.0839  144.9046  152.8344 H   0  0  0  0  0  0  0  0  0  0  0  0
  144.6006  145.2999  153.6882 H   0  0  0  0  0  0  0  0  0  0  0  0
  1  2  1  0  0  0  0
  1 25  1  0  0  0  0
  1 26  1  0  0  0  0
  1 27  1  0  0  0  0
  2 23  2  0  0  0  0
  2  3  1  0  0  0  0
  3  4  2  0  0  0  0
  4  5  1  0  0  0  0
  4 28  1  0  0  0  0
  5  6  1  0  0  0  0
  5 21  1  0  0  0  0
  6  7  1  0  0  0  0
  6 29  1  0  0  0  0
  6 30  1  0  0  0  0
  7  8  1  0  0  0  0
  7  9  1  0  0  0  0
  7 31  1  0  0  0  0
  8 32  1  0  0  0  0
  9 10  1  0  0  0  0
  9 33  1  0  0  0  0
  9 34  1  0  0  0  0
 10 11  1  0  0  0  0
 11 20  1  0  0  0  0
 11 12  2  0  0  0  0
 12 13  1  0  0  0  0
 12 35  1  0  0  0  0
 13 14  2  0  0  0  0
 13 36  1  0  0  0  0
 14 15  1  0  0  0  0
 14 37  1  0  0  0  0
 15 16  1  0  0  0  0
 15 20  2  0  0  0  0
 16 17  1  0  0  0  0
 16 18  1  0  0  0  0
 16 19  1  0  0  0  0
 20 38  1  0  0  0  0
 21 22  2  0  0  0  0
 21 23  1  0  0  0  0
 23 24  1  0  0  0  0
 24 39  1  0  0  0  0
 24 40  1  0  0  0  0
 24 41  1  0  0  0  0
M  END
> <s_m_source_file>
AV-unprocessed.smi

> <i_m_source_file_index>
2813

> <i_lp_mmshare_version>
43012

> <i_f3d_flags>
0

> <s_epik_input>
W0NIM11jMW5bY0hdbihjKD1PKWMxW0NIM10pW0NIMl1bQ0BIXShbT0hdKVtDSDJdT2MyW2NIXVtjSF1bY0hdYyhDKEYpKEYpRilbY0hdMg==

> <s_epik_cmdline>
J2VwaWtfcHl0aG9uJywgJy1waCcsICc3LjAnLCAnLXRuJywgJzgnLCAnLW1hJywgJzIwMCcsICctbWV0YWxfYmluZGluZycsICctaW1hZScsICc8aW5maWxlLm1hZT4nLCAnLW9tYWUnLCAnPG91dGZpbGUubWFlPic=

> <r_lp_tautomer_probability>
1

> <r_epik_Ionization_Penalty>
3.72236e-05

> <r_epik_Ionization_Penalty_Charging>
8.38864e-08

> <r_epik_Ionization_Penalty_Neutral>
3.71397e-05

> <r_epik_State_Penalty>
-0

> <r_epik_Charging_Adjusted_Penalty>
8.38864e-08

> <i_epik_Tot_Q>
0

> <i_epik_Tot_abs_Q>
0

> <r_epik_Metal_State_Penalty>
-0

> <b_epik_Metal_Only>
0

> <s_lp_Force_Field>
OPLS_2005

> <r_lp_Energy>
22.8491

> <b_lp_Chiralities_Consistent>
1

> <s_lp_Variant>
AV-unprocessed.smi:2813-1

> <Gold.Version>
5.8.1

> <Gold.Id.Protein>
6NUR|6NUR_protein|mol2

> <Gold.PLP.Fitness>
51.3663

> <Gold.PLP.PLP>
-49.3732

> <Gold.PLP.part.hbond>
-2.0000

> <Gold.PLP.part.metal>
0.0000

> <Gold.PLP.part.buried>
-3.9428

> <Gold.PLP.part.nonpolar>
-43.1717

> <Gold.PLP.part.repulsive>
0.3696

> <Gold.PLP.ligand.clash>
0.0000

> <Gold.PLP.ligand.torsion>
0.6053

> <Gold.PLP.Chemscore.Hbond>
1.0000

> <Gold.PLP.Chemscore.CHOScore>
0.0000

> <Gold.PLP.Chemscore.Metal>
0.0000

> <Gold.Chemscore.Hbonds>
donor molecule, donor type, donor heavy atom, donor atom, acceptor molecule, acceptor atom, score
      L1  H     8    32       P1  7957  1.00

> <Gold.PLP.Chemscore.Internal.Correction>
0.2037

> <Gold.Rescore>
     Score         DG    S(hbond)    S(metal)    S(lipo)     H(rot)  DE(clash)    DE(int)     intcor
     11.45     -13.67       0.98        0.00     101.73       2.73       1.64       0.58       ----

> <Gold.Chemscore.Fitness>
11.4496

> <Gold.Chemscore.DG>
-13.6677

> <Gold.Chemscore.ZeroCoef>
-5.4800

> <Gold.Chemscore.Hbond>
0.9804

> <Gold.Chemscore.Metal>
0.0000

> <Gold.Chemscore.Lipo>
101.7259

> <Gold.Chemscore.Internal_Hbond>
0.0000

> <Gold.Chemscore.DEClash>
1.6410

> <Gold.Chemscore.DEInternal>
0.5771

> <Gold.Chemscore.Rot>
2.7300

> <Gold.Chemscore.Internal.Correction>
   9.000000E+99

> <Gold.Chemscore.Hbonds>
donor molecule, donor type, donor heavy atom, donor atom, acceptor molecule, acceptor atom, score
      L1  H     8    32       P1  7957  0.96

> <Gold.Chemscore.Hbond.Weighted>
-3.2745

> <Gold.Chemscore.Metal.Weighted>
-0.0000

> <Gold.Chemscore.Lipo.Weighted>
-11.9019

> <Gold.Chemscore.Internal_Hbond.Weighted>
0.0000

> <Gold.Chemscore.DEClash.Weighted>
1.6410

> <Gold.Chemscore.DEInternal.Weighted>
0.5771

> <Gold.Chemscore.Rot.Weighted>
6.9888

> <Gold.Chemscore.Internal.Correction.Weighted>
   9.000000E+99

> <Gold.Protein.RotatedTorsions>
[ 6907 6896 6895 6894 ] final  116.32 input  -60.11 | X-H torsion
[ 7974 7965 7964 7962 ] final -148.54 input  175.53 | X-H torsion
[ 8008 7997 7996 7995 ] final  -41.32 input   59.86 | X-H torsion
[ 10167 10162 10161 10158 ] final -157.74 input  -65.29 | X-H torsion
[ 10718 10713 10712 10709 ] final   67.45 input   66.30 | X-H torsion
[ 10763 10752 10751 10750 ] final  -50.42 input  -60.55 | X-H torsion
[ 11005 11000 10999 10996 ] final  152.91 input  -57.11 | X-H torsion

> <Gold.Protein.ActiveResidues>
 VAL166  LYS551  ARG553  GLY616  TRP617  ASP618  TYR619  PRO620  LYS621  CYS622 
 ASP623  PHE694  ASN695  SER759  ASP760  ASP761  ALA762  ILE779  LEU786  VAL792 
 PHE793  MET794  SER795  GLU796  ALA797  LYS798  CYS799  TRP800  GLU811  SER814 

> <Gold.Protein.RotatedAtoms>
  152.4685  133.7977  159.6935 H   0  0  0  0  0  0  0  0  0  0  0  0  # atno 6907 bound_to 6896
  150.8662  133.7562  159.2982 H   0  0  0  0  0  0  0  0  0  0  0  0  # atno 6908 bound_to 6896
  151.5111  135.1068  159.9906 H   0  0  0  0  0  0  0  0  0  0  0  0  # atno 6909 bound_to 6896
  144.8023  140.5183  143.5699 H   0  0  0  0  0  0  0  0  0  0  0  0  # atno 7974 bound_to 7965
  154.4005  140.1502  156.3172 H   0  0  0  0  0  0  0  0  0  0  0  0  # atno 8008 bound_to 7997
  155.8562  140.3455  155.5704 H   0  0  0  0  0  0  0  0  0  0  0  0  # atno 8009 bound_to 7997
  155.7930  140.0859  157.1989 H   0  0  0  0  0  0  0  0  0  0  0  0  # atno 8010 bound_to 7997
  139.6747  143.9684  152.2303 H   0  0  0  0  0  0  0  0  0  0  0  0  # atno 10167 bound_to 10162
  157.6231  130.9321  150.0244 H   0  0  0  0  0  0  0  0  0  0  0  0  # atno 10718 bound_to 10713
  154.1100  135.6550  153.4883 H   0  0  0  0  0  0  0  0  0  0  0  0  # atno 10763 bound_to 10752
  153.0260  135.5245  154.7201 H   0  0  0  0  0  0  0  0  0  0  0  0  # atno 10764 bound_to 10752
  154.6378  135.2984  155.0109 H   0  0  0  0  0  0  0  0  0  0  0  0  # atno 10765 bound_to 10752
  140.1350  134.8776  157.2255 H   0  0  0  0  0  0  0  0  0  0  0  0  # atno 11005 bound_to 11000
  145.5523  139.1477  143.3387 LP  0  0  0  0  0  0  0  0  0  0  0  0  # atno 17320 bound_to 7965
  146.2307  140.5661  142.8976 LP  0  0  0  0  0  0  0  0  0  0  0  0  # atno 17321 bound_to 7965
  139.9458  144.6652  150.8221 LP  0  0  0  0  0  0  0  0  0  0  0  0  # atno 17342 bound_to 10162
  140.7631  143.3214  151.2613 LP  0  0  0  0  0  0  0  0  0  0  0  0  # atno 17343 bound_to 10162
  156.1387  130.3642  149.9616 LP  0  0  0  0  0  0  0  0  0  0  0  0  # atno 17370 bound_to 10713
  156.7662  130.9169  151.3643 LP  0  0  0  0  0  0  0  0  0  0  0  0  # atno 17371 bound_to 10713
  140.2793  134.3368  155.7348 LP  0  0  0  0  0  0  0  0  0  0  0  0  # atno 17394 bound_to 11000
  141.2177  133.7469  156.9340 LP  0  0  0  0  0  0  0  0  0  0  0  0  # atno 17395 bound_to 11000

$$$$
