AV-unprocessed.smi:705|AV-procd|sdf|3451|dock9
  -GOLD-   22720 0433D 1   1.00000     0.00000
 Structure written by MMmdl.
 28 29  0  0  0  0  0  0  0  0  3 V2000
  150.0247  138.0296  154.0760 N   0  0  0  0  0  0  0  0  0  0  0  0
  151.1890  137.7153  154.6492 C   0  0  0  0  0  0  0  0  0  0  0  0
  151.8392  136.7173  154.3430 O   0  0  0  0  0  0  0  0  0  0  0  0
  151.6644  138.6691  155.7040 C   0  0  0  0  0  0  0  0  0  0  0  0
  150.8967  139.7603  156.1844 C   0  0  0  0  0  0  0  0  0  0  0  0
  151.8464  140.2854  157.1358 C   0  0  0  0  0  0  0  0  0  0  0  0
  151.4512  141.5220  157.9197 C   0  0  1  0  0  0  0  0  0  0  0  0
  152.6240  142.0624  158.7583 C   0  0  0  0  0  0  0  0  0  0  0  0
  152.2072  143.3389  159.5047 C   0  0  0  0  0  0  0  0  0  0  0  0
  151.6397  144.3846  158.5300 C   0  0  0  0  0  0  0  0  0  0  0  0
  150.5139  143.8205  157.7540 N   0  3  0  0  0  0  0  0  0  0  0  0
  150.8898  142.6128  156.9876 C   0  0  0  0  0  0  0  0  0  0  0  0
  152.9897  139.5760  157.1809 N   0  0  0  0  0  0  0  0  0  0  0  0
  152.8680  138.5960  156.3026 N   0  5  0  0  0  0  0  0  0  0  0  0
  149.6333  137.4402  153.3573 H   0  0  0  0  0  0  0  0  0  0  0  0
  149.5470  138.8672  154.3783 H   0  0  0  0  0  0  0  0  0  0  0  0
  149.9029  140.0955  155.9142 H   0  0  0  0  0  0  0  0  0  0  0  0
  150.6561  141.2358  158.6104 H   0  0  0  0  0  0  0  0  0  0  0  0
  152.9620  141.3067  159.4684 H   0  0  0  0  0  0  0  0  0  0  0  0
  153.4732  142.2823  158.1095 H   0  0  0  0  0  0  0  0  0  0  0  0
  151.4575  143.0938  160.2582 H   0  0  0  0  0  0  0  0  0  0  0  0
  153.0615  143.7529  160.0412 H   0  0  0  0  0  0  0  0  0  0  0  0
  151.2922  145.2618  159.0762 H   0  0  0  0  0  0  0  0  0  0  0  0
  152.4159  144.7232  157.8421 H   0  0  0  0  0  0  0  0  0  0  0  0
  149.7725  143.5744  158.3940 H   0  0  0  0  0  0  0  0  0  0  0  0
  151.6274  142.8875  156.2318 H   0  0  0  0  0  0  0  0  0  0  0  0
  150.0119  142.2439  156.4562 H   0  0  0  0  0  0  0  0  0  0  0  0
  150.1725  144.5212  157.1116 H   0  0  0  0  0  0  0  0  0  0  0  0
  1  2  1  0  0  0  0
  1 15  1  0  0  0  0
  1 16  1  0  0  0  0
  2  3  2  0  0  0  0
  2  4  1  0  0  0  0
  4 14  1  0  0  0  0
  4  5  2  0  0  0  0
  5  6  1  0  0  0  0
  5 17  1  0  0  0  0
  6  7  1  0  0  0  0
  6 13  2  0  0  0  0
  7 12  1  0  0  0  0
  7  8  1  0  0  0  0
  7 18  1  0  0  0  0
  8  9  1  0  0  0  0
  8 19  1  0  0  0  0
  8 20  1  0  0  0  0
  9 10  1  0  0  0  0
  9 21  1  0  0  0  0
  9 22  1  0  0  0  0
 10 11  1  0  0  0  0
 10 23  1  0  0  0  0
 10 24  1  0  0  0  0
 11 12  1  0  0  0  0
 11 25  1  0  0  0  0
 11 28  1  0  0  0  0
 12 26  1  0  0  0  0
 12 27  1  0  0  0  0
 13 14  1  0  0  0  0
M  CHG  1  11   1
M  CHG  1  14  -1
M  END
> <s_m_source_file>
AV-unprocessed.smi

> <i_m_source_file_index>
705

> <i_lp_mmshare_version>
43012

> <i_f3d_flags>
0

> <s_epik_input>
W05IMl1DKD1PKWMxW2NIXWMoW25IXW4xKVtDQEBIXTJbQ0gyXVtDSDJdW0NIMl1bTkhdW0NIMl0y

> <s_epik_cmdline>
J2VwaWtfcHl0aG9uJywgJy1waCcsICc3LjAnLCAnLXRuJywgJzgnLCAnLW1hJywgJzIwMCcsICctbWV0YWxfYmluZGluZycsICctaW1hZScsICc8aW5maWxlLm1hZT4nLCAnLW9tYWUnLCAnPG91dGZpbGUubWFlPic=

> <r_lp_tautomer_probability>
0.5

> <r_epik_Ionization_Penalty>
8.1602

> <r_epik_Ionization_Penalty_Charging>
5.25561

> <r_epik_Ionization_Penalty_Neutral>
2.90459

> <r_epik_State_Penalty>
5.66605

> <r_epik_Charging_Adjusted_Penalty>
10.9217

> <i_epik_Tot_Q>
0

> <i_epik_Tot_abs_Q>
2

> <r_epik_Metal_State_Penalty>
1.68656

> <b_epik_Metal_Only>
1

> <s_lp_Force_Field>
OPLS_2005

> <r_lp_Energy>
5.1844

> <b_lp_Chiralities_Consistent>
1

> <s_lp_Variant>
AV-unprocessed.smi:705-6

> <Gold.Version>
5.8.1

> <Gold.Id.Protein>
6NUR|6NUR_protein|mol2

> <Gold.PLP.Fitness>
42.0624

> <Gold.PLP.PLP>
-29.4534

> <Gold.PLP.part.hbond>
-5.4899

> <Gold.PLP.part.metal>
0.0000

> <Gold.PLP.part.buried>
-4.2879

> <Gold.PLP.part.nonpolar>
-22.9915

> <Gold.PLP.part.repulsive>
1.8461

> <Gold.PLP.ligand.clash>
0.0000

> <Gold.PLP.ligand.torsion>
0.1845

> <Gold.PLP.Chemscore.Hbond>
4.3190

> <Gold.PLP.Chemscore.CHOScore>
0.0000

> <Gold.PLP.Chemscore.Metal>
0.0000

> <Gold.Chemscore.Hbonds>
donor molecule, donor type, donor heavy atom, donor atom, acceptor molecule, acceptor atom, score
      L1  H     1    15       P1  7948  1.00
      L1  H    11    28       P1  8028  1.66
      P1  H  7997  8010       L1    13  1.00
      P1  H 10752 10764       L1     3  1.00

> <Gold.PLP.Chemscore.Internal.Correction>
0.0211

> <Gold.Rescore>
     Score         DG    S(hbond)    S(metal)    S(lipo)     H(rot)  DE(clash)    DE(int)     intcor
     19.97     -20.47       2.96        0.00      65.46       1.00       0.47       0.04       ----

> <Gold.Chemscore.Fitness>
19.9656

> <Gold.Chemscore.DG>
-20.4733

> <Gold.Chemscore.ZeroCoef>
-5.4800

> <Gold.Chemscore.Hbond>
2.9626

> <Gold.Chemscore.Metal>
0.0000

> <Gold.Chemscore.Lipo>
65.4555

> <Gold.Chemscore.Internal_Hbond>
0.0000

> <Gold.Chemscore.DEClash>
0.4720

> <Gold.Chemscore.DEInternal>
0.0357

> <Gold.Chemscore.Rot>
1.0000

> <Gold.Chemscore.Internal.Correction>
   9.000000E+99

> <Gold.Chemscore.Hbonds>
donor molecule, donor type, donor heavy atom, donor atom, acceptor molecule, acceptor atom, score
      L1  H     1    15       P1  7948  0.75
      L1  H    11    28       P1  8028  0.50
      P1  H  7997  8010       L1    13  0.34
      P1  H 10752 10764       L1     3  0.93

> <Gold.Chemscore.Hbond.Weighted>
-9.8950

> <Gold.Chemscore.Metal.Weighted>
-0.0000

> <Gold.Chemscore.Lipo.Weighted>
-7.6583

> <Gold.Chemscore.Internal_Hbond.Weighted>
0.0000

> <Gold.Chemscore.DEClash.Weighted>
0.4720

> <Gold.Chemscore.DEInternal.Weighted>
0.0357

> <Gold.Chemscore.Rot.Weighted>
2.5600

> <Gold.Chemscore.Internal.Correction.Weighted>
   9.000000E+99

> <Gold.Protein.RotatedTorsions>
[ 6907 6896 6895 6894 ] final   69.17 input  -60.11 | X-H torsion
[ 7974 7965 7964 7962 ] final  145.01 input  175.53 | X-H torsion
[ 8008 7997 7996 7995 ] final   39.06 input   59.86 | X-H torsion
[ 10167 10162 10161 10158 ] final  156.18 input  -65.29 | X-H torsion
[ 10718 10713 10712 10709 ] final  -35.81 input   66.30 | X-H torsion
[ 10763 10752 10751 10750 ] final  -88.56 input  -60.55 | X-H torsion
[ 11005 11000 10999 10996 ] final   62.70 input  -57.11 | X-H torsion

> <Gold.Protein.ActiveResidues>
 VAL166  LYS551  ARG553  GLY616  TRP617  ASP618  TYR619  PRO620  LYS621  CYS622 
 ASP623  PHE694  ASN695  SER759  ASP760  ASP761  ALA762  ILE779  LEU786  VAL792 
 PHE793  MET794  SER795  GLU796  ALA797  LYS798  CYS799  TRP800  GLU811  SER814 

> <Gold.Protein.RotatedAtoms>
  152.4668  134.5055  159.9737 H   0  0  0  0  0  0  0  0  0  0  0  0  # atno 6907 bound_to 6896
  151.5091  133.3482  159.2890 H   0  0  0  0  0  0  0  0  0  0  0  0  # atno 6908 bound_to 6896
  150.8657  134.8048  159.7179 H   0  0  0  0  0  0  0  0  0  0  0  0  # atno 6909 bound_to 6896
  144.8788  139.5731  143.5853 H   0  0  0  0  0  0  0  0  0  0  0  0  # atno 7974 bound_to 7965
  155.2304  140.3338  155.4304 H   0  0  0  0  0  0  0  0  0  0  0  0  # atno 8008 bound_to 7997
  156.2297  140.1845  156.7319 H   0  0  0  0  0  0  0  0  0  0  0  0  # atno 8009 bound_to 7997
  154.5958  140.0631  156.9286 H   0  0  0  0  0  0  0  0  0  0  0  0  # atno 8010 bound_to 7997
  139.4821  144.5032  151.8137 H   0  0  0  0  0  0  0  0  0  0  0  0  # atno 10167 bound_to 10162
  156.3342  130.4284  149.7845 H   0  0  0  0  0  0  0  0  0  0  0  0  # atno 10718 bound_to 10713
  154.6459  135.5372  153.7844 H   0  0  0  0  0  0  0  0  0  0  0  0  # atno 10763 bound_to 10752
  153.0359  135.6470  154.1090 H   0  0  0  0  0  0  0  0  0  0  0  0  # atno 10764 bound_to 10752
  154.1011  135.2933  155.3231 H   0  0  0  0  0  0  0  0  0  0  0  0  # atno 10765 bound_to 10752
  140.0074  134.6349  155.9834 H   0  0  0  0  0  0  0  0  0  0  0  0  # atno 11005 bound_to 11000
  146.2980  139.7339  142.9112 LP  0  0  0  0  0  0  0  0  0  0  0  0  # atno 17320 bound_to 7965
  145.3993  141.0383  143.3079 LP  0  0  0  0  0  0  0  0  0  0  0  0  # atno 17321 bound_to 7965
  140.4527  144.1832  150.5899 LP  0  0  0  0  0  0  0  0  0  0  0  0  # atno 17342 bound_to 10162
  140.4567  143.2465  151.9275 LP  0  0  0  0  0  0  0  0  0  0  0  0  # atno 17343 bound_to 10162
  156.5106  130.8170  151.3167 LP  0  0  0  0  0  0  0  0  0  0  0  0  # atno 17370 bound_to 10713
  157.7436  130.9915  150.2603 LP  0  0  0  0  0  0  0  0  0  0  0  0  # atno 17371 bound_to 10713
  141.1686  133.6537  156.4571 LP  0  0  0  0  0  0  0  0  0  0  0  0  # atno 17394 bound_to 11000
  140.4616  134.6836  157.5088 LP  0  0  0  0  0  0  0  0  0  0  0  0  # atno 17395 bound_to 11000

$$$$
