#       Name:                AV-unprocessed.smi:165
#       Creating user name   scv26
#       Creation time:       Thu Mar 26 19:12:12 2020


#       File generated by GOLD software.
#

@<TRIPOS>MOLECULE
AV-unprocessed.smi:165
    67    71     1
SMALL
NO_CHARGES


@<TRIPOS>ATOM
      1 ****        -4.2898   3.5814   4.5427 O.3            1 S1                 0.0000
      2 ****        -3.7504   2.2780   4.6205 C.3            1 S1                 0.0000
      3 ****        -2.2198   2.2744   4.4600 C.3            1 S1                 0.0000
      4 ****        -1.5675   2.7973   5.7572 C.3            1 S1                 0.0000
      5 ****        -1.7231   4.1929   5.9125 O.3            1 S1                 0.0000
      6 ****        -1.6369   0.9286   3.9703 C.3            1 S1                 0.0000
      7 ****        -0.6823   1.6866   3.0464 C.3            1 S1                 0.0000
      8 ****        -0.2732   1.1391   1.7828 N.pl3          1 S1                 0.0000
      9 ****         1.0231   0.9514   1.3569 C.2            1 S1                 0.0000
     10 ****         1.1505   0.4326   0.1667 N.2            1 S1                 0.0000
     11 ****        -0.1575   0.2418  -0.2620 C.ar           1 S1                 0.0000
     12 ****        -0.7413  -0.2767  -1.4521 C.ar           1 S1                 0.0000
     13 ****         0.0034  -0.7492  -2.4827 N.3            1 S1                 0.0000
     14 ****        -0.6136  -0.8362  -3.8009 C.3            1 S1                 0.0000
     15 ****         0.4677  -1.0626  -4.8667 C.3            1 S1                 0.0000
     16 ****         1.2661  -2.1947  -4.5252 O.3            1 S1                 0.0000
     17 ****         1.9054  -2.1442  -3.2419 C.3            1 S1                 0.0000
     18 ****         2.5644  -3.5188  -3.0228 C.3            1 S1                 0.0000
     19 ****         3.7490  -3.7201  -3.9751 C.3            1 S1                 0.0000
     20 ****         4.7285  -2.5441  -3.8642 C.3            1 S1                 0.0000
     21 ****         4.0454  -1.3237  -4.1219 O.3            1 S1                 0.0000
     22 ****         3.0061  -1.0516  -3.1866 C.3            1 S1                 0.0000
     23 ****         0.8232  -1.9128  -2.1634 C.3            1 S1                 0.0000
     24 ****        -2.0988  -0.2898  -1.5301 N.ar           1 S1                 0.0000
     25 ****        -2.8362   0.1599  -0.5107 C.ar           1 S1                 0.0000
     26 ****        -2.4283   0.6591   0.6573 N.ar           1 S1                 0.0000
     27 ****        -1.0667   0.6867   0.7394 C.ar           1 S1                 0.0000
     28 ****        -1.6707   2.8502   3.1335 C.3            1 S1                 0.0000
     29 ****        -5.2298   3.5228   4.6192 H              1 S1                 0.0000
     30 ****        -4.0516   1.8251   5.5656 H              1 S1                 0.0000
     31 ****        -4.2218   1.6869   3.8346 H              1 S1                 0.0000
     32 ****        -1.9835   2.2995   6.6338 H              1 S1                 0.0000
     33 ****        -0.4979   2.5863   5.7706 H              1 S1                 0.0000
     34 ****        -1.3074   4.4541   6.7197 H              1 S1                 0.0000
     35 ****        -1.1410   0.3363   4.7400 H              1 S1                 0.0000
     36 ****        -2.3590   0.3208   3.4234 H              1 S1                 0.0000
     37 ****         0.2327   1.9401   3.5850 H              1 S1                 0.0000
     38 ****         1.8808   1.2128   1.9596 H              1 S1                 0.0000
     39 ****        -1.3272  -1.6611  -3.8130 H              1 S1                 0.0000
     40 ****        -1.1651   0.0779  -4.0249 H              1 S1                 0.0000
     41 ****         0.0010  -1.2461  -5.8344 H              1 S1                 0.0000
     42 ****         1.0867  -0.1745  -4.9905 H              1 S1                 0.0000
     43 ****         2.9199  -3.5952  -1.9943 H              1 S1                 0.0000
     44 ****         1.8348  -4.3184  -3.1571 H              1 S1                 0.0000
     45 ****         4.2588  -4.6562  -3.7466 H              1 S1                 0.0000
     46 ****         3.3900  -3.8018  -5.0018 H              1 S1                 0.0000
     47 ****         5.1912  -2.5131  -2.8766 H              1 S1                 0.0000
     48 ****         5.5338  -2.6573  -4.5901 H              1 S1                 0.0000
     49 ****         2.6047  -0.0587  -3.3840 H              1 S1                 0.0000
     50 ****         3.4346  -1.0009  -2.1843 H              1 S1                 0.0000
     51 ****         1.2936  -1.8171  -1.1852 H              1 S1                 0.0000
     52 ****         0.1664  -2.7819  -2.1044 H              1 S1                 0.0000
     53 ****        -3.9060   0.1118  -0.6507 H              1 S1                 0.0000
     54 ****        -2.4123   2.8439   2.3334 H              1 S1                 0.0000
     55 ****        -1.2016   3.8310   3.2155 H              1 S1                 0.0000
     56 ****        -4.0482   3.9944   3.6646 LP             1 S1                 0.0000
     57 ****        -3.9254   4.1420   5.2862 LP             1 S1                 0.0000
     58 ****        -2.6960   4.4219   5.9449 LP             1 S1                 0.0000
     59 ****        -1.2944   4.6674   5.1437 LP             1 S1                 0.0000
     60 ****         1.9954   0.2208  -0.3244 LP             1 S1                 0.0000
     61 ****         0.6268   0.0244  -2.5961 LP             1 S1                 0.0000
     62 ****         1.9794  -2.2878  -5.2198 LP             1 S1                 0.0000
     63 ****         0.6766  -3.0023  -4.5427 LP             1 S1                 0.0000
     64 ****         3.6446  -1.3714  -5.0369 LP             1 S1                 0.0000
     65 ****         4.7079  -0.5756  -4.0868 LP             1 S1                 0.0000
     66 ****        -2.5470  -0.6374  -2.3537 LP             1 S1                 0.0000
     67 ****        -3.0428   0.9732   1.3810 LP             1 S1                 0.0000
@<TRIPOS>BOND
    1    1    2 1     
    2    1   29 1     
    3    2    3 1     
    4    2   30 1     
    5    2   31 1     
    6    3   28 1     
    7    3    4 1     
    8    3    6 1     
    9    4    5 1     
   10    4   32 1     
   11    4   33 1     
   12    5   34 1     
   13    6    7 1     
   14    6   35 1     
   15    6   36 1     
   16    7    8 1     
   17    7   28 1     
   18    7   37 1     
   19    8   27 1     
   20    8    9 1     
   21    9   10 2     
   22    9   38 1     
   23   10   11 1     
   24   11   27 ar    
   25   11   12 ar    
   26   12   13 1     
   27   12   24 ar    
   28   13   23 1     
   29   13   14 1     
   30   14   15 1     
   31   14   39 1     
   32   14   40 1     
   33   15   16 1     
   34   15   41 1     
   35   15   42 1     
   36   16   17 1     
   37   17   22 1     
   38   17   18 1     
   39   17   23 1     
   40   18   19 1     
   41   18   43 1     
   42   18   44 1     
   43   19   20 1     
   44   19   45 1     
   45   19   46 1     
   46   20   21 1     
   47   20   47 1     
   48   20   48 1     
   49   21   22 1     
   50   22   49 1     
   51   22   50 1     
   52   23   51 1     
   53   23   52 1     
   54   24   25 ar    
   55   25   26 ar    
   56   25   53 1     
   57   26   27 ar    
   58   28   54 1     
   59   28   55 1     
   60    1   56 1     
   61    1   57 1     
   62    5   58 1     
   63    5   59 1     
   64   10   60 1     
   65   13   61 1     
   66   16   62 1     
   67   16   63 1     
   68   21   64 1     
   69   21   65 1     
   70   24   66 1     
   71   26   67 1     
@<TRIPOS>SUBSTRUCTURE
      1 S1             1
@<TRIPOS>SET
LONE_PAIRS      STATIC     ATOMS    <user>   **** ""
12 56 57 58 59 60 61 62 63 64 65 66 67
DONOR_HYDROGENS      STATIC     ATOMS    <user>   **** ""
2 29 34
ATOM$BLUE        STATIC     ATOMS    COLORGROUP SYSTEM
12 56 57 58 59 60 61 62 63 64 65 66 67
ATOM$RED        STATIC     ATOMS    COLORGROUP SYSTEM
2 29 34
