AV-unprocessed.smi:714|AV-procd|sdf|3483|dock2
  -GOLD-   22720 0473D 1   1.00000     0.00000
 Structure written by MMmdl.
 38 39  0  0  0  0  0  0  0  0  1 V2000
  145.6060  147.3289  159.5018 C   0  0  0  0  0  0  0  0  0  0  0  0
  145.8637  146.1812  159.8296 C   0  0  0  0  0  0  0  0  0  0  0  0
  146.1678  144.7916  160.2110 C   0  0  0  0  0  0  0  0  0  0  0  0
  146.8902  144.0682  159.1703 N   0  0  0  0  0  0  0  0  0  0  0  0
  146.7288  142.7689  158.8620 C   0  0  0  0  0  0  0  0  0  0  0  0
  145.9177  142.0564  159.4562 O   0  0  0  0  0  0  0  0  0  0  0  0
  147.5985  142.3071  157.7774 C   0  0  0  0  0  0  0  0  0  0  0  0
  147.0950  141.6962  156.5582 C   0  0  0  0  0  0  0  0  0  0  0  0
  147.9473  141.2493  155.6162 C   0  0  0  0  0  0  0  0  0  0  0  0
  149.4006  141.3656  155.7678 C   0  0  0  0  0  0  0  0  0  0  0  0
  150.1719  140.9203  154.9178 O   0  0  0  0  0  0  0  0  0  0  0  0
  149.8382  142.0004  156.9000 N   0  0  0  0  0  0  0  0  0  0  0  0
  151.2936  142.1503  157.1493 C   0  0  1  0  0  0  0  0  0  0  0  0
  151.7285  143.6100  157.4132 C   0  0  0  0  0  0  0  0  0  0  0  0
  152.1781  143.6814  158.8786 C   0  0  0  0  0  0  0  0  0  0  0  0
  152.2201  142.3024  159.3297 N   0  0  0  0  0  0  0  0  0  0  0  0
  152.7011  141.9750  160.6707 C   0  0  0  0  0  0  0  0  0  0  0  0
  153.8366  140.9359  160.6503 C   0  0  0  0  0  0  0  0  0  0  0  0
  154.3383  140.8192  161.8791 F   0  0  0  0  0  0  0  0  0  0  0  0
  153.3917  139.7416  160.2607 F   0  0  0  0  0  0  0  0  0  0  0  0
  154.8105  141.3300  159.8297 F   0  0  0  0  0  0  0  0  0  0  0  0
  151.7027  141.4454  158.4421 C   0  0  0  0  0  0  0  0  0  0  0  0
  151.5666  140.2336  158.6078 O   0  0  0  0  0  0  0  0  0  0  0  0
  148.9340  142.4310  157.8989 C   0  0  0  0  0  0  0  0  0  0  0  0
  145.3811  148.3308  159.2119 H   0  0  0  0  0  0  0  0  0  0  0  0
  146.7229  144.7990  161.1500 H   0  0  0  0  0  0  0  0  0  0  0  0
  145.2233  144.2821  160.4018 H   0  0  0  0  0  0  0  0  0  0  0  0
  147.5722  144.5946  158.6438 H   0  0  0  0  0  0  0  0  0  0  0  0
  146.0357  141.5840  156.3801 H   0  0  0  0  0  0  0  0  0  0  0  0
  147.5504  140.7948  154.7202 H   0  0  0  0  0  0  0  0  0  0  0  0
  151.9048  141.7531  156.3376 H   0  0  0  0  0  0  0  0  0  0  0  0
  152.5749  143.8507  156.7685 H   0  0  0  0  0  0  0  0  0  0  0  0
  150.9589  144.3485  157.1858 H   0  0  0  0  0  0  0  0  0  0  0  0
  153.1530  144.1597  158.9794 H   0  0  0  0  0  0  0  0  0  0  0  0
  151.4603  144.2397  159.4808 H   0  0  0  0  0  0  0  0  0  0  0  0
  153.0501  142.8881  161.1548 H   0  0  0  0  0  0  0  0  0  0  0  0
  151.8710  141.6099  161.2776 H   0  0  0  0  0  0  0  0  0  0  0  0
  149.4000  142.8520  158.7773 H   0  0  0  0  0  0  0  0  0  0  0  0
  1  2  3  0  0  0  0
  1 25  1  0  0  0  0
  2  3  1  0  0  0  0
  3  4  1  0  0  0  0
  3 26  1  0  0  0  0
  3 27  1  0  0  0  0
  4  5  1  0  0  0  0
  4 28  1  0  0  0  0
  5  6  2  0  0  0  0
  5  7  1  0  0  0  0
  7 24  2  0  0  0  0
  7  8  1  0  0  0  0
  8  9  2  0  0  0  0
  8 29  1  0  0  0  0
  9 10  1  0  0  0  0
  9 30  1  0  0  0  0
 10 11  2  0  0  0  0
 10 12  1  0  0  0  0
 12 13  1  0  0  0  0
 12 24  1  0  0  0  0
 13 22  1  0  0  0  0
 13 14  1  0  0  0  0
 13 31  1  0  0  0  0
 14 15  1  0  0  0  0
 14 32  1  0  0  0  0
 14 33  1  0  0  0  0
 15 16  1  0  0  0  0
 15 34  1  0  0  0  0
 15 35  1  0  0  0  0
 16 17  1  0  0  0  0
 16 22  1  0  0  0  0
 17 18  1  0  0  0  0
 17 36  1  0  0  0  0
 17 37  1  0  0  0  0
 18 19  1  0  0  0  0
 18 20  1  0  0  0  0
 18 21  1  0  0  0  0
 22 23  2  0  0  0  0
 24 38  1  0  0  0  0
M  END
> <s_m_source_file>
AV-unprocessed.smi

> <i_m_source_file_index>
714

> <i_lp_mmshare_version>
43012

> <i_f3d_flags>
0

> <s_epik_input>
W0NIXSNDW0NIMl1bTkhdQyg9TyljMVtjSF1bY0hdYyg9TyluKFtjSF0xKVtDQEBIXTJbQ0gyXVtDSDJdTihDMj1PKVtDSDJdQyhGKShGKUY=

> <s_epik_cmdline>
J2VwaWtfcHl0aG9uJywgJy1waCcsICc3LjAnLCAnLXRuJywgJzgnLCAnLW1hJywgJzIwMCcsICctbWV0YWxfYmluZGluZycsICctaW1hZScsICc8aW5maWxlLm1hZT4nLCAnLW9tYWUnLCAnPG91dGZpbGUubWFlPic=

> <r_lp_tautomer_probability>
1

> <r_epik_Ionization_Penalty>
2.95503e-06

> <r_epik_Ionization_Penalty_Charging>
5.74209e-08

> <r_epik_Ionization_Penalty_Neutral>
2.89761e-06

> <r_epik_State_Penalty>
-0

> <r_epik_Charging_Adjusted_Penalty>
5.74209e-08

> <i_epik_Tot_Q>
0

> <i_epik_Tot_abs_Q>
0

> <r_epik_Metal_State_Penalty>
-0

> <b_epik_Metal_Only>
0

> <s_lp_Force_Field>
OPLS_2005

> <r_lp_Energy>
33.0774

> <b_lp_Chiralities_Consistent>
1

> <s_lp_Variant>
AV-unprocessed.smi:714-2

> <Gold.Version>
5.8.1

> <Gold.Id.Protein>
6NUR|6NUR_protein|mol2

> <Gold.PLP.Fitness>
50.5211

> <Gold.PLP.PLP>
-44.9403

> <Gold.PLP.part.hbond>
-3.0000

> <Gold.PLP.part.metal>
0.0000

> <Gold.PLP.part.buried>
-4.7263

> <Gold.PLP.part.nonpolar>
-36.1696

> <Gold.PLP.part.repulsive>
0.1773

> <Gold.PLP.ligand.clash>
0.0000

> <Gold.PLP.ligand.torsion>
1.3221

> <Gold.PLP.Chemscore.Hbond>
2.6800

> <Gold.PLP.Chemscore.CHOScore>
0.0000

> <Gold.PLP.Chemscore.Metal>
0.0000

> <Gold.Chemscore.Hbonds>
donor molecule, donor type, donor heavy atom, donor atom, acceptor molecule, acceptor atom, score
      L1  H     4    28       P1  8029  0.93
      P1  H  6934  6946       L1     6  1.00
      P1  H  7989  7998       L1    11  0.74

> <Gold.PLP.Chemscore.Internal.Correction>
0.1850

> <Gold.Rescore>
     Score         DG    S(hbond)    S(metal)    S(lipo)     H(rot)  DE(clash)    DE(int)     intcor
     15.57     -18.64       2.56        0.00      74.73       1.61       0.09       2.97       ----

> <Gold.Chemscore.Fitness>
15.5680

> <Gold.Chemscore.DG>
-18.6358

> <Gold.Chemscore.ZeroCoef>
-5.4800

> <Gold.Chemscore.Hbond>
2.5579

> <Gold.Chemscore.Metal>
0.0000

> <Gold.Chemscore.Lipo>
74.7269

> <Gold.Chemscore.Internal_Hbond>
0.0000

> <Gold.Chemscore.DEClash>
0.0943

> <Gold.Chemscore.DEInternal>
2.9736

> <Gold.Chemscore.Rot>
1.6136

> <Gold.Chemscore.Internal.Correction>
   9.000000E+99

> <Gold.Chemscore.Hbonds>
donor molecule, donor type, donor heavy atom, donor atom, acceptor molecule, acceptor atom, score
      L1  H     4    28       P1  8029  0.87
      P1  H  6934  6946       L1     6  0.67
      P1  H  7989  7998       L1    11  0.69

> <Gold.Chemscore.Hbond.Weighted>
-8.5435

> <Gold.Chemscore.Metal.Weighted>
-0.0000

> <Gold.Chemscore.Lipo.Weighted>
-8.7431

> <Gold.Chemscore.Internal_Hbond.Weighted>
0.0000

> <Gold.Chemscore.DEClash.Weighted>
0.0943

> <Gold.Chemscore.DEInternal.Weighted>
2.9736

> <Gold.Chemscore.Rot.Weighted>
4.1308

> <Gold.Chemscore.Internal.Correction.Weighted>
   9.000000E+99

> <Gold.Protein.RotatedTorsions>
[ 6907 6896 6895 6894 ] final  111.37 input  -60.11 | X-H torsion
[ 7974 7965 7964 7962 ] final   73.09 input  175.53 | X-H torsion
[ 8008 7997 7996 7995 ] final  -94.97 input   59.86 | X-H torsion
[ 10167 10162 10161 10158 ] final  179.92 input  -65.29 | X-H torsion
[ 10718 10713 10712 10709 ] final   36.00 input   66.30 | X-H torsion
[ 10763 10752 10751 10750 ] final  -17.70 input  -60.55 | X-H torsion
[ 11005 11000 10999 10996 ] final  179.37 input  -57.11 | X-H torsion

> <Gold.Protein.ActiveResidues>
 VAL166  LYS551  ARG553  GLY616  TRP617  ASP618  TYR619  PRO620  LYS621  CYS622 
 ASP623  PHE694  ASN695  SER759  ASP760  ASP761  ALA762  ILE779  LEU786  VAL792 
 PHE793  MET794  SER795  GLU796  ALA797  LYS798  CYS799  TRP800  GLU811  SER814 

> <Gold.Protein.RotatedAtoms>
  152.4973  133.8667  159.7277 H   0  0  0  0  0  0  0  0  0  0  0  0  # atno 6907 bound_to 6896
  150.9164  133.6924  159.2849 H   0  0  0  0  0  0  0  0  0  0  0  0  # atno 6908 bound_to 6896
  151.4316  135.1014  159.9696 H   0  0  0  0  0  0  0  0  0  0  0  0  # atno 6909 bound_to 6896
  145.7452  139.2737  143.1463 H   0  0  0  0  0  0  0  0  0  0  0  0  # atno 7974 bound_to 7965
  154.7553  140.0484  157.0928 H   0  0  0  0  0  0  0  0  0  0  0  0  # atno 8008 bound_to 7997
  155.0006  140.3124  155.4849 H   0  0  0  0  0  0  0  0  0  0  0  0  # atno 8009 bound_to 7997
  156.2893  140.2202  156.5115 H   0  0  0  0  0  0  0  0  0  0  0  0  # atno 8010 bound_to 7997
  139.5357  144.2504  152.0789 H   0  0  0  0  0  0  0  0  0  0  0  0  # atno 10167 bound_to 10162
  157.3295  130.7490  149.6838 H   0  0  0  0  0  0  0  0  0  0  0  0  # atno 10718 bound_to 10713
  153.5778  135.7006  153.5476 H   0  0  0  0  0  0  0  0  0  0  0  0  # atno 10763 bound_to 10752
  153.3287  135.4053  155.1477 H   0  0  0  0  0  0  0  0  0  0  0  0  # atno 10764 bound_to 10752
  154.8622  135.3713  154.5304 H   0  0  0  0  0  0  0  0  0  0  0  0  # atno 10765 bound_to 10752
  140.4054  134.6740  157.4585 H   0  0  0  0  0  0  0  0  0  0  0  0  # atno 11005 bound_to 11000
  146.0409  140.8165  142.9829 LP  0  0  0  0  0  0  0  0  0  0  0  0  # atno 17320 bound_to 7965
  144.6861  140.2909  143.7278 LP  0  0  0  0  0  0  0  0  0  0  0  0  # atno 17321 bound_to 7965
  140.1974  144.4692  150.6448 LP  0  0  0  0  0  0  0  0  0  0  0  0  # atno 17342 bound_to 10162
  140.6562  143.2238  151.5962 LP  0  0  0  0  0  0  0  0  0  0  0  0  # atno 17343 bound_to 10162
  155.9694  130.4199  150.4398 LP  0  0  0  0  0  0  0  0  0  0  0  0  # atno 17370 bound_to 10713
  157.2428  131.0529  151.2426 LP  0  0  0  0  0  0  0  0  0  0  0  0  # atno 17371 bound_to 10713
  140.0306  134.6412  155.9112 LP  0  0  0  0  0  0  0  0  0  0  0  0  # atno 17394 bound_to 11000
  141.1841  133.6552  156.5143 LP  0  0  0  0  0  0  0  0  0  0  0  0  # atno 17395 bound_to 11000

$$$$
