AV-unprocessed.smi:223|AV-procd|sdf|1705|dock10
  -GOLD-   2262020163D 1   1.00000     0.00000
 Structure written by MMmdl.
 47 50  0  0  0  0  0  0  0  0  1 V2000
  152.4965  143.5323  158.2808 C   0  0  0  0  0  0  0  0  0  0  0  0
  152.2557  142.5677  159.4476 C   0  0  2  0  0  0  0  0  0  0  0  0
  152.2567  143.2889  160.7306 C   0  0  0  0  0  0  0  0  0  0  0  0
  152.2584  143.8561  161.7390 N   0  0  0  0  0  0  0  0  0  0  0  0
  153.2902  141.4264  159.4492 C   0  0  0  0  0  0  0  0  0  0  0  0
  152.7366  140.1588  158.9742 N   0  0  0  0  0  0  0  0  0  0  0  0
  152.3656  140.0170  157.6663 C   0  0  0  0  0  0  0  0  0  0  0  0
  153.0948  139.1612  156.9010 N   0  0  0  0  0  0  0  0  0  0  0  0
  152.7967  138.9555  155.6166 C   0  0  0  0  0  0  0  0  0  0  0  0
  151.8168  139.4951  154.8946 N   0  0  0  0  0  0  0  0  0  0  0  0
  151.0729  140.3581  155.6419 C   0  0  0  0  0  0  0  0  0  0  0  0
  151.2755  140.6825  157.0171 C   0  0  0  0  0  0  0  0  0  0  0  0
  150.3216  141.6204  157.4045 N   0  0  0  0  0  0  0  0  0  0  0  0
  149.5991  141.8227  156.3385 C   0  0  0  0  0  0  0  0  0  0  0  0
  149.9739  141.0948  155.2347 N   0  0  0  0  0  0  0  0  0  0  0  0
  149.3493  141.1193  153.9201 C   0  0  0  0  0  0  0  0  0  0  0  0
  147.8950  140.5902  153.9127 C   0  0  2  0  0  0  0  0  0  0  0  0
  147.7102  139.7564  152.7821 O   0  0  0  0  0  0  0  0  0  0  0  0
  146.8590  141.7055  153.8587 C   0  0  0  0  0  0  0  0  0  0  0  0
  145.6577  141.0809  154.5552 C   0  0  0  0  0  0  0  0  0  0  0  0
  146.2493  140.3529  155.6181 O   0  0  0  0  0  0  0  0  0  0  0  0
  147.4845  139.7996  155.1724 C   0  0  0  0  0  0  0  0  0  0  0  0
  153.2089  138.9498  159.6497 C   0  0  0  0  0  0  0  0  0  0  0  0
  154.1427  139.0691  160.8386 C   0  0  0  0  0  0  0  0  0  0  0  0
  154.6671  138.5588  159.5229 C   0  0  0  0  0  0  0  0  0  0  0  0
  151.7482  144.3250  158.2684 H   0  0  0  0  0  0  0  0  0  0  0  0
  152.4427  143.0113  157.3246 H   0  0  0  0  0  0  0  0  0  0  0  0
  153.4783  144.0013  158.3528 H   0  0  0  0  0  0  0  0  0  0  0  0
  151.2512  142.1603  159.3426 H   0  0  0  0  0  0  0  0  0  0  0  0
  154.1698  141.6881  158.8627 H   0  0  0  0  0  0  0  0  0  0  0  0
  153.6620  141.2991  160.4662 H   0  0  0  0  0  0  0  0  0  0  0  0
  153.4330  138.2568  155.0939 H   0  0  0  0  0  0  0  0  0  0  0  0
  148.7679  142.5126  156.3307 H   0  0  0  0  0  0  0  0  0  0  0  0
  149.3752  142.1463  153.5537 H   0  0  0  0  0  0  0  0  0  0  0  0
  149.9665  140.5361  153.2353 H   0  0  0  0  0  0  0  0  0  0  0  0
  148.5580  139.5503  152.4194 H   0  0  0  0  0  0  0  0  0  0  0  0
  147.1972  142.5661  154.4376 H   0  0  0  0  0  0  0  0  0  0  0  0
  146.6376  142.0518  152.8483 H   0  0  0  0  0  0  0  0  0  0  0  0
  144.9474  141.8226  154.9209 H   0  0  0  0  0  0  0  0  0  0  0  0
  145.1307  140.3958  153.8894 H   0  0  0  0  0  0  0  0  0  0  0  0
  147.3728  138.7321  154.9749 H   0  0  0  0  0  0  0  0  0  0  0  0
  148.2070  139.9073  155.9807 H   0  0  0  0  0  0  0  0  0  0  0  0
  152.4981  138.1262  159.6844 H   0  0  0  0  0  0  0  0  0  0  0  0
  154.4594  140.0641  161.1452 H   0  0  0  0  0  0  0  0  0  0  0  0
  154.0192  138.3504  161.6459 H   0  0  0  0  0  0  0  0  0  0  0  0
  154.8966  137.4978  159.4506 H   0  0  0  0  0  0  0  0  0  0  0  0
  155.3306  139.2176  158.9659 H   0  0  0  0  0  0  0  0  0  0  0  0
  1  2  1  0  0  0  0
  1 26  1  0  0  0  0
  1 27  1  0  0  0  0
  1 28  1  0  0  0  0
  2  3  1  0  0  0  0
  2  5  1  0  0  0  0
  2 29  1  0  0  0  0
  3  4  3  0  0  0  0
  5  6  1  0  0  0  0
  5 30  1  0  0  0  0
  5 31  1  0  0  0  0
  6  7  1  0  0  0  0
  6 23  1  0  0  0  0
  7 12  1  0  0  0  0
  7  8  2  0  0  0  0
  8  9  1  0  0  0  0
  9 10  2  0  0  0  0
  9 32  1  0  0  0  0
 10 11  1  0  0  0  0
 11 15  1  0  0  0  0
 11 12  2  0  0  0  0
 12 13  1  0  0  0  0
 13 14  2  0  0  0  0
 14 15  1  0  0  0  0
 14 33  1  0  0  0  0
 15 16  1  0  0  0  0
 16 17  1  0  0  0  0
 16 34  1  0  0  0  0
 16 35  1  0  0  0  0
 17 22  1  0  0  0  0
 17 18  1  0  0  0  0
 17 19  1  0  0  0  0
 18 36  1  0  0  0  0
 19 20  1  0  0  0  0
 19 37  1  0  0  0  0
 19 38  1  0  0  0  0
 20 21  1  0  0  0  0
 20 39  1  0  0  0  0
 20 40  1  0  0  0  0
 21 22  1  0  0  0  0
 22 41  1  0  0  0  0
 22 42  1  0  0  0  0
 23 25  1  0  0  0  0
 23 24  1  0  0  0  0
 23 43  1  0  0  0  0
 24 25  1  0  0  0  0
 24 44  1  0  0  0  0
 24 45  1  0  0  0  0
 25 46  1  0  0  0  0
 25 47  1  0  0  0  0
M  END
> <s_m_source_file>
AV-unprocessed.smi

> <i_m_source_file_index>
223

> <i_lp_mmshare_version>
43012

> <i_f3d_flags>
0

> <s_epik_input>
TiNDW0NAQEhdKFtDSDNdKVtDSDJdTihbQ0hdMVtDSDJdW0NIMl0xKWMobltjSF1uMiljKGMyMyluW2NIXW4zW0NIMl1bQ0BAXTQoW09IXSlbQ0gyXVtDSDJdT1tDSDJdNA==

> <s_epik_cmdline>
J2VwaWtfcHl0aG9uJywgJy1waCcsICc3LjAnLCAnLXRuJywgJzgnLCAnLW1hJywgJzIwMCcsICctbWV0YWxfYmluZGluZycsICctaW1hZScsICc8aW5maWxlLm1hZT4nLCAnLW9tYWUnLCAnPG91dGZpbGUubWFlPic=

> <r_lp_tautomer_probability>
1

> <r_epik_Ionization_Penalty>
0.000756152

> <r_epik_Ionization_Penalty_Charging>
0

> <r_epik_Ionization_Penalty_Neutral>
0.000756152

> <r_epik_State_Penalty>
0.00038036

> <r_epik_Charging_Adjusted_Penalty>
0.00038036

> <i_epik_Tot_Q>
0

> <i_epik_Tot_abs_Q>
0

> <r_epik_Metal_State_Penalty>
-0

> <b_epik_Metal_Only>
0

> <s_lp_Force_Field>
OPLS_2005

> <r_lp_Energy>
38.8251

> <b_lp_Chiralities_Consistent>
1

> <s_lp_Variant>
AV-unprocessed.smi:223-3

> <Gold.Version>
5.8.1

> <Gold.Id.Protein>
6NUR|6NUR_protein|mol2

> <Gold.PLP.Fitness>
52.3928

> <Gold.PLP.PLP>
-45.6964

> <Gold.PLP.part.hbond>
-3.0000

> <Gold.PLP.part.metal>
0.0000

> <Gold.PLP.part.buried>
-1.0763

> <Gold.PLP.part.nonpolar>
-41.6895

> <Gold.PLP.part.repulsive>
0.3206

> <Gold.PLP.ligand.clash>
0.0000

> <Gold.PLP.ligand.torsion>
3.0779

> <Gold.PLP.Chemscore.Hbond>
2.9913

> <Gold.PLP.Chemscore.CHOScore>
0.8358

> <Gold.PLP.Chemscore.Metal>
0.0000

> <Gold.Chemscore.Hbonds>
donor molecule, donor type, donor heavy atom, donor atom, acceptor molecule, acceptor atom, score
      L1  H    18    36       P1  7957  0.80
      P1  H  7989  7998       L1    10  0.25
      P1  H  7997  8009       L1     8  0.83
      L1  C    14    33       P1  8028  0.91

> <Gold.PLP.Chemscore.Internal.Correction>
1.3709

> <Gold.Rescore>
     Score         DG    S(hbond)    S(metal)    S(lipo)     H(rot)  DE(clash)    DE(int)     intcor
      7.89     -13.64       1.78        0.00      78.47       2.72       0.92       4.83       ----

> <Gold.Chemscore.Fitness>
7.8893

> <Gold.Chemscore.DG>
-13.6351

> <Gold.Chemscore.ZeroCoef>
-5.4800

> <Gold.Chemscore.Hbond>
1.7752

> <Gold.Chemscore.Metal>
0.0000

> <Gold.Chemscore.Lipo>
78.4750

> <Gold.Chemscore.Internal_Hbond>
0.0000

> <Gold.Chemscore.DEClash>
0.9174

> <Gold.Chemscore.DEInternal>
4.8285

> <Gold.Chemscore.Rot>
2.7171

> <Gold.Chemscore.Internal.Correction>
   9.000000E+99

> <Gold.Chemscore.Hbonds>
donor molecule, donor type, donor heavy atom, donor atom, acceptor molecule, acceptor atom, score
      L1  H    18    36       P1  7957  0.80
      P1  H  7997  8009       L1     8  0.08

> <Gold.Chemscore.Hbond.Weighted>
-5.9293

> <Gold.Chemscore.Metal.Weighted>
-0.0000

> <Gold.Chemscore.Lipo.Weighted>
-9.1816

> <Gold.Chemscore.Internal_Hbond.Weighted>
0.0000

> <Gold.Chemscore.DEClash.Weighted>
0.9174

> <Gold.Chemscore.DEInternal.Weighted>
4.8285

> <Gold.Chemscore.Rot.Weighted>
6.9558

> <Gold.Chemscore.Internal.Correction.Weighted>
   9.000000E+99

> <Gold.Protein.RotatedTorsions>
[ 6907 6896 6895 6894 ] final  129.76 input  -60.11 | X-H torsion
[ 7974 7965 7964 7962 ] final  148.46 input  175.53 | X-H torsion
[ 8008 7997 7996 7995 ] final  159.23 input   59.86 | X-H torsion
[ 10167 10162 10161 10158 ] final  -60.51 input  -65.29 | X-H torsion
[ 10718 10713 10712 10709 ] final -127.86 input   66.30 | X-H torsion
[ 10763 10752 10751 10750 ] final    3.15 input  -60.55 | X-H torsion
[ 11005 11000 10999 10996 ] final -173.29 input  -57.11 | X-H torsion

> <Gold.Protein.ActiveResidues>
 VAL166  LYS551  ARG553  GLY616  TRP617  ASP618  TYR619  PRO620  LYS621  CYS622 
 ASP623  PHE694  ASN695  SER759  ASP760  ASP761  ALA762  ILE779  LEU786  VAL792 
 PHE793  MET794  SER795  GLU796  ALA797  LYS798  CYS799  TRP800  GLU811  SER814 

> <Gold.Protein.RotatedAtoms>
  152.3593  133.6276  159.6002 H   0  0  0  0  0  0  0  0  0  0  0  0  # atno 6907 bound_to 6896
  150.7590  133.9449  159.3476 H   0  0  0  0  0  0  0  0  0  0  0  0  # atno 6908 bound_to 6896
  151.7290  135.0880  160.0348 H   0  0  0  0  0  0  0  0  0  0  0  0  # atno 6909 bound_to 6896
  144.8512  139.6157  143.5973 H   0  0  0  0  0  0  0  0  0  0  0  0  # atno 7974 bound_to 7965
  156.2252  140.1837  156.7380 H   0  0  0  0  0  0  0  0  0  0  0  0  # atno 8008 bound_to 7997
  154.5930  140.0648  156.9293 H   0  0  0  0  0  0  0  0  0  0  0  0  # atno 8009 bound_to 7997
  155.2304  140.3314  155.4306 H   0  0  0  0  0  0  0  0  0  0  0  0  # atno 8010 bound_to 7997
  140.6067  143.2375  151.5805 H   0  0  0  0  0  0  0  0  0  0  0  0  # atno 10167 bound_to 10162
  156.1897  130.6787  151.0408 H   0  0  0  0  0  0  0  0  0  0  0  0  # atno 10718 bound_to 10713
  153.2868  135.6945  153.7332 H   0  0  0  0  0  0  0  0  0  0  0  0  # atno 10763 bound_to 10752
  153.6298  135.3412  155.3039 H   0  0  0  0  0  0  0  0  0  0  0  0  # atno 10764 bound_to 10752
  154.8512  135.4406  154.1938 H   0  0  0  0  0  0  0  0  0  0  0  0  # atno 10765 bound_to 10752
  140.4874  134.6017  157.4942 H   0  0  0  0  0  0  0  0  0  0  0  0  # atno 11005 bound_to 11000
  146.2786  139.6817  142.9245 LP  0  0  0  0  0  0  0  0  0  0  0  0  # atno 17320 bound_to 7965
  145.4496  141.0427  143.2811 LP  0  0  0  0  0  0  0  0  0  0  0  0  # atno 17321 bound_to 7965
  139.5330  144.2861  152.1190 LP  0  0  0  0  0  0  0  0  0  0  0  0  # atno 17342 bound_to 10162
  140.2052  144.4618  150.6412 LP  0  0  0  0  0  0  0  0  0  0  0  0  # atno 17343 bound_to 10162
  157.6921  131.0806  150.7077 LP  0  0  0  0  0  0  0  0  0  0  0  0  # atno 17370 bound_to 10713
  156.7134  130.4658  149.5541 LP  0  0  0  0  0  0  0  0  0  0  0  0  # atno 17371 bound_to 10713
  139.9790  134.7169  155.9896 LP  0  0  0  0  0  0  0  0  0  0  0  0  # atno 17394 bound_to 11000
  141.1501  133.6550  156.3987 LP  0  0  0  0  0  0  0  0  0  0  0  0  # atno 17395 bound_to 11000

$$$$
