AV-unprocessed.smi:10|AV-procd|sdf|53|dock1
  -GOLD-   2262015173D 1   1.00000     0.00000
 Structure written by MMmdl.
 34 36  0  0  0  0  0  0  0  0  1 V2000
  152.2021  144.1630  161.5930 C   0  0  0  0  0  0  0  0  0  0  0  0
  152.4146  142.9366  160.8523 N   0  0  0  0  0  0  0  0  0  0  0  0
  153.1817  141.8889  161.2086 C   0  0  0  0  0  0  0  0  0  0  0  0
  153.1995  140.8800  160.3395 N   0  0  0  0  0  0  0  0  0  0  0  0
  152.3579  141.3400  159.3332 C   0  0  0  0  0  0  0  0  0  0  0  0
  151.9357  140.7040  158.0642 C   0  0  0  0  0  0  0  0  0  0  0  0
  152.3142  139.5805  157.7321 O   0  0  0  0  0  0  0  0  0  0  0  0
  151.0946  141.4880  157.3267 N   0  0  0  0  0  0  0  0  0  0  0  0
  150.5652  141.0167  156.0381 C   0  0  0  0  0  0  0  0  0  0  0  0
  149.2098  141.6782  155.6982 C   0  0  2  0  0  0  0  0  0  0  0  0
  148.2538  141.2742  156.6572 O   0  0  0  0  0  0  0  0  0  0  0  0
  148.6734  141.2477  154.3336 C   0  0  0  0  0  0  0  0  0  0  0  0
  147.3743  141.8688  153.7951 C   0  0  0  0  0  0  0  0  0  0  0  0
  147.0433  140.5177  153.1568 C   0  0  0  0  0  0  0  0  0  0  0  0
  147.9868  139.8807  154.1796 C   0  0  0  0  0  0  0  0  0  0  0  0
  150.6602  142.7765  157.7634 C   0  0  0  0  0  0  0  0  0  0  0  0
  151.0125  143.3612  158.8788 N   0  0  0  0  0  0  0  0  0  0  0  0
  151.8707  142.5839  159.6234 C   0  0  0  0  0  0  0  0  0  0  0  0
  152.8534  144.1943  162.4672 H   0  0  0  0  0  0  0  0  0  0  0  0
  151.1638  144.2174  161.9208 H   0  0  0  0  0  0  0  0  0  0  0  0
  152.4218  145.0203  160.9562 H   0  0  0  0  0  0  0  0  0  0  0  0
  153.7425  141.8645  162.1315 H   0  0  0  0  0  0  0  0  0  0  0  0
  151.2922  141.2409  155.2556 H   0  0  0  0  0  0  0  0  0  0  0  0
  150.4856  139.9278  156.0133 H   0  0  0  0  0  0  0  0  0  0  0  0
  149.2967  142.7654  155.7291 H   0  0  0  0  0  0  0  0  0  0  0  0
  148.3223  140.3388  156.7765 H   0  0  0  0  0  0  0  0  0  0  0  0
  149.4426  141.3443  153.5638 H   0  0  0  0  0  0  0  0  0  0  0  0
  146.6761  142.1426  154.5879 H   0  0  0  0  0  0  0  0  0  0  0  0
  147.5180  142.6853  153.0871 H   0  0  0  0  0  0  0  0  0  0  0  0
  145.9999  140.2135  153.2443 H   0  0  0  0  0  0  0  0  0  0  0  0
  147.4088  140.4313  152.1323 H   0  0  0  0  0  0  0  0  0  0  0  0
  148.6273  139.0925  153.7832 H   0  0  0  0  0  0  0  0  0  0  0  0
  147.4700  139.5601  155.0857 H   0  0  0  0  0  0  0  0  0  0  0  0
  149.9735  143.2648  157.0697 H   0  0  0  0  0  0  0  0  0  0  0  0
  1  2  1  0  0  0  0
  1 19  1  0  0  0  0
  1 20  1  0  0  0  0
  1 21  1  0  0  0  0
  2 18  1  0  0  0  0
  2  3  1  0  0  0  0
  3  4  2  0  0  0  0
  3 22  1  0  0  0  0
  4  5  1  0  0  0  0
  5 18  2  0  0  0  0
  5  6  1  0  0  0  0
  6  7  2  0  0  0  0
  6  8  1  0  0  0  0
  8  9  1  0  0  0  0
  8 16  1  0  0  0  0
  9 10  1  0  0  0  0
  9 23  1  0  0  0  0
  9 24  1  0  0  0  0
 10 11  1  0  0  0  0
 10 12  1  0  0  0  0
 10 25  1  0  0  0  0
 11 26  1  0  0  0  0
 12 15  1  0  0  0  0
 12 13  1  0  0  0  0
 12 27  1  0  0  0  0
 13 14  1  0  0  0  0
 13 28  1  0  0  0  0
 13 29  1  0  0  0  0
 14 15  1  0  0  0  0
 14 30  1  0  0  0  0
 14 31  1  0  0  0  0
 15 32  1  0  0  0  0
 15 33  1  0  0  0  0
 16 17  2  0  0  0  0
 16 34  1  0  0  0  0
 17 18  1  0  0  0  0
M  END
> <s_m_source_file>
AV-unprocessed.smi

> <i_m_source_file_index>
10

> <i_lp_mmshare_version>
43012

> <i_f3d_flags>
0

> <s_epik_input>
bjFbY0hdbihbQ0gzXSljKGMxMiluW2NIXW4oYzI9TylbQ0gyXVtDQEhdKFtPSF0pW0NIXTNbQ0gyXVtDSDJdW0NIMl0z

> <s_epik_cmdline>
J2VwaWtfcHl0aG9uJywgJy1waCcsICc3LjAnLCAnLXRuJywgJzgnLCAnLW1hJywgJzIwMCcsICctbWV0YWxfYmluZGluZycsICctaW1hZScsICc8aW5maWxlLm1hZT4nLCAnLW9tYWUnLCAnPG91dGZpbGUubWFlPic=

> <r_lp_tautomer_probability>
1

> <r_epik_Ionization_Penalty>
0.0003743

> <r_epik_Ionization_Penalty_Charging>
2.98177e-12

> <r_epik_Ionization_Penalty_Neutral>
0.000374299

> <r_epik_State_Penalty>
0.000224514

> <r_epik_Charging_Adjusted_Penalty>
0.000224514

> <i_epik_Tot_Q>
0

> <i_epik_Tot_abs_Q>
0

> <r_epik_Metal_State_Penalty>
-0

> <b_epik_Metal_Only>
0

> <s_lp_Force_Field>
OPLS_2005

> <r_lp_Energy>
32.1402

> <b_lp_Chiralities_Consistent>
1

> <s_lp_Variant>
AV-unprocessed.smi:10-1

> <Gold.Version>
5.8.1

> <Gold.Id.Protein>
6NUR|6NUR_protein|mol2

> <Gold.PLP.Fitness>
45.3586

> <Gold.PLP.PLP>
-40.3228

> <Gold.PLP.part.hbond>
-1.0000

> <Gold.PLP.part.metal>
0.0000

> <Gold.PLP.part.buried>
-4.1488

> <Gold.PLP.part.nonpolar>
-35.3189

> <Gold.PLP.part.repulsive>
0.0790

> <Gold.PLP.ligand.clash>
0.0000

> <Gold.PLP.ligand.torsion>
0.5430

> <Gold.PLP.Chemscore.Hbond>
1.0000

> <Gold.PLP.Chemscore.CHOScore>
1.0000

> <Gold.PLP.Chemscore.Metal>
0.0000

> <Gold.Chemscore.Hbonds>
donor molecule, donor type, donor heavy atom, donor atom, acceptor molecule, acceptor atom, score
      P1  H  7997  8010       L1     7  0.06
      L1  C    16    34       P1  8028  1.00

> <Gold.PLP.Chemscore.Internal.Correction>
0.1218

> <Gold.Rescore>
     Score         DG    S(hbond)    S(metal)    S(lipo)     H(rot)  DE(clash)    DE(int)     intcor
      9.40     -10.37       0.95        0.00      64.52       2.28       0.18       0.80       ----

> <Gold.Chemscore.Fitness>
9.3989

> <Gold.Chemscore.DG>
-10.3740

> <Gold.Chemscore.ZeroCoef>
-5.4800

> <Gold.Chemscore.Hbond>
0.9546

> <Gold.Chemscore.Metal>
0.0000

> <Gold.Chemscore.Lipo>
64.5190

> <Gold.Chemscore.Internal_Hbond>
0.0000

> <Gold.Chemscore.DEClash>
0.1769

> <Gold.Chemscore.DEInternal>
0.7982

> <Gold.Chemscore.Rot>
2.2824

> <Gold.Chemscore.Internal.Correction>
   9.000000E+99

> <Gold.Chemscore.Hbonds>
donor molecule, donor type, donor heavy atom, donor atom, acceptor molecule, acceptor atom, score
      P1  H  7997  8010       L1     7  0.03

> <Gold.Chemscore.Hbond.Weighted>
-3.1883

> <Gold.Chemscore.Metal.Weighted>
-0.0000

> <Gold.Chemscore.Lipo.Weighted>
-7.5487

> <Gold.Chemscore.Internal_Hbond.Weighted>
0.0000

> <Gold.Chemscore.DEClash.Weighted>
0.1769

> <Gold.Chemscore.DEInternal.Weighted>
0.7982

> <Gold.Chemscore.Rot.Weighted>
5.8431

> <Gold.Chemscore.Internal.Correction.Weighted>
   9.000000E+99

> <Gold.Protein.RotatedTorsions>
[ 6907 6896 6895 6894 ] final -108.58 input  -60.11 | X-H torsion
[ 7974 7965 7964 7962 ] final  -47.70 input  175.53 | X-H torsion
[ 8008 7997 7996 7995 ] final   64.49 input   59.86 | X-H torsion
[ 10167 10162 10161 10158 ] final  179.26 input  -65.29 | X-H torsion
[ 10718 10713 10712 10709 ] final   70.29 input   66.30 | X-H torsion
[ 10763 10752 10751 10750 ] final   89.13 input  -60.55 | X-H torsion
[ 11005 11000 10999 10996 ] final -109.14 input  -57.11 | X-H torsion

> <Gold.Protein.ActiveResidues>
 VAL166  LYS551  ARG553  GLY616  TRP617  ASP618  TYR619  PRO620  LYS621  CYS622 
 ASP623  PHE694  ASN695  SER759  ASP760  ASP761  ALA762  ILE779  LEU786  VAL792 
 PHE793  MET794  SER795  GLU796  ALA797  LYS798  CYS799  TRP800  GLU811  SER814 

> <Gold.Protein.RotatedAtoms>
  150.7510  133.9657  159.3529 H   0  0  0  0  0  0  0  0  0  0  0  0  # atno 6907 bound_to 6896
  151.7586  135.0813  160.0351 H   0  0  0  0  0  0  0  0  0  0  0  0  # atno 6908 bound_to 6896
  152.3418  133.6039  159.5918 H   0  0  0  0  0  0  0  0  0  0  0  0  # atno 6909 bound_to 6896
  145.9589  140.7499  142.9467 H   0  0  0  0  0  0  0  0  0  0  0  0  # atno 7974 bound_to 7965
  155.6469  140.3497  155.4734 H   0  0  0  0  0  0  0  0  0  0  0  0  # atno 8008 bound_to 7997
  155.9880  140.1188  157.0688 H   0  0  0  0  0  0  0  0  0  0  0  0  # atno 8009 bound_to 7997
  154.4210  140.1125  156.5512 H   0  0  0  0  0  0  0  0  0  0  0  0  # atno 8010 bound_to 7997
  139.5328  144.2583  152.0728 H   0  0  0  0  0  0  0  0  0  0  0  0  # atno 10167 bound_to 10162
  157.6392  130.9469  150.0630 H   0  0  0  0  0  0  0  0  0  0  0  0  # atno 10718 bound_to 10713
  153.1839  135.4481  155.0063 H   0  0  0  0  0  0  0  0  0  0  0  0  # atno 10763 bound_to 10752
  154.8048  135.3270  154.7462 H   0  0  0  0  0  0  0  0  0  0  0  0  # atno 10764 bound_to 10752
  153.7923  135.6969  153.4924 H   0  0  0  0  0  0  0  0  0  0  0  0  # atno 10765 bound_to 10752
  141.0863  133.9132  157.2177 H   0  0  0  0  0  0  0  0  0  0  0  0  # atno 11005 bound_to 11000
  144.6811  140.2557  143.7325 LP  0  0  0  0  0  0  0  0  0  0  0  0  # atno 17320 bound_to 7965
  145.8068  139.1986  143.2016 LP  0  0  0  0  0  0  0  0  0  0  0  0  # atno 17321 bound_to 7965
  140.2049  144.4621  150.6413 LP  0  0  0  0  0  0  0  0  0  0  0  0  # atno 17342 bound_to 10162
  140.6518  143.2227  151.6061 LP  0  0  0  0  0  0  0  0  0  0  0  0  # atno 17343 bound_to 10162
  156.1657  130.3645  149.9236 LP  0  0  0  0  0  0  0  0  0  0  0  0  # atno 17370 bound_to 10713
  156.7223  130.9011  151.3619 LP  0  0  0  0  0  0  0  0  0  0  0  0  # atno 17371 bound_to 10713
  139.9682  135.0136  156.9444 LP  0  0  0  0  0  0  0  0  0  0  0  0  # atno 17394 bound_to 11000
  140.5354  134.0772  155.7327 LP  0  0  0  0  0  0  0  0  0  0  0  0  # atno 17395 bound_to 11000

$$$$
