AV-unprocessed.smi:102|AV-procd|sdf|960|dock3
  -GOLD-   2262017503D 1   1.00000     0.00000
 Structure written by MMmdl.
 44 45  0  0  0  0  0  0  0  0  1 V2000
  150.9719  141.9409  156.3932 C   0  0  0  0  0  0  0  0  0  0  0  0
  151.8191  140.6780  156.4722 C   0  0  0  0  0  0  0  0  0  0  0  0
  152.3790  140.3443  157.5169 O   0  0  0  0  0  0  0  0  0  0  0  0
  151.8653  140.0172  155.3009 O   0  0  0  0  0  0  0  0  0  0  0  0
  152.1855  138.6332  155.2683 C   0  0  0  0  0  0  0  0  0  0  0  0
  151.0737  137.8254  154.5711 C   0  0  1  0  0  0  0  0  0  0  0  0
  151.3473  136.4309  154.6654 O   0  0  0  0  0  0  0  0  0  0  0  0
  150.8184  135.9149  155.8491 C   0  0  2  0  0  0  0  0  0  0  0  0
  150.1778  134.5787  155.5425 N   0  0  0  0  0  0  0  0  0  0  0  0
  149.3756  134.4093  154.4218 C   0  0  0  0  0  0  0  0  0  0  0  0
  148.7674  133.2376  154.1221 C   0  0  0  0  0  0  0  0  0  0  0  0
  148.0027  133.1497  153.0206 F   0  0  0  0  0  0  0  0  0  0  0  0
  148.9299  132.0723  154.9866 C   0  0  0  0  0  0  0  0  0  0  0  0
  148.4231  130.9685  154.7972 O   0  0  0  0  0  0  0  0  0  0  0  0
  149.7353  132.2929  156.1080 N   0  0  0  0  0  0  0  0  0  0  0  0
  150.3634  133.4969  156.4315 C   0  0  0  0  0  0  0  0  0  0  0  0
  151.0324  133.5840  157.4601 O   0  0  0  0  0  0  0  0  0  0  0  0
  149.8143  136.9444  156.4065 C   0  0  2  0  0  0  0  0  0  0  0  0
  148.5541  136.3727  156.7506 O   0  0  0  0  0  0  0  0  0  0  0  0
  148.3982  135.7329  157.9194 C   0  0  0  0  0  0  0  0  0  0  0  0
  147.0613  135.0098  158.0092 C   0  0  0  0  0  0  0  0  0  0  0  0
  149.2078  135.7090  158.8462 O   0  0  0  0  0  0  0  0  0  0  0  0
  149.7228  137.9694  155.2796 C   0  0  2  0  0  0  0  0  0  0  0  0
  148.6730  137.6405  154.3735 O   0  0  0  0  0  0  0  0  0  0  0  0
  148.0420  138.6019  153.6795 C   0  0  0  0  0  0  0  0  0  0  0  0
  146.9541  138.0410  152.7738 C   0  0  0  0  0  0  0  0  0  0  0  0
  148.2811  139.8083  153.7295 O   0  0  0  0  0  0  0  0  0  0  0  0
  149.8686  131.5171  156.7401 H   0  0  0  0  0  0  0  0  0  0  0  0
  149.9980  141.7190  155.9566 H   0  0  0  0  0  0  0  0  0  0  0  0
  151.4671  142.6897  155.7750 H   0  0  0  0  0  0  0  0  0  0  0  0
  150.8170  142.3609  157.3872 H   0  0  0  0  0  0  0  0  0  0  0  0
  153.1603  138.4554  154.8114 H   0  0  0  0  0  0  0  0  0  0  0  0
  152.2681  138.3020  156.3036 H   0  0  0  0  0  0  0  0  0  0  0  0
  151.0104  138.1302  153.5257 H   0  0  0  0  0  0  0  0  0  0  0  0
  151.6480  135.7245  156.5317 H   0  0  0  0  0  0  0  0  0  0  0  0
  149.2165  135.2418  153.7527 H   0  0  0  0  0  0  0  0  0  0  0  0
  150.2838  137.3992  157.2804 H   0  0  0  0  0  0  0  0  0  0  0  0
  146.8494  134.4830  157.0785 H   0  0  0  0  0  0  0  0  0  0  0  0
  146.2588  135.7239  158.1943 H   0  0  0  0  0  0  0  0  0  0  0  0
  147.0733  134.2833  158.8220 H   0  0  0  0  0  0  0  0  0  0  0  0
  149.5719  138.9714  155.6847 H   0  0  0  0  0  0  0  0  0  0  0  0
  146.2015  137.5193  153.3651 H   0  0  0  0  0  0  0  0  0  0  0  0
  147.3819  137.3383  152.0585 H   0  0  0  0  0  0  0  0  0  0  0  0
  146.4647  138.8429  152.2205 H   0  0  0  0  0  0  0  0  0  0  0  0
  1  2  1  0  0  0  0
  1 29  1  0  0  0  0
  1 30  1  0  0  0  0
  1 31  1  0  0  0  0
  2  3  2  0  0  0  0
  2  4  1  0  0  0  0
  4  5  1  0  0  0  0
  5  6  1  0  0  0  0
  5 32  1  0  0  0  0
  5 33  1  0  0  0  0
  6 23  1  0  0  0  0
  6  7  1  0  0  0  0
  6 34  1  0  0  0  0
  7  8  1  0  0  0  0
  8  9  1  0  0  0  0
  8 18  1  0  0  0  0
  8 35  1  0  0  0  0
  9 16  1  0  0  0  0
  9 10  1  0  0  0  0
 10 11  2  0  0  0  0
 10 36  1  0  0  0  0
 11 12  1  0  0  0  0
 11 13  1  0  0  0  0
 13 14  2  0  0  0  0
 13 15  1  0  0  0  0
 15 28  1  0  0  0  0
 15 16  1  0  0  0  0
 16 17  2  0  0  0  0
 18 19  1  0  0  0  0
 18 23  1  0  0  0  0
 18 37  1  0  0  0  0
 19 20  1  0  0  0  0
 20 21  1  0  0  0  0
 20 22  2  0  0  0  0
 21 38  1  0  0  0  0
 21 39  1  0  0  0  0
 21 40  1  0  0  0  0
 23 24  1  0  0  0  0
 23 41  1  0  0  0  0
 24 25  1  0  0  0  0
 25 26  1  0  0  0  0
 25 27  2  0  0  0  0
 26 42  1  0  0  0  0
 26 43  1  0  0  0  0
 26 44  1  0  0  0  0
M  END
> <s_m_source_file>
AV-unprocessed.smi

> <i_m_source_file_index>
102

> <i_lp_mmshare_version>
43012

> <i_f3d_flags>
0

> <s_epik_input>
W0NIM11DKD1PKU9bQ0gyXVtDQEBIXTFPW0NASF0oW0NAQEhdKE9DKD1PKVtDSDNdKVtDQEhdMU9DKD1PKVtDSDNdKW4yW2NIXWMoRiljKD1PKVtuSF1jMj1P

> <s_epik_cmdline>
J2VwaWtfcHl0aG9uJywgJy1waCcsICc3LjAnLCAnLXRuJywgJzgnLCAnLW1hJywgJzIwMCcsICctbWV0YWxfYmluZGluZycsICctaW1hZScsICc8aW5maWxlLm1hZT4nLCAnLW9tYWUnLCAnPG91dGZpbGUubWFlPic=

> <r_lp_tautomer_probability>
0.999537

> <r_epik_Ionization_Penalty>
0.058267

> <r_epik_Ionization_Penalty_Charging>
0.058267

> <r_epik_Ionization_Penalty_Neutral>
6.57791e-16

> <r_epik_State_Penalty>
0.0503774

> <r_epik_Charging_Adjusted_Penalty>
0.108644

> <i_epik_Tot_Q>
0

> <i_epik_Tot_abs_Q>
0

> <r_epik_Metal_State_Penalty>
2.6644

> <b_epik_Metal_Only>
0

> <s_epik_Chemistry_Notes>
This compound has an ester and may undergo hydrolysis at high or low pH. This compound contains an acetal/aminal-like group ( X-CH(R)-Y where X, Y are N, S, or O) that may be acid/base labile, releasing an aldehyde.

> <s_lp_Force_Field>
OPLS_2005

> <r_lp_Energy>
13.3238

> <b_lp_Chiralities_Consistent>
1

> <s_lp_Variant>
AV-unprocessed.smi:102-16

> <Gold.Version>
5.8.1

> <Gold.Id.Protein>
6NUR|6NUR_protein|mol2

> <Gold.PLP.Fitness>
44.0980

> <Gold.PLP.PLP>
-33.6087

> <Gold.PLP.part.hbond>
-5.0000

> <Gold.PLP.part.metal>
0.0000

> <Gold.PLP.part.buried>
-4.9590

> <Gold.PLP.part.nonpolar>
-26.0146

> <Gold.PLP.part.repulsive>
1.6124

> <Gold.PLP.ligand.clash>
0.0000

> <Gold.PLP.ligand.torsion>
1.7831

> <Gold.PLP.Chemscore.Hbond>
3.5761

> <Gold.PLP.Chemscore.CHOScore>
1.0000

> <Gold.PLP.Chemscore.Metal>
0.0000

> <Gold.Chemscore.Hbonds>
donor molecule, donor type, donor heavy atom, donor atom, acceptor molecule, acceptor atom, score
      P1  H  6896  6908       L1    17  0.54
      P1  H  6896  6909       L1    22  0.98
      P1  H  7997  8009       L1     3  0.53
      P1  H 10752 10765       L1     7  1.00
      L1  C    10    36       P1  7948  1.00

> <Gold.PLP.Chemscore.Internal.Correction>
0.3272

> <Gold.Rescore>
     Score         DG    S(hbond)    S(metal)    S(lipo)     H(rot)  DE(clash)    DE(int)     intcor
      8.27     -10.00       2.95        0.00      43.05       4.05       0.13       1.60       ----

> <Gold.Chemscore.Fitness>
8.2732

> <Gold.Chemscore.DG>
-10.0025

> <Gold.Chemscore.ZeroCoef>
-5.4800

> <Gold.Chemscore.Hbond>
2.9516

> <Gold.Chemscore.Metal>
0.0000

> <Gold.Chemscore.Lipo>
43.0547

> <Gold.Chemscore.Internal_Hbond>
0.0000

> <Gold.Chemscore.DEClash>
0.1263

> <Gold.Chemscore.DEInternal>
1.6030

> <Gold.Chemscore.Rot>
4.0520

> <Gold.Chemscore.Internal.Correction>
   9.000000E+99

> <Gold.Chemscore.Hbonds>
donor molecule, donor type, donor heavy atom, donor atom, acceptor molecule, acceptor atom, score
      P1  H  6896  6908       L1    17  0.54
      P1  H  6896  6909       L1    22  0.89
      P1  H  7997  8009       L1     3  0.10
      P1  H 10752 10765       L1     7  0.85

> <Gold.Chemscore.Hbond.Weighted>
-9.8583

> <Gold.Chemscore.Metal.Weighted>
-0.0000

> <Gold.Chemscore.Lipo.Weighted>
-5.0374

> <Gold.Chemscore.Internal_Hbond.Weighted>
0.0000

> <Gold.Chemscore.DEClash.Weighted>
0.1263

> <Gold.Chemscore.DEInternal.Weighted>
1.6030

> <Gold.Chemscore.Rot.Weighted>
10.3732

> <Gold.Chemscore.Internal.Correction.Weighted>
   9.000000E+99

> <Gold.Protein.RotatedTorsions>
[ 6907 6896 6895 6894 ] final   73.95 input  -60.11 | X-H torsion
[ 7974 7965 7964 7962 ] final -148.18 input  175.53 | X-H torsion
[ 8008 7997 7996 7995 ] final  176.49 input   59.86 | X-H torsion
[ 10167 10162 10161 10158 ] final -177.20 input  -65.29 | X-H torsion
[ 10718 10713 10712 10709 ] final   83.19 input   66.30 | X-H torsion
[ 10763 10752 10751 10750 ] final  151.22 input  -60.55 | X-H torsion
[ 11005 11000 10999 10996 ] final   19.43 input  -57.11 | X-H torsion

> <Gold.Protein.ActiveResidues>
 VAL166  LYS551  ARG553  GLY616  TRP617  ASP618  TYR619  PRO620  LYS621  CYS622 
 ASP623  PHE694  ASN695  SER759  ASP760  ASP761  ALA762  ILE779  LEU786  VAL792 
 PHE793  MET794  SER795  GLU796  ALA797  LYS798  CYS799  TRP800  GLU811  SER814 

> <Gold.Protein.RotatedAtoms>
  152.4950  134.4344  159.9522 H   0  0  0  0  0  0  0  0  0  0  0  0  # atno 6907 bound_to 6896
  151.4325  133.3660  159.2778 H   0  0  0  0  0  0  0  0  0  0  0  0  # atno 6908 bound_to 6896
  150.9145  134.8585  159.7507 H   0  0  0  0  0  0  0  0  0  0  0  0  # atno 6909 bound_to 6896
  144.8046  140.5230  143.5684 H   0  0  0  0  0  0  0  0  0  0  0  0  # atno 7974 bound_to 7965
  156.0759  140.1382  156.9772 H   0  0  0  0  0  0  0  0  0  0  0  0  # atno 8008 bound_to 7997
  154.4557  140.0962  156.6802 H   0  0  0  0  0  0  0  0  0  0  0  0  # atno 8009 bound_to 7997
  155.5153  140.3455  155.4398 H   0  0  0  0  0  0  0  0  0  0  0  0  # atno 8010 bound_to 7997
  139.5492  144.2154  152.1045 H   0  0  0  0  0  0  0  0  0  0  0  0  # atno 10167 bound_to 10162
  157.6874  131.0080  150.2487 H   0  0  0  0  0  0  0  0  0  0  0  0  # atno 10718 bound_to 10713
  154.1003  135.2846  155.3253 H   0  0  0  0  0  0  0  0  0  0  0  0  # atno 10763 bound_to 10752
  154.6560  135.5352  153.7963 H   0  0  0  0  0  0  0  0  0  0  0  0  # atno 10764 bound_to 10752
  153.0381  135.6522  154.1167 H   0  0  0  0  0  0  0  0  0  0  0  0  # atno 10765 bound_to 10752
  140.4138  134.1590  155.7668 H   0  0  0  0  0  0  0  0  0  0  0  0  # atno 11005 bound_to 11000
  145.5470  139.1476  143.3415 LP  0  0  0  0  0  0  0  0  0  0  0  0  # atno 17320 bound_to 7965
  146.2335  140.5609  142.8965 LP  0  0  0  0  0  0  0  0  0  0  0  0  # atno 17321 bound_to 7965
  140.1646  144.4993  150.6613 LP  0  0  0  0  0  0  0  0  0  0  0  0  # atno 17342 bound_to 10162
  140.6750  143.2301  151.5531 LP  0  0  0  0  0  0  0  0  0  0  0  0  # atno 17343 bound_to 10162
  156.3088  130.3769  149.7681 LP  0  0  0  0  0  0  0  0  0  0  0  0  # atno 17370 bound_to 10713
  156.5288  130.8248  151.3230 LP  0  0  0  0  0  0  0  0  0  0  0  0  # atno 17371 bound_to 10713
  141.1811  133.8412  157.1255 LP  0  0  0  0  0  0  0  0  0  0  0  0  # atno 17394 bound_to 11000
  140.0248  134.9929  157.0665 LP  0  0  0  0  0  0  0  0  0  0  0  0  # atno 17395 bound_to 11000

$$$$
