#       Name:                AV-unprocessed.smi:3148
#       Creating user name   scv26
#       Creation time:       Fri Mar 27 17:39:51 2020


#       File generated by GOLD software.
#

@<TRIPOS>MOLECULE
AV-unprocessed.smi:3148
    40    42     1
SMALL
NO_CHARGES


@<TRIPOS>ATOM
      1 ****        -3.5343  -1.2773  -0.0119 C.3            1 S1                 0.0000
      2 ****        -2.8101  -2.5022  -0.0489 O.3            1 S1                 0.0000
      3 ****        -1.4370  -2.4478   0.0705 C.ar           1 S1                 0.0000
      4 ****        -0.6887  -3.6417   0.0288 C.ar           1 S1                 0.0000
      5 ****         0.7099  -3.5108   0.1574 C.ar           1 S1                 0.0000
      6 ****         1.6246  -4.7167   0.1226 C.3            1 S1                 0.0000
      7 ****         1.3016  -2.3057   0.3124 N.ar           1 S1                 0.0000
      8 ****         0.5022  -1.2368   0.3363 C.ar           1 S1                 0.0000
      9 ****         1.1398  -0.0190   0.4862 N.pl3          1 S1                 0.0000
     10 ****         0.4822   1.2755   0.3558 C.3            1 S1                 0.0000
     11 ****         0.1288   1.6234  -1.0956 C.3            1 S1                 0.0000
     12 ****         0.8356   2.9722  -1.2787 C.3            1 S1                 0.0000
     13 ****         0.1793   4.0894  -0.4562 C.3            1 S1                 0.0000
     14 ****         0.6170   3.7298   0.9636 C.3            1 S1                 0.0000
     15 ****         1.4147   2.4391   0.7319 C.3            1 S1                 0.0000
     16 ****         2.0094   2.7421  -0.5199 O.3            1 S1                 0.0000
     17 ****        -0.8310  -1.2444   0.2249 N.ar           1 S1                 0.0000
     18 ****        -4.5996  -1.4844  -0.1115 H              1 S1                 0.0000
     19 ****        -3.2465  -0.6197  -0.8335 H              1 S1                 0.0000
     20 ****        -3.3857  -0.7539   0.9337 H              1 S1                 0.0000
     21 ****        -1.1650  -4.6028  -0.0965 H              1 S1                 0.0000
     22 ****         1.0524  -5.6447   0.1080 H              1 S1                 0.0000
     23 ****         2.2720  -4.7300   0.9999 H              1 S1                 0.0000
     24 ****         2.2526  -4.6885  -0.7682 H              1 S1                 0.0000
     25 ****         2.1479  -0.0329   0.5399 H              1 S1                 0.0000
     26 ****        -0.4019   1.2867   0.9947 H              1 S1                 0.0000
     27 ****         0.5326   0.8901  -1.7955 H              1 S1                 0.0000
     28 ****        -0.9469   1.6890  -1.2614 H              1 S1                 0.0000
     29 ****         1.0190   3.2367  -2.3202 H              1 S1                 0.0000
     30 ****         0.5721   5.0659  -0.7415 H              1 S1                 0.0000
     31 ****        -0.9046   4.1073  -0.5746 H              1 S1                 0.0000
     32 ****         1.2579   4.5108   1.3746 H              1 S1                 0.0000
     33 ****        -0.2237   3.5857   1.6429 H              1 S1                 0.0000
     34 ****         2.1223   2.2146   1.5309 H              1 S1                 0.0000
     35 ****        -3.0151  -2.9423  -0.9231 LP             1 S1                 0.0000
     36 ****        -3.1510  -3.0717   0.6990 LP             1 S1                 0.0000
     37 ****         2.2935  -2.2186   0.4050 LP             1 S1                 0.0000
     38 ****         2.5892   3.5555  -0.4717 LP             1 S1                 0.0000
     39 ****         2.5414   1.9744  -0.8771 LP             1 S1                 0.0000
     40 ****        -1.3598  -0.3961   0.2543 LP             1 S1                 0.0000
@<TRIPOS>BOND
    1    1    2 1     
    2    1   18 1     
    3    1   19 1     
    4    1   20 1     
    5    2    3 1     
    6    3   17 ar    
    7    3    4 ar    
    8    4    5 ar    
    9    4   21 1     
   10    5    6 1     
   11    5    7 ar    
   12    6   22 1     
   13    6   23 1     
   14    6   24 1     
   15    7    8 ar    
   16    8    9 1     
   17    8   17 ar    
   18    9   10 1     
   19    9   25 1     
   20   10   15 1     
   21   10   11 1     
   22   10   26 1     
   23   11   12 1     
   24   11   27 1     
   25   11   28 1     
   26   12   16 1     
   27   12   13 1     
   28   12   29 1     
   29   13   14 1     
   30   13   30 1     
   31   13   31 1     
   32   14   15 1     
   33   14   32 1     
   34   14   33 1     
   35   15   16 1     
   36   15   34 1     
   37    2   35 1     
   38    2   36 1     
   39    7   37 1     
   40   16   38 1     
   41   16   39 1     
   42   17   40 1     
@<TRIPOS>SUBSTRUCTURE
      1 S1             1
@<TRIPOS>SET
LONE_PAIRS      STATIC     ATOMS    <user>   **** ""
6 35 36 37 38 39 40
DONOR_HYDROGENS      STATIC     ATOMS    <user>   **** ""
1 25
ATOM$BLUE        STATIC     ATOMS    COLORGROUP SYSTEM
6 35 36 37 38 39 40
ATOM$RED        STATIC     ATOMS    COLORGROUP SYSTEM
1 25
