#       Name:                AV-unprocessed.smi:232
#       Creating user name   scv26
#       Creation time:       Thu Mar 26 20:32:35 2020


#       File generated by GOLD software.
#

@<TRIPOS>MOLECULE
AV-unprocessed.smi:232
    60    63     1
SMALL
NO_CHARGES


@<TRIPOS>ATOM
      1 ****        -3.0760  -2.2969   1.2311 C.3            1 S1                 0.0000
      2 ****        -4.1682  -1.3461   1.7396 C.3            1 S1                 0.0000
      3 ****        -3.6142  -0.0222   2.2970 C.3            1 S1                 0.0000
      4 ****        -4.6829   0.8302   3.0048 C.3            1 S1                 0.0000
      5 ****        -4.3102   2.2646   2.6439 C.3            1 S1                 0.0000
      6 ****        -3.7878   2.0873   1.2221 C.3            1 S1                 0.0000
      7 ****        -3.0534   3.3143   0.6452 C.3            1 S1                 0.0000
      8 ****        -3.0423   0.8266   1.2443 N.3            1 S1                 0.0000
      9 ****        -1.6897   0.8907   1.1963 C.ar           1 S1                 0.0000
     10 ****        -0.9703   1.1836   2.3123 N.ar           1 S1                 0.0000
     11 ****         0.3634   1.2489   2.2486 C.ar           1 S1                 0.0000
     12 ****         1.1596   1.0647   1.1926 N.ar           1 S1                 0.0000
     13 ****         0.4361   0.7818   0.0714 C.ar           1 S1                 0.0000
     14 ****        -0.9799   0.6807  -0.0142 C.ar           1 S1                 0.0000
     15 ****        -1.3611   0.3838  -1.3164 N.2            1 S1                 0.0000
     16 ****        -0.2308   0.3074  -1.9652 C.2            1 S1                 0.0000
     17 ****         0.8973   0.5280  -1.2073 N.pl3          1 S1                 0.0000
     18 ****         2.2751   0.4919  -1.6628 C.3            1 S1                 0.0000
     19 ****         2.9613  -0.8485  -1.3362 C.3            1 S1                 0.0000
     20 ****         2.2708  -1.9234  -1.9451 O.3            1 S1                 0.0000
     21 ****         4.4509  -0.8712  -1.7331 C.3            1 S1                 0.0000
     22 ****         5.2002  -2.1843  -1.4902 C.3            1 S1                 0.0000
     23 ****         6.3366  -2.0627  -2.4804 C.3            1 S1                 0.0000
     24 ****         5.6448  -1.3968  -3.6670 C.3            1 S1                 0.0000
     25 ****         4.6392  -0.5539  -3.1105 O.3            1 S1                 0.0000
     26 ****        -3.5080  -3.2430   0.9047 H              1 S1                 0.0000
     27 ****        -2.3491  -2.5157   2.0136 H              1 S1                 0.0000
     28 ****        -2.5389  -1.8712   0.3836 H              1 S1                 0.0000
     29 ****        -4.8827  -1.1456   0.9403 H              1 S1                 0.0000
     30 ****        -4.7255  -1.8551   2.5268 H              1 S1                 0.0000
     31 ****        -2.8561  -0.2684   3.0411 H              1 S1                 0.0000
     32 ****        -5.6738   0.6065   2.6066 H              1 S1                 0.0000
     33 ****        -4.7120   0.6598   4.0813 H              1 S1                 0.0000
     34 ****        -5.1548   2.9512   2.7053 H              1 S1                 0.0000
     35 ****        -3.5199   2.6292   3.3019 H              1 S1                 0.0000
     36 ****        -4.6458   1.9027   0.5740 H              1 S1                 0.0000
     37 ****        -3.7185   4.1773   0.6119 H              1 S1                 0.0000
     38 ****        -2.7105   3.1274  -0.3729 H              1 S1                 0.0000
     39 ****        -2.1890   3.5947   1.2480 H              1 S1                 0.0000
     40 ****         0.8641   1.4808   3.1770 H              1 S1                 0.0000
     41 ****        -0.1879   0.0795  -3.0203 H              1 S1                 0.0000
     42 ****         2.2918   0.6818  -2.7368 H              1 S1                 0.0000
     43 ****         2.8118   1.3160  -1.1910 H              1 S1                 0.0000
     44 ****         2.9011  -1.0125  -0.2594 H              1 S1                 0.0000
     45 ****         2.3410  -1.8282  -2.8827 H              1 S1                 0.0000
     46 ****         4.9660  -0.0879  -1.1742 H              1 S1                 0.0000
     47 ****         5.5389  -2.2959  -0.4599 H              1 S1                 0.0000
     48 ****         4.5887  -3.0510  -1.7432 H              1 S1                 0.0000
     49 ****         7.1135  -1.4089  -2.0815 H              1 S1                 0.0000
     50 ****         6.7908  -3.0210  -2.7337 H              1 S1                 0.0000
     51 ****         6.3375  -0.8331  -4.2921 H              1 S1                 0.0000
     52 ****         5.1587  -2.1474  -4.2913 H              1 S1                 0.0000
     53 ****        -3.1753   0.3869   0.3561 LP             1 S1                 0.0000
     54 ****        -1.4385   1.3500   3.1801 LP             1 S1                 0.0000
     55 ****         2.1573   1.1262   1.2202 LP             1 S1                 0.0000
     56 ****        -2.2865   0.2578  -1.6739 LP             1 S1                 0.0000
     57 ****         1.3084  -1.9037  -1.6743 LP             1 S1                 0.0000
     58 ****         2.6790  -2.7913  -1.6618 LP             1 S1                 0.0000
     59 ****         4.9224   0.4014  -3.1954 LP             1 S1                 0.0000
     60 ****         3.7802  -0.6920  -3.6034 LP             1 S1                 0.0000
@<TRIPOS>BOND
    1    1    2 1     
    2    1   26 1     
    3    1   27 1     
    4    1   28 1     
    5    2    3 1     
    6    2   29 1     
    7    2   30 1     
    8    3    8 1     
    9    3    4 1     
   10    3   31 1     
   11    4    5 1     
   12    4   32 1     
   13    4   33 1     
   14    5    6 1     
   15    5   34 1     
   16    5   35 1     
   17    6    7 1     
   18    6    8 1     
   19    6   36 1     
   20    7   37 1     
   21    7   38 1     
   22    7   39 1     
   23    8    9 1     
   24    9   14 ar    
   25    9   10 ar    
   26   10   11 ar    
   27   11   12 ar    
   28   11   40 1     
   29   12   13 ar    
   30   13   17 1     
   31   13   14 ar    
   32   14   15 1     
   33   15   16 2     
   34   16   17 1     
   35   16   41 1     
   36   17   18 1     
   37   18   19 1     
   38   18   42 1     
   39   18   43 1     
   40   19   20 1     
   41   19   21 1     
   42   19   44 1     
   43   20   45 1     
   44   21   25 1     
   45   21   22 1     
   46   21   46 1     
   47   22   23 1     
   48   22   47 1     
   49   22   48 1     
   50   23   24 1     
   51   23   49 1     
   52   23   50 1     
   53   24   25 1     
   54   24   51 1     
   55   24   52 1     
   56    8   53 1     
   57   10   54 1     
   58   12   55 1     
   59   15   56 1     
   60   20   57 1     
   61   20   58 1     
   62   25   59 1     
   63   25   60 1     
@<TRIPOS>SUBSTRUCTURE
      1 S1             1
@<TRIPOS>SET
LONE_PAIRS      STATIC     ATOMS    <user>   **** ""
8 53 54 55 56 57 58 59 60
DONOR_HYDROGENS      STATIC     ATOMS    <user>   **** ""
1 45
ATOM$BLUE        STATIC     ATOMS    COLORGROUP SYSTEM
8 53 54 55 56 57 58 59 60
ATOM$RED        STATIC     ATOMS    COLORGROUP SYSTEM
1 45
