AV-unprocessed.smi:25|AV-procd|sdf|182|dock1
  -GOLD-   2262015443D 1   1.00000     0.00000
 Structure written by MMmdl.
 47 50  0  0  0  0  0  0  0  0  1 V2000
  149.5128  141.7877  156.4258 C   0  0  0  0  0  0  0  0  0  0  0  0
  151.0332  141.9916  156.5868 C   0  0  1  0  0  0  0  0  0  0  0  0
  151.3419  143.2725  157.3934 C   0  0  0  0  0  0  0  0  0  0  0  0
  152.0532  142.7529  158.6035 C   0  0  0  0  0  0  0  0  0  0  0  0
  152.5007  143.5251  159.6891 C   0  0  0  0  0  0  0  0  0  0  0  0
  153.1544  142.8705  160.7514 C   0  0  0  0  0  0  0  0  0  0  0  0
  153.3468  141.4725  160.7100 C   0  0  0  0  0  0  0  0  0  0  0  0
  152.8898  140.7123  159.6111 C   0  0  0  0  0  0  0  0  0  0  0  0
  152.2311  141.3711  158.5439 C   0  0  0  0  0  0  0  0  0  0  0  0
  151.6716  140.8765  157.3256 N   0  0  0  0  0  0  0  0  0  0  0  0
  151.7734  139.6426  156.7586 C   0  0  0  0  0  0  0  0  0  0  0  0
  152.1974  138.6815  157.4053 O   0  0  0  0  0  0  0  0  0  0  0  0
  151.3417  139.3918  155.3012 C   0  0  0  0  0  0  0  0  0  0  0  0
  150.3696  138.2834  155.1517 N   0  0  0  0  0  0  0  0  0  0  0  0
  150.8220  136.9501  155.3116 C   0  0  0  0  0  0  0  0  0  0  0  0
  152.0034  136.6986  155.5532 O   0  0  0  0  0  0  0  0  0  0  0  0
  149.7995  135.9198  155.1757 C   0  0  0  0  0  0  0  0  0  0  0  0
  150.1222  134.6311  155.3784 F   0  0  0  0  0  0  0  0  0  0  0  0
  148.5264  136.2404  154.8669 C   0  0  0  0  0  0  0  0  0  0  0  0
  148.1117  137.5401  154.6355 N   0  0  0  0  0  0  0  0  0  0  0  0
  146.6591  137.8775  154.3679 C   0  0  1  0  0  0  0  0  0  0  0  0
  146.4052  138.5312  152.9980 C   0  0  0  0  0  0  0  0  0  0  0  0
  145.7747  137.3988  152.2115 C   0  0  0  0  0  0  0  0  0  0  0  0
  145.0479  136.6307  153.3084 C   0  0  0  0  0  0  0  0  0  0  0  0
  145.9356  136.6841  154.4173 O   0  0  0  0  0  0  0  0  0  0  0  0
  149.0262  138.5997  154.8323 C   0  0  0  0  0  0  0  0  0  0  0  0
  148.6664  139.7737  154.7182 O   0  0  0  0  0  0  0  0  0  0  0  0
  149.0572  142.6448  155.9294 H   0  0  0  0  0  0  0  0  0  0  0  0
  149.0272  141.6693  157.3952 H   0  0  0  0  0  0  0  0  0  0  0  0
  149.2765  140.9078  155.8279 H   0  0  0  0  0  0  0  0  0  0  0  0
  151.4898  142.0844  155.5995 H   0  0  0  0  0  0  0  0  0  0  0  0
  151.9954  143.9476  156.8398 H   0  0  0  0  0  0  0  0  0  0  0  0
  150.4444  143.8199  157.6845 H   0  0  0  0  0  0  0  0  0  0  0  0
  152.3469  144.5940  159.7092 H   0  0  0  0  0  0  0  0  0  0  0  0
  153.5083  143.4387  161.5988 H   0  0  0  0  0  0  0  0  0  0  0  0
  153.8482  140.9786  161.5293 H   0  0  0  0  0  0  0  0  0  0  0  0
  153.0659  139.6528  159.6444 H   0  0  0  0  0  0  0  0  0  0  0  0
  150.9335  140.3179  154.8966 H   0  0  0  0  0  0  0  0  0  0  0  0
  152.2278  139.1680  154.7068 H   0  0  0  0  0  0  0  0  0  0  0  0
  147.8156  135.4318  154.8086 H   0  0  0  0  0  0  0  0  0  0  0  0
  146.3503  138.5523  155.1678 H   0  0  0  0  0  0  0  0  0  0  0  0
  145.6790  139.3335  153.1355 H   0  0  0  0  0  0  0  0  0  0  0  0
  147.2990  138.9641  152.5490 H   0  0  0  0  0  0  0  0  0  0  0  0
  145.1083  137.7465  151.4220 H   0  0  0  0  0  0  0  0  0  0  0  0
  146.5407  136.7692  151.7582 H   0  0  0  0  0  0  0  0  0  0  0  0
  144.1143  137.1296  153.5732 H   0  0  0  0  0  0  0  0  0  0  0  0
  144.8201  135.6030  153.0257 H   0  0  0  0  0  0  0  0  0  0  0  0
  1  2  1  0  0  0  0
  1 28  1  0  0  0  0
  1 29  1  0  0  0  0
  1 30  1  0  0  0  0
  2 10  1  0  0  0  0
  2  3  1  0  0  0  0
  2 31  1  0  0  0  0
  3  4  1  0  0  0  0
  3 32  1  0  0  0  0
  3 33  1  0  0  0  0
  4  9  2  0  0  0  0
  4  5  1  0  0  0  0
  5  6  2  0  0  0  0
  5 34  1  0  0  0  0
  6  7  1  0  0  0  0
  6 35  1  0  0  0  0
  7  8  2  0  0  0  0
  7 36  1  0  0  0  0
  8  9  1  0  0  0  0
  8 37  1  0  0  0  0
  9 10  1  0  0  0  0
 10 11  1  0  0  0  0
 11 12  2  0  0  0  0
 11 13  1  0  0  0  0
 13 14  1  0  0  0  0
 13 38  1  0  0  0  0
 13 39  1  0  0  0  0
 14 26  1  0  0  0  0
 14 15  1  0  0  0  0
 15 16  2  0  0  0  0
 15 17  1  0  0  0  0
 17 18  1  0  0  0  0
 17 19  2  0  0  0  0
 19 20  1  0  0  0  0
 19 40  1  0  0  0  0
 20 21  1  0  0  0  0
 20 26  1  0  0  0  0
 21 25  1  0  0  0  0
 21 22  1  0  0  0  0
 21 41  1  0  0  0  0
 22 23  1  0  0  0  0
 22 42  1  0  0  0  0
 22 43  1  0  0  0  0
 23 24  1  0  0  0  0
 23 44  1  0  0  0  0
 23 45  1  0  0  0  0
 24 25  1  0  0  0  0
 24 46  1  0  0  0  0
 24 47  1  0  0  0  0
 26 27  2  0  0  0  0
M  END
> <s_m_source_file>
AV-unprocessed.smi

> <i_m_source_file_index>
25

> <i_lp_mmshare_version>
43012

> <i_f3d_flags>
0

> <s_epik_input>
W2NIXTFbY0hdW2NIXVtjSF1jKGMxMilOKFtDQEhdKFtDSDNdKVtDSDJdMilDKD1PKVtDSDJdbjNjKD1PKWMoRilbY0hdbihjMz1PKVtDQEBIXTRbQ0gyXVtDSDJdW0NIMl1PNA==

> <s_epik_cmdline>
J2VwaWtfcHl0aG9uJywgJy1waCcsICc3LjAnLCAnLXRuJywgJzgnLCAnLW1hJywgJzIwMCcsICctbWV0YWxfYmluZGluZycsICctaW1hZScsICc8aW5maWxlLm1hZT4nLCAnLW9tYWUnLCAnPG91dGZpbGUubWFlPic=

> <r_lp_tautomer_probability>
1

> <r_epik_Ionization_Penalty>
1.67943e-06

> <r_epik_Ionization_Penalty_Charging>
3.79603e-09

> <r_epik_Ionization_Penalty_Neutral>
1.67563e-06

> <r_epik_State_Penalty>
-0

> <r_epik_Charging_Adjusted_Penalty>
3.79603e-09

> <i_epik_Tot_Q>
0

> <i_epik_Tot_abs_Q>
0

> <r_epik_Metal_State_Penalty>
-0

> <b_epik_Metal_Only>
0

> <s_epik_Chemistry_Notes>
This compound contains an acetal/aminal-like group ( X-CH(R)-Y where X, Y are N, S, or O) that may be acid/base labile, releasing an aldehyde.

> <s_lp_Force_Field>
OPLS_2005

> <r_lp_Energy>
55.1146

> <b_lp_Chiralities_Consistent>
1

> <s_lp_Variant>
AV-unprocessed.smi:25-4

> <Gold.Version>
5.8.1

> <Gold.Id.Protein>
6NUR|6NUR_protein|mol2

> <Gold.PLP.Fitness>
46.2882

> <Gold.PLP.PLP>
-43.7404

> <Gold.PLP.part.hbond>
-1.0000

> <Gold.PLP.part.metal>
0.0000

> <Gold.PLP.part.buried>
-4.3293

> <Gold.PLP.part.nonpolar>
-39.1657

> <Gold.PLP.part.repulsive>
0.1897

> <Gold.PLP.ligand.clash>
0.0000

> <Gold.PLP.ligand.torsion>
0.3061

> <Gold.PLP.Chemscore.Hbond>
0.9920

> <Gold.PLP.Chemscore.CHOScore>
0.0000

> <Gold.PLP.Chemscore.Metal>
0.0000

> <Gold.Chemscore.Hbonds>
donor molecule, donor type, donor heavy atom, donor atom, acceptor molecule, acceptor atom, score
      P1  H 10752 10765       L1    16  1.00

> <Gold.PLP.Chemscore.Internal.Correction>
0.1840

> <Gold.Rescore>
     Score         DG    S(hbond)    S(metal)    S(lipo)     H(rot)  DE(clash)    DE(int)     intcor
     14.00     -18.08       0.98        0.00     113.77       1.55       0.19       3.90       ----

> <Gold.Chemscore.Fitness>
13.9974

> <Gold.Chemscore.DG>
-18.0835

> <Gold.Chemscore.ZeroCoef>
-5.4800

> <Gold.Chemscore.Hbond>
0.9755

> <Gold.Chemscore.Metal>
0.0000

> <Gold.Chemscore.Lipo>
113.7656

> <Gold.Chemscore.Internal_Hbond>
0.0000

> <Gold.Chemscore.DEClash>
0.1902

> <Gold.Chemscore.DEInternal>
3.8959

> <Gold.Chemscore.Rot>
1.5489

> <Gold.Chemscore.Internal.Correction>
   9.000000E+99

> <Gold.Chemscore.Hbonds>
donor molecule, donor type, donor heavy atom, donor atom, acceptor molecule, acceptor atom, score
      P1  H 10752 10765       L1    16  0.94

> <Gold.Chemscore.Hbond.Weighted>
-3.2581

> <Gold.Chemscore.Metal.Weighted>
-0.0000

> <Gold.Chemscore.Lipo.Weighted>
-13.3106

> <Gold.Chemscore.Internal_Hbond.Weighted>
0.0000

> <Gold.Chemscore.DEClash.Weighted>
0.1902

> <Gold.Chemscore.DEInternal.Weighted>
3.8959

> <Gold.Chemscore.Rot.Weighted>
3.9651

> <Gold.Chemscore.Internal.Correction.Weighted>
   9.000000E+99

> <Gold.Protein.RotatedTorsions>
[ 6907 6896 6895 6894 ] final   79.64 input  -60.11 | X-H torsion
[ 7974 7965 7964 7962 ] final  128.93 input  175.53 | X-H torsion
[ 8008 7997 7996 7995 ] final   80.90 input   59.86 | X-H torsion
[ 10167 10162 10161 10158 ] final  137.16 input  -65.29 | X-H torsion
[ 10718 10713 10712 10709 ] final   86.85 input   66.30 | X-H torsion
[ 10763 10752 10751 10750 ] final  179.94 input  -60.55 | X-H torsion
[ 11005 11000 10999 10996 ] final  -68.17 input  -57.11 | X-H torsion

> <Gold.Protein.ActiveResidues>
 VAL166  LYS551  ARG553  GLY616  TRP617  ASP618  TYR619  PRO620  LYS621  CYS622 
 ASP623  PHE694  ASN695  SER759  ASP760  ASP761  ALA762  ILE779  LEU786  VAL792 
 PHE793  MET794  SER795  GLU796  ALA797  LYS798  CYS799  TRP800  GLU811  SER814 

> <Gold.Protein.RotatedAtoms>
  152.5206  134.3480  159.9240 H   0  0  0  0  0  0  0  0  0  0  0  0  # atno 6907 bound_to 6896
  151.3431  133.3948  159.2680 H   0  0  0  0  0  0  0  0  0  0  0  0  # atno 6908 bound_to 6896
  150.9787  134.9165  159.7889 H   0  0  0  0  0  0  0  0  0  0  0  0  # atno 6909 bound_to 6896
  145.0342  139.4020  143.5135 H   0  0  0  0  0  0  0  0  0  0  0  0  # atno 7974 bound_to 7965
  155.8898  140.3439  155.5948 H   0  0  0  0  0  0  0  0  0  0  0  0  # atno 8008 bound_to 7997
  155.7623  140.0834  157.2168 H   0  0  0  0  0  0  0  0  0  0  0  0  # atno 8009 bound_to 7997
  154.4032  140.1533  156.2834 H   0  0  0  0  0  0  0  0  0  0  0  0  # atno 8010 bound_to 7997
  139.5154  144.6425  151.5530 H   0  0  0  0  0  0  0  0  0  0  0  0  # atno 10167 bound_to 10162
  157.6933  131.0232  150.3034 H   0  0  0  0  0  0  0  0  0  0  0  0  # atno 10718 bound_to 10713
  154.5271  135.2797  155.1213 H   0  0  0  0  0  0  0  0  0  0  0  0  # atno 10763 bound_to 10752
  154.2747  135.6297  153.5327 H   0  0  0  0  0  0  0  0  0  0  0  0  # atno 10764 bound_to 10752
  152.9949  135.5637  154.5775 H   0  0  0  0  0  0  0  0  0  0  0  0  # atno 10765 bound_to 10752
  141.1526  133.6735  156.6405 H   0  0  0  0  0  0  0  0  0  0  0  0  # atno 11005 bound_to 11000
  146.3502  139.9908  142.8686 LP  0  0  0  0  0  0  0  0  0  0  0  0  # atno 17320 bound_to 7965
  145.1732  140.9731  143.4310 LP  0  0  0  0  0  0  0  0  0  0  0  0  # atno 17321 bound_to 7965
  140.6197  143.9281  150.6516 LP  0  0  0  0  0  0  0  0  0  0  0  0  # atno 17342 bound_to 10162
  140.2551  143.3565  152.1372 LP  0  0  0  0  0  0  0  0  0  0  0  0  # atno 17343 bound_to 10162
  156.3547  130.3837  149.7300 LP  0  0  0  0  0  0  0  0  0  0  0  0  # atno 17370 bound_to 10713
  156.4767  130.8022  151.3038 LP  0  0  0  0  0  0  0  0  0  0  0  0  # atno 17371 bound_to 10713
  140.3397  134.7859  157.4388 LP  0  0  0  0  0  0  0  0  0  0  0  0  # atno 17394 bound_to 11000
  140.0948  134.5552  155.8409 LP  0  0  0  0  0  0  0  0  0  0  0  0  # atno 17395 bound_to 11000

$$$$
