#       Name:                AV-unprocessed.smi:3127
#       Creating user name   scv26
#       Creation time:       Fri Mar 27 17:29:45 2020


#       File generated by GOLD software.
#

@<TRIPOS>MOLECULE
AV-unprocessed.smi:3127
    37    38     1
SMALL
NO_CHARGES


@<TRIPOS>ATOM
      1 ****        -2.9770   2.0380  -2.0897 C.3            1 S1                 0.0000
      2 ****        -2.3870   1.0064  -1.1045 C.3            1 S1                 0.0000
      3 ****        -3.0969   1.1843   0.2520 C.3            1 S1                 0.0000
      4 ****        -2.6710  -0.4017  -1.6639 C.3            1 S1                 0.0000
      5 ****        -0.8936   1.2038  -0.9349 C.2            1 S1                 0.0000
      6 ****        -0.0869   2.1429  -1.5362 C.2            1 S1                 0.0000
      7 ****         1.5789   1.9941  -1.0493 S.3            1 S1                 0.0000
      8 ****         1.1247   0.6516  -0.0108 C.2            1 S1                 0.0000
      9 ****         2.1155  -0.1169   0.8036 C.3            1 S1                 0.0000
     10 ****         2.6409  -1.3617   0.0626 C.3            1 S1                 0.0000
     11 ****         3.5421  -2.1226   0.9266 N.3            1 S1                 0.0000
     12 ****         2.8955  -2.4657   2.1925 C.3            1 S1                 0.0000
     13 ****         2.3587  -1.1977   2.8810 C.3            1 S1                 0.0000
     14 ****         1.4633  -0.5211   2.0053 O.3            1 S1                 0.0000
     15 ****        -0.1775   0.3594  -0.0763 N.2            1 S1                 0.0000
     16 ****        -4.0523   1.9015  -2.2103 H              1 S1                 0.0000
     17 ****        -2.5271   1.9494  -3.0793 H              1 S1                 0.0000
     18 ****        -2.8181   3.0598  -1.7429 H              1 S1                 0.0000
     19 ****        -2.9147   2.1764   0.6671 H              1 S1                 0.0000
     20 ****        -2.7529   0.4536   0.9849 H              1 S1                 0.0000
     21 ****        -4.1761   1.0612   0.1551 H              1 S1                 0.0000
     22 ****        -3.7394  -0.5625  -1.8127 H              1 S1                 0.0000
     23 ****        -2.3182  -1.1818  -0.9885 H              1 S1                 0.0000
     24 ****        -2.1786  -0.5528  -2.6252 H              1 S1                 0.0000
     25 ****        -0.3654   2.9132  -2.2395 H              1 S1                 0.0000
     26 ****         2.9426   0.5525   1.0477 H              1 S1                 0.0000
     27 ****         1.8033  -1.9908  -0.2414 H              1 S1                 0.0000
     28 ****         3.1587  -1.0656  -0.8500 H              1 S1                 0.0000
     29 ****         3.8315  -2.9717   0.4514 H              1 S1                 0.0000
     30 ****         2.0737  -3.1601   2.0137 H              1 S1                 0.0000
     31 ****         3.6014  -2.9773   2.8471 H              1 S1                 0.0000
     32 ****         1.8251  -1.4640   3.7935 H              1 S1                 0.0000
     33 ****         3.1755  -0.5350   3.1717 H              1 S1                 0.0000
     34 ****         4.3404  -1.5543   1.1261 LP             1 S1                 0.0000
     35 ****         0.7081  -1.1346   1.7748 LP             1 S1                 0.0000
     36 ****         1.1049   0.2891   2.4691 LP             1 S1                 0.0000
     37 ****        -0.5993  -0.3881   0.4368 LP             1 S1                 0.0000
@<TRIPOS>BOND
    1    1    2 1     
    2    1   16 1     
    3    1   17 1     
    4    1   18 1     
    5    2    3 1     
    6    2    4 1     
    7    2    5 1     
    8    3   19 1     
    9    3   20 1     
   10    3   21 1     
   11    4   22 1     
   12    4   23 1     
   13    4   24 1     
   14    5   15 1     
   15    5    6 2     
   16    6    7 1     
   17    6   25 1     
   18    7    8 1     
   19    8    9 1     
   20    8   15 2     
   21    9   14 1     
   22    9   10 1     
   23    9   26 1     
   24   10   11 1     
   25   10   27 1     
   26   10   28 1     
   27   11   12 1     
   28   11   29 1     
   29   12   13 1     
   30   12   30 1     
   31   12   31 1     
   32   13   14 1     
   33   13   32 1     
   34   13   33 1     
   35   11   34 1     
   36   14   35 1     
   37   14   36 1     
   38   15   37 1     
@<TRIPOS>SUBSTRUCTURE
      1 S1             1
@<TRIPOS>SET
LONE_PAIRS      STATIC     ATOMS    <user>   **** ""
4 34 35 36 37
DONOR_HYDROGENS      STATIC     ATOMS    <user>   **** ""
1 29
ATOM$BLUE        STATIC     ATOMS    COLORGROUP SYSTEM
4 34 35 36 37
ATOM$RED        STATIC     ATOMS    COLORGROUP SYSTEM
1 29
