AV-unprocessed.smi:156|AV-procd|sdf|1287|dock7
  -GOLD-   2262018563D 1   1.00000     0.00000
 Structure written by MMmdl.
 51 53  0  0  0  0  0  0  0  0  1 V2000
  143.3737  137.9328  158.2713 C   0  0  0  0  0  0  0  0  0  0  0  0
  144.3138  136.9752  157.5058 C   0  0  2  0  0  0  0  0  0  0  0  0
  145.6627  136.6470  158.2193 C   0  0  2  0  0  0  0  0  0  0  0  0
  146.2966  135.3682  157.6364 C   0  0  0  0  0  0  0  0  0  0  0  0
  145.4445  136.4649  160.0591 S   0  0  0  0  0  0  0  0  0  0  0  0
  147.1545  136.1538  160.6695 C   0  0  0  0  0  0  0  0  0  0  0  0
  145.0129  137.7586  160.6104 O   0  0  0  0  0  0  0  0  0  0  0  0
  144.6409  135.2608  160.3194 O   0  0  0  0  0  0  0  0  0  0  0  0
  144.4881  137.3906  156.1040 N   0  0  0  0  0  0  0  0  0  0  0  0
  145.7354  138.0516  155.7337 C   0  0  0  0  0  0  0  0  0  0  0  0
  143.8741  136.7447  155.0761 C   0  0  0  0  0  0  0  0  0  0  0  0
  142.5641  136.3966  155.1710 N   0  0  0  0  0  0  0  0  0  0  0  0
  141.9578  135.7537  154.1694 C   0  0  0  0  0  0  0  0  0  0  0  0
  142.4672  135.3640  153.0003 N   0  0  0  0  0  0  0  0  0  0  0  0
  143.7831  135.7050  152.8957 C   0  0  0  0  0  0  0  0  0  0  0  0
  144.5555  136.3902  153.8763 C   0  0  0  0  0  0  0  0  0  0  0  0
  145.8504  136.5771  153.4080 N   0  0  0  0  0  0  0  0  0  0  0  0
  145.8453  136.0299  152.2236 C   0  0  0  0  0  0  0  0  0  0  0  0
  144.6481  135.4688  151.8399 N   0  0  0  0  0  0  0  0  0  0  0  0
  144.3596  134.8012  150.5782 C   0  0  0  0  0  0  0  0  0  0  0  0
  144.8952  133.3560  150.4853 C   0  0  0  0  0  0  0  0  0  0  0  0
  146.3680  133.2948  150.9239 C   0  0  0  0  0  0  0  0  0  0  0  0
  146.7252  131.9897  151.3304 O   0  0  0  0  0  0  0  0  0  0  0  0
  143.9810  132.2892  151.1033 C   0  0  0  0  0  0  0  0  0  0  0  0
  143.5699  131.7935  149.8122 O   0  0  0  0  0  0  0  0  0  0  0  0
  144.5739  132.6135  149.1791 C   0  0  0  0  0  0  0  0  0  0  0  0
  142.9865  137.4705  159.1783 H   0  0  0  0  0  0  0  0  0  0  0  0
  142.5041  138.2015  157.6715 H   0  0  0  0  0  0  0  0  0  0  0  0
  143.8734  138.8576  158.5586 H   0  0  0  0  0  0  0  0  0  0  0  0
  143.7760  136.0276  157.4516 H   0  0  0  0  0  0  0  0  0  0  0  0
  146.3661  137.4681  158.0914 H   0  0  0  0  0  0  0  0  0  0  0  0
  146.4189  135.4349  156.5555 H   0  0  0  0  0  0  0  0  0  0  0  0
  145.6819  134.4922  157.8446 H   0  0  0  0  0  0  0  0  0  0  0  0
  147.2904  135.1878  158.0427 H   0  0  0  0  0  0  0  0  0  0  0  0
  147.1570  136.1930  161.7586 H   0  0  0  0  0  0  0  0  0  0  0  0
  147.8281  136.9178  160.2815 H   0  0  0  0  0  0  0  0  0  0  0  0
  147.4915  135.1670  160.3544 H   0  0  0  0  0  0  0  0  0  0  0  0
  146.2758  137.4819  154.9765 H   0  0  0  0  0  0  0  0  0  0  0  0
  146.3937  138.1647  156.5954 H   0  0  0  0  0  0  0  0  0  0  0  0
  145.5350  139.0477  155.3395 H   0  0  0  0  0  0  0  0  0  0  0  0
  140.9162  135.5169  154.3287 H   0  0  0  0  0  0  0  0  0  0  0  0
  146.7225  136.0277  151.5938 H   0  0  0  0  0  0  0  0  0  0  0  0
  143.2813  134.8215  150.4176 H   0  0  0  0  0  0  0  0  0  0  0  0
  144.7811  135.4127  149.7793 H   0  0  0  0  0  0  0  0  0  0  0  0
  147.0269  133.5759  150.1017 H   0  0  0  0  0  0  0  0  0  0  0  0
  146.5803  133.9947  151.7321 H   0  0  0  0  0  0  0  0  0  0  0  0
  147.4700  131.7087  150.8210 H   0  0  0  0  0  0  0  0  0  0  0  0
  144.5117  131.5291  151.6786 H   0  0  0  0  0  0  0  0  0  0  0  0
  143.1486  132.6980  151.6772 H   0  0  0  0  0  0  0  0  0  0  0  0
  144.1528  133.2383  148.3928 H   0  0  0  0  0  0  0  0  0  0  0  0
  145.4005  132.0147  148.7936 H   0  0  0  0  0  0  0  0  0  0  0  0
  1  2  1  0  0  0  0
  1 27  1  0  0  0  0
  1 28  1  0  0  0  0
  1 29  1  0  0  0  0
  2  3  1  0  0  0  0
  2  9  1  0  0  0  0
  2 30  1  0  0  0  0
  3  4  1  0  0  0  0
  3  5  1  0  0  0  0
  3 31  1  0  0  0  0
  4 32  1  0  0  0  0
  4 33  1  0  0  0  0
  4 34  1  0  0  0  0
  5  6  1  0  0  0  0
  5  7  2  0  0  0  0
  5  8  2  0  0  0  0
  6 35  1  0  0  0  0
  6 36  1  0  0  0  0
  6 37  1  0  0  0  0
  9 10  1  0  0  0  0
  9 11  1  0  0  0  0
 10 38  1  0  0  0  0
 10 39  1  0  0  0  0
 10 40  1  0  0  0  0
 11 16  1  0  0  0  0
 11 12  2  0  0  0  0
 12 13  1  0  0  0  0
 13 14  2  0  0  0  0
 13 41  1  0  0  0  0
 14 15  1  0  0  0  0
 15 19  1  0  0  0  0
 15 16  2  0  0  0  0
 16 17  1  0  0  0  0
 17 18  2  0  0  0  0
 18 19  1  0  0  0  0
 18 42  1  0  0  0  0
 19 20  1  0  0  0  0
 20 21  1  0  0  0  0
 20 43  1  0  0  0  0
 20 44  1  0  0  0  0
 21 26  1  0  0  0  0
 21 22  1  0  0  0  0
 21 24  1  0  0  0  0
 22 23  1  0  0  0  0
 22 45  1  0  0  0  0
 22 46  1  0  0  0  0
 23 47  1  0  0  0  0
 24 25  1  0  0  0  0
 24 48  1  0  0  0  0
 24 49  1  0  0  0  0
 25 26  1  0  0  0  0
 26 50  1  0  0  0  0
 26 51  1  0  0  0  0
M  END
> <s_m_source_file>
AV-unprocessed.smi

> <i_m_source_file_index>
156

> <i_lp_mmshare_version>
43012

> <i_f3d_flags>
0

> <s_epik_input>
W0NIM11TKD1PKSg9TylbQ0BASF0oW0NIM10pW0NAQEhdKFtDSDNdKU4oW0NIM10pYyhuW2NIXW4xKWMoYzEyKW5bY0hdbjJbQ0gyXUMzKFtDSDJdW09IXSlbQ0gyXU9bQ0gyXTM=

> <s_epik_cmdline>
J2VwaWtfcHl0aG9uJywgJy1waCcsICc3LjAnLCAnLXRuJywgJzgnLCAnLW1hJywgJzIwMCcsICctbWV0YWxfYmluZGluZycsICctaW1hZScsICc8aW5maWxlLm1hZT4nLCAnLW9tYWUnLCAnPG91dGZpbGUubWFlPic=

> <r_lp_tautomer_probability>
1

> <r_epik_Ionization_Penalty>
0.00107697

> <r_epik_Ionization_Penalty_Charging>
0

> <r_epik_Ionization_Penalty_Neutral>
0.00107697

> <r_epik_State_Penalty>
0.000614712

> <r_epik_Charging_Adjusted_Penalty>
0.000614712

> <i_epik_Tot_Q>
0

> <i_epik_Tot_abs_Q>
0

> <r_epik_Metal_State_Penalty>
-0

> <b_epik_Metal_Only>
0

> <s_lp_Force_Field>
OPLS_2005

> <r_lp_Energy>
28.4574

> <b_lp_Chiralities_Consistent>
1

> <s_lp_Variant>
AV-unprocessed.smi:156-1

> <Gold.Version>
5.8.1

> <Gold.Id.Protein>
6NUR|6NUR_protein|mol2

> <Gold.PLP.Fitness>
38.6000

> <Gold.PLP.PLP>
-26.0758

> <Gold.PLP.part.hbond>
-3.0000

> <Gold.PLP.part.metal>
0.0000

> <Gold.PLP.part.buried>
-4.9274

> <Gold.PLP.part.nonpolar>
-19.6276

> <Gold.PLP.part.repulsive>
0.4962

> <Gold.PLP.ligand.clash>
0.0000

> <Gold.PLP.ligand.torsion>
1.9285

> <Gold.PLP.Chemscore.Hbond>
2.9440

> <Gold.PLP.Chemscore.CHOScore>
1.9716

> <Gold.PLP.Chemscore.Metal>
0.0000

> <Gold.Chemscore.Hbonds>
donor molecule, donor type, donor heavy atom, donor atom, acceptor molecule, acceptor atom, score
      L1  H    23    47       P1 10747  1.00
      P1  H 10785 10796       L1    25  0.98
      L1  C    13    41       P1 11000  0.30
      L1  C    18    42       P1  7948  1.00

> <Gold.PLP.Chemscore.Internal.Correction>
1.6343

> <Gold.Rescore>
     Score         DG    S(hbond)    S(metal)    S(lipo)     H(rot)  DE(clash)    DE(int)     intcor
      6.90     -12.50       2.81        0.00      49.93       3.21       0.24       5.36       ----

> <Gold.Chemscore.Fitness>
6.9012

> <Gold.Chemscore.DG>
-12.4957

> <Gold.Chemscore.ZeroCoef>
-5.4800

> <Gold.Chemscore.Hbond>
2.8130

> <Gold.Chemscore.Metal>
0.0000

> <Gold.Chemscore.Lipo>
49.9299

> <Gold.Chemscore.Internal_Hbond>
0.0000

> <Gold.Chemscore.DEClash>
0.2362

> <Gold.Chemscore.DEInternal>
5.3583

> <Gold.Chemscore.Rot>
3.2115

> <Gold.Chemscore.Internal.Correction>
   9.000000E+99

> <Gold.Chemscore.Hbonds>
donor molecule, donor type, donor heavy atom, donor atom, acceptor molecule, acceptor atom, score
      L1  H    23    47       P1 10747  1.00
      P1  H  6934  6947       L1     7  0.01
      P1  H 10785 10796       L1    25  0.70

> <Gold.Chemscore.Hbond.Weighted>
-9.3954

> <Gold.Chemscore.Metal.Weighted>
-0.0000

> <Gold.Chemscore.Lipo.Weighted>
-5.8418

> <Gold.Chemscore.Internal_Hbond.Weighted>
0.0000

> <Gold.Chemscore.DEClash.Weighted>
0.2362

> <Gold.Chemscore.DEInternal.Weighted>
5.3583

> <Gold.Chemscore.Rot.Weighted>
8.2215

> <Gold.Chemscore.Internal.Correction.Weighted>
   9.000000E+99

> <Gold.Protein.RotatedTorsions>
[ 6907 6896 6895 6894 ] final  -87.23 input  -60.11 | X-H torsion
[ 7974 7965 7964 7962 ] final  179.28 input  175.53 | X-H torsion
[ 8008 7997 7996 7995 ] final -164.92 input   59.86 | X-H torsion
[ 10167 10162 10161 10158 ] final -102.26 input  -65.29 | X-H torsion
[ 10718 10713 10712 10709 ] final   -1.36 input   66.30 | X-H torsion
[ 10763 10752 10751 10750 ] final -142.76 input  -60.55 | X-H torsion
[ 11005 11000 10999 10996 ] final -126.26 input  -57.11 | X-H torsion

> <Gold.Protein.ActiveResidues>
 VAL166  LYS551  ARG553  GLY616  TRP617  ASP618  TYR619  PRO620  LYS621  CYS622 
 ASP623  PHE694  ASN695  SER759  ASP760  ASP761  ALA762  ILE779  LEU786  VAL792 
 PHE793  MET794  SER795  GLU796  ALA797  LYS798  CYS799  TRP800  GLU811  SER814 

> <Gold.Protein.RotatedAtoms>
  150.6866  134.2928  159.4673 H   0  0  0  0  0  0  0  0  0  0  0  0  # atno 6907 bound_to 6896
  152.0832  134.9455  160.0582 H   0  0  0  0  0  0  0  0  0  0  0  0  # atno 6908 bound_to 6896
  152.0799  133.4113  159.4533 H   0  0  0  0  0  0  0  0  0  0  0  0  # atno 6909 bound_to 6896
  144.7147  140.0524  143.6435 H   0  0  0  0  0  0  0  0  0  0  0  0  # atno 7974 bound_to 7965
  155.8424  140.0950  157.1726 H   0  0  0  0  0  0  0  0  0  0  0  0  # atno 8008 bound_to 7997
  154.3982  140.1398  156.3806 H   0  0  0  0  0  0  0  0  0  0  0  0  # atno 8009 bound_to 7997
  155.8050  140.3451  155.5427 H   0  0  0  0  0  0  0  0  0  0  0  0  # atno 8010 bound_to 7997
  140.2325  143.3596  152.0874 H   0  0  0  0  0  0  0  0  0  0  0  0  # atno 10167 bound_to 10162
  156.8068  130.5411  149.5714 H   0  0  0  0  0  0  0  0  0  0  0  0  # atno 10718 bound_to 10713
  154.8497  135.3487  154.6079 H   0  0  0  0  0  0  0  0  0  0  0  0  # atno 10763 bound_to 10752
  153.6687  135.6986  153.5158 H   0  0  0  0  0  0  0  0  0  0  0  0  # atno 10764 bound_to 10752
  153.2759  135.4278  155.0990 H   0  0  0  0  0  0  0  0  0  0  0  0  # atno 10765 bound_to 10752
  140.9696  134.0824  157.3884 H   0  0  0  0  0  0  0  0  0  0  0  0  # atno 11005 bound_to 11000
  145.9933  139.3032  143.0972 LP  0  0  0  0  0  0  0  0  0  0  0  0  # atno 17320 bound_to 7965
  145.8878  140.9323  143.0568 LP  0  0  0  0  0  0  0  0  0  0  0  0  # atno 17321 bound_to 7965
  139.5105  144.6885  151.5823 LP  0  0  0  0  0  0  0  0  0  0  0  0  # atno 17342 bound_to 10162
  140.6174  143.9322  150.6499 LP  0  0  0  0  0  0  0  0  0  0  0  0  # atno 17343 bound_to 10162
  156.1068  130.6010  150.9984 LP  0  0  0  0  0  0  0  0  0  0  0  0  # atno 17370 bound_to 10713
  157.6526  131.0894  150.8017 LP  0  0  0  0  0  0  0  0  0  0  0  0  # atno 17371 bound_to 10713
  139.8907  135.0114  156.6751 LP  0  0  0  0  0  0  0  0  0  0  0  0  # atno 17394 bound_to 11000
  140.7349  133.9027  155.8237 LP  0  0  0  0  0  0  0  0  0  0  0  0  # atno 17395 bound_to 11000

$$$$
