#       Name:                AV-unprocessed.smi:37
#       Creating user name   scv26
#       Creation time:       Thu Mar 26 16:16:57 2020


#       File generated by GOLD software.
#

@<TRIPOS>MOLECULE
AV-unprocessed.smi:37
    54    55     1
SMALL
NO_CHARGES


@<TRIPOS>ATOM
      1 ****        -5.0739   2.6574  -1.0773 C.3            1 S1                 0.0000
      2 ****        -3.6206   2.1674  -1.1597 C.3            1 S1                 0.0000
      3 ****        -3.4284   0.7298  -0.6718 C.2            1 S1                 0.0000
      4 ****        -4.3733   0.0141  -0.3342 O.2            1 S1                 0.0000
      5 ****        -2.1358   0.3722  -0.6655 O.3            1 S1                 0.0000
      6 ****        -1.7668  -0.9295  -0.2365 C.3            1 S1                 0.0000
      7 ****        -0.2407  -1.0439  -0.1209 C.3            1 S1                 0.0000
      8 ****         0.3882  -0.9146  -1.3953 O.3            1 S1                 0.0000
      9 ****         1.4303   0.0120  -1.3084 C.3            1 S1                 0.0000
     10 ****         2.5905  -0.4252  -2.1726 N.am           1 S1                 0.0000
     11 ****         2.6831  -1.7212  -2.6528 C.2            1 S1                 0.0000
     12 ****         3.7213  -2.1079  -3.4219 C.2            1 S1                 0.0000
     13 ****         3.7873  -3.3737  -3.8689 F              1 S1                 0.0000
     14 ****         4.7690  -1.1462  -3.7602 C.2            1 S1                 0.0000
     15 ****         5.7105  -1.5034  -4.4666 O.2            1 S1                 0.0000
     16 ****         4.6532   0.1220  -3.2697 N.pl3          1 S1                -1.0000
     17 ****         3.6058   0.5171  -2.4881 C.2            1 S1                 0.0000
     18 ****         3.4933   1.6567  -2.0358 O.2            1 S1                 0.0000
     19 ****         1.7992   0.1212   0.1757 C.3            1 S1                 0.0000
     20 ****         2.9710  -1.3895   0.7679 Br             1 S1                 0.0000
     21 ****         0.4184  -0.0062   0.7959 C.3            1 S1                 0.0000
     22 ****         0.4504  -0.4404   2.1491 O.3            1 S1                 0.0000
     23 ****         0.5769   0.4552   3.1444 C.2            1 S1                 0.0000
     24 ****         0.6974   1.6729   3.0098 O.2            1 S1                 0.0000
     25 ****         0.5719  -0.1956   4.5256 C.3            1 S1                 0.0000
     26 ****        -0.7674  -0.8755   4.8412 C.3            1 S1                 0.0000
     27 ****        -5.1505   3.6878  -1.4249 H              1 S1                 0.0000
     28 ****        -5.4467   2.6269  -0.0528 H              1 S1                 0.0000
     29 ****        -5.7354   2.0507  -1.6969 H              1 S1                 0.0000
     30 ****        -3.2706   2.2311  -2.1902 H              1 S1                 0.0000
     31 ****        -2.9796   2.8216  -0.5684 H              1 S1                 0.0000
     32 ****        -2.2179  -1.1350   0.7355 H              1 S1                 0.0000
     33 ****        -2.1498  -1.6721  -0.9374 H              1 S1                 0.0000
     34 ****         0.0083  -2.0446   0.2355 H              1 S1                 0.0000
     35 ****         1.0760   0.9548  -1.7302 H              1 S1                 0.0000
     36 ****         1.9237  -2.4481  -2.4072 H              1 S1                 0.0000
     37 ****         2.2993   1.0640   0.3995 H              1 S1                 0.0000
     38 ****        -0.1063   0.9455   0.6992 H              1 S1                 0.0000
     39 ****         1.3826  -0.9227   4.5761 H              1 S1                 0.0000
     40 ****         0.7843   0.5674   5.2750 H              1 S1                 0.0000
     41 ****        -0.7594  -1.2884   5.8498 H              1 S1                 0.0000
     42 ****        -0.9718  -1.6958   4.1521 H              1 S1                 0.0000
     43 ****        -1.5959  -0.1690   4.7799 H              1 S1                 0.0000
     44 ****        -5.3077   0.3681  -0.3736 LP             1 S1                 0.0000
     45 ****        -4.2056  -0.9206  -0.0208 LP             1 S1                 0.0000
     46 ****        -0.2822  -0.6003  -2.0674 LP             1 S1                 0.0000
     47 ****         0.7534  -1.8014  -1.6783 LP             1 S1                 0.0000
     48 ****         5.7540  -2.4439  -4.8036 LP             1 S1                 0.0000
     49 ****         6.4324  -0.8533  -4.7038 LP             1 S1                 0.0000
     50 ****         5.3644   0.7890  -3.4917 LP             1 S1                 0.0000
     51 ****         2.7059   1.8933  -1.4665 LP             1 S1                 0.0000
     52 ****         4.1893   2.3457  -2.2376 LP             1 S1                 0.0000
     53 ****         0.7072   2.0763   2.0949 LP             1 S1                 0.0000
     54 ****         0.7855   2.2587   3.8155 LP             1 S1                 0.0000
@<TRIPOS>BOND
    1    1    2 1     
    2    1   27 1     
    3    1   28 1     
    4    1   29 1     
    5    2    3 1     
    6    2   30 1     
    7    2   31 1     
    8    3    4 2     
    9    3    5 1     
   10    5    6 1     
   11    6    7 1     
   12    6   32 1     
   13    6   33 1     
   14    7   21 1     
   15    7    8 1     
   16    7   34 1     
   17    8    9 1     
   18    9   10 1     
   19    9   19 1     
   20    9   35 1     
   21   10   17 am    
   22   10   11 1     
   23   11   12 2     
   24   11   36 1     
   25   12   13 1     
   26   12   14 1     
   27   14   15 2     
   28   14   16 1     
   29   16   17 1     
   30   17   18 2     
   31   19   20 1     
   32   19   21 1     
   33   19   37 1     
   34   21   22 1     
   35   21   38 1     
   36   22   23 1     
   37   23   24 2     
   38   23   25 1     
   39   25   26 1     
   40   25   39 1     
   41   25   40 1     
   42   26   41 1     
   43   26   42 1     
   44   26   43 1     
   45    4   44 1     
   46    4   45 1     
   47    8   46 1     
   48    8   47 1     
   49   15   48 1     
   50   15   49 1     
   51   16   50 1     
   52   18   51 1     
   53   18   52 1     
   54   24   53 1     
   55   24   54 1     
@<TRIPOS>SUBSTRUCTURE
      1 S1             1
@<TRIPOS>SET
LONE_PAIRS      STATIC     ATOMS    <user>   **** ""
11 44 45 46 47 48 49 50 51 52 53 54
ATOM$BLUE        STATIC     ATOMS    COLORGROUP SYSTEM
11 44 45 46 47 48 49 50 51 52 53 54
