AV-unprocessed.smi:3191|AV-procd|sdf|12196|dock8
  -GOLD-   2272018 33D 1   1.00000     0.00000
 Structure written by MMmdl.
 36 37  0  0  0  0  0  0  0  0  2 V2000
  147.6371  142.2490  153.4160 C   0  0  0  0  0  0  0  0  0  0  0  0
  148.3689  140.9810  153.4816 N   0  0  0  0  0  0  0  0  0  0  0  0
  147.9828  139.9019  152.7889 C   0  0  0  0  0  0  0  0  0  0  0  0
  148.8486  138.9269  153.0761 N   0  3  0  0  0  0  0  0  0  0  0  0
  149.7922  139.3817  153.9556 C   0  0  0  0  0  0  0  0  0  0  0  0
  149.4959  140.6961  154.2200 C   0  0  0  0  0  0  0  0  0  0  0  0
  150.1844  141.6925  155.0958 C   0  0  0  0  0  0  0  0  0  0  0  0
  151.3093  141.0396  155.9170 C   0  0  0  0  0  0  0  0  0  0  0  0
  151.4441  141.6648  157.2269 N   0  0  0  0  0  0  0  0  0  0  0  0
  152.2133  141.1975  158.2223 C   0  0  0  0  0  0  0  0  0  0  0  0
  152.8824  140.1684  158.1176 O   0  0  0  0  0  0  0  0  0  0  0  0
  152.1772  142.0411  159.4591 C   0  0  1  0  0  0  0  0  0  0  0  0
  153.4912  142.5645  160.0018 C   0  0  0  0  0  0  0  0  0  0  0  0
  152.5044  143.5311  159.3856 C   0  0  0  0  0  0  0  0  0  0  0  0
  152.8619  144.2366  158.0829 C   0  0  0  0  0  0  0  0  0  0  0  0
  151.7218  144.4759  160.2809 C   0  0  0  0  0  0  0  0  0  0  0  0
  151.4243  141.7573  160.1934 H   0  0  0  0  0  0  0  0  0  0  0  0
  146.8215  142.1773  152.6953 H   0  0  0  0  0  0  0  0  0  0  0  0
  148.3177  143.0437  153.1104 H   0  0  0  0  0  0  0  0  0  0  0  0
  147.2288  142.4764  154.4011 H   0  0  0  0  0  0  0  0  0  0  0  0
  147.1375  139.8297  152.1278 H   0  0  0  0  0  0  0  0  0  0  0  0
  150.5906  138.7519  154.3204 H   0  0  0  0  0  0  0  0  0  0  0  0
  150.5749  142.5019  154.4781 H   0  0  0  0  0  0  0  0  0  0  0  0
  149.4479  142.1420  155.7631 H   0  0  0  0  0  0  0  0  0  0  0  0
  151.0977  139.9800  156.0629 H   0  0  0  0  0  0  0  0  0  0  0  0
  152.2604  141.0936  155.3849 H   0  0  0  0  0  0  0  0  0  0  0  0
  150.9199  142.5129  157.3879 H   0  0  0  0  0  0  0  0  0  0  0  0
  153.6077  142.5694  161.0838 H   0  0  0  0  0  0  0  0  0  0  0  0
  154.4055  142.3549  159.4493 H   0  0  0  0  0  0  0  0  0  0  0  0
  153.2849  145.2207  158.2869 H   0  0  0  0  0  0  0  0  0  0  0  0
  151.9721  144.3645  157.4661 H   0  0  0  0  0  0  0  0  0  0  0  0
  153.6029  143.6781  157.5121 H   0  0  0  0  0  0  0  0  0  0  0  0
  152.3159  145.3598  160.5145 H   0  0  0  0  0  0  0  0  0  0  0  0
  151.4555  143.9892  161.2198 H   0  0  0  0  0  0  0  0  0  0  0  0
  150.8032  144.7930  159.7864 H   0  0  0  0  0  0  0  0  0  0  0  0
  148.8096  137.9891  152.6965 H   0  0  0  0  0  0  0  0  0  0  0  0
  1  2  1  0  0  0  0
  1 18  1  0  0  0  0
  1 19  1  0  0  0  0
  1 20  1  0  0  0  0
  2  6  1  0  0  0  0
  2  3  1  0  0  0  0
  3  4  2  0  0  0  0
  3 21  1  0  0  0  0
  4  5  1  0  0  0  0
  4 36  1  0  0  0  0
  5  6  2  0  0  0  0
  5 22  1  0  0  0  0
  6  7  1  0  0  0  0
  7  8  1  0  0  0  0
  7 23  1  0  0  0  0
  7 24  1  0  0  0  0
  8  9  1  0  0  0  0
  8 25  1  0  0  0  0
  8 26  1  0  0  0  0
  9 10  1  0  0  0  0
  9 27  1  0  0  0  0
 10 11  2  0  0  0  0
 10 12  1  0  0  0  0
 12 17  1  0  0  0  0
 12 14  1  0  0  0  0
 12 13  1  0  0  0  0
 13 14  1  0  0  0  0
 13 28  1  0  0  0  0
 13 29  1  0  0  0  0
 14 15  1  0  0  0  0
 14 16  1  0  0  0  0
 15 30  1  0  0  0  0
 15 31  1  0  0  0  0
 15 32  1  0  0  0  0
 16 33  1  0  0  0  0
 16 34  1  0  0  0  0
 16 35  1  0  0  0  0
M  CHG  1   4   1
M  END
> <s_m_source_file>
AV-unprocessed.smi

> <i_m_source_file_index>
3191

> <i_lp_mmshare_version>
43012

> <i_f3d_flags>
0

> <s_epik_input>
W0NIM11uMVtjSF1uW2NIXWMxW0NIMl1bQ0gyXVtOSF1DKD1PKVtDQEBIXShbQ0gyXTIpQzIoW0NIM10pW0NIM10=

> <s_epik_cmdline>
J2VwaWtfcHl0aG9uJywgJy1waCcsICc3LjAnLCAnLXRuJywgJzgnLCAnLW1hJywgJzIwMCcsICctbWV0YWxfYmluZGluZycsICctaW1hZScsICc8aW5maWxlLm1hZT4nLCAnLW9tYWUnLCAnPG91dGZpbGUubWFlPic=

> <r_lp_tautomer_probability>
1

> <r_epik_Ionization_Penalty>
0.153817

> <r_epik_Ionization_Penalty_Charging>
0

> <r_epik_Ionization_Penalty_Neutral>
0.153817

> <r_epik_State_Penalty>
0.14311

> <r_epik_Charging_Adjusted_Penalty>
0.14311

> <i_epik_Tot_Q>
1

> <i_epik_Tot_abs_Q>
1

> <r_epik_Metal_State_Penalty>
0.464688

> <b_epik_Metal_Only>
0

> <s_lp_Force_Field>
OPLS_2005

> <r_lp_Energy>
13.4151

> <b_lp_Chiralities_Consistent>
1

> <s_lp_Variant>
AV-unprocessed.smi:3191-1

> <Gold.Version>
5.8.1

> <Gold.Id.Protein>
6NUR|6NUR_protein|mol2

> <Gold.PLP.Fitness>
49.7372

> <Gold.PLP.PLP>
-41.4307

> <Gold.PLP.part.hbond>
-3.0000

> <Gold.PLP.part.metal>
0.0000

> <Gold.PLP.part.buried>
-1.5340

> <Gold.PLP.part.nonpolar>
-37.0357

> <Gold.PLP.part.repulsive>
0.1126

> <Gold.PLP.ligand.clash>
0.0000

> <Gold.PLP.ligand.torsion>
0.3551

> <Gold.PLP.Chemscore.Hbond>
2.9760

> <Gold.PLP.Chemscore.CHOScore>
0.0000

> <Gold.PLP.Chemscore.Metal>
0.0000

> <Gold.Chemscore.Hbonds>
donor molecule, donor type, donor heavy atom, donor atom, acceptor molecule, acceptor atom, score
      L1  H     4    36       P1  7948  2.00
      P1  H  7997  8009       L1    11  0.99

> <Gold.PLP.Chemscore.Internal.Correction>
0.0888

> <Gold.Rescore>
     Score         DG    S(hbond)    S(metal)    S(lipo)     H(rot)  DE(clash)    DE(int)     intcor
     17.99     -18.46       1.89        0.00      95.33       1.76       0.09       0.38       ----

> <Gold.Chemscore.Fitness>
17.9882

> <Gold.Chemscore.DG>
-18.4624

> <Gold.Chemscore.ZeroCoef>
-5.4800

> <Gold.Chemscore.Hbond>
1.8935

> <Gold.Chemscore.Metal>
0.0000

> <Gold.Chemscore.Lipo>
95.3308

> <Gold.Chemscore.Internal_Hbond>
0.0000

> <Gold.Chemscore.DEClash>
0.0912

> <Gold.Chemscore.DEInternal>
0.3830

> <Gold.Chemscore.Rot>
1.7561

> <Gold.Chemscore.Internal.Correction>
   9.000000E+99

> <Gold.Chemscore.Hbonds>
donor molecule, donor type, donor heavy atom, donor atom, acceptor molecule, acceptor atom, score
      L1  H     4    36       P1  7948  1.00
      P1  H  7997  8009       L1    11  0.88

> <Gold.Chemscore.Hbond.Weighted>
-6.3243

> <Gold.Chemscore.Metal.Weighted>
-0.0000

> <Gold.Chemscore.Lipo.Weighted>
-11.1537

> <Gold.Chemscore.Internal_Hbond.Weighted>
0.0000

> <Gold.Chemscore.DEClash.Weighted>
0.0912

> <Gold.Chemscore.DEInternal.Weighted>
0.3830

> <Gold.Chemscore.Rot.Weighted>
4.4956

> <Gold.Chemscore.Internal.Correction.Weighted>
   9.000000E+99

> <Gold.Protein.RotatedTorsions>
[ 6907 6896 6895 6894 ] final   85.05 input  -60.11 | X-H torsion
[ 7974 7965 7964 7962 ] final -179.78 input  175.53 | X-H torsion
[ 8008 7997 7996 7995 ] final  164.21 input   59.86 | X-H torsion
[ 10167 10162 10161 10158 ] final   20.68 input  -65.29 | X-H torsion
[ 10718 10713 10712 10709 ] final   16.54 input   66.30 | X-H torsion
[ 10763 10752 10751 10750 ] final   81.33 input  -60.55 | X-H torsion
[ 11005 11000 10999 10996 ] final  123.59 input  -57.11 | X-H torsion

> <Gold.Protein.ActiveResidues>
 VAL166  LYS551  ARG553  GLY616  TRP617  ASP618  TYR619  PRO620  LYS621  CYS622 
 ASP623  PHE694  ASN695  SER759  ASP760  ASP761  ALA762  ILE779  LEU786  VAL792 
 PHE793  MET794  SER795  GLU796  ALA797  LYS798  CYS799  TRP800  GLU811  SER814 

> <Gold.Protein.RotatedAtoms>
  152.5366  134.2647  159.8948 H   0  0  0  0  0  0  0  0  0  0  0  0  # atno 6907 bound_to 6896
  151.2605  133.4297  159.2623 H   0  0  0  0  0  0  0  0  0  0  0  0  # atno 6908 bound_to 6896
  151.0457  134.9652  159.8241 H   0  0  0  0  0  0  0  0  0  0  0  0  # atno 6909 bound_to 6896
  144.7139  140.0667  143.6431 H   0  0  0  0  0  0  0  0  0  0  0  0  # atno 7974 bound_to 7965
  156.1898  140.1703  156.8115 H   0  0  0  0  0  0  0  0  0  0  0  0  # atno 8008 bound_to 7997
  154.5457  140.0727  156.8617 H   0  0  0  0  0  0  0  0  0  0  0  0  # atno 8009 bound_to 7997
  155.3126  140.3368  155.4246 H   0  0  0  0  0  0  0  0  0  0  0  0  # atno 8010 bound_to 7997
  140.5485  143.9551  150.6563 H   0  0  0  0  0  0  0  0  0  0  0  0  # atno 10167 bound_to 10162
  157.0693  130.6341  149.5802 H   0  0  0  0  0  0  0  0  0  0  0  0  # atno 10718 bound_to 10713
  153.1108  135.4769  154.9031 H   0  0  0  0  0  0  0  0  0  0  0  0  # atno 10763 bound_to 10752
  154.7478  135.3098  154.8615 H   0  0  0  0  0  0  0  0  0  0  0  0  # atno 10764 bound_to 10752
  153.9205  135.6855  153.4801 H   0  0  0  0  0  0  0  0  0  0  0  0  # atno 10765 bound_to 10752
  139.9319  134.9641  156.8282 H   0  0  0  0  0  0  0  0  0  0  0  0  # atno 11005 bound_to 11000
  145.9818  139.2947  143.1037 LP  0  0  0  0  0  0  0  0  0  0  0  0  # atno 17320 bound_to 7965
  145.9002  140.9248  143.0507 LP  0  0  0  0  0  0  0  0  0  0  0  0  # atno 17321 bound_to 7965
  140.2971  143.3285  152.1007 LP  0  0  0  0  0  0  0  0  0  0  0  0  # atno 17342 bound_to 10162
  139.5017  144.6720  151.6220 LP  0  0  0  0  0  0  0  0  0  0  0  0  # atno 17343 bound_to 10162
  155.9955  130.5022  150.7462 LP  0  0  0  0  0  0  0  0  0  0  0  0  # atno 17370 bound_to 10713
  157.4891  131.0909  151.0447 LP  0  0  0  0  0  0  0  0  0  0  0  0  # atno 17371 bound_to 10713
  140.6178  134.0022  155.7605 LP  0  0  0  0  0  0  0  0  0  0  0  0  # atno 17394 bound_to 11000
  141.0913  133.9912  157.3232 LP  0  0  0  0  0  0  0  0  0  0  0  0  # atno 17395 bound_to 11000

$$$$
