AV-unprocessed.smi:2438|AV-procd|sdf|9597|dock2
  -GOLD-   2272013233D 1   1.00000     0.00000
 Structure written by MMmdl.
 43 44  0  0  0  0  0  0  0  0  1 V2000
  149.0574  140.4826  154.4149 C   0  0  0  0  0  0  0  0  0  0  0  0
  149.7532  140.2831  155.6801 N   0  0  0  0  0  0  0  0  0  0  0  0
  150.1772  141.4917  156.3739 C   0  0  0  0  0  0  0  0  0  0  0  0
  150.7192  139.2572  155.7089 C   0  0  0  0  0  0  0  0  0  0  0  0
  151.8540  139.4309  154.9884 N   0  0  0  0  0  0  0  0  0  0  0  0
  152.7739  138.4663  155.0422 C   0  0  0  0  0  0  0  0  0  0  0  0
  152.6971  137.3294  155.7339 N   0  0  0  0  0  0  0  0  0  0  0  0
  151.5747  137.1337  156.4567 C   0  0  0  0  0  0  0  0  0  0  0  0
  150.5282  138.0874  156.4900 C   0  0  0  0  0  0  0  0  0  0  0  0
  149.3117  137.8778  157.1953 N   0  0  0  0  0  0  0  0  0  0  0  0
  149.0438  136.9200  158.0970 C   0  0  0  0  0  0  0  0  0  0  0  0
  149.8431  136.0646  158.4777 O   0  0  0  0  0  0  0  0  0  0  0  0
  147.7908  137.0293  158.5600 N   0  0  0  0  0  0  0  0  0  0  0  0
  147.1899  136.1845  159.5876 C   0  0  2  0  0  0  0  0  0  0  0  0
  147.7950  136.5336  160.9587 C   0  0  0  0  0  0  0  0  0  0  0  0
  147.2506  135.6118  162.0594 C   0  0  0  0  0  0  0  0  0  0  0  0
  147.4895  134.1337  161.7153 C   0  0  0  0  0  0  0  0  0  0  0  0
  146.8732  133.7605  160.3506 C   0  0  2  0  0  0  0  0  0  0  0  0
  147.0956  132.2736  160.0042 C   0  0  0  0  0  0  0  0  0  0  0  0
  148.3914  132.0177  159.8212 F   0  0  0  0  0  0  0  0  0  0  0  0
  146.6392  131.5013  160.9902 F   0  0  0  0  0  0  0  0  0  0  0  0
  146.4336  131.9601  158.8906 F   0  0  0  0  0  0  0  0  0  0  0  0
  147.4140  134.6968  159.2486 C   0  0  0  0  0  0  0  0  0  0  0  0
  148.7290  139.5302  153.9965 H   0  0  0  0  0  0  0  0  0  0  0  0
  149.7028  140.9781  153.6885 H   0  0  0  0  0  0  0  0  0  0  0  0
  148.1744  141.1041  154.5649 H   0  0  0  0  0  0  0  0  0  0  0  0
  150.5453  141.2785  157.3775 H   0  0  0  0  0  0  0  0  0  0  0  0
  149.3431  142.1877  156.4663 H   0  0  0  0  0  0  0  0  0  0  0  0
  150.9740  141.9881  155.8186 H   0  0  0  0  0  0  0  0  0  0  0  0
  153.6720  138.6211  154.4629 H   0  0  0  0  0  0  0  0  0  0  0  0
  151.5129  136.1931  156.9829 H   0  0  0  0  0  0  0  0  0  0  0  0
  148.6029  138.5844  157.0615 H   0  0  0  0  0  0  0  0  0  0  0  0
  147.2112  137.7659  158.1851 H   0  0  0  0  0  0  0  0  0  0  0  0
  146.1162  136.3768  159.6357 H   0  0  0  0  0  0  0  0  0  0  0  0
  148.8817  136.4443  160.9190 H   0  0  0  0  0  0  0  0  0  0  0  0
  147.5788  137.5728  161.2096 H   0  0  0  0  0  0  0  0  0  0  0  0
  147.7235  135.8528  163.0119 H   0  0  0  0  0  0  0  0  0  0  0  0
  146.1824  135.7893  162.1913 H   0  0  0  0  0  0  0  0  0  0  0  0
  148.5614  133.9328  161.7051 H   0  0  0  0  0  0  0  0  0  0  0  0
  147.0673  133.5078  162.5017 H   0  0  0  0  0  0  0  0  0  0  0  0
  145.7960  133.9208  160.4198 H   0  0  0  0  0  0  0  0  0  0  0  0
  146.9326  134.4638  158.2983 H   0  0  0  0  0  0  0  0  0  0  0  0
  148.4795  134.5116  159.1052 H   0  0  0  0  0  0  0  0  0  0  0  0
  1  2  1  0  0  0  0
  1 24  1  0  0  0  0
  1 25  1  0  0  0  0
  1 26  1  0  0  0  0
  2  3  1  0  0  0  0
  2  4  1  0  0  0  0
  3 27  1  0  0  0  0
  3 28  1  0  0  0  0
  3 29  1  0  0  0  0
  4  9  1  0  0  0  0
  4  5  2  0  0  0  0
  5  6  1  0  0  0  0
  6  7  2  0  0  0  0
  6 30  1  0  0  0  0
  7  8  1  0  0  0  0
  8  9  2  0  0  0  0
  8 31  1  0  0  0  0
  9 10  1  0  0  0  0
 10 11  1  0  0  0  0
 10 32  1  0  0  0  0
 11 12  2  0  0  0  0
 11 13  1  0  0  0  0
 13 14  1  0  0  0  0
 13 33  1  0  0  0  0
 14 23  1  0  0  0  0
 14 15  1  0  0  0  0
 14 34  1  0  0  0  0
 15 16  1  0  0  0  0
 15 35  1  0  0  0  0
 15 36  1  0  0  0  0
 16 17  1  0  0  0  0
 16 37  1  0  0  0  0
 16 38  1  0  0  0  0
 17 18  1  0  0  0  0
 17 39  1  0  0  0  0
 17 40  1  0  0  0  0
 18 19  1  0  0  0  0
 18 23  1  0  0  0  0
 18 41  1  0  0  0  0
 19 20  1  0  0  0  0
 19 21  1  0  0  0  0
 19 22  1  0  0  0  0
 23 42  1  0  0  0  0
 23 43  1  0  0  0  0
M  END
> <s_m_source_file>
AV-unprocessed.smi

> <i_m_source_file_index>
2438

> <i_lp_mmshare_version>
43012

> <i_f3d_flags>
0

> <s_epik_input>
W0NIM11OKFtDSDNdKWMxbltjSF1uW2NIXWMxW05IXUMoPU8pW05IXVtDQEBIXTJbQ0gyXVtDSDJdW0NIMl1bQ0BASF0oQyhGKShGKUYpW0NIMl0y

> <s_epik_cmdline>
J2VwaWtfcHl0aG9uJywgJy1waCcsICc3LjAnLCAnLXRuJywgJzgnLCAnLW1hJywgJzIwMCcsICctbWV0YWxfYmluZGluZycsICctaW1hZScsICc8aW5maWxlLm1hZT4nLCAnLW9tYWUnLCAnPG91dGZpbGUubWFlPic=

> <r_lp_tautomer_probability>
1

> <r_epik_Ionization_Penalty>
0.01759

> <r_epik_Ionization_Penalty_Charging>
0

> <r_epik_Ionization_Penalty_Neutral>
0.01759

> <r_epik_State_Penalty>
0.0133536

> <r_epik_Charging_Adjusted_Penalty>
0.0133536

> <i_epik_Tot_Q>
0

> <i_epik_Tot_abs_Q>
0

> <r_epik_Metal_State_Penalty>
0.0129828

> <b_epik_Metal_Only>
0

> <s_lp_Force_Field>
OPLS_2005

> <r_lp_Energy>
11.5061

> <b_lp_Chiralities_Consistent>
1

> <s_lp_Variant>
AV-unprocessed.smi:2438-3

> <Gold.Version>
5.8.1

> <Gold.Id.Protein>
6NUR|6NUR_protein|mol2

> <Gold.PLP.Fitness>
38.6915

> <Gold.PLP.PLP>
-31.1768

> <Gold.PLP.part.hbond>
-3.0000

> <Gold.PLP.part.metal>
0.0000

> <Gold.PLP.part.buried>
-4.2607

> <Gold.PLP.part.nonpolar>
-24.7351

> <Gold.PLP.part.repulsive>
0.2323

> <Gold.PLP.ligand.clash>
0.0000

> <Gold.PLP.ligand.torsion>
0.3278

> <Gold.PLP.Chemscore.Hbond>
2.6080

> <Gold.PLP.Chemscore.CHOScore>
0.0000

> <Gold.PLP.Chemscore.Metal>
0.0000

> <Gold.Chemscore.Hbonds>
donor molecule, donor type, donor heavy atom, donor atom, acceptor molecule, acceptor atom, score
      P1  H  6896  6909       L1    12  1.00
      P1  H  7989  7998       L1     5  0.89
      P1  H 10752 10764       L1     7  0.62

> <Gold.PLP.Chemscore.Internal.Correction>
0.3463

> <Gold.Rescore>
     Score         DG    S(hbond)    S(metal)    S(lipo)     H(rot)  DE(clash)    DE(int)     intcor
     15.10     -18.59       2.69        0.00      63.68       1.30       0.42       3.08       ----

> <Gold.Chemscore.Fitness>
15.0957

> <Gold.Chemscore.DG>
-18.5890

> <Gold.Chemscore.ZeroCoef>
-5.4800

> <Gold.Chemscore.Hbond>
2.6894

> <Gold.Chemscore.Metal>
0.0000

> <Gold.Chemscore.Lipo>
63.6834

> <Gold.Chemscore.Internal_Hbond>
0.0000

> <Gold.Chemscore.DEClash>
0.4155

> <Gold.Chemscore.DEInternal>
3.0778

> <Gold.Chemscore.Rot>
1.2987

> <Gold.Chemscore.Internal.Correction>
   9.000000E+99

> <Gold.Chemscore.Hbonds>
donor molecule, donor type, donor heavy atom, donor atom, acceptor molecule, acceptor atom, score
      P1  H  6896  6909       L1    12  0.95
      P1  H  7989  7998       L1     5  0.71
      P1  H 10752 10764       L1     7  0.30

> <Gold.Chemscore.Hbond.Weighted>
-8.9826

> <Gold.Chemscore.Metal.Weighted>
-0.0000

> <Gold.Chemscore.Lipo.Weighted>
-7.4510

> <Gold.Chemscore.Internal_Hbond.Weighted>
0.0000

> <Gold.Chemscore.DEClash.Weighted>
0.4155

> <Gold.Chemscore.DEInternal.Weighted>
3.0778

> <Gold.Chemscore.Rot.Weighted>
3.3246

> <Gold.Chemscore.Internal.Correction.Weighted>
   9.000000E+99

> <Gold.Protein.RotatedTorsions>
[ 6907 6896 6895 6894 ] final   54.42 input  -60.11 | X-H torsion
[ 7974 7965 7964 7962 ] final   -8.51 input  175.53 | X-H torsion
[ 8008 7997 7996 7995 ] final  122.45 input   59.86 | X-H torsion
[ 10167 10162 10161 10158 ] final   89.81 input  -65.29 | X-H torsion
[ 10718 10713 10712 10709 ] final  151.76 input   66.30 | X-H torsion
[ 10763 10752 10751 10750 ] final  -38.77 input  -60.55 | X-H torsion
[ 11005 11000 10999 10996 ] final  158.42 input  -57.11 | X-H torsion

> <Gold.Protein.ActiveResidues>
 VAL166  LYS551  ARG553  GLY616  TRP617  ASP618  TYR619  PRO620  LYS621  CYS622 
 ASP623  PHE694  ASN695  SER759  ASP760  ASP761  ALA762  ILE779  LEU786  VAL792 
 PHE793  MET794  SER795  GLU796  ALA797  LYS798  CYS799  TRP800  GLU811  SER814 

> <Gold.Protein.RotatedAtoms>
  152.3437  134.7100  160.0256 H   0  0  0  0  0  0  0  0  0  0  0  0  # atno 6907 bound_to 6896
  151.7477  133.3320  159.3391 H   0  0  0  0  0  0  0  0  0  0  0  0  # atno 6908 bound_to 6896
  150.7495  134.6153  159.6152 H   0  0  0  0  0  0  0  0  0  0  0  0  # atno 6909 bound_to 6896
  146.2278  140.2478  142.8346 H   0  0  0  0  0  0  0  0  0  0  0  0  # atno 7974 bound_to 7965
  156.2728  140.2785  156.1470 H   0  0  0  0  0  0  0  0  0  0  0  0  # atno 8008 bound_to 7997
  155.0893  140.0388  157.2681 H   0  0  0  0  0  0  0  0  0  0  0  0  # atno 8009 bound_to 7997
  154.6901  140.2627  155.6826 H   0  0  0  0  0  0  0  0  0  0  0  0  # atno 8010 bound_to 7997
  139.8535  144.6581  150.9141 H   0  0  0  0  0  0  0  0  0  0  0  0  # atno 10167 bound_to 10162
  157.2665  131.0808  151.1629 H   0  0  0  0  0  0  0  0  0  0  0  0  # atno 10718 bound_to 10713
  153.9183  135.6785  153.4748 H   0  0  0  0  0  0  0  0  0  0  0  0  # atno 10763 bound_to 10752
  153.1042  135.4813  154.8919 H   0  0  0  0  0  0  0  0  0  0  0  0  # atno 10764 bound_to 10752
  154.7491  135.3180  154.8546 H   0  0  0  0  0  0  0  0  0  0  0  0  # atno 10765 bound_to 10752
  140.1864  134.8439  157.2862 H   0  0  0  0  0  0  0  0  0  0  0  0  # atno 11005 bound_to 11000
  144.9434  140.8103  143.5616 LP  0  0  0  0  0  0  0  0  0  0  0  0  # atno 17320 bound_to 7965
  145.2432  139.2063  143.4981 LP  0  0  0  0  0  0  0  0  0  0  0  0  # atno 17321 bound_to 7965
  140.7784  143.3806  151.1484 LP  0  0  0  0  0  0  0  0  0  0  0  0  # atno 17342 bound_to 10162
  139.7442  143.8878  152.3059 LP  0  0  0  0  0  0  0  0  0  0  0  0  # atno 17343 bound_to 10162
  157.3118  130.6893  149.6220 LP  0  0  0  0  0  0  0  0  0  0  0  0  # atno 17370 bound_to 10713
  155.9663  130.4361  150.5121 LP  0  0  0  0  0  0  0  0  0  0  0  0  # atno 17371 bound_to 10713
  140.2209  134.4024  155.7566 LP  0  0  0  0  0  0  0  0  0  0  0  0  # atno 17394 bound_to 11000
  141.2225  133.7165  156.8489 LP  0  0  0  0  0  0  0  0  0  0  0  0  # atno 17395 bound_to 11000

$$$$
