AV-unprocessed.smi:3339|AV-procd|sdf|12878|dock1
  -GOLD-   2272019283D 1   1.00000     0.00000
 Structure written by MMmdl.
 39 40  0  0  0  0  0  0  0  0  1 V2000
  146.7736  139.8944  154.0724 C   0  0  0  0  0  0  0  0  0  0  0  0
  146.9466  141.1474  154.9386 C   0  0  0  0  0  0  0  0  0  0  0  0
  146.9909  142.4218  154.0798 C   0  0  0  0  0  0  0  0  0  0  0  0
  148.1595  140.9870  155.6627 O   0  0  0  0  0  0  0  0  0  0  0  0
  149.3054  140.7478  154.8578 C   0  0  0  0  0  0  0  0  0  0  0  0
  150.5496  140.7240  155.7586 C   0  0  1  0  0  0  0  0  0  0  0  0
  151.6113  140.1938  154.9908 O   0  0  0  0  0  0  0  0  0  0  0  0
  150.9480  142.1327  156.2455 C   0  0  0  0  0  0  0  0  0  0  0  0
  151.5885  142.0884  157.5588 N   0  0  0  0  0  0  0  0  0  0  0  0
  152.3148  141.0638  158.0659 C   0  0  0  0  0  0  0  0  0  0  0  0
  152.5509  139.9969  157.4992 O   0  0  0  0  0  0  0  0  0  0  0  0
  152.7414  141.4229  159.2992 N   0  0  0  0  0  0  0  0  0  0  0  0
  153.5617  140.6321  160.2088 C   0  0  0  0  0  0  0  0  0  0  0  0
  152.2874  142.7166  159.5842 C   0  0  0  0  0  0  0  0  0  0  0  0
  152.4715  143.5301  160.7153 C   0  0  0  0  0  0  0  0  0  0  0  0
  151.8764  144.8133  160.6915 C   0  0  0  0  0  0  0  0  0  0  0  0
  151.1291  145.2470  159.5655 C   0  0  0  0  0  0  0  0  0  0  0  0
  150.9613  144.4074  158.4393 C   0  0  0  0  0  0  0  0  0  0  0  0
  151.5611  143.1369  158.4899 C   0  0  0  0  0  0  0  0  0  0  0  0
  145.8511  139.9404  153.4930 H   0  0  0  0  0  0  0  0  0  0  0  0
  146.7326  138.9968  154.6901 H   0  0  0  0  0  0  0  0  0  0  0  0
  147.6029  139.7791  153.3736 H   0  0  0  0  0  0  0  0  0  0  0  0
  146.1028  141.1991  155.6287 H   0  0  0  0  0  0  0  0  0  0  0  0
  146.0903  142.5131  153.4720 H   0  0  0  0  0  0  0  0  0  0  0  0
  147.8474  142.4119  153.4051 H   0  0  0  0  0  0  0  0  0  0  0  0
  147.0583  143.3210  154.6911 H   0  0  0  0  0  0  0  0  0  0  0  0
  149.2035  139.7905  154.3459 H   0  0  0  0  0  0  0  0  0  0  0  0
  149.4053  141.5202  154.0933 H   0  0  0  0  0  0  0  0  0  0  0  0
  150.3622  140.0580  156.6020 H   0  0  0  0  0  0  0  0  0  0  0  0
  151.9629  139.4429  155.4438 H   0  0  0  0  0  0  0  0  0  0  0  0
  151.5808  142.6401  155.5165 H   0  0  0  0  0  0  0  0  0  0  0  0
  150.0572  142.7562  156.3372 H   0  0  0  0  0  0  0  0  0  0  0  0
  153.1143  140.6123  161.2030 H   0  0  0  0  0  0  0  0  0  0  0  0
  154.5579  141.0679  160.2896 H   0  0  0  0  0  0  0  0  0  0  0  0
  153.6685  139.6004  159.8706 H   0  0  0  0  0  0  0  0  0  0  0  0
  153.0436  143.1930  161.5671 H   0  0  0  0  0  0  0  0  0  0  0  0
  151.9934  145.4713  161.5399 H   0  0  0  0  0  0  0  0  0  0  0  0
  150.6840  146.2311  159.5672 H   0  0  0  0  0  0  0  0  0  0  0  0
  150.3969  144.7349  157.5791 H   0  0  0  0  0  0  0  0  0  0  0  0
  1  2  1  0  0  0  0
  1 20  1  0  0  0  0
  1 21  1  0  0  0  0
  1 22  1  0  0  0  0
  2  3  1  0  0  0  0
  2  4  1  0  0  0  0
  2 23  1  0  0  0  0
  3 24  1  0  0  0  0
  3 25  1  0  0  0  0
  3 26  1  0  0  0  0
  4  5  1  0  0  0  0
  5  6  1  0  0  0  0
  5 27  1  0  0  0  0
  5 28  1  0  0  0  0
  6  7  1  0  0  0  0
  6  8  1  0  0  0  0
  6 29  1  0  0  0  0
  7 30  1  0  0  0  0
  8  9  1  0  0  0  0
  8 31  1  0  0  0  0
  8 32  1  0  0  0  0
  9 19  1  0  0  0  0
  9 10  1  0  0  0  0
 10 11  2  0  0  0  0
 10 12  1  0  0  0  0
 12 13  1  0  0  0  0
 12 14  1  0  0  0  0
 13 33  1  0  0  0  0
 13 34  1  0  0  0  0
 13 35  1  0  0  0  0
 14 19  2  0  0  0  0
 14 15  1  0  0  0  0
 15 16  2  0  0  0  0
 15 36  1  0  0  0  0
 16 17  1  0  0  0  0
 16 37  1  0  0  0  0
 17 18  2  0  0  0  0
 17 38  1  0  0  0  0
 18 19  1  0  0  0  0
 18 39  1  0  0  0  0
M  END
> <s_m_source_file>
AV-unprocessed.smi

> <i_m_source_file_index>
3339

> <i_lp_mmshare_version>
43012

> <i_f3d_flags>
0

> <s_epik_input>
W0NIM11bQ0hdKFtDSDNdKU9bQ0gyXVtDQEhdKFtPSF0pW0NIMl1uKGMoPU8pbjFbQ0gzXSljKGMxMilbY0hdW2NIXVtjSF1bY0hdMg==

> <s_epik_cmdline>
J2VwaWtfcHl0aG9uJywgJy1waCcsICc3LjAnLCAnLXRuJywgJzgnLCAnLW1hJywgJzIwMCcsICctbWV0YWxfYmluZGluZycsICctaW1hZScsICc8aW5maWxlLm1hZT4nLCAnLW9tYWUnLCAnPG91dGZpbGUubWFlPic=

> <r_lp_tautomer_probability>
1

> <r_epik_Ionization_Penalty>
3.68683e-07

> <r_epik_Ionization_Penalty_Charging>
2.29158e-09

> <r_epik_Ionization_Penalty_Neutral>
3.66391e-07

> <r_epik_State_Penalty>
-0

> <r_epik_Charging_Adjusted_Penalty>
2.29158e-09

> <i_epik_Tot_Q>
0

> <i_epik_Tot_abs_Q>
0

> <r_epik_Metal_State_Penalty>
-0

> <b_epik_Metal_Only>
0

> <s_lp_Force_Field>
OPLS_2005

> <r_lp_Energy>
39.8614

> <b_lp_Chiralities_Consistent>
1

> <s_lp_Variant>
AV-unprocessed.smi:3339-2

> <Gold.Version>
5.8.1

> <Gold.Id.Protein>
6NUR|6NUR_protein|mol2

> <Gold.PLP.Fitness>
49.4109

> <Gold.PLP.PLP>
-44.9099

> <Gold.PLP.part.hbond>
-2.0000

> <Gold.PLP.part.metal>
0.0000

> <Gold.PLP.part.buried>
-7.5995

> <Gold.PLP.part.nonpolar>
-35.7222

> <Gold.PLP.part.repulsive>
0.0695

> <Gold.PLP.ligand.clash>
0.0000

> <Gold.PLP.ligand.torsion>
0.8741

> <Gold.PLP.Chemscore.Hbond>
2.0000

> <Gold.PLP.Chemscore.CHOScore>
0.0000

> <Gold.PLP.Chemscore.Metal>
0.0000

> <Gold.Chemscore.Hbonds>
donor molecule, donor type, donor heavy atom, donor atom, acceptor molecule, acceptor atom, score
      P1  H  7989  7998       L1     7  0.99
      P1  H  7997  8009       L1    11  1.00

> <Gold.PLP.Chemscore.Internal.Correction>
0.2493

> <Gold.Rescore>
     Score         DG    S(hbond)    S(metal)    S(lipo)     H(rot)  DE(clash)    DE(int)     intcor
     15.00     -18.87       1.84        0.00     108.64       2.13       0.17       3.70       ----

> <Gold.Chemscore.Fitness>
14.9998

> <Gold.Chemscore.DG>
-18.8749

> <Gold.Chemscore.ZeroCoef>
-5.4800

> <Gold.Chemscore.Hbond>
1.8386

> <Gold.Chemscore.Metal>
0.0000

> <Gold.Chemscore.Lipo>
108.6355

> <Gold.Chemscore.Internal_Hbond>
0.0000

> <Gold.Chemscore.DEClash>
0.1738

> <Gold.Chemscore.DEInternal>
3.7014

> <Gold.Chemscore.Rot>
2.1314

> <Gold.Chemscore.Internal.Correction>
   9.000000E+99

> <Gold.Chemscore.Hbonds>
donor molecule, donor type, donor heavy atom, donor atom, acceptor molecule, acceptor atom, score
      P1  H  7989  7998       L1     7  0.74
      P1  H  7997  8009       L1    11  0.61

> <Gold.Chemscore.Hbond.Weighted>
-6.1409

> <Gold.Chemscore.Metal.Weighted>
-0.0000

> <Gold.Chemscore.Lipo.Weighted>
-12.7104

> <Gold.Chemscore.Internal_Hbond.Weighted>
0.0000

> <Gold.Chemscore.DEClash.Weighted>
0.1738

> <Gold.Chemscore.DEInternal.Weighted>
3.7014

> <Gold.Chemscore.Rot.Weighted>
5.4564

> <Gold.Chemscore.Internal.Correction.Weighted>
   9.000000E+99

> <Gold.Protein.RotatedTorsions>
[ 6907 6896 6895 6894 ] final -112.75 input  -60.11 | X-H torsion
[ 7974 7965 7964 7962 ] final  -39.64 input  175.53 | X-H torsion
[ 8008 7997 7996 7995 ] final  169.66 input   59.86 | X-H torsion
[ 10167 10162 10161 10158 ] final -151.06 input  -65.29 | X-H torsion
[ 10718 10713 10712 10709 ] final   13.19 input   66.30 | X-H torsion
[ 10763 10752 10751 10750 ] final -173.47 input  -60.55 | X-H torsion
[ 11005 11000 10999 10996 ] final  100.16 input  -57.11 | X-H torsion

> <Gold.Protein.ActiveResidues>
 VAL166  LYS551  ARG553  GLY616  TRP617  ASP618  TYR619  PRO620  LYS621  CYS622 
 ASP623  PHE694  ASN695  SER759  ASP760  ASP761  ALA762  ILE779  LEU786  VAL792 
 PHE793  MET794  SER795  GLU796  ALA797  LYS798  CYS799  TRP800  GLU811  SER814 

> <Gold.Protein.RotatedAtoms>
  150.7780  133.9044  159.3350 H   0  0  0  0  0  0  0  0  0  0  0  0  # atno 6907 bound_to 6896
  151.6914  135.0944  160.0243 H   0  0  0  0  0  0  0  0  0  0  0  0  # atno 6908 bound_to 6896
  152.3823  133.6524  159.6206 H   0  0  0  0  0  0  0  0  0  0  0  0  # atno 6909 bound_to 6896
  146.0378  140.6648  142.9101 H   0  0  0  0  0  0  0  0  0  0  0  0  # atno 7974 bound_to 7965
  156.1437  140.1558  156.8881 H   0  0  0  0  0  0  0  0  0  0  0  0  # atno 8008 bound_to 7997
  154.5009  140.0825  156.7834 H   0  0  0  0  0  0  0  0  0  0  0  0  # atno 8009 bound_to 7997
  155.4030  140.3415  155.4260 H   0  0  0  0  0  0  0  0  0  0  0  0  # atno 8010 bound_to 7997
  139.7300  143.8823  152.2531 H   0  0  0  0  0  0  0  0  0  0  0  0  # atno 10167 bound_to 10162
  157.0211  130.6155  149.5721 H   0  0  0  0  0  0  0  0  0  0  0  0  # atno 10718 bound_to 10713
  154.6074  135.2861  155.0469 H   0  0  0  0  0  0  0  0  0  0  0  0  # atno 10763 bound_to 10752
  154.1711  135.6472  153.5013 H   0  0  0  0  0  0  0  0  0  0  0  0  # atno 10764 bound_to 10752
  153.0181  135.5401  154.6815 H   0  0  0  0  0  0  0  0  0  0  0  0  # atno 10765 bound_to 10752
  139.8771  134.9128  156.4714 H   0  0  0  0  0  0  0  0  0  0  0  0  # atno 11005 bound_to 11000
  144.7060  140.3853  143.7118 LP  0  0  0  0  0  0  0  0  0  0  0  0  # atno 17320 bound_to 7965
  145.6935  139.1644  143.2633 LP  0  0  0  0  0  0  0  0  0  0  0  0  # atno 17321 bound_to 7965
  139.8743  144.7051  150.8951 LP  0  0  0  0  0  0  0  0  0  0  0  0  # atno 17342 bound_to 10162
  140.7769  143.3712  151.1645 LP  0  0  0  0  0  0  0  0  0  0  0  0  # atno 17343 bound_to 10162
  156.0102  130.5193  150.7963 LP  0  0  0  0  0  0  0  0  0  0  0  0  # atno 17370 bound_to 10713
  157.5249  131.0933  151.0031 LP  0  0  0  0  0  0  0  0  0  0  0  0  # atno 17371 bound_to 10713
  140.8793  133.7930  155.9449 LP  0  0  0  0  0  0  0  0  0  0  0  0  # atno 17394 bound_to 11000
  140.8871  134.2540  157.5114 LP  0  0  0  0  0  0  0  0  0  0  0  0  # atno 17395 bound_to 11000

$$$$
