AV-unprocessed.smi:1215|AV-procd|sdf|5095|dock1
  -GOLD-   22720 4143D 1   1.00000     0.00000
 Structure written by MMmdl.
 46 47  0  0  0  0  0  0  0  0  2 V2000
  153.6163  141.6998  160.7952 C   0  0  0  0  0  0  0  0  0  0  0  0
  153.1241  143.1262  160.5230 C   0  0  0  0  0  0  0  0  0  0  0  0
  152.2510  143.1798  159.3669 N   0  0  0  0  0  0  0  0  0  0  0  0
  151.8036  142.1327  158.5856 C   0  0  0  0  0  0  0  0  0  0  0  0
  151.0014  142.6982  157.6349 C   0  0  0  0  0  0  0  0  0  0  0  0
  150.2778  142.0799  156.5841 N   0  0  0  0  0  0  0  0  0  0  0  0
  150.5605  140.9178  155.9733 C   0  0  0  0  0  0  0  0  0  0  0  0
  151.5303  140.2017  156.2240 O   0  0  0  0  0  0  0  0  0  0  0  0
  149.6500  140.6251  155.0337 N   0  0  0  0  0  0  0  0  0  0  0  0
  149.6784  139.4359  154.1900 C   0  0  0  0  0  0  0  0  0  0  0  0
  148.5997  138.4200  154.6159 C   0  0  0  0  0  0  0  0  0  0  0  0
  149.0561  137.0054  154.5488 N   0  3  1  0  0  0  0  0  0  0  0  0
  150.4309  136.8417  155.0948 C   0  0  0  0  0  0  0  0  0  0  0  0
  150.9787  135.4312  154.8276 C   0  0  0  0  0  0  0  0  0  0  0  0
  150.0401  134.3614  155.3947 C   0  0  0  0  0  0  0  0  0  0  0  0
  148.6261  134.5596  154.8325 C   0  0  0  0  0  0  0  0  0  0  0  0
  148.0926  135.9875  155.0771 C   0  0  1  0  0  0  0  0  0  0  0  0
  147.6932  136.2171  156.5509 C   0  0  0  0  0  0  0  0  0  0  0  0
  151.0088  144.0921  157.9013 C   0  0  0  0  0  0  0  0  0  0  0  0
  151.7667  144.3756  158.9493 N   0  0  0  0  0  0  0  0  0  0  0  0
  154.2786  141.6768  161.6605 H   0  0  0  0  0  0  0  0  0  0  0  0
  154.1687  141.3046  159.9420 H   0  0  0  0  0  0  0  0  0  0  0  0
  152.7828  141.0259  160.9963 H   0  0  0  0  0  0  0  0  0  0  0  0
  152.5871  143.5154  161.3892 H   0  0  0  0  0  0  0  0  0  0  0  0
  153.9720  143.7905  160.3511 H   0  0  0  0  0  0  0  0  0  0  0  0
  152.0892  141.1095  158.7804 H   0  0  0  0  0  0  0  0  0  0  0  0
  149.4562  142.5740  156.2677 H   0  0  0  0  0  0  0  0  0  0  0  0
  148.8829  141.2673  154.8957 H   0  0  0  0  0  0  0  0  0  0  0  0
  149.5537  139.7441  153.1516 H   0  0  0  0  0  0  0  0  0  0  0  0
  150.6682  138.9854  154.2674 H   0  0  0  0  0  0  0  0  0  0  0  0
  148.3225  138.6421  155.6474 H   0  0  0  0  0  0  0  0  0  0  0  0
  147.6885  138.5464  154.0311 H   0  0  0  0  0  0  0  0  0  0  0  0
  151.0978  137.5690  154.6303 H   0  0  0  0  0  0  0  0  0  0  0  0
  150.4374  137.0561  156.1640 H   0  0  0  0  0  0  0  0  0  0  0  0
  151.0989  135.2820  153.7536 H   0  0  0  0  0  0  0  0  0  0  0  0
  151.9711  135.3268  155.2671 H   0  0  0  0  0  0  0  0  0  0  0  0
  150.4085  133.3667  155.1419 H   0  0  0  0  0  0  0  0  0  0  0  0
  150.0243  134.4187  156.4837 H   0  0  0  0  0  0  0  0  0  0  0  0
  148.6423  134.3642  153.7593 H   0  0  0  0  0  0  0  0  0  0  0  0
  147.9469  133.8220  155.2620 H   0  0  0  0  0  0  0  0  0  0  0  0
  147.1787  136.0589  154.4889 H   0  0  0  0  0  0  0  0  0  0  0  0
  147.0162  135.4334  156.8918 H   0  0  0  0  0  0  0  0  0  0  0  0
  147.1672  137.1619  156.6856 H   0  0  0  0  0  0  0  0  0  0  0  0
  148.5534  136.2144  157.2195 H   0  0  0  0  0  0  0  0  0  0  0  0
  150.4997  144.8907  157.3818 H   0  0  0  0  0  0  0  0  0  0  0  0
  149.1421  136.8019  153.5632 H   0  0  0  0  0  0  0  0  0  0  0  0
  1  2  1  0  0  0  0
  1 21  1  0  0  0  0
  1 22  1  0  0  0  0
  1 23  1  0  0  0  0
  2  3  1  0  0  0  0
  2 24  1  0  0  0  0
  2 25  1  0  0  0  0
  3 20  1  0  0  0  0
  3  4  1  0  0  0  0
  4  5  2  0  0  0  0
  4 26  1  0  0  0  0
  5  6  1  0  0  0  0
  5 19  1  0  0  0  0
  6  7  1  0  0  0  0
  6 27  1  0  0  0  0
  7  8  2  0  0  0  0
  7  9  1  0  0  0  0
  9 10  1  0  0  0  0
  9 28  1  0  0  0  0
 10 11  1  0  0  0  0
 10 29  1  0  0  0  0
 10 30  1  0  0  0  0
 11 12  1  0  0  0  0
 11 31  1  0  0  0  0
 11 32  1  0  0  0  0
 12 17  1  0  0  0  0
 12 13  1  0  0  0  0
 12 46  1  0  0  0  0
 13 14  1  0  0  0  0
 13 33  1  0  0  0  0
 13 34  1  0  0  0  0
 14 15  1  0  0  0  0
 14 35  1  0  0  0  0
 14 36  1  0  0  0  0
 15 16  1  0  0  0  0
 15 37  1  0  0  0  0
 15 38  1  0  0  0  0
 16 17  1  0  0  0  0
 16 39  1  0  0  0  0
 16 40  1  0  0  0  0
 17 18  1  0  0  0  0
 17 41  1  0  0  0  0
 18 42  1  0  0  0  0
 18 43  1  0  0  0  0
 18 44  1  0  0  0  0
 19 20  2  0  0  0  0
 19 45  1  0  0  0  0
M  CHG  1  12   1
M  END
> <s_m_source_file>
AV-unprocessed.smi

> <i_m_source_file_index>
1215

> <i_lp_mmshare_version>
43012

> <i_f3d_flags>
0

> <s_epik_input>
W0NIM11bQ0gyXW4xW2NIXWMoW2NIXW4xKVtOSF1DKD1PKVtOSF1bQ0gyXVtDSDJdTjJbQ0gyXVtDSDJdW0NIMl1bQ0gyXVtDQEhdMltDSDNd

> <s_epik_cmdline>
J2VwaWtfcHl0aG9uJywgJy1waCcsICc3LjAnLCAnLXRuJywgJzgnLCAnLW1hJywgJzIwMCcsICctbWV0YWxfYmluZGluZycsICctaW1hZScsICc8aW5maWxlLm1hZT4nLCAnLW9tYWUnLCAnPG91dGZpbGUubWFlPic=

> <r_lp_tautomer_probability>
1

> <r_epik_Ionization_Penalty>
0.00247187

> <r_epik_Ionization_Penalty_Charging>
0.00232067

> <r_epik_Ionization_Penalty_Neutral>
0.000151201

> <r_epik_State_Penalty>
0.00160128

> <r_epik_Charging_Adjusted_Penalty>
0.00392194

> <i_epik_Tot_Q>
1

> <i_epik_Tot_abs_Q>
1

> <r_epik_Metal_State_Penalty>
-0

> <b_epik_Metal_Only>
0

> <s_lp_Force_Field>
OPLS_2005

> <r_lp_Energy>
23.8911

> <b_lp_Chiralities_Consistent>
1

> <s_lp_Variant>
AV-unprocessed.smi:1215-2

> <Gold.Version>
5.8.1

> <Gold.Id.Protein>
6NUR|6NUR_protein|mol2

> <Gold.PLP.Fitness>
44.2499

> <Gold.PLP.PLP>
-34.0246

> <Gold.PLP.part.hbond>
-2.0000

> <Gold.PLP.part.metal>
0.0000

> <Gold.PLP.part.buried>
-2.4096

> <Gold.PLP.part.nonpolar>
-30.1265

> <Gold.PLP.part.repulsive>
0.4118

> <Gold.PLP.ligand.clash>
0.0000

> <Gold.PLP.ligand.torsion>
0.5812

> <Gold.PLP.Chemscore.Hbond>
2.9913

> <Gold.PLP.Chemscore.CHOScore>
0.7892

> <Gold.PLP.Chemscore.Metal>
0.0000

> <Gold.Chemscore.Hbonds>
donor molecule, donor type, donor heavy atom, donor atom, acceptor molecule, acceptor atom, score
      L1  H     6    27       P1  8028  0.24
      L1  H    12    46       P1  7948  2.00
      L1  C    19    45       P1  8028  1.00

> <Gold.PLP.Chemscore.Internal.Correction>
0.0464

> <Gold.Rescore>
     Score         DG    S(hbond)    S(metal)    S(lipo)     H(rot)  DE(clash)    DE(int)     intcor
     15.32     -17.00       1.84        0.00      80.82       1.59       0.27       1.41       ----

> <Gold.Chemscore.Fitness>
15.3211

> <Gold.Chemscore.DG>
-17.0043

> <Gold.Chemscore.ZeroCoef>
-5.4800

> <Gold.Chemscore.Hbond>
1.8387

> <Gold.Chemscore.Metal>
0.0000

> <Gold.Chemscore.Lipo>
80.8193

> <Gold.Chemscore.Internal_Hbond>
0.0000

> <Gold.Chemscore.DEClash>
0.2694

> <Gold.Chemscore.DEInternal>
1.4138

> <Gold.Chemscore.Rot>
1.5909

> <Gold.Chemscore.Internal.Correction>
   9.000000E+99

> <Gold.Chemscore.Hbonds>
donor molecule, donor type, donor heavy atom, donor atom, acceptor molecule, acceptor atom, score
      L1  H     6    27       P1  8028  0.25
      L1  H    12    46       P1  7948  0.99

> <Gold.Chemscore.Hbond.Weighted>
-6.1412

> <Gold.Chemscore.Metal.Weighted>
-0.0000

> <Gold.Chemscore.Lipo.Weighted>
-9.4559

> <Gold.Chemscore.Internal_Hbond.Weighted>
0.0000

> <Gold.Chemscore.DEClash.Weighted>
0.2694

> <Gold.Chemscore.DEInternal.Weighted>
1.4138

> <Gold.Chemscore.Rot.Weighted>
4.0728

> <Gold.Chemscore.Internal.Correction.Weighted>
   9.000000E+99

> <Gold.Protein.RotatedTorsions>
[ 6907 6896 6895 6894 ] final   45.14 input  -60.11 | X-H torsion
[ 7974 7965 7964 7962 ] final   83.37 input  175.53 | X-H torsion
[ 8008 7997 7996 7995 ] final -140.08 input   59.86 | X-H torsion
[ 10167 10162 10161 10158 ] final  -64.68 input  -65.29 | X-H torsion
[ 10718 10713 10712 10709 ] final   -8.17 input   66.30 | X-H torsion
[ 10763 10752 10751 10750 ] final  179.43 input  -60.55 | X-H torsion
[ 11005 11000 10999 10996 ] final  126.93 input  -57.11 | X-H torsion

> <Gold.Protein.ActiveResidues>
 VAL166  LYS551  ARG553  GLY616  TRP617  ASP618  TYR619  PRO620  LYS621  CYS622 
 ASP623  PHE694  ASN695  SER759  ASP760  ASP761  ALA762  ILE779  LEU786  VAL792 
 PHE793  MET794  SER795  GLU796  ALA797  LYS798  CYS799  TRP800  GLU811  SER814 

> <Gold.Protein.RotatedAtoms>
  152.2409  134.8229  160.0460 H   0  0  0  0  0  0  0  0  0  0  0  0  # atno 6907 bound_to 6896
  151.8944  133.3518  159.3817 H   0  0  0  0  0  0  0  0  0  0  0  0  # atno 6908 bound_to 6896
  150.7053  134.4818  159.5518 H   0  0  0  0  0  0  0  0  0  0  0  0  # atno 6909 bound_to 6896
  145.6128  139.2371  143.2182 H   0  0  0  0  0  0  0  0  0  0  0  0  # atno 7974 bound_to 7965
  155.4554  140.0542  157.2996 H   0  0  0  0  0  0  0  0  0  0  0  0  # atno 8008 bound_to 7997
  154.4759  140.2061  155.9834 H   0  0  0  0  0  0  0  0  0  0  0  0  # atno 8009 bound_to 7997
  156.1131  140.3201  155.8106 H   0  0  0  0  0  0  0  0  0  0  0  0  # atno 8010 bound_to 7997
  140.5783  143.2324  151.6395 H   0  0  0  0  0  0  0  0  0  0  0  0  # atno 10167 bound_to 10162
  156.7065  130.5109  149.5903 H   0  0  0  0  0  0  0  0  0  0  0  0  # atno 10718 bound_to 10713
  154.5205  135.2793  155.1266 H   0  0  0  0  0  0  0  0  0  0  0  0  # atno 10763 bound_to 10752
  154.2826  135.6282  153.5356 H   0  0  0  0  0  0  0  0  0  0  0  0  # atno 10764 bound_to 10752
  152.9936  135.5654  154.5693 H   0  0  0  0  0  0  0  0  0  0  0  0  # atno 10765 bound_to 10752
  139.9481  134.9626  156.8780 H   0  0  0  0  0  0  0  0  0  0  0  0  # atno 11005 bound_to 11000
  146.1491  140.6951  142.9331 LP  0  0  0  0  0  0  0  0  0  0  0  0  # atno 17320 bound_to 7965
  144.7263  140.4533  143.6971 LP  0  0  0  0  0  0  0  0  0  0  0  0  # atno 17321 bound_to 7965
  139.5155  144.3375  152.0770 LP  0  0  0  0  0  0  0  0  0  0  0  0  # atno 17342 bound_to 10162
  140.2522  144.4157  150.6217 LP  0  0  0  0  0  0  0  0  0  0  0  0  # atno 17343 bound_to 10162
  156.1691  130.6425  151.0815 LP  0  0  0  0  0  0  0  0  0  0  0  0  # atno 17370 bound_to 10713
  157.6953  131.0796  150.6988 LP  0  0  0  0  0  0  0  0  0  0  0  0  # atno 17371 bound_to 10713
  140.5785  134.0375  155.7455 LP  0  0  0  0  0  0  0  0  0  0  0  0  # atno 17394 bound_to 11000
  141.1137  133.9575  157.2862 LP  0  0  0  0  0  0  0  0  0  0  0  0  # atno 17395 bound_to 11000

$$$$
