AV-unprocessed.smi:1578|AV-procd|sdf|6353|dock7
  -GOLD-   22720 6573D 1   1.00000     0.00000
 Structure written by MMmdl.
 45 46  0  0  0  0  0  0  0  0  2 V2000
  144.9608  136.8090  155.5147 C   0  0  0  0  0  0  0  0  0  0  0  0
  146.2345  135.9674  155.6695 C   0  0  1  0  0  0  0  0  0  0  0  0
  147.2188  136.2118  154.5012 C   0  0  0  0  0  0  0  0  0  0  0  0
  146.7679  135.6132  153.2181 N   0  3  0  0  0  0  0  0  0  0  0  0
  146.3742  134.1885  153.3353 C   0  0  0  0  0  0  0  0  0  0  0  0
  146.0070  133.6274  151.9522 C   0  0  0  0  0  0  0  0  0  0  0  0
  144.9484  134.3985  151.3974 O   0  0  0  0  0  0  0  0  0  0  0  0
  145.3219  135.7576  151.2064 C   0  0  0  0  0  0  0  0  0  0  0  0
  145.6946  136.3932  152.5579 C   0  0  0  0  0  0  0  0  0  0  0  0
  146.8641  136.2773  156.9530 N   0  0  0  0  0  0  0  0  0  0  0  0
  147.5654  135.4217  157.7132 C   0  0  0  0  0  0  0  0  0  0  0  0
  147.7026  134.2286  157.4437 O   0  0  0  0  0  0  0  0  0  0  0  0
  148.2349  136.0136  158.9593 C   0  0  0  0  0  0  0  0  0  0  0  0
  147.8347  135.3117  160.1907 N   0  0  0  0  0  0  0  0  0  0  0  0
  147.8605  133.9035  160.1704 C   0  0  0  0  0  0  0  0  0  0  0  0
  147.5174  133.1493  161.2317 C   0  0  0  0  0  0  0  0  0  0  0  0
  147.5760  131.6313  161.1686 C   0  0  0  0  0  0  0  0  0  0  0  0
  147.8734  131.2022  159.9422 F   0  0  0  0  0  0  0  0  0  0  0  0
  148.5033  131.1742  162.0093 F   0  0  0  0  0  0  0  0  0  0  0  0
  146.4034  131.1068  161.5247 F   0  0  0  0  0  0  0  0  0  0  0  0
  147.1206  133.8618  162.4311 C   0  0  0  0  0  0  0  0  0  0  0  0
  147.0953  135.2083  162.4689 C   0  0  0  0  0  0  0  0  0  0  0  0
  147.4636  136.0147  161.3037 C   0  0  0  0  0  0  0  0  0  0  0  0
  147.4470  137.2462  161.3270 O   0  0  0  0  0  0  0  0  0  0  0  0
  144.4541  136.5824  154.5762 H   0  0  0  0  0  0  0  0  0  0  0  0
  145.1845  137.8764  155.5224 H   0  0  0  0  0  0  0  0  0  0  0  0
  144.2573  136.6104  156.3239 H   0  0  0  0  0  0  0  0  0  0  0  0
  145.9239  134.9218  155.6597 H   0  0  0  0  0  0  0  0  0  0  0  0
  147.4024  137.2789  154.3661 H   0  0  0  0  0  0  0  0  0  0  0  0
  148.1793  135.7712  154.7732 H   0  0  0  0  0  0  0  0  0  0  0  0
  147.1862  133.6003  153.7614 H   0  0  0  0  0  0  0  0  0  0  0  0
  145.5248  134.0955  154.0138 H   0  0  0  0  0  0  0  0  0  0  0  0
  146.8715  133.6352  151.2859 H   0  0  0  0  0  0  0  0  0  0  0  0
  145.6809  132.5911  152.0411 H   0  0  0  0  0  0  0  0  0  0  0  0
  146.1517  135.8186  150.5015 H   0  0  0  0  0  0  0  0  0  0  0  0
  144.4856  136.2941  150.7576 H   0  0  0  0  0  0  0  0  0  0  0  0
  144.8191  136.4340  153.2077 H   0  0  0  0  0  0  0  0  0  0  0  0
  146.0262  137.4198  152.3980 H   0  0  0  0  0  0  0  0  0  0  0  0
  146.7973  137.2347  157.2678 H   0  0  0  0  0  0  0  0  0  0  0  0
  149.3215  135.9790  158.8559 H   0  0  0  0  0  0  0  0  0  0  0  0
  147.9825  137.0735  159.0082 H   0  0  0  0  0  0  0  0  0  0  0  0
  148.1829  133.4684  159.2355 H   0  0  0  0  0  0  0  0  0  0  0  0
  146.8378  133.3103  163.3155 H   0  0  0  0  0  0  0  0  0  0  0  0
  146.7949  135.7062  163.3791 H   0  0  0  0  0  0  0  0  0  0  0  0
  147.5623  135.6484  152.5947 H   0  0  0  0  0  0  0  0  0  0  0  0
  1  2  1  0  0  0  0
  1 25  1  0  0  0  0
  1 26  1  0  0  0  0
  1 27  1  0  0  0  0
  2  3  1  0  0  0  0
  2 10  1  0  0  0  0
  2 28  1  0  0  0  0
  3  4  1  0  0  0  0
  3 29  1  0  0  0  0
  3 30  1  0  0  0  0
  4  9  1  0  0  0  0
  4  5  1  0  0  0  0
  4 45  1  0  0  0  0
  5  6  1  0  0  0  0
  5 31  1  0  0  0  0
  5 32  1  0  0  0  0
  6  7  1  0  0  0  0
  6 33  1  0  0  0  0
  6 34  1  0  0  0  0
  7  8  1  0  0  0  0
  8  9  1  0  0  0  0
  8 35  1  0  0  0  0
  8 36  1  0  0  0  0
  9 37  1  0  0  0  0
  9 38  1  0  0  0  0
 10 11  1  0  0  0  0
 10 39  1  0  0  0  0
 11 12  2  0  0  0  0
 11 13  1  0  0  0  0
 13 14  1  0  0  0  0
 13 40  1  0  0  0  0
 13 41  1  0  0  0  0
 14 23  1  0  0  0  0
 14 15  1  0  0  0  0
 15 16  2  0  0  0  0
 15 42  1  0  0  0  0
 16 17  1  0  0  0  0
 16 21  1  0  0  0  0
 17 18  1  0  0  0  0
 17 19  1  0  0  0  0
 17 20  1  0  0  0  0
 21 22  2  0  0  0  0
 21 43  1  0  0  0  0
 22 23  1  0  0  0  0
 22 44  1  0  0  0  0
 23 24  2  0  0  0  0
M  CHG  1   4   1
M  END
> <s_m_source_file>
AV-unprocessed.smi

> <i_m_source_file_index>
1578

> <i_lp_mmshare_version>
43012

> <i_f3d_flags>
0

> <s_epik_input>
W0NIMl0xW0NIMl1PW0NIMl1bQ0gyXU4xW0NIMl1bQ0BASF0oW0NIM10pW05IXUMoPU8pW0NIMl1uMltjSF1jKEMoRikoRilGKVtjSF1bY0hdYzI9Tw==

> <s_epik_cmdline>
J2VwaWtfcHl0aG9uJywgJy1waCcsICc3LjAnLCAnLXRuJywgJzgnLCAnLW1hJywgJzIwMCcsICctbWV0YWxfYmluZGluZycsICctaW1hZScsICc8aW5maWxlLm1hZT4nLCAnLW9tYWUnLCAnPG91dGZpbGUubWFlPic=

> <r_lp_tautomer_probability>
1

> <r_epik_Ionization_Penalty>
0.656654

> <r_epik_Ionization_Penalty_Charging>
0.656653

> <r_epik_Ionization_Penalty_Neutral>
9.12373e-08

> <r_epik_State_Penalty>
0.675641

> <r_epik_Charging_Adjusted_Penalty>
1.33229

> <i_epik_Tot_Q>
1

> <i_epik_Tot_abs_Q>
1

> <r_epik_Metal_State_Penalty>
0.675695

> <b_epik_Metal_Only>
0

> <s_lp_Force_Field>
OPLS_2005

> <r_lp_Energy>
32.4409

> <b_lp_Chiralities_Consistent>
1

> <s_lp_Variant>
AV-unprocessed.smi:1578-4

> <Gold.Version>
5.8.1

> <Gold.Id.Protein>
6NUR|6NUR_protein|mol2

> <Gold.PLP.Fitness>
43.0386

> <Gold.PLP.PLP>
-34.2880

> <Gold.PLP.part.hbond>
-3.0000

> <Gold.PLP.part.metal>
0.0000

> <Gold.PLP.part.buried>
-4.2046

> <Gold.PLP.part.nonpolar>
-27.1573

> <Gold.PLP.part.repulsive>
0.1354

> <Gold.PLP.ligand.clash>
1.4082

> <Gold.PLP.ligand.torsion>
0.7983

> <Gold.PLP.Chemscore.Hbond>
3.8560

> <Gold.PLP.Chemscore.CHOScore>
0.0000

> <Gold.PLP.Chemscore.Metal>
0.0000

> <Gold.Chemscore.Hbonds>
donor molecule, donor type, donor heavy atom, donor atom, acceptor molecule, acceptor atom, score
      L1  H     4    45       P1  7948  2.00
      P1  H  6931  6943       L1    24  0.88
      P1  H  6934  6947       L1    24  0.93

> <Gold.PLP.Chemscore.Internal.Correction>
0.1875

> <Gold.Rescore>
     Score         DG    S(hbond)    S(metal)    S(lipo)     H(rot)  DE(clash)    DE(int)     intcor
     13.70     -15.90       2.77        0.00      57.48       2.17       0.01       2.19       ----

> <Gold.Chemscore.Fitness>
13.7035

> <Gold.Chemscore.DG>
-15.8999

> <Gold.Chemscore.ZeroCoef>
-5.4800

> <Gold.Chemscore.Hbond>
2.7706

> <Gold.Chemscore.Metal>
0.0000

> <Gold.Chemscore.Lipo>
57.4799

> <Gold.Chemscore.Internal_Hbond>
0.0000

> <Gold.Chemscore.DEClash>
0.0063

> <Gold.Chemscore.DEInternal>
2.1901

> <Gold.Chemscore.Rot>
2.1716

> <Gold.Chemscore.Internal.Correction>
   9.000000E+99

> <Gold.Chemscore.Hbonds>
donor molecule, donor type, donor heavy atom, donor atom, acceptor molecule, acceptor atom, score
      L1  H     4    45       P1  7948  1.00
      P1  H  6931  6943       L1    24  0.84
      P1  H  6934  6947       L1    24  0.91

> <Gold.Chemscore.Hbond.Weighted>
-9.2539

> <Gold.Chemscore.Metal.Weighted>
-0.0000

> <Gold.Chemscore.Lipo.Weighted>
-6.7252

> <Gold.Chemscore.Internal_Hbond.Weighted>
0.0000

> <Gold.Chemscore.DEClash.Weighted>
0.0063

> <Gold.Chemscore.DEInternal.Weighted>
2.1901

> <Gold.Chemscore.Rot.Weighted>
5.5592

> <Gold.Chemscore.Internal.Correction.Weighted>
   9.000000E+99

> <Gold.Protein.RotatedTorsions>
[ 6907 6896 6895 6894 ] final  -57.22 input  -60.11 | X-H torsion
[ 7974 7965 7964 7962 ] final  113.59 input  175.53 | X-H torsion
[ 8008 7997 7996 7995 ] final   -7.25 input   59.86 | X-H torsion
[ 10167 10162 10161 10158 ] final   14.51 input  -65.29 | X-H torsion
[ 10718 10713 10712 10709 ] final  -41.30 input   66.30 | X-H torsion
[ 10763 10752 10751 10750 ] final   57.46 input  -60.55 | X-H torsion
[ 11005 11000 10999 10996 ] final  -20.98 input  -57.11 | X-H torsion

> <Gold.Protein.ActiveResidues>
 VAL166  LYS551  ARG553  GLY616  TRP617  ASP618  TYR619  PRO620  LYS621  CYS622 
 ASP623  PHE694  ASN695  SER759  ASP760  ASP761  ALA762  ILE779  LEU786  VAL792 
 PHE793  MET794  SER795  GLU796  ALA797  LYS798  CYS799  TRP800  GLU811  SER814 

> <Gold.Protein.RotatedAtoms>
  150.8104  134.7255  159.6681 H   0  0  0  0  0  0  0  0  0  0  0  0  # atno 6907 bound_to 6896
  152.4223  134.5928  159.9988 H   0  0  0  0  0  0  0  0  0  0  0  0  # atno 6908 bound_to 6896
  151.6140  133.3307  159.3109 H   0  0  0  0  0  0  0  0  0  0  0  0  # atno 6909 bound_to 6896
  145.2151  139.2888  143.4248 H   0  0  0  0  0  0  0  0  0  0  0  0  # atno 7974 bound_to 7965
  154.5857  140.2412  155.7991 H   0  0  0  0  0  0  0  0  0  0  0  0  # atno 8008 bound_to 7997
  156.2211  140.2997  155.9910 H   0  0  0  0  0  0  0  0  0  0  0  0  # atno 8009 bound_to 7997
  155.2463  140.0409  157.2971 H   0  0  0  0  0  0  0  0  0  0  0  0  # atno 8010 bound_to 7997
  140.5930  143.8757  150.6892 H   0  0  0  0  0  0  0  0  0  0  0  0  # atno 10167 bound_to 10162
  156.2718  130.4207  149.8430 H   0  0  0  0  0  0  0  0  0  0  0  0  # atno 10718 bound_to 10713
  152.9850  135.5641  154.5394 H   0  0  0  0  0  0  0  0  0  0  0  0  # atno 10763 bound_to 10752
  154.4852  135.2790  155.1542 H   0  0  0  0  0  0  0  0  0  0  0  0  # atno 10764 bound_to 10752
  154.3034  135.6303  153.5488 H   0  0  0  0  0  0  0  0  0  0  0  0  # atno 10765 bound_to 10752
  140.8516  133.7852  155.9973 H   0  0  0  0  0  0  0  0  0  0  0  0  # atno 11005 bound_to 11000
  146.3389  140.2439  142.8596 LP  0  0  0  0  0  0  0  0  0  0  0  0  # atno 17320 bound_to 7965
  144.9819  140.8467  143.5392 LP  0  0  0  0  0  0  0  0  0  0  0  0  # atno 17321 bound_to 7965
  140.2284  143.3754  152.1585 LP  0  0  0  0  0  0  0  0  0  0  0  0  # atno 17342 bound_to 10162
  139.5240  144.7078  151.5300 LP  0  0  0  0  0  0  0  0  0  0  0  0  # atno 17343 bound_to 10162
  156.5908  130.8505  151.3407 LP  0  0  0  0  0  0  0  0  0  0  0  0  # atno 17370 bound_to 10713
  157.7286  130.9659  150.1751 LP  0  0  0  0  0  0  0  0  0  0  0  0  # atno 17371 bound_to 10713
  140.8783  134.2642  157.5157 LP  0  0  0  0  0  0  0  0  0  0  0  0  # atno 17394 bound_to 11000
  139.8704  134.9602  156.4357 LP  0  0  0  0  0  0  0  0  0  0  0  0  # atno 17395 bound_to 11000

$$$$
