AV-unprocessed.smi:708|AV-procd|sdf|3457|dock9
  -GOLD-   22720 0443D 1   1.00000     0.00000
 Structure written by MMmdl.
 42 43  0  0  0  0  0  0  0  0  1 V2000
  152.7590  139.4556  156.7251 O   0  0  0  0  0  0  0  0  0  0  0  0
  151.6972  139.9104  157.1518 C   0  0  0  0  0  0  0  0  0  0  0  0
  151.5872  140.4006  158.6012 C   0  0  0  0  0  0  0  0  0  0  0  0
  151.8955  141.8335  158.7380 N   0  0  0  0  0  0  0  0  0  0  0  0
  152.8018  142.2045  159.7514 C   0  0  0  0  0  0  0  0  0  0  0  0
  153.1459  143.4851  159.9618 C   0  0  0  0  0  0  0  0  0  0  0  0
  152.5597  144.4977  159.1159 C   0  0  0  0  0  0  0  0  0  0  0  0
  151.6951  144.1535  158.1410 C   0  0  0  0  0  0  0  0  0  0  0  0
  151.3189  142.7549  157.9047 C   0  0  0  0  0  0  0  0  0  0  0  0
  150.5334  142.4313  157.0129 O   0  0  0  0  0  0  0  0  0  0  0  0
  150.5835  140.0035  156.4103 N   0  0  0  0  0  0  0  0  0  0  0  0
  150.4793  139.6547  154.9975 C   0  0  0  0  0  0  0  0  0  0  0  0
  149.0662  139.9014  154.4248 C   0  0  0  0  0  0  0  0  0  0  0  0
  148.7497  141.4037  154.2281 C   0  0  0  0  0  0  0  0  0  0  0  0
  147.2969  141.6134  153.7666 C   0  0  0  0  0  0  0  0  0  0  0  0
  146.3945  140.9978  154.7475 N   0  0  0  0  0  0  0  0  0  0  0  0
  145.6131  141.7302  155.5809 C   0  0  0  0  0  0  0  0  0  0  0  0
  145.5781  142.9611  155.5255 O   0  0  0  0  0  0  0  0  0  0  0  0
  144.7370  141.0257  156.6324 C   0  0  0  0  0  0  0  0  0  0  0  0
  143.8778  140.2032  156.0292 F   0  0  0  0  0  0  0  0  0  0  0  0
  145.5053  140.3456  157.4845 F   0  0  0  0  0  0  0  0  0  0  0  0
  144.0417  141.9324  157.3211 F   0  0  0  0  0  0  0  0  0  0  0  0
  146.5690  139.5408  154.7884 C   0  0  0  0  0  0  0  0  0  0  0  0
  147.9869  139.2246  155.2983 C   0  0  0  0  0  0  0  0  0  0  0  0
  150.5868  140.1991  158.9897 H   0  0  0  0  0  0  0  0  0  0  0  0
  152.2590  139.7976  159.2134 H   0  0  0  0  0  0  0  0  0  0  0  0
  153.2000  141.3880  160.3361 H   0  0  0  0  0  0  0  0  0  0  0  0
  153.8449  143.7508  160.7411 H   0  0  0  0  0  0  0  0  0  0  0  0
  152.8164  145.5363  159.2647 H   0  0  0  0  0  0  0  0  0  0  0  0
  151.2670  144.9249  157.5178 H   0  0  0  0  0  0  0  0  0  0  0  0
  149.7553  140.3813  156.8470 H   0  0  0  0  0  0  0  0  0  0  0  0
  151.2239  140.2130  154.4277 H   0  0  0  0  0  0  0  0  0  0  0  0
  150.7409  138.6009  154.8959 H   0  0  0  0  0  0  0  0  0  0  0  0
  149.0163  139.4319  153.4414 H   0  0  0  0  0  0  0  0  0  0  0  0
  148.9156  141.9431  155.1617 H   0  0  0  0  0  0  0  0  0  0  0  0
  149.4250  141.8420  153.4928 H   0  0  0  0  0  0  0  0  0  0  0  0
  147.1050  142.6772  153.6202 H   0  0  0  0  0  0  0  0  0  0  0  0
  147.1427  141.1505  152.7908 H   0  0  0  0  0  0  0  0  0  0  0  0
  145.8341  139.0278  155.4048 H   0  0  0  0  0  0  0  0  0  0  0  0
  146.4359  139.1352  153.7844 H   0  0  0  0  0  0  0  0  0  0  0  0
  148.1417  138.1451  155.3102 H   0  0  0  0  0  0  0  0  0  0  0  0
  148.0817  139.5611  156.3316 H   0  0  0  0  0  0  0  0  0  0  0  0
  1  2  2  0  0  0  0
  2  3  1  0  0  0  0
  2 11  1  0  0  0  0
  3  4  1  0  0  0  0
  3 25  1  0  0  0  0
  3 26  1  0  0  0  0
  4  9  1  0  0  0  0
  4  5  1  0  0  0  0
  5  6  2  0  0  0  0
  5 27  1  0  0  0  0
  6  7  1  0  0  0  0
  6 28  1  0  0  0  0
  7  8  2  0  0  0  0
  7 29  1  0  0  0  0
  8  9  1  0  0  0  0
  8 30  1  0  0  0  0
  9 10  2  0  0  0  0
 11 12  1  0  0  0  0
 11 31  1  0  0  0  0
 12 13  1  0  0  0  0
 12 32  1  0  0  0  0
 12 33  1  0  0  0  0
 13 24  1  0  0  0  0
 13 14  1  0  0  0  0
 13 34  1  0  0  0  0
 14 15  1  0  0  0  0
 14 35  1  0  0  0  0
 14 36  1  0  0  0  0
 15 16  1  0  0  0  0
 15 37  1  0  0  0  0
 15 38  1  0  0  0  0
 16 17  1  0  0  0  0
 16 23  1  0  0  0  0
 17 18  2  0  0  0  0
 17 19  1  0  0  0  0
 19 20  1  0  0  0  0
 19 21  1  0  0  0  0
 19 22  1  0  0  0  0
 23 24  1  0  0  0  0
 23 39  1  0  0  0  0
 23 40  1  0  0  0  0
 24 41  1  0  0  0  0
 24 42  1  0  0  0  0
M  END
> <s_m_source_file>
AV-unprocessed.smi

> <i_m_source_file_index>
708

> <i_lp_mmshare_version>
43012

> <i_f3d_flags>
0

> <s_epik_input>
Tz1jMVtjSF1bY0hdW2NIXVtjSF1uMVtDSDJdQyg9TylbTkhdW0NIMl1bQ0hdMltDSDJdW0NIMl1OKEMoPU8pQyhGKShGKUYpW0NIMl1bQ0gyXTI=

> <s_epik_cmdline>
J2VwaWtfcHl0aG9uJywgJy1waCcsICc3LjAnLCAnLXRuJywgJzgnLCAnLW1hJywgJzIwMCcsICctbWV0YWxfYmluZGluZycsICctaW1hZScsICc8aW5maWxlLm1hZT4nLCAnLW9tYWUnLCAnPG91dGZpbGUubWFlPic=

> <r_lp_tautomer_probability>
1

> <r_epik_Ionization_Penalty>
3.72594e-07

> <r_epik_Ionization_Penalty_Charging>
3.54487e-07

> <r_epik_Ionization_Penalty_Neutral>
1.81071e-08

> <r_epik_State_Penalty>
-0

> <r_epik_Charging_Adjusted_Penalty>
3.54487e-07

> <i_epik_Tot_Q>
0

> <i_epik_Tot_abs_Q>
0

> <r_epik_Metal_State_Penalty>
-0

> <b_epik_Metal_Only>
0

> <s_lp_Force_Field>
OPLS_2005

> <r_lp_Energy>
36.5202

> <b_lp_Chiralities_Consistent>
1

> <s_lp_Variant>
AV-unprocessed.smi:708-1

> <Gold.Version>
5.8.1

> <Gold.Id.Protein>
6NUR|6NUR_protein|mol2

> <Gold.PLP.Fitness>
42.7032

> <Gold.PLP.PLP>
-40.8040

> <Gold.PLP.part.hbond>
-1.0000

> <Gold.PLP.part.metal>
0.0000

> <Gold.PLP.part.buried>
-5.0885

> <Gold.PLP.part.nonpolar>
-35.3128

> <Gold.PLP.part.repulsive>
0.5180

> <Gold.PLP.ligand.clash>
0.0000

> <Gold.PLP.ligand.torsion>
0.5623

> <Gold.PLP.Chemscore.Hbond>
1.0000

> <Gold.PLP.Chemscore.CHOScore>
0.0000

> <Gold.PLP.Chemscore.Metal>
0.0000

> <Gold.Chemscore.Hbonds>
donor molecule, donor type, donor heavy atom, donor atom, acceptor molecule, acceptor atom, score
      P1  H  7997  8009       L1     1  1.00

> <Gold.PLP.Chemscore.Internal.Correction>
0.0238

> <Gold.Rescore>
     Score         DG    S(hbond)    S(metal)    S(lipo)     H(rot)  DE(clash)    DE(int)     intcor
     11.03     -14.49       1.00        0.00      90.21       1.91       0.04       3.42       ----

> <Gold.Chemscore.Fitness>
11.0298

> <Gold.Chemscore.DG>
-14.4855

> <Gold.Chemscore.ZeroCoef>
-5.4800

> <Gold.Chemscore.Hbond>
0.9997

> <Gold.Chemscore.Metal>
0.0000

> <Gold.Chemscore.Lipo>
90.2077

> <Gold.Chemscore.Internal_Hbond>
0.0000

> <Gold.Chemscore.DEClash>
0.0389

> <Gold.Chemscore.DEInternal>
3.4168

> <Gold.Chemscore.Rot>
1.9093

> <Gold.Chemscore.Internal.Correction>
   9.000000E+99

> <Gold.Chemscore.Hbonds>
donor molecule, donor type, donor heavy atom, donor atom, acceptor molecule, acceptor atom, score
      P1  H  7997  8009       L1     1  1.00

> <Gold.Chemscore.Hbond.Weighted>
-3.3389

> <Gold.Chemscore.Metal.Weighted>
-0.0000

> <Gold.Chemscore.Lipo.Weighted>
-10.5543

> <Gold.Chemscore.Internal_Hbond.Weighted>
0.0000

> <Gold.Chemscore.DEClash.Weighted>
0.0389

> <Gold.Chemscore.DEInternal.Weighted>
3.4168

> <Gold.Chemscore.Rot.Weighted>
4.8877

> <Gold.Chemscore.Internal.Correction.Weighted>
   9.000000E+99

> <Gold.Protein.RotatedTorsions>
[ 6907 6896 6895 6894 ] final  -21.15 input  -60.11 | X-H torsion
[ 7974 7965 7964 7962 ] final   22.58 input  175.53 | X-H torsion
[ 8008 7997 7996 7995 ] final -173.16 input   59.86 | X-H torsion
[ 10167 10162 10161 10158 ] final  139.39 input  -65.29 | X-H torsion
[ 10718 10713 10712 10709 ] final  122.14 input   66.30 | X-H torsion
[ 10763 10752 10751 10750 ] final   50.64 input  -60.55 | X-H torsion
[ 11005 11000 10999 10996 ] final -114.15 input  -57.11 | X-H torsion

> <Gold.Protein.ActiveResidues>
 VAL166  LYS551  ARG553  GLY616  TRP617  ASP618  TYR619  PRO620  LYS621  CYS622 
 ASP623  PHE694  ASN695  SER759  ASP760  ASP761  ALA762  ILE779  LEU786  VAL792 
 PHE793  MET794  SER795  GLU796  ALA797  LYS798  CYS799  TRP800  GLU811  SER814 

> <Gold.Protein.RotatedAtoms>
  151.2376  135.0577  159.9011 H   0  0  0  0  0  0  0  0  0  0  0  0  # atno 6907 bound_to 6896
  152.5397  134.0469  159.8103 H   0  0  0  0  0  0  0  0  0  0  0  0  # atno 6908 bound_to 6896
  151.0658  133.5457  159.2662 H   0  0  0  0  0  0  0  0  0  0  0  0  # atno 6909 bound_to 6896
  146.2022  139.7865  142.8753 H   0  0  0  0  0  0  0  0  0  0  0  0  # atno 7974 bound_to 7965
  155.9539  140.1131  157.0953 H   0  0  0  0  0  0  0  0  0  0  0  0  # atno 8008 bound_to 7997
  154.4116  140.1195  156.5155 H   0  0  0  0  0  0  0  0  0  0  0  0  # atno 8009 bound_to 7997
  155.6807  140.3473  155.4856 H   0  0  0  0  0  0  0  0  0  0  0  0  # atno 8010 bound_to 7997
  139.5080  144.6297  151.5848 H   0  0  0  0  0  0  0  0  0  0  0  0  # atno 10167 bound_to 10162
  157.5764  131.1079  150.8270 H   0  0  0  0  0  0  0  0  0  0  0  0  # atno 10718 bound_to 10713
  152.9784  135.5872  154.4285 H   0  0  0  0  0  0  0  0  0  0  0  0  # atno 10763 bound_to 10752
  154.3901  135.2768  155.2161 H   0  0  0  0  0  0  0  0  0  0  0  0  # atno 10764 bound_to 10752
  154.4037  135.6097  153.5966 H   0  0  0  0  0  0  0  0  0  0  0  0  # atno 10765 bound_to 10752
  141.0570  133.9596  157.2736 H   0  0  0  0  0  0  0  0  0  0  0  0  # atno 11005 bound_to 11000
  145.3443  141.0294  143.3374 LP  0  0  0  0  0  0  0  0  0  0  0  0  # atno 17320 bound_to 7965
  144.8710  139.5038  143.6768 LP  0  0  0  0  0  0  0  0  0  0  0  0  # atno 17321 bound_to 7965
  140.6026  143.9582  150.6396 LP  0  0  0  0  0  0  0  0  0  0  0  0  # atno 17342 bound_to 10162
  140.2799  143.3397  152.1161 LP  0  0  0  0  0  0  0  0  0  0  0  0  # atno 17343 bound_to 10162
  156.8728  130.5152  149.5295 LP  0  0  0  0  0  0  0  0  0  0  0  0  # atno 17370 bound_to 10713
  156.0809  130.5820  150.9561 LP  0  0  0  0  0  0  0  0  0  0  0  0  # atno 17371 bound_to 10713
  139.9399  135.0192  156.8674 LP  0  0  0  0  0  0  0  0  0  0  0  0  # atno 17394 bound_to 11000
  140.5944  134.0231  155.7512 LP  0  0  0  0  0  0  0  0  0  0  0  0  # atno 17395 bound_to 11000

$$$$
