AV-unprocessed.smi:550|AV-procd|sdf|2897|dock2
  -GOLD-   2262023393D 1   1.00000     0.00000
 Structure written by MMmdl.
 46 48  0  0  0  0  0  0  0  0  2 V2000
  147.2283  140.8381  153.2100 O   0  0  0  0  0  0  0  0  0  0  0  0
  147.8231  139.7621  153.2692 C   0  0  0  0  0  0  0  0  0  0  0  0
  147.5178  138.7067  152.5013 N   0  0  0  0  0  0  0  0  0  0  0  0
  146.4470  138.6763  151.5101 C   0  0  0  0  0  0  0  0  0  0  0  0
  145.4452  137.5362  151.7774 C   0  0  1  0  0  0  0  0  0  0  0  0
  145.7683  136.2686  150.9626 C   0  0  0  0  0  0  0  0  0  0  0  0
  144.9168  135.1152  151.4996 C   0  0  0  0  0  0  0  0  0  0  0  0
  144.8109  135.3903  153.3058 S   0  0  0  0  0  0  0  0  0  0  0  0
  143.4027  135.3204  153.7240 O   0  0  0  0  0  0  0  0  0  0  0  0
  145.8430  134.5897  153.9817 O   0  0  0  0  0  0  0  0  0  0  0  0
  145.3560  137.1408  153.2631 C   0  0  0  0  0  0  0  0  0  0  0  0
  148.8319  139.4789  154.1114 N   0  0  0  0  0  0  0  0  0  0  0  0
  149.4561  140.3372  155.0567 C   0  0  0  0  0  0  0  0  0  0  0  0
  150.5066  139.8078  155.8370 C   0  0  0  0  0  0  0  0  0  0  0  0
  151.1633  140.6287  156.7766 C   0  0  0  0  0  0  0  0  0  0  0  0
  150.7653  141.9787  156.9164 C   0  0  0  0  0  0  0  0  0  0  0  0
  151.3538  142.8776  157.8173 N   0  0  0  0  0  0  0  0  0  0  0  0
  152.4428  142.3291  158.6084 C   0  0  0  0  0  0  0  0  0  0  0  0
  153.1785  143.5407  159.1870 C   0  0  0  0  0  0  0  0  0  0  0  0
  152.8079  144.7053  158.2611 C   0  0  0  0  0  0  0  0  0  0  0  0
  151.8726  144.0939  157.2142 C   0  0  0  0  0  0  0  0  0  0  0  0
  149.7661  142.4520  156.1405 N   0  3  0  0  0  0  0  0  0  0  0  0
  149.1100  141.6995  155.2307 C   0  0  0  0  0  0  0  0  0  0  0  0
  148.0548  137.8595  152.6156 H   0  0  0  0  0  0  0  0  0  0  0  0
  145.9314  139.6379  151.4876 H   0  0  0  0  0  0  0  0  0  0  0  0
  146.9017  138.5513  150.5268 H   0  0  0  0  0  0  0  0  0  0  0  0
  144.4517  137.8644  151.4675 H   0  0  0  0  0  0  0  0  0  0  0  0
  145.6029  136.4213  149.8956 H   0  0  0  0  0  0  0  0  0  0  0  0
  146.8220  136.0165  151.0895 H   0  0  0  0  0  0  0  0  0  0  0  0
  143.9070  135.1576  151.0907 H   0  0  0  0  0  0  0  0  0  0  0  0
  145.3400  134.1329  151.2893 H   0  0  0  0  0  0  0  0  0  0  0  0
  146.3318  137.1948  153.7466 H   0  0  0  0  0  0  0  0  0  0  0  0
  144.6577  137.7630  153.8233 H   0  0  0  0  0  0  0  0  0  0  0  0
  149.1598  138.5242  154.1076 H   0  0  0  0  0  0  0  0  0  0  0  0
  150.8069  138.7763  155.7231 H   0  0  0  0  0  0  0  0  0  0  0  0
  151.9634  140.2220  157.3779 H   0  0  0  0  0  0  0  0  0  0  0  0
  152.0658  141.6763  159.3963 H   0  0  0  0  0  0  0  0  0  0  0  0
  153.1180  141.7452  157.9815 H   0  0  0  0  0  0  0  0  0  0  0  0
  152.8302  143.7479  160.1996 H   0  0  0  0  0  0  0  0  0  0  0  0
  154.2549  143.3728  159.2337 H   0  0  0  0  0  0  0  0  0  0  0  0
  152.2895  145.4799  158.8277 H   0  0  0  0  0  0  0  0  0  0  0  0
  153.6829  145.1622  157.7980 H   0  0  0  0  0  0  0  0  0  0  0  0
  152.4284  143.8646  156.3043 H   0  0  0  0  0  0  0  0  0  0  0  0
  151.0646  144.7773  156.9512 H   0  0  0  0  0  0  0  0  0  0  0  0
  148.3474  142.2240  154.6749 H   0  0  0  0  0  0  0  0  0  0  0  0
  149.4936  143.4297  156.2445 H   0  0  0  0  0  0  0  0  0  0  0  0
  1  2  2  0  0  0  0
  2  3  1  0  0  0  0
  2 12  1  0  0  0  0
  3  4  1  0  0  0  0
  3 24  1  0  0  0  0
  4  5  1  0  0  0  0
  4 25  1  0  0  0  0
  4 26  1  0  0  0  0
  5 11  1  0  0  0  0
  5  6  1  0  0  0  0
  5 27  1  0  0  0  0
  6  7  1  0  0  0  0
  6 28  1  0  0  0  0
  6 29  1  0  0  0  0
  7  8  1  0  0  0  0
  7 30  1  0  0  0  0
  7 31  1  0  0  0  0
  8  9  2  0  0  0  0
  8 10  2  0  0  0  0
  8 11  1  0  0  0  0
 11 32  1  0  0  0  0
 11 33  1  0  0  0  0
 12 13  1  0  0  0  0
 12 34  1  0  0  0  0
 13 23  1  0  0  0  0
 13 14  2  0  0  0  0
 14 15  1  0  0  0  0
 14 35  1  0  0  0  0
 15 16  2  0  0  0  0
 15 36  1  0  0  0  0
 16 17  1  0  0  0  0
 16 22  1  0  0  0  0
 17 21  1  0  0  0  0
 17 18  1  0  0  0  0
 18 19  1  0  0  0  0
 18 37  1  0  0  0  0
 18 38  1  0  0  0  0
 19 20  1  0  0  0  0
 19 39  1  0  0  0  0
 19 40  1  0  0  0  0
 20 21  1  0  0  0  0
 20 41  1  0  0  0  0
 20 42  1  0  0  0  0
 21 43  1  0  0  0  0
 21 44  1  0  0  0  0
 22 23  2  0  0  0  0
 22 46  1  0  0  0  0
 23 45  1  0  0  0  0
M  CHG  1  22   1
M  END
> <s_m_source_file>
AV-unprocessed.smi

> <i_m_source_file_index>
550

> <i_lp_mmshare_version>
43012

> <i_f3d_flags>
0

> <s_epik_input>
Tz1TMSg9TylbQ0gyXVtDSDJdW0NASF0oW0NIMl0xKVtDSDJdW05IXUMoPU8pW05IXWMyW2NIXVtjSF1jKG5bY0hdMilOM1tDSDJdW0NIMl1bQ0gyXVtDSDJdMw==

> <s_epik_cmdline>
J2VwaWtfcHl0aG9uJywgJy1waCcsICc3LjAnLCAnLXRuJywgJzgnLCAnLW1hJywgJzIwMCcsICctbWV0YWxfYmluZGluZycsICctaW1hZScsICc8aW5maWxlLm1hZT4nLCAnLW9tYWUnLCAnPG91dGZpbGUubWFlPic=

> <r_lp_tautomer_probability>
0.999994

> <r_epik_Ionization_Penalty>
1.12573

> <r_epik_Ionization_Penalty_Charging>
1.12571

> <r_epik_Ionization_Penalty_Neutral>
1.93198e-05

> <r_epik_State_Penalty>
1.18495

> <r_epik_Charging_Adjusted_Penalty>
2.31065

> <i_epik_Tot_Q>
1

> <i_epik_Tot_abs_Q>
1

> <r_epik_Metal_State_Penalty>
1.26884

> <b_epik_Metal_Only>
0

> <s_lp_Force_Field>
OPLS_2005

> <r_lp_Energy>
40.0908

> <b_lp_Chiralities_Consistent>
1

> <s_lp_Variant>
AV-unprocessed.smi:550-4

> <Gold.Version>
5.8.1

> <Gold.Id.Protein>
6NUR|6NUR_protein|mol2

> <Gold.PLP.Fitness>
48.0223

> <Gold.PLP.PLP>
-39.9522

> <Gold.PLP.part.hbond>
-3.9024

> <Gold.PLP.part.metal>
0.0000

> <Gold.PLP.part.buried>
2.8484

> <Gold.PLP.part.nonpolar>
-40.3768

> <Gold.PLP.part.repulsive>
0.6738

> <Gold.PLP.ligand.clash>
0.0000

> <Gold.PLP.ligand.torsion>
0.4776

> <Gold.PLP.Chemscore.Hbond>
3.0000

> <Gold.PLP.Chemscore.CHOScore>
0.0000

> <Gold.PLP.Chemscore.Metal>
0.0000

> <Gold.Chemscore.Hbonds>
donor molecule, donor type, donor heavy atom, donor atom, acceptor molecule, acceptor atom, score
      L1  H     3    24       P1  7948  1.00
      L1  H    22    46       P1  8028  2.00

> <Gold.PLP.Chemscore.Internal.Correction>
0.0253

> <Gold.Rescore>
     Score         DG    S(hbond)    S(metal)    S(lipo)     H(rot)  DE(clash)    DE(int)     intcor
     16.36     -20.99       1.91        0.00     110.88       1.50       2.97       1.66       ----

> <Gold.Chemscore.Fitness>
16.3593

> <Gold.Chemscore.DG>
-20.9855

> <Gold.Chemscore.ZeroCoef>
-5.4800

> <Gold.Chemscore.Hbond>
1.9052

> <Gold.Chemscore.Metal>
0.0000

> <Gold.Chemscore.Lipo>
110.8751

> <Gold.Chemscore.Internal_Hbond>
0.0000

> <Gold.Chemscore.DEClash>
2.9651

> <Gold.Chemscore.DEInternal>
1.6610

> <Gold.Chemscore.Rot>
1.4962

> <Gold.Chemscore.Internal.Correction>
   9.000000E+99

> <Gold.Chemscore.Hbonds>
donor molecule, donor type, donor heavy atom, donor atom, acceptor molecule, acceptor atom, score
      L1  H     3    24       P1  7948  0.91
      L1  H    22    46       P1  8028  0.90

> <Gold.Chemscore.Hbond.Weighted>
-6.3634

> <Gold.Chemscore.Metal.Weighted>
-0.0000

> <Gold.Chemscore.Lipo.Weighted>
-12.9724

> <Gold.Chemscore.Internal_Hbond.Weighted>
0.0000

> <Gold.Chemscore.DEClash.Weighted>
2.9651

> <Gold.Chemscore.DEInternal.Weighted>
1.6610

> <Gold.Chemscore.Rot.Weighted>
3.8303

> <Gold.Chemscore.Internal.Correction.Weighted>
   9.000000E+99

> <Gold.Protein.RotatedTorsions>
[ 6907 6896 6895 6894 ] final  174.67 input  -60.11 | X-H torsion
[ 7974 7965 7964 7962 ] final -141.62 input  175.53 | X-H torsion
[ 8008 7997 7996 7995 ] final  132.51 input   59.86 | X-H torsion
[ 10167 10162 10161 10158 ] final    9.99 input  -65.29 | X-H torsion
[ 10718 10713 10712 10709 ] final  121.85 input   66.30 | X-H torsion
[ 10763 10752 10751 10750 ] final  -13.27 input  -60.55 | X-H torsion
[ 11005 11000 10999 10996 ] final -164.05 input  -57.11 | X-H torsion

> <Gold.Protein.ActiveResidues>
 VAL166  LYS551  ARG553  GLY616  TRP617  ASP618  TYR619  PRO620  LYS621  CYS622 
 ASP623  PHE694  ASN695  SER759  ASP760  ASP761  ALA762  ILE779  LEU786  VAL792 
 PHE793  MET794  SER795  GLU796  ALA797  LYS798  CYS799  TRP800  GLU811  SER814 

> <Gold.Protein.RotatedAtoms>
  151.7485  133.3326  159.3384 H   0  0  0  0  0  0  0  0  0  0  0  0  # atno 6907 bound_to 6896
  150.7545  134.6214  159.6147 H   0  0  0  0  0  0  0  0  0  0  0  0  # atno 6908 bound_to 6896
  152.3484  134.7041  160.0295 H   0  0  0  0  0  0  0  0  0  0  0  0  # atno 6909 bound_to 6896
  144.8506  140.6058  143.5393 H   0  0  0  0  0  0  0  0  0  0  0  0  # atno 7974 bound_to 7965
  156.2983  140.2544  156.3101 H   0  0  0  0  0  0  0  0  0  0  0  0  # atno 8008 bound_to 7997
  154.9334  140.0398  157.2079 H   0  0  0  0  0  0  0  0  0  0  0  0  # atno 8009 bound_to 7997
  154.8196  140.2858  155.5801 H   0  0  0  0  0  0  0  0  0  0  0  0  # atno 8010 bound_to 7997
  140.6221  143.8181  150.7188 H   0  0  0  0  0  0  0  0  0  0  0  0  # atno 10167 bound_to 10162
  157.5787  131.1077  150.8230 H   0  0  0  0  0  0  0  0  0  0  0  0  # atno 10718 bound_to 10713
  153.5108  135.7016  153.5782 H   0  0  0  0  0  0  0  0  0  0  0  0  # atno 10763 bound_to 10752
  153.3873  135.3905  155.1898 H   0  0  0  0  0  0  0  0  0  0  0  0  # atno 10764 bound_to 10752
  154.8703  135.3849  154.4588 H   0  0  0  0  0  0  0  0  0  0  0  0  # atno 10765 bound_to 10752
  140.5913  134.5042  157.5193 H   0  0  0  0  0  0  0  0  0  0  0  0  # atno 11005 bound_to 11000
  145.4508  139.1524  143.3919 LP  0  0  0  0  0  0  0  0  0  0  0  0  # atno 17320 bound_to 7965
  146.2781  140.4634  142.8787 LP  0  0  0  0  0  0  0  0  0  0  0  0  # atno 17321 bound_to 7965
  140.1774  143.4144  152.1958 LP  0  0  0  0  0  0  0  0  0  0  0  0  # atno 17342 bound_to 10162
  139.5448  144.7288  151.4619 LP  0  0  0  0  0  0  0  0  0  0  0  0  # atno 17343 bound_to 10162
  156.8682  130.5136  149.5298 LP  0  0  0  0  0  0  0  0  0  0  0  0  # atno 17370 bound_to 10713
  156.0832  130.5837  150.9601 LP  0  0  0  0  0  0  0  0  0  0  0  0  # atno 17371 bound_to 10713
  139.9273  134.8031  156.1032 LP  0  0  0  0  0  0  0  0  0  0  0  0  # atno 17394 bound_to 11000
  141.0933  133.6705  156.2589 LP  0  0  0  0  0  0  0  0  0  0  0  0  # atno 17395 bound_to 11000

$$$$
