AV-unprocessed.smi:1672|AV-procd|sdf|6703|dock7
  -GOLD-   22720 7443D 1   1.00000     0.00000
 Structure written by MMmdl.
 48 50  0  0  0  0  0  0  0  0  2 V2000
  150.6899  145.3806  159.5458 C   0  0  0  0  0  0  0  0  0  0  0  0
  151.8113  144.8279  158.6486 C   0  0  2  0  0  0  0  0  0  0  0  0
  151.2808  144.2315  157.3319 C   0  0  0  0  0  0  0  0  0  0  0  0
  150.5975  142.8686  157.5431 C   0  0  0  0  0  0  0  0  0  0  0  0
  151.5078  141.9099  158.2201 N   0  3  2  0  0  0  0  0  0  0  0  0
  150.9270  140.5447  158.3031 C   0  0  0  0  0  0  0  0  0  0  0  0
  151.4096  139.6243  157.1651 C   0  0  2  0  0  0  0  0  0  0  0  0
  152.8067  139.4462  157.2928 O   0  0  0  0  0  0  0  0  0  0  0  0
  151.0867  140.2166  155.7783 C   0  0  0  0  0  0  0  0  0  0  0  0
  149.9496  139.5673  155.1367 N   0  0  0  0  0  0  0  0  0  0  0  0
  149.8181  138.2656  154.7718 C   0  0  0  0  0  0  0  0  0  0  0  0
  150.8899  137.2453  155.0133 C   0  0  0  0  0  0  0  0  0  0  0  0
  151.5933  136.8905  153.8422 O   0  0  0  0  0  0  0  0  0  0  0  0
  148.6634  137.9414  154.1894 N   0  0  0  0  0  0  0  0  0  0  0  0
  147.9758  139.1388  154.1853 C   0  0  0  0  0  0  0  0  0  0  0  0
  146.6848  139.4546  153.7048 C   0  0  0  0  0  0  0  0  0  0  0  0
  146.1846  140.7687  153.8134 C   0  0  0  0  0  0  0  0  0  0  0  0
  146.9659  141.7830  154.4038 C   0  0  0  0  0  0  0  0  0  0  0  0
  148.2546  141.4894  154.8892 C   0  0  0  0  0  0  0  0  0  0  0  0
  148.7506  140.1765  154.7762 C   0  0  0  0  0  0  0  0  0  0  0  0
  151.9757  142.4336  159.5312 C   0  0  0  0  0  0  0  0  0  0  0  0
  152.6905  143.7867  159.3652 C   0  0  0  0  0  0  0  0  0  0  0  0
  149.9899  144.6058  159.8564 H   0  0  0  0  0  0  0  0  0  0  0  0
  150.1191  146.1505  159.0256 H   0  0  0  0  0  0  0  0  0  0  0  0
  151.1010  145.8344  160.4481 H   0  0  0  0  0  0  0  0  0  0  0  0
  152.4477  145.6764  158.3933 H   0  0  0  0  0  0  0  0  0  0  0  0
  150.5906  144.9263  156.8518 H   0  0  0  0  0  0  0  0  0  0  0  0
  152.1125  144.1047  156.6373 H   0  0  0  0  0  0  0  0  0  0  0  0
  149.6831  142.9818  158.1271 H   0  0  0  0  0  0  0  0  0  0  0  0
  150.3016  142.4698  156.5719 H   0  0  0  0  0  0  0  0  0  0  0  0
  151.1660  140.1124  159.2758 H   0  0  0  0  0  0  0  0  0  0  0  0
  149.8381  140.6031  158.2574 H   0  0  0  0  0  0  0  0  0  0  0  0
  150.9410  138.6456  157.2459 H   0  0  0  0  0  0  0  0  0  0  0  0
  152.9768  138.9801  158.0980 H   0  0  0  0  0  0  0  0  0  0  0  0
  150.8845  141.2840  155.8630 H   0  0  0  0  0  0  0  0  0  0  0  0
  151.9515  140.1295  155.1189 H   0  0  0  0  0  0  0  0  0  0  0  0
  151.5885  137.6148  155.7638 H   0  0  0  0  0  0  0  0  0  0  0  0
  150.4391  136.3430  155.4285 H   0  0  0  0  0  0  0  0  0  0  0  0
  150.9677  136.6033  153.1945 H   0  0  0  0  0  0  0  0  0  0  0  0
  146.0776  138.6846  153.2525 H   0  0  0  0  0  0  0  0  0  0  0  0
  145.1963  140.9992  153.4434 H   0  0  0  0  0  0  0  0  0  0  0  0
  146.5747  142.7868  154.4839 H   0  0  0  0  0  0  0  0  0  0  0  0
  148.8541  142.2656  155.3412 H   0  0  0  0  0  0  0  0  0  0  0  0
  151.1284  142.5312  160.2109 H   0  0  0  0  0  0  0  0  0  0  0  0
  152.6661  141.7317  159.9970 H   0  0  0  0  0  0  0  0  0  0  0  0
  153.6042  143.6341  158.7890 H   0  0  0  0  0  0  0  0  0  0  0  0
  153.0076  144.1647  160.3379 H   0  0  0  0  0  0  0  0  0  0  0  0
  152.3215  141.8304  157.6262 H   0  0  0  0  0  0  0  0  0  0  0  0
  1  2  1  0  0  0  0
  1 23  1  0  0  0  0
  1 24  1  0  0  0  0
  1 25  1  0  0  0  0
  2 22  1  0  0  0  0
  2  3  1  0  0  0  0
  2 26  1  0  0  0  0
  3  4  1  0  0  0  0
  3 27  1  0  0  0  0
  3 28  1  0  0  0  0
  4  5  1  0  0  0  0
  4 29  1  0  0  0  0
  4 30  1  0  0  0  0
  5  6  1  0  0  0  0
  5 21  1  0  0  0  0
  5 48  1  0  0  0  0
  6  7  1  0  0  0  0
  6 31  1  0  0  0  0
  6 32  1  0  0  0  0
  7  8  1  0  0  0  0
  7  9  1  0  0  0  0
  7 33  1  0  0  0  0
  8 34  1  0  0  0  0
  9 10  1  0  0  0  0
  9 35  1  0  0  0  0
  9 36  1  0  0  0  0
 10 20  1  0  0  0  0
 10 11  1  0  0  0  0
 11 12  1  0  0  0  0
 11 14  2  0  0  0  0
 12 13  1  0  0  0  0
 12 37  1  0  0  0  0
 12 38  1  0  0  0  0
 13 39  1  0  0  0  0
 14 15  1  0  0  0  0
 15 20  2  0  0  0  0
 15 16  1  0  0  0  0
 16 17  2  0  0  0  0
 16 40  1  0  0  0  0
 17 18  1  0  0  0  0
 17 41  1  0  0  0  0
 18 19  2  0  0  0  0
 18 42  1  0  0  0  0
 19 20  1  0  0  0  0
 19 43  1  0  0  0  0
 21 22  1  0  0  0  0
 21 44  1  0  0  0  0
 21 45  1  0  0  0  0
 22 46  1  0  0  0  0
 22 47  1  0  0  0  0
M  CHG  1   5   1
M  END
> <s_m_source_file>
AV-unprocessed.smi

> <i_m_source_file_index>
1672

> <i_lp_mmshare_version>
43012

> <i_f3d_flags>
0

> <s_epik_input>
W0NIM11bQ0hdMVtDSDJdW0NIMl1OKFtDSDJdW0NIMl0xKVtDSDJdW0NASF0oW09IXSlbQ0gyXW4oYyhuMilbQ0gyXVtPSF0pYyhjMjMpW2NIXVtjSF1bY0hdW2NIXTM=

> <s_epik_cmdline>
J2VwaWtfcHl0aG9uJywgJy1waCcsICc3LjAnLCAnLXRuJywgJzgnLCAnLW1hJywgJzIwMCcsICctbWV0YWxfYmluZGluZycsICctaW1hZScsICc8aW5maWxlLm1hZT4nLCAnLW9tYWUnLCAnPG91dGZpbGUubWFlPic=

> <r_epik_Ionization_Penalty>
0.0498263

> <r_epik_Ionization_Penalty_Charging>
0.00181365

> <r_epik_Ionization_Penalty_Neutral>
0.0480127

> <r_epik_State_Penalty>
0.0408546

> <r_epik_Charging_Adjusted_Penalty>
0.0426682

> <i_epik_Tot_Q>
1

> <i_epik_Tot_abs_Q>
1

> <r_epik_Metal_State_Penalty>
4.22946e-05

> <b_epik_Metal_Only>
0

> <s_lp_Force_Field>
OPLS_2005

> <r_lp_Energy>
23.4925

> <b_lp_Chiralities_Consistent>
1

> <s_lp_Variant>
AV-unprocessed.smi:1672-3

> <Gold.Version>
5.8.1

> <Gold.Id.Protein>
6NUR|6NUR_protein|mol2

> <Gold.PLP.Fitness>
58.4632

> <Gold.PLP.PLP>
-52.2168

> <Gold.PLP.part.hbond>
-3.0000

> <Gold.PLP.part.metal>
0.0000

> <Gold.PLP.part.buried>
-3.0601

> <Gold.PLP.part.nonpolar>
-49.0322

> <Gold.PLP.part.repulsive>
1.9757

> <Gold.PLP.ligand.clash>
0.0000

> <Gold.PLP.ligand.torsion>
1.3823

> <Gold.PLP.Chemscore.Hbond>
2.9920

> <Gold.PLP.Chemscore.CHOScore>
0.0000

> <Gold.PLP.Chemscore.Metal>
0.0000

> <Gold.Chemscore.Hbonds>
donor molecule, donor type, donor heavy atom, donor atom, acceptor molecule, acceptor atom, score
      L1  H    13    39       P1  7949  0.61
      P1  H  7997  8008       L1     8  0.57
      P1  H 10752 10763       L1    13  1.00

> <Gold.PLP.Chemscore.Internal.Correction>
0.0351

> <Gold.Rescore>
     Score         DG    S(hbond)    S(metal)    S(lipo)     H(rot)  DE(clash)    DE(int)     intcor
     19.67     -21.45       2.42        0.00     130.48       2.88       0.55       1.22       ----

> <Gold.Chemscore.Fitness>
19.6705

> <Gold.Chemscore.DG>
-21.4453

> <Gold.Chemscore.ZeroCoef>
-5.4800

> <Gold.Chemscore.Hbond>
2.4150

> <Gold.Chemscore.Metal>
0.0000

> <Gold.Chemscore.Lipo>
130.4806

> <Gold.Chemscore.Internal_Hbond>
0.0000

> <Gold.Chemscore.DEClash>
0.5513

> <Gold.Chemscore.DEInternal>
1.2235

> <Gold.Chemscore.Rot>
2.8778

> <Gold.Chemscore.Internal.Correction>
   9.000000E+99

> <Gold.Chemscore.Hbonds>
donor molecule, donor type, donor heavy atom, donor atom, acceptor molecule, acceptor atom, score
      L1  H    13    39       P1  7949  0.14
      P1  H  7997  8008       L1     8  0.06
      P1  H 10752 10763       L1    13  0.76

> <Gold.Chemscore.Hbond.Weighted>
-8.0661

> <Gold.Chemscore.Metal.Weighted>
-0.0000

> <Gold.Chemscore.Lipo.Weighted>
-15.2662

> <Gold.Chemscore.Internal_Hbond.Weighted>
0.0000

> <Gold.Chemscore.DEClash.Weighted>
0.5513

> <Gold.Chemscore.DEInternal.Weighted>
1.2235

> <Gold.Chemscore.Rot.Weighted>
7.3671

> <Gold.Chemscore.Internal.Correction.Weighted>
   9.000000E+99

> <Gold.Protein.RotatedTorsions>
[ 6907 6896 6895 6894 ] final   13.58 input  -60.11 | X-H torsion
[ 7974 7965 7964 7962 ] final -172.60 input  175.53 | X-H torsion
[ 8008 7997 7996 7995 ] final  -92.82 input   59.86 | X-H torsion
[ 10167 10162 10161 10158 ] final    2.96 input  -65.29 | X-H torsion
[ 10718 10713 10712 10709 ] final  102.29 input   66.30 | X-H torsion
[ 10763 10752 10751 10750 ] final   16.01 input  -60.55 | X-H torsion
[ 11005 11000 10999 10996 ] final -114.49 input  -57.11 | X-H torsion

> <Gold.Protein.ActiveResidues>
 VAL166  LYS551  ARG553  GLY616  TRP617  ASP618  TYR619  PRO620  LYS621  CYS622 
 ASP623  PHE694  ASN695  SER759  ASP760  ASP761  ALA762  ILE779  LEU786  VAL792 
 PHE793  MET794  SER795  GLU796  ALA797  LYS798  CYS799  TRP800  GLU811  SER814 

> <Gold.Protein.RotatedAtoms>
  151.7886  135.0742  160.0383 H   0  0  0  0  0  0  0  0  0  0  0  0  # atno 6907 bound_to 6896
  152.3172  133.5811  159.5729 H   0  0  0  0  0  0  0  0  0  0  0  0  # atno 6908 bound_to 6896
  150.7350  133.9980  159.3671 H   0  0  0  0  0  0  0  0  0  0  0  0  # atno 6909 bound_to 6896
  144.7145  140.1748  143.6364 H   0  0  0  0  0  0  0  0  0  0  0  0  # atno 7974 bound_to 7965
  154.7279  140.0505  157.0699 H   0  0  0  0  0  0  0  0  0  0  0  0  # atno 8008 bound_to 7997
  155.0341  140.3161  155.4729 H   0  0  0  0  0  0  0  0  0  0  0  0  # atno 8009 bound_to 7997
  156.2834  140.2144  156.5463 H   0  0  0  0  0  0  0  0  0  0  0  0  # atno 8010 bound_to 7997
  140.6609  143.7305  150.7738 H   0  0  0  0  0  0  0  0  0  0  0  0  # atno 10167 bound_to 10162
  157.6806  131.0749  150.5382 H   0  0  0  0  0  0  0  0  0  0  0  0  # atno 10718 bound_to 10713
  153.1471  135.6771  153.8938 H   0  0  0  0  0  0  0  0  0  0  0  0  # atno 10763 bound_to 10752
  153.8376  135.3109  155.3425 H   0  0  0  0  0  0  0  0  0  0  0  0  # atno 10764 bound_to 10752
  154.7833  135.4876  153.9978 H   0  0  0  0  0  0  0  0  0  0  0  0  # atno 10765 bound_to 10752
  141.0548  133.9629  157.2773 H   0  0  0  0  0  0  0  0  0  0  0  0  # atno 11005 bound_to 11000
  145.8911  139.2376  143.1549 LP  0  0  0  0  0  0  0  0  0  0  0  0  # atno 17320 bound_to 7965
  145.9903  140.8608  143.0070 LP  0  0  0  0  0  0  0  0  0  0  0  0  # atno 17321 bound_to 7965
  140.0974  143.4820  152.2445 LP  0  0  0  0  0  0  0  0  0  0  0  0  # atno 17342 bound_to 10162
  139.5843  144.7524  151.3559 LP  0  0  0  0  0  0  0  0  0  0  0  0  # atno 17343 bound_to 10162
  156.5690  130.4275  149.6028 LP  0  0  0  0  0  0  0  0  0  0  0  0  # atno 17370 bound_to 10713
  156.2757  130.7042  151.1852 LP  0  0  0  0  0  0  0  0  0  0  0  0  # atno 17371 bound_to 10713
  139.9381  135.0194  156.8620 LP  0  0  0  0  0  0  0  0  0  0  0  0  # atno 17394 bound_to 11000
  140.5985  134.0194  155.7527 LP  0  0  0  0  0  0  0  0  0  0  0  0  # atno 17395 bound_to 11000

$$$$
