AV-unprocessed.smi:3238|AV-procd|sdf|12376|dock7
  -GOLD-   2272018233D 1   1.00000     0.00000
 Structure written by MMmdl.
 37 39  0  0  0  0  0  0  0  0  1 V2000
  149.0102  134.6008  155.0598 C   0  0  0  0  0  0  0  0  0  0  0  0
  149.4919  135.8844  154.5729 N   0  0  0  0  0  0  0  0  0  0  0  0
  150.3897  136.6469  155.2138 C   0  0  0  0  0  0  0  0  0  0  0  0
  150.9006  136.3203  156.2867 O   0  0  0  0  0  0  0  0  0  0  0  0
  150.7596  137.9668  154.5236 C   0  0  0  0  0  0  0  0  0  0  0  0
  150.7997  139.1221  155.4760 C   0  0  0  0  0  0  0  0  0  0  0  0
  150.5607  138.9563  156.7720 N   0  0  0  0  0  0  0  0  0  0  0  0
  150.7029  140.2490  157.2960 O   0  0  0  0  0  0  0  0  0  0  0  0
  151.0103  141.0435  156.2426 C   0  0  0  0  0  0  0  0  0  0  0  0
  151.2653  142.4959  156.4801 C   0  0  0  0  0  0  0  0  0  0  0  0
  151.1483  142.9027  157.9632 C   0  0  1  0  0  0  0  0  0  0  0  0
  152.1702  142.1721  158.8644 C   0  0  0  0  0  0  0  0  0  0  0  0
  152.8939  143.3258  159.5825 C   0  0  2  0  0  0  0  0  0  0  0  0
  151.9325  143.9932  160.5828 C   0  0  0  0  0  0  0  0  0  0  0  0
  150.9563  144.7478  159.6606 C   0  0  0  0  0  0  0  0  0  0  0  0
  151.4712  144.3890  158.2535 C   0  0  1  0  0  0  0  0  0  0  0  0
  152.9800  144.3718  158.4790 C   0  0  0  0  0  0  0  0  0  0  0  0
  151.1024  140.3920  155.0860 N   0  0  0  0  0  0  0  0  0  0  0  0
  148.2673  134.1975  154.3719 H   0  0  0  0  0  0  0  0  0  0  0  0
  148.5443  134.7065  156.0404 H   0  0  0  0  0  0  0  0  0  0  0  0
  149.8282  133.8835  155.1382 H   0  0  0  0  0  0  0  0  0  0  0  0
  149.1204  136.2139  153.6937 H   0  0  0  0  0  0  0  0  0  0  0  0
  151.7312  137.8555  154.0403 H   0  0  0  0  0  0  0  0  0  0  0  0
  150.0366  138.1814  153.7354 H   0  0  0  0  0  0  0  0  0  0  0  0
  152.2685  142.7233  156.1176 H   0  0  0  0  0  0  0  0  0  0  0  0
  150.5793  143.0772  155.8633 H   0  0  0  0  0  0  0  0  0  0  0  0
  150.1360  142.6694  158.2973 H   0  0  0  0  0  0  0  0  0  0  0  0
  151.6903  141.4864  159.5637 H   0  0  0  0  0  0  0  0  0  0  0  0
  152.8803  141.5931  158.2720 H   0  0  0  0  0  0  0  0  0  0  0  0
  153.8500  143.0369  160.0196 H   0  0  0  0  0  0  0  0  0  0  0  0
  151.4277  143.2649  161.2188 H   0  0  0  0  0  0  0  0  0  0  0  0
  152.4656  144.6910  161.2298 H   0  0  0  0  0  0  0  0  0  0  0  0
  149.9189  144.4490  159.8156 H   0  0  0  0  0  0  0  0  0  0  0  0
  151.0213  145.8229  159.8335 H   0  0  0  0  0  0  0  0  0  0  0  0
  151.1293  145.0844  157.4873 H   0  0  0  0  0  0  0  0  0  0  0  0
  153.3780  145.3290  158.8205 H   0  0  0  0  0  0  0  0  0  0  0  0
  153.5499  144.0393  157.6100 H   0  0  0  0  0  0  0  0  0  0  0  0
  1  2  1  0  0  0  0
  1 19  1  0  0  0  0
  1 20  1  0  0  0  0
  1 21  1  0  0  0  0
  2  3  1  0  0  0  0
  2 22  1  0  0  0  0
  3  4  2  0  0  0  0
  3  5  1  0  0  0  0
  5  6  1  0  0  0  0
  5 23  1  0  0  0  0
  5 24  1  0  0  0  0
  6 18  1  0  0  0  0
  6  7  2  0  0  0  0
  7  8  1  0  0  0  0
  8  9  1  0  0  0  0
  9 10  1  0  0  0  0
  9 18  2  0  0  0  0
 10 11  1  0  0  0  0
 10 25  1  0  0  0  0
 10 26  1  0  0  0  0
 11 16  1  0  0  0  0
 11 12  1  0  0  0  0
 11 27  1  0  0  0  0
 12 13  1  0  0  0  0
 12 28  1  0  0  0  0
 12 29  1  0  0  0  0
 13 17  1  0  0  0  0
 13 14  1  0  0  0  0
 13 30  1  0  0  0  0
 14 15  1  0  0  0  0
 14 31  1  0  0  0  0
 14 32  1  0  0  0  0
 15 16  1  0  0  0  0
 15 33  1  0  0  0  0
 15 34  1  0  0  0  0
 16 17  1  0  0  0  0
 16 35  1  0  0  0  0
 17 36  1  0  0  0  0
 17 37  1  0  0  0  0
M  END
> <s_m_source_file>
AV-unprocessed.smi

> <i_m_source_file_index>
3238

> <i_lp_mmshare_version>
43012

> <i_f3d_flags>
0

> <s_epik_input>
W0NIM11bTkhdQyg9TylbQ0gyXWMxbm9jKG4xKVtDSDJdW0NASF0oW0NIMl1bQ0BIXTIzKVtDQEhdKFtDSDJdMylbQ0gyXVtDSDJdMg==

> <s_epik_cmdline>
J2VwaWtfcHl0aG9uJywgJy1waCcsICc3LjAnLCAnLXRuJywgJzgnLCAnLW1hJywgJzIwMCcsICctbWV0YWxfYmluZGluZycsICctaW1hZScsICc8aW5maWxlLm1hZT4nLCAnLW9tYWUnLCAnPG91dGZpbGUubWFlPic=

> <r_lp_tautomer_probability>
1

> <r_epik_Ionization_Penalty>
1.02915e-07

> <r_epik_Ionization_Penalty_Charging>
0

> <r_epik_Ionization_Penalty_Neutral>
1.02915e-07

> <r_epik_State_Penalty>
-0

> <r_epik_Charging_Adjusted_Penalty>
0

> <i_epik_Tot_Q>
0

> <i_epik_Tot_abs_Q>
0

> <r_epik_Metal_State_Penalty>
-0

> <b_epik_Metal_Only>
0

> <s_lp_Force_Field>
OPLS_2005

> <r_lp_Energy>
47.9986

> <b_lp_Chiralities_Consistent>
1

> <s_lp_Variant>
AV-unprocessed.smi:3238-2

> <Gold.Version>
5.8.1

> <Gold.Id.Protein>
6NUR|6NUR_protein|mol2

> <Gold.PLP.Fitness>
50.8955

> <Gold.PLP.PLP>
-42.2894

> <Gold.PLP.part.hbond>
-3.8156

> <Gold.PLP.part.metal>
0.0000

> <Gold.PLP.part.buried>
-3.4286

> <Gold.PLP.part.nonpolar>
-34.5074

> <Gold.PLP.part.repulsive>
0.1658

> <Gold.PLP.ligand.clash>
0.0000

> <Gold.PLP.ligand.torsion>
0.2044

> <Gold.PLP.Chemscore.Hbond>
3.0000

> <Gold.PLP.Chemscore.CHOScore>
0.0000

> <Gold.PLP.Chemscore.Metal>
0.0000

> <Gold.Chemscore.Hbonds>
donor molecule, donor type, donor heavy atom, donor atom, acceptor molecule, acceptor atom, score
      L1  H     2    22       P1  7948  1.00
      P1  H  7989  7998       L1    18  1.00

> <Gold.PLP.Chemscore.Internal.Correction>
0.0150

> <Gold.Rescore>
     Score         DG    S(hbond)    S(metal)    S(lipo)     H(rot)  DE(clash)    DE(int)     intcor
     18.35     -21.42       2.53        0.00     104.60       1.85       0.02       3.05       ----

> <Gold.Chemscore.Fitness>
18.3494

> <Gold.Chemscore.DG>
-21.4190

> <Gold.Chemscore.ZeroCoef>
-5.4800

> <Gold.Chemscore.Hbond>
2.5252

> <Gold.Chemscore.Metal>
0.0000

> <Gold.Chemscore.Lipo>
104.6041

> <Gold.Chemscore.Internal_Hbond>
0.0000

> <Gold.Chemscore.DEClash>
0.0178

> <Gold.Chemscore.DEInternal>
3.0517

> <Gold.Chemscore.Rot>
1.8492

> <Gold.Chemscore.Internal.Correction>
   9.000000E+99

> <Gold.Chemscore.Hbonds>
donor molecule, donor type, donor heavy atom, donor atom, acceptor molecule, acceptor atom, score
      L1  H     2    22       P1  7948  0.93
      P1  H  7989  7998       L1    18  0.97

> <Gold.Chemscore.Hbond.Weighted>
-8.4342

> <Gold.Chemscore.Metal.Weighted>
-0.0000

> <Gold.Chemscore.Lipo.Weighted>
-12.2387

> <Gold.Chemscore.Internal_Hbond.Weighted>
0.0000

> <Gold.Chemscore.DEClash.Weighted>
0.0178

> <Gold.Chemscore.DEInternal.Weighted>
3.0517

> <Gold.Chemscore.Rot.Weighted>
4.7340

> <Gold.Chemscore.Internal.Correction.Weighted>
   9.000000E+99

> <Gold.Protein.RotatedTorsions>
[ 6907 6896 6895 6894 ] final  -14.12 input  -60.11 | X-H torsion
[ 7974 7965 7964 7962 ] final   39.91 input  175.53 | X-H torsion
[ 8008 7997 7996 7995 ] final   77.60 input   59.86 | X-H torsion
[ 10167 10162 10161 10158 ] final  -44.38 input  -65.29 | X-H torsion
[ 10718 10713 10712 10709 ] final   85.20 input   66.30 | X-H torsion
[ 10763 10752 10751 10750 ] final -158.92 input  -60.55 | X-H torsion
[ 11005 11000 10999 10996 ] final  160.51 input  -57.11 | X-H torsion

> <Gold.Protein.ActiveResidues>
 VAL166  LYS551  ARG553  GLY616  TRP617  ASP618  TYR619  PRO620  LYS621  CYS622 
 ASP623  PHE694  ASN695  SER759  ASP760  ASP761  ALA762  ILE779  LEU786  VAL792 
 PHE793  MET794  SER795  GLU796  ALA797  LYS798  CYS799  TRP800  GLU811  SER814 

> <Gold.Protein.RotatedAtoms>
  151.3443  135.0870  159.9381 H   0  0  0  0  0  0  0  0  0  0  0  0  # atno 6907 bound_to 6896
  152.5203  133.9415  159.7639 H   0  0  0  0  0  0  0  0  0  0  0  0  # atno 6908 bound_to 6896
  150.9778  133.6223  159.2757 H   0  0  0  0  0  0  0  0  0  0  0  0  # atno 6909 bound_to 6896
  146.0947  139.5595  142.9453 H   0  0  0  0  0  0  0  0  0  0  0  0  # atno 7974 bound_to 7965
  155.8439  140.3461  155.5649 H   0  0  0  0  0  0  0  0  0  0  0  0  # atno 8008 bound_to 7997
  155.8111  140.0899  157.1923 H   0  0  0  0  0  0  0  0  0  0  0  0  # atno 8009 bound_to 7997
  154.4005  140.1447  156.3375 H   0  0  0  0  0  0  0  0  0  0  0  0  # atno 8010 bound_to 7997
  140.6899  143.2933  151.3487 H   0  0  0  0  0  0  0  0  0  0  0  0  # atno 10167 bound_to 10162
  157.6911  131.0165  150.2787 H   0  0  0  0  0  0  0  0  0  0  0  0  # atno 10718 bound_to 10713
  154.7517  135.3094  154.8544 H   0  0  0  0  0  0  0  0  0  0  0  0  # atno 10763 bound_to 10752
  153.9329  135.6783  153.4749 H   0  0  0  0  0  0  0  0  0  0  0  0  # atno 10764 bound_to 10752
  153.1114  135.4865  154.8969 H   0  0  0  0  0  0  0  0  0  0  0  0  # atno 10765 bound_to 10752
  140.2066  134.8298  157.3076 H   0  0  0  0  0  0  0  0  0  0  0  0  # atno 11005 bound_to 11000
  145.5972  141.0361  143.2038 LP  0  0  0  0  0  0  0  0  0  0  0  0  # atno 17320 bound_to 7965
  144.7386  139.7514  143.7319 LP  0  0  0  0  0  0  0  0  0  0  0  0  # atno 17321 bound_to 7965
  139.6292  144.0755  152.2461 LP  0  0  0  0  0  0  0  0  0  0  0  0  # atno 17342 bound_to 10162
  140.0224  144.6143  150.7556 LP  0  0  0  0  0  0  0  0  0  0  0  0  # atno 17343 bound_to 10162
  156.3338  130.3804  149.7468 LP  0  0  0  0  0  0  0  0  0  0  0  0  # atno 17370 bound_to 10713
  156.4999  130.8124  151.3128 LP  0  0  0  0  0  0  0  0  0  0  0  0  # atno 17371 bound_to 10713
  140.1996  134.4271  155.7670 LP  0  0  0  0  0  0  0  0  0  0  0  0  # atno 17394 bound_to 11000
  141.2227  133.7065  156.8161 LP  0  0  0  0  0  0  0  0  0  0  0  0  # atno 17395 bound_to 11000

$$$$
