AV-unprocessed.smi:1912|AV-procd|sdf|7749|dock4
  -GOLD-   22720 9483D 1   1.00000     0.00000
 Structure written by MMmdl.
 43 45  0  0  0  0  0  0  0  0  1 V2000
  143.6881  145.1837  157.4302 C   0  0  0  0  0  0  0  0  0  0  0  0
  144.7660  144.5286  158.0822 O   0  0  0  0  0  0  0  0  0  0  0  0
  145.5870  143.7201  157.3259 C   0  0  0  0  0  0  0  0  0  0  0  0
  145.3644  143.4097  155.9639 C   0  0  0  0  0  0  0  0  0  0  0  0
  146.2511  142.5650  155.2714 C   0  0  0  0  0  0  0  0  0  0  0  0
  147.3821  142.0102  155.9195 C   0  0  0  0  0  0  0  0  0  0  0  0
  148.2679  141.1566  155.2941 O   0  0  0  0  0  0  0  0  0  0  0  0
  148.0774  140.8798  153.9150 C   0  0  0  0  0  0  0  0  0  0  0  0
  147.6136  142.3268  157.2809 C   0  0  0  0  0  0  0  0  0  0  0  0
  148.7992  141.7172  158.0289 C   0  0  1  0  0  0  0  0  0  0  0  0
  148.7086  140.3106  158.1377 O   0  0  0  0  0  0  0  0  0  0  0  0
  150.1495  142.0573  157.3626 C   0  0  0  0  0  0  0  0  0  0  0  0
  151.2711  141.3699  157.9888 N   0  0  0  0  0  0  0  0  0  0  0  0
  151.8620  140.2133  157.6005 C   0  0  0  0  0  0  0  0  0  0  0  0
  151.4124  139.4661  156.3854 C   0  0  0  0  0  0  0  0  0  0  0  0
  152.8612  139.7826  158.3707 N   0  0  0  0  0  0  0  0  0  0  0  0
  152.9266  140.7529  159.3520 C   0  0  0  0  0  0  0  0  0  0  0  0
  153.7775  140.8673  160.4746 C   0  0  0  0  0  0  0  0  0  0  0  0
  153.6533  141.9611  161.3561 C   0  0  0  0  0  0  0  0  0  0  0  0
  152.6796  142.9548  161.1278 C   0  0  0  0  0  0  0  0  0  0  0  0
  151.8234  142.8613  160.0143 C   0  0  0  0  0  0  0  0  0  0  0  0
  151.9493  141.7660  159.1385 C   0  0  0  0  0  0  0  0  0  0  0  0
  146.7139  143.1728  157.9672 C   0  0  0  0  0  0  0  0  0  0  0  0
  143.1301  145.7695  158.1605 H   0  0  0  0  0  0  0  0  0  0  0  0
  142.9968  144.4667  156.9853 H   0  0  0  0  0  0  0  0  0  0  0  0
  144.0436  145.8698  156.6602 H   0  0  0  0  0  0  0  0  0  0  0  0
  144.5160  143.8044  155.4258 H   0  0  0  0  0  0  0  0  0  0  0  0
  146.0368  142.3543  154.2350 H   0  0  0  0  0  0  0  0  0  0  0  0
  148.7875  140.1144  153.6025 H   0  0  0  0  0  0  0  0  0  0  0  0
  148.2540  141.7648  153.3028 H   0  0  0  0  0  0  0  0  0  0  0  0
  147.0747  140.4963  153.7204 H   0  0  0  0  0  0  0  0  0  0  0  0
  148.8023  142.0834  159.0551 H   0  0  0  0  0  0  0  0  0  0  0  0
  149.5172  139.9339  157.8257 H   0  0  0  0  0  0  0  0  0  0  0  0
  150.1287  141.7889  156.3059 H   0  0  0  0  0  0  0  0  0  0  0  0
  150.3323  143.1321  157.3966 H   0  0  0  0  0  0  0  0  0  0  0  0
  151.9955  138.5531  156.2613 H   0  0  0  0  0  0  0  0  0  0  0  0
  151.5438  140.0800  155.4942 H   0  0  0  0  0  0  0  0  0  0  0  0
  150.3618  139.1907  156.4746 H   0  0  0  0  0  0  0  0  0  0  0  0
  154.5260  140.1110  160.6586 H   0  0  0  0  0  0  0  0  0  0  0  0
  154.3081  142.0377  162.2117 H   0  0  0  0  0  0  0  0  0  0  0  0
  152.5893  143.7880  161.8091 H   0  0  0  0  0  0  0  0  0  0  0  0
  151.0726  143.6179  159.8413 H   0  0  0  0  0  0  0  0  0  0  0  0
  146.8780  143.3987  159.0107 H   0  0  0  0  0  0  0  0  0  0  0  0
  1  2  1  0  0  0  0
  1 24  1  0  0  0  0
  1 25  1  0  0  0  0
  1 26  1  0  0  0  0
  2  3  1  0  0  0  0
  3 23  1  0  0  0  0
  3  4  2  0  0  0  0
  4  5  1  0  0  0  0
  4 27  1  0  0  0  0
  5  6  2  0  0  0  0
  5 28  1  0  0  0  0
  6  7  1  0  0  0  0
  6  9  1  0  0  0  0
  7  8  1  0  0  0  0
  8 29  1  0  0  0  0
  8 30  1  0  0  0  0
  8 31  1  0  0  0  0
  9 10  1  0  0  0  0
  9 23  2  0  0  0  0
 10 11  1  0  0  0  0
 10 12  1  0  0  0  0
 10 32  1  0  0  0  0
 11 33  1  0  0  0  0
 12 13  1  0  0  0  0
 12 34  1  0  0  0  0
 12 35  1  0  0  0  0
 13 22  1  0  0  0  0
 13 14  1  0  0  0  0
 14 15  1  0  0  0  0
 14 16  2  0  0  0  0
 15 36  1  0  0  0  0
 15 37  1  0  0  0  0
 15 38  1  0  0  0  0
 16 17  1  0  0  0  0
 17 22  2  0  0  0  0
 17 18  1  0  0  0  0
 18 19  2  0  0  0  0
 18 39  1  0  0  0  0
 19 20  1  0  0  0  0
 19 40  1  0  0  0  0
 20 21  2  0  0  0  0
 20 41  1  0  0  0  0
 21 22  1  0  0  0  0
 21 42  1  0  0  0  0
 23 43  1  0  0  0  0
M  END
> <s_m_source_file>
AV-unprocessed.smi

> <i_m_source_file_index>
1912

> <i_lp_mmshare_version>
43012

> <i_f3d_flags>
0

> <s_epik_input>
W0NIM11PYzFbY0hdW2NIXWMoT1tDSDNdKWMoW2NIXTEpW0NASF0oW09IXSlbQ0gyXW4oYyhuMilbQ0gzXSljKGMyMylbY0hdW2NIXVtjSF1bY0hdMw==

> <s_epik_cmdline>
J2VwaWtfcHl0aG9uJywgJy1waCcsICc3LjAnLCAnLXRuJywgJzgnLCAnLW1hJywgJzIwMCcsICctbWV0YWxfYmluZGluZycsICctaW1hZScsICc8aW5maWxlLm1hZT4nLCAnLW9tYWUnLCAnPG91dGZpbGUubWFlPic=

> <r_lp_tautomer_probability>
1

> <r_epik_Ionization_Penalty>
0.129663

> <r_epik_Ionization_Penalty_Charging>
0

> <r_epik_Ionization_Penalty_Neutral>
0.129663

> <r_epik_State_Penalty>
0.119073

> <r_epik_Charging_Adjusted_Penalty>
0.119073

> <i_epik_Tot_Q>
0

> <i_epik_Tot_abs_Q>
0

> <r_epik_Metal_State_Penalty>
0.000131867

> <b_epik_Metal_Only>
0

> <s_lp_Force_Field>
OPLS_2005

> <r_lp_Energy>
18.0714

> <b_lp_Chiralities_Consistent>
1

> <s_lp_Variant>
AV-unprocessed.smi:1912-2

> <Gold.Version>
5.8.1

> <Gold.Id.Protein>
6NUR|6NUR_protein|mol2

> <Gold.PLP.Fitness>
41.2312

> <Gold.PLP.PLP>
-39.0315

> <Gold.PLP.part.hbond>
-1.0000

> <Gold.PLP.part.metal>
0.0000

> <Gold.PLP.part.buried>
-2.8423

> <Gold.PLP.part.nonpolar>
-34.5135

> <Gold.PLP.part.repulsive>
0.1681

> <Gold.PLP.ligand.clash>
0.0000

> <Gold.PLP.ligand.torsion>
0.4340

> <Gold.PLP.Chemscore.Hbond>
1.0000

> <Gold.PLP.Chemscore.CHOScore>
0.0000

> <Gold.PLP.Chemscore.Metal>
0.0000

> <Gold.Chemscore.Hbonds>
donor molecule, donor type, donor heavy atom, donor atom, acceptor molecule, acceptor atom, score
      P1  H  7997  8010       L1    16  0.46

> <Gold.PLP.Chemscore.Internal.Correction>
0.0678

> <Gold.Rescore>
     Score         DG    S(hbond)    S(metal)    S(lipo)     H(rot)  DE(clash)    DE(int)     intcor
     13.75     -14.23       0.81        0.00      99.17       2.17       0.05       0.43       ----

> <Gold.Chemscore.Fitness>
13.7477

> <Gold.Chemscore.DG>
-14.2276

> <Gold.Chemscore.ZeroCoef>
-5.4800

> <Gold.Chemscore.Hbond>
0.8076

> <Gold.Chemscore.Metal>
0.0000

> <Gold.Chemscore.Lipo>
99.1694

> <Gold.Chemscore.Internal_Hbond>
0.0000

> <Gold.Chemscore.DEClash>
0.0504

> <Gold.Chemscore.DEInternal>
0.4295

> <Gold.Chemscore.Rot>
2.1690

> <Gold.Chemscore.Internal.Correction>
   9.000000E+99

> <Gold.Chemscore.Hbonds>
donor molecule, donor type, donor heavy atom, donor atom, acceptor molecule, acceptor atom, score
      P1  H  7997  8010       L1    16  0.06

> <Gold.Chemscore.Hbond.Weighted>
-2.6974

> <Gold.Chemscore.Metal.Weighted>
-0.0000

> <Gold.Chemscore.Lipo.Weighted>
-11.6028

> <Gold.Chemscore.Internal_Hbond.Weighted>
0.0000

> <Gold.Chemscore.DEClash.Weighted>
0.0504

> <Gold.Chemscore.DEInternal.Weighted>
0.4295

> <Gold.Chemscore.Rot.Weighted>
5.5526

> <Gold.Chemscore.Internal.Correction.Weighted>
   9.000000E+99

> <Gold.Protein.RotatedTorsions>
[ 6907 6896 6895 6894 ] final   24.58 input  -60.11 | X-H torsion
[ 7974 7965 7964 7962 ] final  -50.85 input  175.53 | X-H torsion
[ 8008 7997 7996 7995 ] final   46.03 input   59.86 | X-H torsion
[ 10167 10162 10161 10158 ] final  126.41 input  -65.29 | X-H torsion
[ 10718 10713 10712 10709 ] final  -81.06 input   66.30 | X-H torsion
[ 10763 10752 10751 10750 ] final   72.68 input  -60.55 | X-H torsion
[ 11005 11000 10999 10996 ] final  151.65 input  -57.11 | X-H torsion

> <Gold.Protein.ActiveResidues>
 VAL166  LYS551  ARG553  GLY616  TRP617  ASP618  TYR619  PRO620  LYS621  CYS622 
 ASP623  PHE694  ASN695  SER759  ASP760  ASP761  ALA762  ILE779  LEU786  VAL792 
 PHE793  MET794  SER795  GLU796  ALA797  LYS798  CYS799  TRP800  GLU811  SER814 

> <Gold.Protein.RotatedAtoms>
  151.9596  135.0130  160.0546 H   0  0  0  0  0  0  0  0  0  0  0  0  # atno 6907 bound_to 6896
  152.1880  133.4748  159.5001 H   0  0  0  0  0  0  0  0  0  0  0  0  # atno 6908 bound_to 6896
  150.6929  134.1666  159.4239 H   0  0  0  0  0  0  0  0  0  0  0  0  # atno 6909 bound_to 6896
  145.9253  140.7797  142.9626 H   0  0  0  0  0  0  0  0  0  0  0  0  # atno 7974 bound_to 7965
  155.3456  140.3410  155.4239 H   0  0  0  0  0  0  0  0  0  0  0  0  # atno 8008 bound_to 7997
  156.1790  140.1657  156.8344 H   0  0  0  0  0  0  0  0  0  0  0  0  # atno 8009 bound_to 7997
  154.5313  140.0744  156.8333 H   0  0  0  0  0  0  0  0  0  0  0  0  # atno 8010 bound_to 7997
  139.5633  144.6895  151.3982 H   0  0  0  0  0  0  0  0  0  0  0  0  # atno 10167 bound_to 10162
  156.0057  130.4592  150.3895 H   0  0  0  0  0  0  0  0  0  0  0  0  # atno 10718 bound_to 10713
  153.0474  135.5091  154.7780 H   0  0  0  0  0  0  0  0  0  0  0  0  # atno 10763 bound_to 10752
  154.6669  135.2947  154.9795 H   0  0  0  0  0  0  0  0  0  0  0  0  # atno 10764 bound_to 10752
  154.0627  135.6688  153.4866 H   0  0  0  0  0  0  0  0  0  0  0  0  # atno 10765 bound_to 10752
  140.1237  134.8847  157.2108 H   0  0  0  0  0  0  0  0  0  0  0  0  # atno 11005 bound_to 11000
  144.6758  140.2041  143.7384 LP  0  0  0  0  0  0  0  0  0  0  0  0  # atno 17320 bound_to 7965
  145.8496  139.2169  143.1780 LP  0  0  0  0  0  0  0  0  0  0  0  0  # atno 17321 bound_to 7965
  140.6914  143.7852  150.7261 LP  0  0  0  0  0  0  0  0  0  0  0  0  # atno 17342 bound_to 10162
  140.1335  143.4504  152.2239 LP  0  0  0  0  0  0  0  0  0  0  0  0  # atno 17343 bound_to 10162
  157.1970  131.0429  151.2670 LP  0  0  0  0  0  0  0  0  0  0  0  0  # atno 17370 bound_to 10713
  157.4010  130.7333  149.6767 LP  0  0  0  0  0  0  0  0  0  0  0  0  # atno 17371 bound_to 10713
  140.2931  134.3217  155.7309 LP  0  0  0  0  0  0  0  0  0  0  0  0  # atno 17394 bound_to 11000
  141.2157  133.7547  156.9532 LP  0  0  0  0  0  0  0  0  0  0  0  0  # atno 17395 bound_to 11000

$$$$
