AV-unprocessed.smi:101|AV-procd|sdf|944|dock2
  -GOLD-   2262017463D 1   1.00000     0.00000
 Structure written by MMmdl.
 43 45  0  0  0  0  0  0  0  0  2 V2000
  145.5003  140.9632  158.8397 C   0  0  0  0  0  0  0  0  0  0  0  0
  145.4021  141.5928  157.4611 C   0  0  0  0  0  0  0  0  0  0  0  0
  146.2593  141.2835  156.4634 C   0  0  0  0  0  0  0  0  0  0  0  0
  146.1741  141.8575  155.2028 N   0  0  0  0  0  0  0  0  0  0  0  0
  147.2024  141.5704  154.1127 C   0  0  1  0  0  0  0  0  0  0  0  0
  148.4669  141.6180  154.6940 O   0  0  0  0  0  0  0  0  0  0  0  0
  148.8237  140.3078  155.1113 C   0  0  2  0  0  0  0  0  0  0  0  0
  150.3293  140.2175  155.3988 C   0  0  0  0  0  0  0  0  0  0  0  0
  150.6860  141.2592  156.2923 O   0  0  0  0  0  0  0  0  0  0  0  0
  151.7594  141.1265  157.0932 C   0  0  0  0  0  0  0  0  0  0  0  0
  152.5950  140.2284  156.9714 O   0  0  0  0  0  0  0  0  0  0  0  0
  151.8299  142.1805  158.1461 C   0  0  0  0  0  0  0  0  0  0  0  0
  152.7119  142.0112  159.2390 C   0  0  0  0  0  0  0  0  0  0  0  0
  152.8005  142.9902  160.2475 C   0  0  0  0  0  0  0  0  0  0  0  0
  152.0080  144.1505  160.1758 C   0  0  0  0  0  0  0  0  0  0  0  0
  151.1268  144.3308  159.0937 C   0  0  0  0  0  0  0  0  0  0  0  0
  151.0368  143.3530  158.0840 C   0  0  0  0  0  0  0  0  0  0  0  0
  148.2923  139.4222  153.9693 C   0  0  2  0  0  0  0  0  0  0  0  0
  149.2851  139.2219  152.9749 O   0  0  0  0  0  0  0  0  0  0  0  0
  147.0606  140.1839  153.4485 C   0  0  2  0  0  0  0  0  0  0  0  0
  147.0084  140.2706  152.0359 O   0  0  0  0  0  0  0  0  0  0  0  0
  145.2148  142.8852  154.9834 C   0  0  0  0  0  0  0  0  0  0  0  0
  145.2158  143.4648  153.8974 O   0  0  0  0  0  0  0  0  0  0  0  0
  144.3314  143.1888  155.9767 N   0  5  0  0  0  0  0  0  0  0  0  0
  144.3562  142.5858  157.1984 C   0  0  0  0  0  0  0  0  0  0  0  0
  143.5384  142.8535  158.0779 O   0  0  0  0  0  0  0  0  0  0  0  0
  146.3409  140.2716  158.9017 H   0  0  0  0  0  0  0  0  0  0  0  0
  144.5896  140.4102  159.0710 H   0  0  0  0  0  0  0  0  0  0  0  0
  145.6396  141.7318  159.6007 H   0  0  0  0  0  0  0  0  0  0  0  0
  147.0432  140.5757  156.6818 H   0  0  0  0  0  0  0  0  0  0  0  0
  147.0918  142.3686  153.3779 H   0  0  0  0  0  0  0  0  0  0  0  0
  148.2793  140.0659  156.0245 H   0  0  0  0  0  0  0  0  0  0  0  0
  150.5610  139.2582  155.8635 H   0  0  0  0  0  0  0  0  0  0  0  0
  150.9065  140.2896  154.4759 H   0  0  0  0  0  0  0  0  0  0  0  0
  153.3306  141.1288  159.3156 H   0  0  0  0  0  0  0  0  0  0  0  0
  153.4778  142.8500  161.0770 H   0  0  0  0  0  0  0  0  0  0  0  0
  152.0760  144.9010  160.9495 H   0  0  0  0  0  0  0  0  0  0  0  0
  150.5182  145.2215  159.0364 H   0  0  0  0  0  0  0  0  0  0  0  0
  150.3510  143.5241  157.2668 H   0  0  0  0  0  0  0  0  0  0  0  0
  148.0095  138.4392  154.3473 H   0  0  0  0  0  0  0  0  0  0  0  0
  149.0077  139.6525  152.1811 H   0  0  0  0  0  0  0  0  0  0  0  0
  146.1336  139.6987  153.7477 H   0  0  0  0  0  0  0  0  0  0  0  0
  147.8742  140.4747  151.7173 H   0  0  0  0  0  0  0  0  0  0  0  0
  1  2  1  0  0  0  0
  1 27  1  0  0  0  0
  1 28  1  0  0  0  0
  1 29  1  0  0  0  0
  2 25  1  0  0  0  0
  2  3  2  0  0  0  0
  3  4  1  0  0  0  0
  3 30  1  0  0  0  0
  4  5  1  0  0  0  0
  4 22  1  0  0  0  0
  5 20  1  0  0  0  0
  5  6  1  0  0  0  0
  5 31  1  0  0  0  0
  6  7  1  0  0  0  0
  7  8  1  0  0  0  0
  7 18  1  0  0  0  0
  7 32  1  0  0  0  0
  8  9  1  0  0  0  0
  8 33  1  0  0  0  0
  8 34  1  0  0  0  0
  9 10  1  0  0  0  0
 10 11  2  0  0  0  0
 10 12  1  0  0  0  0
 12 17  1  0  0  0  0
 12 13  2  0  0  0  0
 13 14  1  0  0  0  0
 13 35  1  0  0  0  0
 14 15  2  0  0  0  0
 14 36  1  0  0  0  0
 15 16  1  0  0  0  0
 15 37  1  0  0  0  0
 16 17  2  0  0  0  0
 16 38  1  0  0  0  0
 17 39  1  0  0  0  0
 18 19  1  0  0  0  0
 18 20  1  0  0  0  0
 18 40  1  0  0  0  0
 19 41  1  0  0  0  0
 20 21  1  0  0  0  0
 20 42  1  0  0  0  0
 21 43  1  0  0  0  0
 22 23  2  0  0  0  0
 22 24  1  0  0  0  0
 24 25  1  0  0  0  0
 25 26  2  0  0  0  0
M  CHG  1  24  -1
M  END
> <s_m_source_file>
AV-unprocessed.smi

> <i_m_source_file_index>
101

> <i_lp_mmshare_version>
43012

> <i_f3d_flags>
0

> <s_epik_input>
Tz1jMVtuSF1jKD1PKW4oW2NIXWMxW0NIM10pW0NAQEhdMk9bQ0BIXShbQ0BASF0oW09IXSlbQ0BIXTJbT0hdKVtDSDJdT0MoPU8pYzNbY0hdW2NIXVtjSF1bY0hdW2NIXTM=

> <s_epik_cmdline>
J2VwaWtfcHl0aG9uJywgJy1waCcsICc3LjAnLCAnLXRuJywgJzgnLCAnLW1hJywgJzIwMCcsICctbWV0YWxfYmluZGluZycsICctaW1hZScsICc8aW5maWxlLm1hZT4nLCAnLW9tYWUnLCAnPG91dGZpbGUubWFlPic=

> <r_lp_tautomer_probability>
0.999537

> <r_epik_Ionization_Penalty>
3.21006

> <r_epik_Ionization_Penalty_Charging>
5.75142e-08

> <r_epik_Ionization_Penalty_Neutral>
3.21006

> <r_epik_State_Penalty>
3.20925

> <r_epik_Charging_Adjusted_Penalty>
3.20925

> <i_epik_Tot_Q>
-1

> <i_epik_Tot_abs_Q>
1

> <r_epik_Metal_State_Penalty>
0.119957

> <b_epik_Metal_Only>
1

> <s_epik_Chemistry_Notes>
This compound has an ester and may undergo hydrolysis at high or low pH. This compound contains an acetal/aminal-like group ( X-CH(R)-Y where X, Y are N, S, or O) that may be acid/base labile, releasing an aldehyde.

> <s_lp_Force_Field>
OPLS_2005

> <r_lp_Energy>
46.0166

> <b_lp_Chiralities_Consistent>
1

> <s_lp_Variant>
AV-unprocessed.smi:101-32

> <Gold.Version>
5.8.1

> <Gold.Id.Protein>
6NUR|6NUR_protein|mol2

> <Gold.PLP.Fitness>
55.2805

> <Gold.PLP.PLP>
-47.6167

> <Gold.PLP.part.hbond>
-4.4978

> <Gold.PLP.part.metal>
0.0000

> <Gold.PLP.part.buried>
-8.2438

> <Gold.PLP.part.nonpolar>
-35.4374

> <Gold.PLP.part.repulsive>
0.6210

> <Gold.PLP.ligand.clash>
0.0000

> <Gold.PLP.ligand.torsion>
0.6478

> <Gold.PLP.Chemscore.Hbond>
2.9516

> <Gold.PLP.Chemscore.CHOScore>
0.0000

> <Gold.PLP.Chemscore.Metal>
0.0000

> <Gold.Chemscore.Hbonds>
donor molecule, donor type, donor heavy atom, donor atom, acceptor molecule, acceptor atom, score
      L1  H    19    41       P1  7957  0.19
      L1  H    21    43       P1  7957  1.00
      P1  H  7997  8008       L1    11  0.83

> <Gold.PLP.Chemscore.Internal.Correction>
0.1046

> <Gold.Rescore>
     Score         DG    S(hbond)    S(metal)    S(lipo)     H(rot)  DE(clash)    DE(int)     intcor
     16.43     -17.82       2.98        0.00      91.86       3.27       0.26       1.13       ----

> <Gold.Chemscore.Fitness>
16.4327

> <Gold.Chemscore.DG>
-17.8190

> <Gold.Chemscore.ZeroCoef>
-5.4800

> <Gold.Chemscore.Hbond>
2.9795

> <Gold.Chemscore.Metal>
0.0000

> <Gold.Chemscore.Lipo>
91.8571

> <Gold.Chemscore.Internal_Hbond>
0.0000

> <Gold.Chemscore.DEClash>
0.2581

> <Gold.Chemscore.DEInternal>
1.1283

> <Gold.Chemscore.Rot>
3.2656

> <Gold.Chemscore.Internal.Correction>
   9.000000E+99

> <Gold.Chemscore.Hbonds>
donor molecule, donor type, donor heavy atom, donor atom, acceptor molecule, acceptor atom, score
      L1  H    19    41       P1  7957  0.18
      L1  H    21    43       P1  7957  0.98
      P1  H  7997  8008       L1    11  0.81

> <Gold.Chemscore.Hbond.Weighted>
-9.9516

> <Gold.Chemscore.Metal.Weighted>
-0.0000

> <Gold.Chemscore.Lipo.Weighted>
-10.7473

> <Gold.Chemscore.Internal_Hbond.Weighted>
0.0000

> <Gold.Chemscore.DEClash.Weighted>
0.2581

> <Gold.Chemscore.DEInternal.Weighted>
1.1283

> <Gold.Chemscore.Rot.Weighted>
8.3598

> <Gold.Chemscore.Internal.Correction.Weighted>
   9.000000E+99

> <Gold.Protein.RotatedTorsions>
[ 6907 6896 6895 6894 ] final  141.09 input  -60.11 | X-H torsion
[ 7974 7965 7964 7962 ] final  -18.89 input  175.53 | X-H torsion
[ 8008 7997 7996 7995 ] final  -74.32 input   59.86 | X-H torsion
[ 10167 10162 10161 10158 ] final   78.55 input  -65.29 | X-H torsion
[ 10718 10713 10712 10709 ] final   93.71 input   66.30 | X-H torsion
[ 10763 10752 10751 10750 ] final -127.96 input  -60.55 | X-H torsion
[ 11005 11000 10999 10996 ] final -177.67 input  -57.11 | X-H torsion

> <Gold.Protein.ActiveResidues>
 VAL166  LYS551  ARG553  GLY616  TRP617  ASP618  TYR619  PRO620  LYS621  CYS622 
 ASP623  PHE694  ASN695  SER759  ASP760  ASP761  ALA762  ILE779  LEU786  VAL792 
 PHE793  MET794  SER795  GLU796  ALA797  LYS798  CYS799  TRP800  GLU811  SER814 

> <Gold.Protein.RotatedAtoms>
  152.2352  133.5090  159.5237 H   0  0  0  0  0  0  0  0  0  0  0  0  # atno 6907 bound_to 6896
  150.7048  134.1164  159.4027 H   0  0  0  0  0  0  0  0  0  0  0  0  # atno 6908 bound_to 6896
  151.9085  135.0349  160.0563 H   0  0  0  0  0  0  0  0  0  0  0  0  # atno 6909 bound_to 6896
  146.1869  140.3984  142.8473 H   0  0  0  0  0  0  0  0  0  0  0  0  # atno 7974 bound_to 7965
  154.5321  140.0763  156.8363 H   0  0  0  0  0  0  0  0  0  0  0  0  # atno 8008 bound_to 7997
  155.3354  140.3404  155.4221 H   0  0  0  0  0  0  0  0  0  0  0  0  # atno 8009 bound_to 7997
  156.1791  140.1646  156.8294 H   0  0  0  0  0  0  0  0  0  0  0  0  # atno 8010 bound_to 7997
  139.9698  144.5903  150.7996 H   0  0  0  0  0  0  0  0  0  0  0  0  # atno 10167 bound_to 10162
  157.6953  131.0487  150.4075 H   0  0  0  0  0  0  0  0  0  0  0  0  # atno 10718 bound_to 10713
  154.8754  135.3944  154.3679 H   0  0  0  0  0  0  0  0  0  0  0  0  # atno 10763 bound_to 10752
  153.4442  135.7027  153.6154 H   0  0  0  0  0  0  0  0  0  0  0  0  # atno 10764 bound_to 10752
  153.4722  135.3788  155.2366 H   0  0  0  0  0  0  0  0  0  0  0  0  # atno 10765 bound_to 10752
  140.4384  134.6454  157.4746 H   0  0  0  0  0  0  0  0  0  0  0  0  # atno 11005 bound_to 11000
  144.8415  140.6864  143.6226 LP  0  0  0  0  0  0  0  0  0  0  0  0  # atno 17320 bound_to 7965
  145.3910  139.1616  143.4229 LP  0  0  0  0  0  0  0  0  0  0  0  0  # atno 17321 bound_to 7965
  140.7526  143.2993  151.3123 LP  0  0  0  0  0  0  0  0  0  0  0  0  # atno 17342 bound_to 10162
  139.6490  144.0397  152.2612 LP  0  0  0  0  0  0  0  0  0  0  0  0  # atno 17343 bound_to 10162
  156.4462  130.4002  149.6665 LP  0  0  0  0  0  0  0  0  0  0  0  0  # atno 17370 bound_to 10713
  156.3831  130.7589  151.2584 LP  0  0  0  0  0  0  0  0  0  0  0  0  # atno 17371 bound_to 10713
  140.0087  134.6724  155.9415 LP  0  0  0  0  0  0  0  0  0  0  0  0  # atno 17394 bound_to 11000
  141.1716  133.6537  156.4673 LP  0  0  0  0  0  0  0  0  0  0  0  0  # atno 17395 bound_to 11000

$$$$
