AV-unprocessed.smi:2445|AV-procd|sdf|9636|dock8
  -GOLD-   2272013273D 1   1.00000     0.00000
 Structure written by MMmdl.
 40 41  0  0  0  0  0  0  0  0  1 V2000
  151.9855  141.9957  158.6576 C   0  0  0  0  0  0  0  0  0  0  0  0
  151.4754  141.3396  157.4201 C   0  0  0  0  0  0  0  0  0  0  0  0
  151.1497  141.9346  156.2267 C   0  0  0  0  0  0  0  0  0  0  0  0
  150.7047  141.0386  155.2527 N   0  0  0  0  0  0  0  0  0  0  0  0
  150.6888  139.7756  155.6883 C   0  0  0  0  0  0  0  0  0  0  0  0
  150.3065  138.6044  154.8343 C   0  0  1  0  0  0  0  0  0  0  0  0
  151.4571  137.5971  154.6938 C   0  0  0  0  0  0  0  0  0  0  0  0
  148.9766  137.9460  155.2628 C   0  0  0  0  0  0  0  0  0  0  0  0
  148.3957  137.1307  154.1970 N   0  0  0  0  0  0  0  0  0  0  0  0
  147.1222  136.7145  154.1400 C   0  0  0  0  0  0  0  0  0  0  0  0
  146.2871  136.9181  155.0210 O   0  0  0  0  0  0  0  0  0  0  0  0
  146.8637  136.0677  152.9952 N   0  0  0  0  0  0  0  0  0  0  0  0
  145.5548  135.5512  152.5942 C   0  0  1  0  0  0  0  0  0  0  0  0
  144.9787  136.3823  151.4488 C   0  0  0  0  0  0  0  0  0  0  0  0
  144.5485  135.3459  150.4161 C   0  0  0  0  0  0  0  0  0  0  0  0
  145.4643  134.2845  150.6197 O   0  0  0  0  0  0  0  0  0  0  0  0
  145.6009  134.1151  152.0232 C   0  0  1  0  0  0  0  0  0  0  0  0
  146.8430  133.2649  152.3347 C   0  0  0  0  0  0  0  0  0  0  0  0
  151.2236  139.6153  157.3577 S   0  0  0  0  0  0  0  0  0  0  0  0
  152.1460  143.0624  158.4990 H   0  0  0  0  0  0  0  0  0  0  0  0
  152.9340  141.5551  158.9654 H   0  0  0  0  0  0  0  0  0  0  0  0
  151.2759  141.8795  159.4770 H   0  0  0  0  0  0  0  0  0  0  0  0
  151.2078  142.9850  155.9823 H   0  0  0  0  0  0  0  0  0  0  0  0
  150.1390  139.0060  153.8340 H   0  0  0  0  0  0  0  0  0  0  0  0
  152.3533  138.0776  154.2999 H   0  0  0  0  0  0  0  0  0  0  0  0
  151.1902  136.7877  154.0138 H   0  0  0  0  0  0  0  0  0  0  0  0
  151.7131  137.1516  155.6556 H   0  0  0  0  0  0  0  0  0  0  0  0
  149.1462  137.2988  156.1236 H   0  0  0  0  0  0  0  0  0  0  0  0
  148.2691  138.7085  155.5930 H   0  0  0  0  0  0  0  0  0  0  0  0
  149.0016  136.9023  153.4227 H   0  0  0  0  0  0  0  0  0  0  0  0
  147.6193  135.9454  152.3371 H   0  0  0  0  0  0  0  0  0  0  0  0
  144.8641  135.5764  153.4391 H   0  0  0  0  0  0  0  0  0  0  0  0
  144.1511  137.0179  151.7651 H   0  0  0  0  0  0  0  0  0  0  0  0
  145.7419  137.0284  151.0119 H   0  0  0  0  0  0  0  0  0  0  0  0
  143.5339  134.9961  150.6136 H   0  0  0  0  0  0  0  0  0  0  0  0
  144.5898  135.7252  149.3951 H   0  0  0  0  0  0  0  0  0  0  0  0
  144.7167  133.5781  152.3717 H   0  0  0  0  0  0  0  0  0  0  0  0
  146.9713  133.1360  153.4095 H   0  0  0  0  0  0  0  0  0  0  0  0
  147.7512  133.7170  151.9353 H   0  0  0  0  0  0  0  0  0  0  0  0
  146.7499  132.2726  151.8930 H   0  0  0  0  0  0  0  0  0  0  0  0
  1  2  1  0  0  0  0
  1 20  1  0  0  0  0
  1 21  1  0  0  0  0
  1 22  1  0  0  0  0
  2 19  1  0  0  0  0
  2  3  2  0  0  0  0
  3  4  1  0  0  0  0
  3 23  1  0  0  0  0
  4  5  2  0  0  0  0
  5  6  1  0  0  0  0
  5 19  1  0  0  0  0
  6  7  1  0  0  0  0
  6  8  1  0  0  0  0
  6 24  1  0  0  0  0
  7 25  1  0  0  0  0
  7 26  1  0  0  0  0
  7 27  1  0  0  0  0
  8  9  1  0  0  0  0
  8 28  1  0  0  0  0
  8 29  1  0  0  0  0
  9 10  1  0  0  0  0
  9 30  1  0  0  0  0
 10 11  2  0  0  0  0
 10 12  1  0  0  0  0
 12 13  1  0  0  0  0
 12 31  1  0  0  0  0
 13 17  1  0  0  0  0
 13 14  1  0  0  0  0
 13 32  1  0  0  0  0
 14 15  1  0  0  0  0
 14 33  1  0  0  0  0
 14 34  1  0  0  0  0
 15 16  1  0  0  0  0
 15 35  1  0  0  0  0
 15 36  1  0  0  0  0
 16 17  1  0  0  0  0
 17 18  1  0  0  0  0
 17 37  1  0  0  0  0
 18 38  1  0  0  0  0
 18 39  1  0  0  0  0
 18 40  1  0  0  0  0
M  END
> <s_m_source_file>
AV-unprocessed.smi

> <i_m_source_file_index>
2445

> <i_lp_mmshare_version>
43012

> <i_f3d_flags>
0

> <s_epik_input>
W0NIM11jMVtjSF1uYyhzMSlbQ0BIXShbQ0gzXSlbQ0gyXVtOSF1DKD1PKVtOSF1bQ0BASF0yW0NIMl1bQ0gyXU9bQ0BIXTJbQ0gzXQ==

> <s_epik_cmdline>
J2VwaWtfcHl0aG9uJywgJy1waCcsICc3LjAnLCAnLXRuJywgJzgnLCAnLW1hJywgJzIwMCcsICctbWV0YWxfYmluZGluZycsICctaW1hZScsICc8aW5maWxlLm1hZT4nLCAnLW9tYWUnLCAnPG91dGZpbGUubWFlPic=

> <r_epik_Ionization_Penalty>
0.000649483

> <r_epik_Ionization_Penalty_Charging>
0

> <r_epik_Ionization_Penalty_Neutral>
0.000649483

> <r_epik_State_Penalty>
0.000379895

> <r_epik_Charging_Adjusted_Penalty>
0.000379895

> <i_epik_Tot_Q>
0

> <i_epik_Tot_abs_Q>
0

> <r_epik_Metal_State_Penalty>
-0

> <b_epik_Metal_Only>
0

> <s_lp_Force_Field>
OPLS_2005

> <r_lp_Energy>
6.66007

> <b_lp_Chiralities_Consistent>
1

> <s_lp_Variant>
AV-unprocessed.smi:2445-4

> <Gold.Version>
5.8.1

> <Gold.Id.Protein>
6NUR|6NUR_protein|mol2

> <Gold.PLP.Fitness>
38.1955

> <Gold.PLP.PLP>
-28.1367

> <Gold.PLP.part.hbond>
-2.5555

> <Gold.PLP.part.metal>
0.0000

> <Gold.PLP.part.buried>
-3.0046

> <Gold.PLP.part.nonpolar>
-22.6875

> <Gold.PLP.part.repulsive>
0.3002

> <Gold.PLP.ligand.clash>
0.0000

> <Gold.PLP.ligand.torsion>
0.4676

> <Gold.PLP.Chemscore.Hbond>
2.6240

> <Gold.PLP.Chemscore.CHOScore>
1.0000

> <Gold.PLP.Chemscore.Metal>
0.0000

> <Gold.Chemscore.Hbonds>
donor molecule, donor type, donor heavy atom, donor atom, acceptor molecule, acceptor atom, score
      L1  H     9    30       P1  7948  0.85
      L1  H    12    31       P1  7948  0.75
      P1  H  7989  7998       L1     4  0.70
      L1  C     3    23       P1  8028  0.06

> <Gold.PLP.Chemscore.Internal.Correction>
0.1220

> <Gold.Rescore>
     Score         DG    S(hbond)    S(metal)    S(lipo)     H(rot)  DE(clash)    DE(int)     intcor
     17.61     -17.98       2.47        0.00      69.97       1.53       0.07       0.30       ----

> <Gold.Chemscore.Fitness>
17.6056

> <Gold.Chemscore.DG>
-17.9772

> <Gold.Chemscore.ZeroCoef>
-5.4800

> <Gold.Chemscore.Hbond>
2.4653

> <Gold.Chemscore.Metal>
0.0000

> <Gold.Chemscore.Lipo>
69.9690

> <Gold.Chemscore.Internal_Hbond>
0.0000

> <Gold.Chemscore.DEClash>
0.0736

> <Gold.Chemscore.DEInternal>
0.2979

> <Gold.Chemscore.Rot>
1.5325

> <Gold.Chemscore.Internal.Correction>
   9.000000E+99

> <Gold.Chemscore.Hbonds>
donor molecule, donor type, donor heavy atom, donor atom, acceptor molecule, acceptor atom, score
      L1  H     9    30       P1  7948  0.83
      L1  H    12    31       P1  7948  0.73
      P1  H  7989  7998       L1     4  0.27

> <Gold.Chemscore.Hbond.Weighted>
-8.2341

> <Gold.Chemscore.Metal.Weighted>
-0.0000

> <Gold.Chemscore.Lipo.Weighted>
-8.1864

> <Gold.Chemscore.Internal_Hbond.Weighted>
0.0000

> <Gold.Chemscore.DEClash.Weighted>
0.0736

> <Gold.Chemscore.DEInternal.Weighted>
0.2979

> <Gold.Chemscore.Rot.Weighted>
3.9233

> <Gold.Chemscore.Internal.Correction.Weighted>
   9.000000E+99

> <Gold.Protein.RotatedTorsions>
[ 6907 6896 6895 6894 ] final  143.06 input  -60.11 | X-H torsion
[ 7974 7965 7964 7962 ] final -135.55 input  175.53 | X-H torsion
[ 8008 7997 7996 7995 ] final -119.68 input   59.86 | X-H torsion
[ 10167 10162 10161 10158 ] final  -73.49 input  -65.29 | X-H torsion
[ 10718 10713 10712 10709 ] final   26.59 input   66.30 | X-H torsion
[ 10763 10752 10751 10750 ] final   -9.16 input  -60.55 | X-H torsion
[ 11005 11000 10999 10996 ] final  113.62 input  -57.11 | X-H torsion

> <Gold.Protein.ActiveResidues>
 VAL166  LYS551  ARG553  GLY616  TRP617  ASP618  TYR619  PRO620  LYS621  CYS622 
 ASP623  PHE694  ASN695  SER759  ASP760  ASP761  ALA762  ILE779  LEU786  VAL792 
 PHE793  MET794  SER795  GLU796  ALA797  LYS798  CYS799  TRP800  GLU811  SER814 

> <Gold.Protein.RotatedAtoms>
  152.2110  133.4911  159.5109 H   0  0  0  0  0  0  0  0  0  0  0  0  # atno 6907 bound_to 6896
  150.6990  134.1466  159.4134 H   0  0  0  0  0  0  0  0  0  0  0  0  # atno 6908 bound_to 6896
  151.9386  135.0224  160.0585 H   0  0  0  0  0  0  0  0  0  0  0  0  # atno 6909 bound_to 6896
  144.9004  140.6763  143.5088 H   0  0  0  0  0  0  0  0  0  0  0  0  # atno 7974 bound_to 7965
  155.1196  140.0398  157.2746 H   0  0  0  0  0  0  0  0  0  0  0  0  # atno 8008 bound_to 7997
  154.6623  140.2594  155.7069 H   0  0  0  0  0  0  0  0  0  0  0  0  # atno 8009 bound_to 7997
  156.2624  140.2814  156.1101 H   0  0  0  0  0  0  0  0  0  0  0  0  # atno 8010 bound_to 7997
  140.5105  143.2345  151.7600 H   0  0  0  0  0  0  0  0  0  0  0  0  # atno 10167 bound_to 10162
  157.2089  130.6924  149.6220 H   0  0  0  0  0  0  0  0  0  0  0  0  # atno 10718 bound_to 10713
  153.4508  135.7015  153.6110 H   0  0  0  0  0  0  0  0  0  0  0  0  # atno 10763 bound_to 10752
  153.4445  135.3772  155.2248 H   0  0  0  0  0  0  0  0  0  0  0  0  # atno 10764 bound_to 10752
  154.8728  135.3982  154.3920 H   0  0  0  0  0  0  0  0  0  0  0  0  # atno 10765 bound_to 10752
  139.8958  134.9553  156.6766 H   0  0  0  0  0  0  0  0  0  0  0  0  # atno 11005 bound_to 11000
  145.3626  139.1678  143.4375 LP  0  0  0  0  0  0  0  0  0  0  0  0  # atno 17320 bound_to 7965
  146.3105  140.3690  142.8672 LP  0  0  0  0  0  0  0  0  0  0  0  0  # atno 17321 bound_to 7965
  139.4895  144.4396  151.9779 LP  0  0  0  0  0  0  0  0  0  0  0  0  # atno 17342 bound_to 10162
  140.3489  144.3113  150.5953 LP  0  0  0  0  0  0  0  0  0  0  0  0  # atno 17343 bound_to 10162
  155.9692  130.4558  150.5900 LP  0  0  0  0  0  0  0  0  0  0  0  0  # atno 17370 bound_to 10713
  157.3693  131.0763  151.1571 LP  0  0  0  0  0  0  0  0  0  0  0  0  # atno 17371 bound_to 10713
  140.7331  133.9041  155.8225 LP  0  0  0  0  0  0  0  0  0  0  0  0  # atno 17394 bound_to 11000
  141.0137  134.0985  157.4194 LP  0  0  0  0  0  0  0  0  0  0  0  0  # atno 17395 bound_to 11000

$$$$
