#       Name:                AV-unprocessed.smi:227
#       Creating user name   scv26
#       Creation time:       Thu Mar 26 20:23:59 2020


#       File generated by GOLD software.
#

@<TRIPOS>MOLECULE
AV-unprocessed.smi:227
    64    68     1
SMALL
NO_CHARGES


@<TRIPOS>ATOM
      1 ****        -0.9047  -5.7165   1.4584 O.3            1 S1                 0.0000
      2 ****        -1.4670  -5.2723   0.2405 C.3            1 S1                 0.0000
      3 ****        -1.1978  -3.7652   0.0111 C.3            1 S1                 0.0000
      4 ****         0.3346  -3.5391  -0.1212 C.3            1 S1                 0.0000
      5 ****         0.7412  -2.1483  -0.2147 N.pl3          1 S1                 0.0000
      6 ****         1.3652  -1.5432  -1.2813 C.2            1 S1                 0.0000
      7 ****         1.6362  -0.2775  -1.1191 N.2            1 S1                 0.0000
      8 ****         1.1802   0.0128   0.1620 C.ar           1 S1                 0.0000
      9 ****         1.1561   1.1854   0.9723 C.ar           1 S1                 0.0000
     10 ****         1.6289   2.3963   0.5678 N.3            1 S1                 0.0000
     11 ****         1.3253   2.8938  -0.7642 C.3            1 S1                 0.0000
     12 ****        -0.1531   3.3210  -0.6764 C.3            1 S1                 0.0000
     13 ****        -0.2295   3.8439   0.7666 C.3            1 S1                 0.0000
     14 ****         1.2218   3.6211   1.2453 C.3            1 S1                 0.0000
     15 ****         2.1262   4.6906   0.5934 C.3            1 S1                 0.0000
     16 ****         3.5053   4.8228   1.2649 C.3            1 S1                 0.0000
     17 ****         3.3751   5.4061   2.5440 O.3            1 S1                 0.0000
     18 ****         2.2114   4.1478  -0.8477 C.3            1 S1                 0.0000
     19 ****         0.6524   1.0605   2.2293 N.ar           1 S1                 0.0000
     20 ****         0.1775  -0.1118   2.6582 C.ar           1 S1                 0.0000
     21 ****         0.1163  -1.2741   2.0077 N.ar           1 S1                 0.0000
     22 ****         0.6357  -1.1641   0.7523 C.ar           1 S1                 0.0000
     23 ****        -2.0041  -3.2167  -1.2050 C.3            1 S1                 0.0000
     24 ****        -3.4801  -3.5879  -1.2241 C.3            1 S1                 0.0000
     25 ****        -4.0600  -2.5692  -2.1930 C.3            1 S1                 0.0000
     26 ****        -3.3624  -1.3711  -1.8964 O.3            1 S1                 0.0000
     27 ****        -2.1052  -1.6835  -1.3036 C.3            1 S1                 0.0000
     28 ****         0.0298  -5.5800   1.4268 H              1 S1                 0.0000
     29 ****        -1.0688  -5.8684  -0.5813 H              1 S1                 0.0000
     30 ****        -2.5332  -5.4850   0.3028 H              1 S1                 0.0000
     31 ****        -1.5512  -3.2423   0.9009 H              1 S1                 0.0000
     32 ****         0.8594  -3.9606   0.7363 H              1 S1                 0.0000
     33 ****         0.7117  -4.0687  -0.9971 H              1 S1                 0.0000
     34 ****         1.6034  -2.0690  -2.1944 H              1 S1                 0.0000
     35 ****         1.5228   2.2052  -1.5836 H              1 S1                 0.0000
     36 ****        -0.4174   4.0768  -1.4169 H              1 S1                 0.0000
     37 ****        -0.8167   2.4658  -0.8116 H              1 S1                 0.0000
     38 ****        -0.5390   4.8879   0.8249 H              1 S1                 0.0000
     39 ****        -0.9352   3.2535   1.3519 H              1 S1                 0.0000
     40 ****         1.3134   3.5957   2.3318 H              1 S1                 0.0000
     41 ****         1.6393   5.6671   0.6005 H              1 S1                 0.0000
     42 ****         3.9929   3.8518   1.3583 H              1 S1                 0.0000
     43 ****         4.1587   5.4567   0.6646 H              1 S1                 0.0000
     44 ****         4.2341   5.4732   2.9322 H              1 S1                 0.0000
     45 ****         3.2342   3.8727  -1.1091 H              1 S1                 0.0000
     46 ****         1.8575   4.8633  -1.5907 H              1 S1                 0.0000
     47 ****        -0.2107  -0.1183   3.6659 H              1 S1                 0.0000
     48 ****        -1.5580  -3.5948  -2.1264 H              1 S1                 0.0000
     49 ****        -3.6638  -4.6120  -1.5505 H              1 S1                 0.0000
     50 ****        -3.9220  -3.4560  -0.2353 H              1 S1                 0.0000
     51 ****        -3.8500  -2.8575  -3.2239 H              1 S1                 0.0000
     52 ****        -5.1376  -2.4457  -2.0835 H              1 S1                 0.0000
     53 ****        -2.0757  -1.2180  -0.3180 H              1 S1                 0.0000
     54 ****        -1.3016  -1.2575  -1.9026 H              1 S1                 0.0000
     55 ****        -1.0990  -6.6893   1.5841 LP             1 S1                 0.0000
     56 ****        -1.2954  -5.1976   2.2188 LP             1 S1                 0.0000
     57 ****         2.0733   0.3439  -1.7694 LP             1 S1                 0.0000
     58 ****         2.5585   2.0703   0.7395 LP             1 S1                 0.0000
     59 ****         2.7895   4.8335   3.1178 LP             1 S1                 0.0000
     60 ****         2.9710   6.3170   2.4598 LP             1 S1                 0.0000
     61 ****         0.6374   1.8537   2.8381 LP             1 S1                 0.0000
     62 ****        -0.2616  -2.1169   2.3910 LP             1 S1                 0.0000
     63 ****        -3.9026  -0.8204  -1.2600 LP             1 S1                 0.0000
     64 ****        -3.2134  -0.8553  -2.7400 LP             1 S1                 0.0000
@<TRIPOS>BOND
    1    1    2 1     
    2    1   28 1     
    3    2    3 1     
    4    2   29 1     
    5    2   30 1     
    6    3    4 1     
    7    3   23 1     
    8    3   31 1     
    9    4    5 1     
   10    4   32 1     
   11    4   33 1     
   12    5   22 1     
   13    5    6 1     
   14    6    7 2     
   15    6   34 1     
   16    7    8 1     
   17    8   22 ar    
   18    8    9 ar    
   19    9   10 1     
   20    9   19 ar    
   21   10   14 1     
   22   10   11 1     
   23   11   18 1     
   24   11   12 1     
   25   11   35 1     
   26   12   13 1     
   27   12   36 1     
   28   12   37 1     
   29   13   14 1     
   30   13   38 1     
   31   13   39 1     
   32   14   15 1     
   33   14   40 1     
   34   15   16 1     
   35   15   18 1     
   36   15   41 1     
   37   16   17 1     
   38   16   42 1     
   39   16   43 1     
   40   17   44 1     
   41   18   45 1     
   42   18   46 1     
   43   19   20 ar    
   44   20   21 ar    
   45   20   47 1     
   46   21   22 ar    
   47   23   27 1     
   48   23   24 1     
   49   23   48 1     
   50   24   25 1     
   51   24   49 1     
   52   24   50 1     
   53   25   26 1     
   54   25   51 1     
   55   25   52 1     
   56   26   27 1     
   57   27   53 1     
   58   27   54 1     
   59    1   55 1     
   60    1   56 1     
   61    7   57 1     
   62   10   58 1     
   63   17   59 1     
   64   17   60 1     
   65   19   61 1     
   66   21   62 1     
   67   26   63 1     
   68   26   64 1     
@<TRIPOS>SUBSTRUCTURE
      1 S1             1
@<TRIPOS>SET
LONE_PAIRS      STATIC     ATOMS    <user>   **** ""
10 55 56 57 58 59 60 61 62 63 64
DONOR_HYDROGENS      STATIC     ATOMS    <user>   **** ""
2 28 44
ATOM$BLUE        STATIC     ATOMS    COLORGROUP SYSTEM
10 55 56 57 58 59 60 61 62 63 64
ATOM$RED        STATIC     ATOMS    COLORGROUP SYSTEM
2 28 44
