AV-unprocessed.smi:1128|AV-procd|sdf|4845|dock7
  -GOLD-   22720 3413D 1   1.00000     0.00000
 Structure written by MMmdl.
 37 38  0  0  0  0  0  0  0  0  2 V2000
  147.0231  133.3806  156.0056 O   0  0  0  0  0  0  0  0  0  0  0  0
  145.8926  132.9795  155.7306 C   0  0  0  0  0  0  0  0  0  0  0  0
  145.4772  132.7654  154.4743 N   0  0  0  0  0  0  0  0  0  0  0  0
  146.2848  132.9668  153.2757 C   0  0  0  0  0  0  0  0  0  0  0  0
  145.6122  132.4030  152.0065 C   0  0  1  0  0  0  0  0  0  0  0  0
  144.1433  132.8676  151.8622 C   0  0  0  0  0  0  0  0  0  0  0  0
  143.5653  132.5690  150.4903 C   0  0  0  0  0  0  0  0  0  0  0  0
  144.3147  132.2286  149.4285 C   0  0  0  0  0  0  0  0  0  0  0  0
  145.8264  132.1122  149.4788 C   0  0  0  0  0  0  0  0  0  0  0  0
  146.4185  132.7609  150.7438 C   0  0  0  0  0  0  0  0  0  0  0  0
  144.9097  132.7087  156.6085 N   0  0  0  0  0  0  0  0  0  0  0  0
  144.9050  132.7924  158.0121 C   0  0  0  0  0  0  0  0  0  0  0  0
  145.9812  133.1161  158.7822 C   0  0  0  0  0  0  0  0  0  0  0  0
  145.9087  133.1818  160.2366 C   0  0  0  0  0  0  0  0  0  0  0  0
  147.1057  133.4593  161.1288 C   0  0  0  0  0  0  0  0  0  0  0  0
  147.9977  132.4709  161.0560 F   0  0  0  0  0  0  0  0  0  0  0  0
  147.7086  134.5961  160.7803 F   0  0  0  0  0  0  0  0  0  0  0  0
  146.7109  133.5695  162.3963 F   0  0  0  0  0  0  0  0  0  0  0  0
  144.6538  132.8577  160.7144 C   0  0  0  0  0  0  0  0  0  0  0  0
  143.5376  132.5373  160.0244 N   0  5  0  0  0  0  0  0  0  0  0  0
  143.6157  132.4826  158.6648 C   0  0  0  0  0  0  0  0  0  0  0  0
  142.6396  132.1832  157.9760 O   0  0  0  0  0  0  0  0  0  0  0  0
  144.5310  132.4418  154.3364 H   0  0  0  0  0  0  0  0  0  0  0  0
  146.4547  134.0377  153.1617 H   0  0  0  0  0  0  0  0  0  0  0  0
  147.2682  132.5155  153.4175 H   0  0  0  0  0  0  0  0  0  0  0  0
  145.6104  131.3144  152.0845 H   0  0  0  0  0  0  0  0  0  0  0  0
  143.5212  132.3814  152.6145 H   0  0  0  0  0  0  0  0  0  0  0  0
  144.0639  133.9419  152.0313 H   0  0  0  0  0  0  0  0  0  0  0  0
  142.4933  132.6500  150.3862 H   0  0  0  0  0  0  0  0  0  0  0  0
  143.8403  132.0120  148.4824 H   0  0  0  0  0  0  0  0  0  0  0  0
  146.0850  131.0537  149.4411 H   0  0  0  0  0  0  0  0  0  0  0  0
  146.2537  132.5759  148.5893 H   0  0  0  0  0  0  0  0  0  0  0  0
  146.4303  133.8450  150.6226 H   0  0  0  0  0  0  0  0  0  0  0  0
  147.4590  132.4540  150.8552 H   0  0  0  0  0  0  0  0  0  0  0  0
  144.0249  132.4267  156.2125 H   0  0  0  0  0  0  0  0  0  0  0  0
  146.9388  133.3303  158.3388 H   0  0  0  0  0  0  0  0  0  0  0  0
  144.5293  132.8496  161.8184 H   0  0  0  0  0  0  0  0  0  0  0  0
  1  2  2  0  0  0  0
  2  3  1  0  0  0  0
  2 11  1  0  0  0  0
  3  4  1  0  0  0  0
  3 23  1  0  0  0  0
  4  5  1  0  0  0  0
  4 24  1  0  0  0  0
  4 25  1  0  0  0  0
  5 10  1  0  0  0  0
  5  6  1  0  0  0  0
  5 26  1  0  0  0  0
  6  7  1  0  0  0  0
  6 27  1  0  0  0  0
  6 28  1  0  0  0  0
  7  8  2  0  0  0  0
  7 29  1  0  0  0  0
  8  9  1  0  0  0  0
  8 30  1  0  0  0  0
  9 10  1  0  0  0  0
  9 31  1  0  0  0  0
  9 32  1  0  0  0  0
 10 33  1  0  0  0  0
 10 34  1  0  0  0  0
 11 12  1  0  0  0  0
 11 35  1  0  0  0  0
 12 21  1  0  0  0  0
 12 13  2  0  0  0  0
 13 14  1  0  0  0  0
 13 36  1  0  0  0  0
 14 15  1  0  0  0  0
 14 19  2  0  0  0  0
 15 16  1  0  0  0  0
 15 17  1  0  0  0  0
 15 18  1  0  0  0  0
 19 20  1  0  0  0  0
 19 37  1  0  0  0  0
 20 21  1  0  0  0  0
 21 22  2  0  0  0  0
M  CHG  1  20  -1
M  END
> <s_m_source_file>
AV-unprocessed.smi

> <i_m_source_file_index>
1128

> <i_lp_mmshare_version>
43012

> <i_f3d_flags>
0

> <s_epik_input>
Tz1jMVtuSF1bY0hdYyhDKEYpKEYpRilbY0hdYzFbTkhdQyg9TylbTkhdW0NIMl1bQ0BASF0yW0NIMl1bQ0hdPVtDSF1bQ0gyXVtDSDJdMg==

> <s_epik_cmdline>
J2VwaWtfcHl0aG9uJywgJy1waCcsICc3LjAnLCAnLXRuJywgJzgnLCAnLW1hJywgJzIwMCcsICctbWV0YWxfYmluZGluZycsICctaW1hZScsICc8aW5maWxlLm1hZT4nLCAnLW9tYWUnLCAnPG91dGZpbGUubWFlPic=

> <r_lp_tautomer_probability>
1

> <r_epik_Ionization_Penalty>
3.16664

> <r_epik_Ionization_Penalty_Charging>
0.172425

> <r_epik_Ionization_Penalty_Neutral>
2.99422

> <r_epik_State_Penalty>
2.99038

> <r_epik_Charging_Adjusted_Penalty>
3.16281

> <i_epik_Tot_Q>
-1

> <i_epik_Tot_abs_Q>
1

> <r_epik_Metal_State_Penalty>
0.453031

> <b_epik_Metal_Only>
1

> <s_lp_Force_Field>
OPLS_2005

> <r_lp_Energy>
22.2299

> <b_lp_Chiralities_Consistent>
1

> <s_lp_Variant>
AV-unprocessed.smi:1128-4

> <Gold.Version>
5.8.1

> <Gold.Id.Protein>
6NUR|6NUR_protein|mol2

> <Gold.PLP.Fitness>
39.6787

> <Gold.PLP.PLP>
-31.2174

> <Gold.PLP.part.hbond>
-3.0000

> <Gold.PLP.part.metal>
0.0000

> <Gold.PLP.part.buried>
-3.2285

> <Gold.PLP.part.nonpolar>
-26.6739

> <Gold.PLP.part.repulsive>
0.1924

> <Gold.PLP.ligand.clash>
0.0000

> <Gold.PLP.ligand.torsion>
0.2880

> <Gold.PLP.Chemscore.Hbond>
2.9913

> <Gold.PLP.Chemscore.CHOScore>
0.0000

> <Gold.PLP.Chemscore.Metal>
0.0000

> <Gold.Chemscore.Hbonds>
donor molecule, donor type, donor heavy atom, donor atom, acceptor molecule, acceptor atom, score
      L1  H     3    23       P1 10957  1.00
      L1  H    11    35       P1 10957  0.98
      P1  H 11000 11005       L1    22  0.28

> <Gold.PLP.Chemscore.Internal.Correction>
0.0635

> <Gold.Rescore>
     Score         DG    S(hbond)    S(metal)    S(lipo)     H(rot)  DE(clash)    DE(int)     intcor
     18.39     -19.76       2.75        0.00      72.03       1.29       0.12       1.25       ----

> <Gold.Chemscore.Fitness>
18.3950

> <Gold.Chemscore.DG>
-19.7643

> <Gold.Chemscore.ZeroCoef>
-5.4800

> <Gold.Chemscore.Hbond>
2.7454

> <Gold.Chemscore.Metal>
0.0000

> <Gold.Chemscore.Lipo>
72.0346

> <Gold.Chemscore.Internal_Hbond>
0.0000

> <Gold.Chemscore.DEClash>
0.1209

> <Gold.Chemscore.DEInternal>
1.2485

> <Gold.Chemscore.Rot>
1.2943

> <Gold.Chemscore.Internal.Correction>
   9.000000E+99

> <Gold.Chemscore.Hbonds>
donor molecule, donor type, donor heavy atom, donor atom, acceptor molecule, acceptor atom, score
      L1  H     3    23       P1 10957  0.61
      L1  H    11    35       P1 10957  0.92
      P1  H 11000 11005       L1    22  0.26

> <Gold.Chemscore.Hbond.Weighted>
-9.1696

> <Gold.Chemscore.Metal.Weighted>
-0.0000

> <Gold.Chemscore.Lipo.Weighted>
-8.4280

> <Gold.Chemscore.Internal_Hbond.Weighted>
0.0000

> <Gold.Chemscore.DEClash.Weighted>
0.1209

> <Gold.Chemscore.DEInternal.Weighted>
1.2485

> <Gold.Chemscore.Rot.Weighted>
3.3133

> <Gold.Chemscore.Internal.Correction.Weighted>
   9.000000E+99

> <Gold.Protein.RotatedTorsions>
[ 6907 6896 6895 6894 ] final   -2.41 input  -60.11 | X-H torsion
[ 7974 7965 7964 7962 ] final  -54.23 input  175.53 | X-H torsion
[ 8008 7997 7996 7995 ] final   55.48 input   59.86 | X-H torsion
[ 10167 10162 10161 10158 ] final  174.88 input  -65.29 | X-H torsion
[ 10718 10713 10712 10709 ] final  121.99 input   66.30 | X-H torsion
[ 10763 10752 10751 10750 ] final  -68.17 input  -60.55 | X-H torsion
[ 11005 11000 10999 10996 ] final  -89.94 input  -57.11 | X-H torsion

> <Gold.Protein.ActiveResidues>
 VAL166  LYS551  ARG553  GLY616  TRP617  ASP618  TYR619  PRO620  LYS621  CYS622 
 ASP623  PHE694  ASN695  SER759  ASP760  ASP761  ALA762  ILE779  LEU786  VAL792 
 PHE793  MET794  SER795  GLU796  ALA797  LYS798  CYS799  TRP800  GLU811  SER814 

> <Gold.Protein.RotatedAtoms>
  151.5303  135.1068  159.9900 H   0  0  0  0  0  0  0  0  0  0  0  0  # atno 6907 bound_to 6896
  152.4581  133.7761  159.6836 H   0  0  0  0  0  0  0  0  0  0  0  0  # atno 6908 bound_to 6896
  150.8532  133.7689  159.3043 H   0  0  0  0  0  0  0  0  0  0  0  0  # atno 6909 bound_to 6896
  145.8879  140.8093  142.9806 H   0  0  0  0  0  0  0  0  0  0  0  0  # atno 7974 bound_to 7965
  155.5018  140.3474  155.4372 H   0  0  0  0  0  0  0  0  0  0  0  0  # atno 8008 bound_to 7997
  156.0908  140.1410  156.9622 H   0  0  0  0  0  0  0  0  0  0  0  0  # atno 8009 bound_to 7997
  154.4634  140.0926  156.6932 H   0  0  0  0  0  0  0  0  0  0  0  0  # atno 8010 bound_to 7997
  139.5157  144.3095  152.0304 H   0  0  0  0  0  0  0  0  0  0  0  0  # atno 10167 bound_to 10162
  157.5776  131.1078  150.8249 H   0  0  0  0  0  0  0  0  0  0  0  0  # atno 10718 bound_to 10713
  154.3851  135.6065  153.5812 H   0  0  0  0  0  0  0  0  0  0  0  0  # atno 10763 bound_to 10752
  152.9788  135.5870  154.4364 H   0  0  0  0  0  0  0  0  0  0  0  0  # atno 10764 bound_to 10752
  154.4139  135.2844  155.1997 H   0  0  0  0  0  0  0  0  0  0  0  0  # atno 10765 bound_to 10752
  141.1575  133.7661  156.9667 H   0  0  0  0  0  0  0  0  0  0  0  0  # atno 11005 bound_to 11000
  144.6729  140.1485  143.7432 LP  0  0  0  0  0  0  0  0  0  0  0  0  # atno 17320 bound_to 7965
  145.8944  139.2394  143.1531 LP  0  0  0  0  0  0  0  0  0  0  0  0  # atno 17321 bound_to 7965
  140.2540  144.4138  150.6211 LP  0  0  0  0  0  0  0  0  0  0  0  0  # atno 17342 bound_to 10162
  140.6204  143.2176  151.6705 LP  0  0  0  0  0  0  0  0  0  0  0  0  # atno 17343 bound_to 10162
  156.8703  130.5144  149.5297 LP  0  0  0  0  0  0  0  0  0  0  0  0  # atno 17370 bound_to 10713
  156.0821  130.5829  150.9582 LP  0  0  0  0  0  0  0  0  0  0  0  0  # atno 17371 bound_to 10713
  140.1157  134.9449  157.2130 LP  0  0  0  0  0  0  0  0  0  0  0  0  # atno 17394 bound_to 11000
  140.3137  134.2995  155.7261 LP  0  0  0  0  0  0  0  0  0  0  0  0  # atno 17395 bound_to 11000

$$$$
