AV-unprocessed.smi:2352|AV-procd|sdf|9379|dock1
  -GOLD-   2272013 03D 1   1.00000     0.00000
 Structure written by MMmdl.
 37 38  0  0  0  0  0  0  0  0  1 V2000
  151.9448  144.4641  160.6801 C   0  0  0  0  0  0  0  0  0  0  0  0
  151.9372  143.3964  159.6002 C   0  0  0  0  0  0  0  0  0  0  0  0
  151.1536  143.6789  158.4775 N   0  0  0  0  0  0  0  0  0  0  0  0
  151.0887  142.8285  157.5058 C   0  0  0  0  0  0  0  0  0  0  0  0
  151.7919  141.6132  157.5407 N   0  0  0  0  0  0  0  0  0  0  0  0
  151.6343  140.7342  156.3694 C   0  0  0  0  0  0  0  0  0  0  0  0
  150.1544  140.5575  155.9628 C   0  0  1  0  0  0  0  0  0  0  0  0
  150.1008  140.1852  154.5995 O   0  0  0  0  0  0  0  0  0  0  0  0
  149.4657  139.5275  156.8460 C   0  0  0  0  0  0  0  0  0  0  0  0
  148.1090  139.2090  156.6272 C   0  0  0  0  0  0  0  0  0  0  0  0
  147.4608  138.2615  157.4429 C   0  0  0  0  0  0  0  0  0  0  0  0
  148.1605  137.6192  158.4868 C   0  0  0  0  0  0  0  0  0  0  0  0
  147.4528  136.6015  159.3697 C   0  0  0  0  0  0  0  0  0  0  0  0
  148.2015  136.2753  160.4240 F   0  0  0  0  0  0  0  0  0  0  0  0
  146.3050  137.1209  159.8034 F   0  0  0  0  0  0  0  0  0  0  0  0
  147.1893  135.4877  158.6855 F   0  0  0  0  0  0  0  0  0  0  0  0
  149.5146  137.9482  158.7136 C   0  0  0  0  0  0  0  0  0  0  0  0
  150.1633  138.8958  157.8983 C   0  0  0  0  0  0  0  0  0  0  0  0
  152.5711  141.2545  158.6020 C   0  0  0  0  0  0  0  0  0  0  0  0
  153.1716  140.1784  158.6289 O   0  0  0  0  0  0  0  0  0  0  0  0
  152.6385  142.2340  159.6986 C   0  0  0  0  0  0  0  0  0  0  0  0
  153.5082  141.8722  160.8963 C   0  0  0  0  0  0  0  0  0  0  0  0
  152.9568  144.8353  160.8436 H   0  0  0  0  0  0  0  0  0  0  0  0
  151.5644  144.0607  161.6190 H   0  0  0  0  0  0  0  0  0  0  0  0
  151.3182  145.3131  160.4043 H   0  0  0  0  0  0  0  0  0  0  0  0
  150.4881  142.9985  156.6106 H   0  0  0  0  0  0  0  0  0  0  0  0
  152.2297  141.0657  155.5159 H   0  0  0  0  0  0  0  0  0  0  0  0
  152.0538  139.7590  156.6253 H   0  0  0  0  0  0  0  0  0  0  0  0
  149.6195  141.5026  156.0650 H   0  0  0  0  0  0  0  0  0  0  0  0
  150.1001  139.2417  154.5471 H   0  0  0  0  0  0  0  0  0  0  0  0
  147.5580  139.6928  155.8339 H   0  0  0  0  0  0  0  0  0  0  0  0
  146.4205  138.0315  157.2649 H   0  0  0  0  0  0  0  0  0  0  0  0
  150.0633  137.4777  159.5161 H   0  0  0  0  0  0  0  0  0  0  0  0
  151.1992  139.1379  158.0871 H   0  0  0  0  0  0  0  0  0  0  0  0
  153.1436  140.9562  161.3625 H   0  0  0  0  0  0  0  0  0  0  0  0
  153.5270  142.6453  161.6625 H   0  0  0  0  0  0  0  0  0  0  0  0
  154.5370  141.7030  160.5763 H   0  0  0  0  0  0  0  0  0  0  0  0
  1  2  1  0  0  0  0
  1 23  1  0  0  0  0
  1 24  1  0  0  0  0
  1 25  1  0  0  0  0
  2 21  2  0  0  0  0
  2  3  1  0  0  0  0
  3  4  2  0  0  0  0
  4  5  1  0  0  0  0
  4 26  1  0  0  0  0
  5  6  1  0  0  0  0
  5 19  1  0  0  0  0
  6  7  1  0  0  0  0
  6 27  1  0  0  0  0
  6 28  1  0  0  0  0
  7  8  1  0  0  0  0
  7  9  1  0  0  0  0
  7 29  1  0  0  0  0
  8 30  1  0  0  0  0
  9 18  1  0  0  0  0
  9 10  2  0  0  0  0
 10 11  1  0  0  0  0
 10 31  1  0  0  0  0
 11 12  2  0  0  0  0
 11 32  1  0  0  0  0
 12 13  1  0  0  0  0
 12 17  1  0  0  0  0
 13 14  1  0  0  0  0
 13 15  1  0  0  0  0
 13 16  1  0  0  0  0
 17 18  2  0  0  0  0
 17 33  1  0  0  0  0
 18 34  1  0  0  0  0
 19 20  2  0  0  0  0
 19 21  1  0  0  0  0
 21 22  1  0  0  0  0
 22 35  1  0  0  0  0
 22 36  1  0  0  0  0
 22 37  1  0  0  0  0
M  END
> <s_m_source_file>
AV-unprocessed.smi

> <i_m_source_file_index>
2352

> <i_lp_mmshare_version>
43012

> <i_f3d_flags>
0

> <s_epik_input>
W0NIM11jMW5bY0hdbihjKD1PKWMxW0NIM10pW0NIMl1bQ0BIXShbT0hdKWMyW2NIXVtjSF1jKEMoRikoRilGKVtjSF1bY0hdMg==

> <s_epik_cmdline>
J2VwaWtfcHl0aG9uJywgJy1waCcsICc3LjAnLCAnLXRuJywgJzgnLCAnLW1hJywgJzIwMCcsICctbWV0YWxfYmluZGluZycsICctaW1hZScsICc8aW5maWxlLm1hZT4nLCAnLW9tYWUnLCAnPG91dGZpbGUubWFlPic=

> <r_lp_tautomer_probability>
1

> <r_epik_Ionization_Penalty>
5.07001e-05

> <r_epik_Ionization_Penalty_Charging>
7.56727e-08

> <r_epik_Ionization_Penalty_Neutral>
5.06244e-05

> <r_epik_State_Penalty>
-0

> <r_epik_Charging_Adjusted_Penalty>
7.56727e-08

> <i_epik_Tot_Q>
0

> <i_epik_Tot_abs_Q>
0

> <r_epik_Metal_State_Penalty>
-0

> <b_epik_Metal_Only>
0

> <s_lp_Force_Field>
OPLS_2005

> <r_lp_Energy>
21.4472

> <b_lp_Chiralities_Consistent>
1

> <s_lp_Variant>
AV-unprocessed.smi:2352-2

> <Gold.Version>
5.8.1

> <Gold.Id.Protein>
6NUR|6NUR_protein|mol2

> <Gold.PLP.Fitness>
43.2487

> <Gold.PLP.PLP>
-35.2909

> <Gold.PLP.part.hbond>
-2.0000

> <Gold.PLP.part.metal>
0.0000

> <Gold.PLP.part.buried>
-5.8526

> <Gold.PLP.part.nonpolar>
-26.9262

> <Gold.PLP.part.repulsive>
0.1122

> <Gold.PLP.ligand.clash>
0.7561

> <Gold.PLP.ligand.torsion>
0.6222

> <Gold.PLP.Chemscore.Hbond>
1.9440

> <Gold.PLP.Chemscore.CHOScore>
1.0000

> <Gold.PLP.Chemscore.Metal>
0.0000

> <Gold.Chemscore.Hbonds>
donor molecule, donor type, donor heavy atom, donor atom, acceptor molecule, acceptor atom, score
      P1  H  7989  7998       L1     8  1.00
      P1  H  7997  8009       L1    20  0.73
      L1  C     4    26       P1  8028  1.00

> <Gold.PLP.Chemscore.Internal.Correction>
1.1262

> <Gold.Rescore>
     Score         DG    S(hbond)    S(metal)    S(lipo)     H(rot)  DE(clash)    DE(int)     intcor
     13.61     -14.40       1.76        0.00      72.65       2.13       0.18       0.60       ----

> <Gold.Chemscore.Fitness>
13.6142

> <Gold.Chemscore.DG>
-14.3998

> <Gold.Chemscore.ZeroCoef>
-5.4800

> <Gold.Chemscore.Hbond>
1.7619

> <Gold.Chemscore.Metal>
0.0000

> <Gold.Chemscore.Lipo>
72.6485

> <Gold.Chemscore.Internal_Hbond>
0.0000

> <Gold.Chemscore.DEClash>
0.1822

> <Gold.Chemscore.DEInternal>
0.6034

> <Gold.Chemscore.Rot>
2.1347

> <Gold.Chemscore.Internal.Correction>
   9.000000E+99

> <Gold.Chemscore.Hbonds>
donor molecule, donor type, donor heavy atom, donor atom, acceptor molecule, acceptor atom, score
      P1  H  7989  7998       L1     8  0.55
      P1  H  7997  8009       L1    20  0.56

> <Gold.Chemscore.Hbond.Weighted>
-5.8848

> <Gold.Chemscore.Metal.Weighted>
-0.0000

> <Gold.Chemscore.Lipo.Weighted>
-8.4999

> <Gold.Chemscore.Internal_Hbond.Weighted>
0.0000

> <Gold.Chemscore.DEClash.Weighted>
0.1822

> <Gold.Chemscore.DEInternal.Weighted>
0.6034

> <Gold.Chemscore.Rot.Weighted>
5.4649

> <Gold.Chemscore.Internal.Correction.Weighted>
   9.000000E+99

> <Gold.Protein.RotatedTorsions>
[ 6907 6896 6895 6894 ] final   13.64 input  -60.11 | X-H torsion
[ 7974 7965 7964 7962 ] final -174.99 input  175.53 | X-H torsion
[ 8008 7997 7996 7995 ] final  150.21 input   59.86 | X-H torsion
[ 10167 10162 10161 10158 ] final  163.48 input  -65.29 | X-H torsion
[ 10718 10713 10712 10709 ] final  -90.01 input   66.30 | X-H torsion
[ 10763 10752 10751 10750 ] final  137.28 input  -60.55 | X-H torsion
[ 11005 11000 10999 10996 ] final  -71.87 input  -57.11 | X-H torsion

> <Gold.Protein.ActiveResidues>
 VAL166  LYS551  ARG553  GLY616  TRP617  ASP618  TYR619  PRO620  LYS621  CYS622 
 ASP623  PHE694  ASN695  SER759  ASP760  ASP761  ALA762  ILE779  LEU786  VAL792 
 PHE793  MET794  SER795  GLU796  ALA797  LYS798  CYS799  TRP800  GLU811  SER814 

> <Gold.Protein.RotatedAtoms>
  151.7896  135.0739  160.0385 H   0  0  0  0  0  0  0  0  0  0  0  0  # atno 6907 bound_to 6896
  152.3166  133.5804  159.5724 H   0  0  0  0  0  0  0  0  0  0  0  0  # atno 6908 bound_to 6896
  150.7347  133.9990  159.3674 H   0  0  0  0  0  0  0  0  0  0  0  0  # atno 6909 bound_to 6896
  144.7129  140.1388  143.6393 H   0  0  0  0  0  0  0  0  0  0  0  0  # atno 7974 bound_to 7965
  156.2725  140.2081  156.5981 H   0  0  0  0  0  0  0  0  0  0  0  0  # atno 8008 bound_to 7997
  154.6929  140.0528  157.0405 H   0  0  0  0  0  0  0  0  0  0  0  0  # atno 8009 bound_to 7997
  155.0842  140.3190  155.4595 H   0  0  0  0  0  0  0  0  0  0  0  0  # atno 8010 bound_to 7997
  139.4874  144.4333  151.9043 H   0  0  0  0  0  0  0  0  0  0  0  0  # atno 10167 bound_to 10162
  155.9986  130.4893  150.5258 H   0  0  0  0  0  0  0  0  0  0  0  0  # atno 10718 bound_to 10713
  153.8704  135.3056  155.3442 H   0  0  0  0  0  0  0  0  0  0  0  0  # atno 10763 bound_to 10752
  154.7808  135.4836  153.9844 H   0  0  0  0  0  0  0  0  0  0  0  0  # atno 10764 bound_to 10752
  153.1409  135.6824  153.9124 H   0  0  0  0  0  0  0  0  0  0  0  0  # atno 10765 bound_to 10752
  141.1599  133.6830  156.6972 H   0  0  0  0  0  0  0  0  0  0  0  0  # atno 11005 bound_to 11000
  145.9221  139.2552  143.1375 LP  0  0  0  0  0  0  0  0  0  0  0  0  # atno 17320 bound_to 7965
  145.9610  140.8836  143.0211 LP  0  0  0  0  0  0  0  0  0  0  0  0  # atno 17321 bound_to 7965
  140.3781  144.2770  150.5911 LP  0  0  0  0  0  0  0  0  0  0  0  0  # atno 17342 bound_to 10162
  140.5258  143.2255  151.8317 LP  0  0  0  0  0  0  0  0  0  0  0  0  # atno 17343 bound_to 10162
  157.3213  131.0682  151.1929 LP  0  0  0  0  0  0  0  0  0  0  0  0  # atno 17370 bound_to 10713
  157.2842  130.6764  149.6081 LP  0  0  0  0  0  0  0  0  0  0  0  0  # atno 17371 bound_to 10713
  140.2986  134.8182  157.4078 LP  0  0  0  0  0  0  0  0  0  0  0  0  # atno 17394 bound_to 11000
  140.1282  134.5129  155.8127 LP  0  0  0  0  0  0  0  0  0  0  0  0  # atno 17395 bound_to 11000

$$$$
