AV-unprocessed.smi:222|AV-procd|sdf|1702|dock6
  -GOLD-   2262020163D 1   1.00000     0.00000
 Structure written by MMmdl.
 59 61  0  0  0  0  0  0  0  0  1 V2000
  153.1306  137.9105  156.4316 C   0  0  0  0  0  0  0  0  0  0  0  0
  153.1093  138.9166  155.4318 O   0  0  0  0  0  0  0  0  0  0  0  0
  151.8684  139.5999  155.3075 C   0  0  0  0  0  0  0  0  0  0  0  0
  151.3958  140.2349  156.6316 C   0  0  0  0  0  0  0  0  0  0  0  0
  150.6772  141.5002  156.4356 N   0  0  0  0  0  0  0  0  0  0  0  0
  151.1916  142.7032  157.1107 C   0  0  0  0  0  0  0  0  0  0  0  0
  151.4888  142.5204  158.6156 C   0  0  0  0  0  0  0  0  0  0  0  0
  151.1611  141.4719  159.1752 O   0  0  0  0  0  0  0  0  0  0  0  0
  152.1099  143.5219  159.2796 N   0  0  0  0  0  0  0  0  0  0  0  0
  152.5386  144.7663  158.6358 C   0  0  0  0  0  0  0  0  0  0  0  0
  152.3922  143.4038  160.7121 C   0  0  0  0  0  0  0  0  0  0  0  0
  149.4807  141.5195  155.7711 C   0  0  0  0  0  0  0  0  0  0  0  0
  149.4882  141.3627  154.4193 N   0  0  0  0  0  0  0  0  0  0  0  0
  148.3517  141.3466  153.7198 C   0  0  0  0  0  0  0  0  0  0  0  0
  147.1014  141.4727  154.1616 N   0  0  0  0  0  0  0  0  0  0  0  0
  147.0724  141.6419  155.5135 C   0  0  0  0  0  0  0  0  0  0  0  0
  148.1991  141.6770  156.3879 C   0  0  0  0  0  0  0  0  0  0  0  0
  147.7560  141.8673  157.6934 N   0  0  0  0  0  0  0  0  0  0  0  0
  146.4575  141.9249  157.5978 C   0  0  0  0  0  0  0  0  0  0  0  0
  145.9604  141.8161  156.3206 N   0  0  0  0  0  0  0  0  0  0  0  0
  144.5585  141.8416  155.9262 C   0  0  0  0  0  0  0  0  0  0  0  0
  143.8551  143.2297  156.0589 C   0  0  0  0  0  0  0  0  0  0  0  0
  144.5759  144.2397  155.1233 C   0  0  0  0  0  0  0  0  0  0  0  0
  144.7258  143.7713  153.7972 O   0  0  0  0  0  0  0  0  0  0  0  0
  142.3683  143.0821  155.6435 C   0  0  0  0  0  0  0  0  0  0  0  0
  141.5360  142.3005  156.6787 C   0  0  0  0  0  0  0  0  0  0  0  0
  141.6501  142.9073  157.9604 O   0  0  0  0  0  0  0  0  0  0  0  0
  142.9841  142.9228  158.4538 C   0  0  0  0  0  0  0  0  0  0  0  0
  143.8767  143.7564  157.5174 C   0  0  0  0  0  0  0  0  0  0  0  0
  154.1312  137.4824  156.4891 H   0  0  0  0  0  0  0  0  0  0  0  0
  152.4389  137.0987  156.2092 H   0  0  0  0  0  0  0  0  0  0  0  0
  152.8865  138.3213  157.4119 H   0  0  0  0  0  0  0  0  0  0  0  0
  151.9430  140.3608  154.5295 H   0  0  0  0  0  0  0  0  0  0  0  0
  151.1242  138.8846  154.9574 H   0  0  0  0  0  0  0  0  0  0  0  0
  150.7624  139.5439  157.1866 H   0  0  0  0  0  0  0  0  0  0  0  0
  152.2541  140.3854  157.2875 H   0  0  0  0  0  0  0  0  0  0  0  0
  152.1260  143.0040  156.6361 H   0  0  0  0  0  0  0  0  0  0  0  0
  150.5074  143.5318  156.9371 H   0  0  0  0  0  0  0  0  0  0  0  0
  153.0982  144.5674  157.7211 H   0  0  0  0  0  0  0  0  0  0  0  0
  153.1904  145.3622  159.2751 H   0  0  0  0  0  0  0  0  0  0  0  0
  151.6735  145.3809  158.3844 H   0  0  0  0  0  0  0  0  0  0  0  0
  151.5049  143.0835  161.2605 H   0  0  0  0  0  0  0  0  0  0  0  0
  152.7147  144.3455  161.1563 H   0  0  0  0  0  0  0  0  0  0  0  0
  153.1795  142.6682  160.8814 H   0  0  0  0  0  0  0  0  0  0  0  0
  148.4607  141.2116  152.6540 H   0  0  0  0  0  0  0  0  0  0  0  0
  145.8242  142.0563  158.4628 H   0  0  0  0  0  0  0  0  0  0  0  0
  144.4964  141.4957  154.8935 H   0  0  0  0  0  0  0  0  0  0  0  0
  144.0486  141.0793  156.5127 H   0  0  0  0  0  0  0  0  0  0  0  0
  144.0262  145.1794  155.0712 H   0  0  0  0  0  0  0  0  0  0  0  0
  145.5679  144.4738  155.5109 H   0  0  0  0  0  0  0  0  0  0  0  0
  143.8935  143.4347  153.5019 H   0  0  0  0  0  0  0  0  0  0  0  0
  141.9076  144.0642  155.5341 H   0  0  0  0  0  0  0  0  0  0  0  0
  142.2907  142.6054  154.6657 H   0  0  0  0  0  0  0  0  0  0  0  0
  140.4857  142.3077  156.3868 H   0  0  0  0  0  0  0  0  0  0  0  0
  141.8327  141.2530  156.7306 H   0  0  0  0  0  0  0  0  0  0  0  0
  142.9794  143.3647  159.4502 H   0  0  0  0  0  0  0  0  0  0  0  0
  143.3570  141.9046  158.5670 H   0  0  0  0  0  0  0  0  0  0  0  0
  144.8933  143.8056  157.9056 H   0  0  0  0  0  0  0  0  0  0  0  0
  143.5075  144.7820  157.5452 H   0  0  0  0  0  0  0  0  0  0  0  0
  1  2  1  0  0  0  0
  1 30  1  0  0  0  0
  1 31  1  0  0  0  0
  1 32  1  0  0  0  0
  2  3  1  0  0  0  0
  3  4  1  0  0  0  0
  3 33  1  0  0  0  0
  3 34  1  0  0  0  0
  4  5  1  0  0  0  0
  4 35  1  0  0  0  0
  4 36  1  0  0  0  0
  5  6  1  0  0  0  0
  5 12  1  0  0  0  0
  6  7  1  0  0  0  0
  6 37  1  0  0  0  0
  6 38  1  0  0  0  0
  7  8  2  0  0  0  0
  7  9  1  0  0  0  0
  9 10  1  0  0  0  0
  9 11  1  0  0  0  0
 10 39  1  0  0  0  0
 10 40  1  0  0  0  0
 10 41  1  0  0  0  0
 11 42  1  0  0  0  0
 11 43  1  0  0  0  0
 11 44  1  0  0  0  0
 12 17  1  0  0  0  0
 12 13  2  0  0  0  0
 13 14  1  0  0  0  0
 14 15  2  0  0  0  0
 14 45  1  0  0  0  0
 15 16  1  0  0  0  0
 16 20  1  0  0  0  0
 16 17  2  0  0  0  0
 17 18  1  0  0  0  0
 18 19  2  0  0  0  0
 19 20  1  0  0  0  0
 19 46  1  0  0  0  0
 20 21  1  0  0  0  0
 21 22  1  0  0  0  0
 21 47  1  0  0  0  0
 21 48  1  0  0  0  0
 22 29  1  0  0  0  0
 22 23  1  0  0  0  0
 22 25  1  0  0  0  0
 23 24  1  0  0  0  0
 23 49  1  0  0  0  0
 23 50  1  0  0  0  0
 24 51  1  0  0  0  0
 25 26  1  0  0  0  0
 25 52  1  0  0  0  0
 25 53  1  0  0  0  0
 26 27  1  0  0  0  0
 26 54  1  0  0  0  0
 26 55  1  0  0  0  0
 27 28  1  0  0  0  0
 28 29  1  0  0  0  0
 28 56  1  0  0  0  0
 28 57  1  0  0  0  0
 29 58  1  0  0  0  0
 29 59  1  0  0  0  0
M  END
> <s_m_source_file>
AV-unprocessed.smi

> <i_m_source_file_index>
222

> <i_lp_mmshare_version>
43012

> <i_f3d_flags>
0

> <s_epik_input>
W0NIM11PW0NIMl1bQ0gyXU4oW0NIMl1DKD1PKU4oW0NIM10pW0NIM10pYyhuW2NIXW4xKWMoYzEyKW5bY0hdbjJbQ0gyXUMzKFtDSDJdW09IXSlbQ0gyXVtDSDJdT1tDSDJdW0NIMl0z

> <s_epik_cmdline>
J2VwaWtfcHl0aG9uJywgJy1waCcsICc3LjAnLCAnLXRuJywgJzgnLCAnLW1hJywgJzIwMCcsICctbWV0YWxfYmluZGluZycsICctaW1hZScsICc8aW5maWxlLm1hZT4nLCAnLW9tYWUnLCAnPG91dGZpbGUubWFlPic=

> <r_lp_tautomer_probability>
1

> <r_epik_Ionization_Penalty>
0.000796957

> <r_epik_Ionization_Penalty_Charging>
0

> <r_epik_Ionization_Penalty_Neutral>
0.000796957

> <r_epik_State_Penalty>
0.000428513

> <r_epik_Charging_Adjusted_Penalty>
0.000428513

> <i_epik_Tot_Q>
0

> <i_epik_Tot_abs_Q>
0

> <r_epik_Metal_State_Penalty>
-0

> <b_epik_Metal_Only>
0

> <s_lp_Force_Field>
OPLS_2005

> <r_lp_Energy>
34.6666

> <b_lp_Chiralities_Consistent>
1

> <s_lp_Variant>
AV-unprocessed.smi:222-1

> <Gold.Version>
5.8.1

> <Gold.Id.Protein>
6NUR|6NUR_protein|mol2

> <Gold.PLP.Fitness>
49.6518

> <Gold.PLP.PLP>
-43.5649

> <Gold.PLP.part.hbond>
-4.0876

> <Gold.PLP.part.metal>
0.0000

> <Gold.PLP.part.buried>
-3.7778

> <Gold.PLP.part.nonpolar>
-35.9771

> <Gold.PLP.part.repulsive>
0.4389

> <Gold.PLP.ligand.clash>
0.0000

> <Gold.PLP.ligand.torsion>
1.8253

> <Gold.PLP.Chemscore.Hbond>
2.0650

> <Gold.PLP.Chemscore.CHOScore>
1.0000

> <Gold.PLP.Chemscore.Metal>
0.0000

> <Gold.Chemscore.Hbonds>
donor molecule, donor type, donor heavy atom, donor atom, acceptor molecule, acceptor atom, score
      L1  H    24    51       P1 10174  0.93
      P1  H  7989  7998       L1    13  0.07
      P1  H  7997  8008       L1     2  1.00
      L1  C    14    45       P1  7957  1.00

> <Gold.PLP.Chemscore.Internal.Correction>
0.5425

> <Gold.Rescore>
     Score         DG    S(hbond)    S(metal)    S(lipo)     H(rot)  DE(clash)    DE(int)     intcor
      6.35      -9.97       1.53        0.00      71.00       3.49       0.39       3.23       ----

> <Gold.Chemscore.Fitness>
6.3532

> <Gold.Chemscore.DG>
-9.9707

> <Gold.Chemscore.ZeroCoef>
-5.4800

> <Gold.Chemscore.Hbond>
1.5326

> <Gold.Chemscore.Metal>
0.0000

> <Gold.Chemscore.Lipo>
70.9952

> <Gold.Chemscore.Internal_Hbond>
0.0000

> <Gold.Chemscore.DEClash>
0.3877

> <Gold.Chemscore.DEInternal>
3.2299

> <Gold.Chemscore.Rot>
3.4901

> <Gold.Chemscore.Internal.Correction>
   9.000000E+99

> <Gold.Chemscore.Hbonds>
donor molecule, donor type, donor heavy atom, donor atom, acceptor molecule, acceptor atom, score
      L1  H    24    51       P1 10174  0.34
      P1  H  7989  7998       L1    13  0.07
      P1  H  7997  8008       L1     2  0.43

> <Gold.Chemscore.Hbond.Weighted>
-5.1189

> <Gold.Chemscore.Metal.Weighted>
-0.0000

> <Gold.Chemscore.Lipo.Weighted>
-8.3064

> <Gold.Chemscore.Internal_Hbond.Weighted>
0.0000

> <Gold.Chemscore.DEClash.Weighted>
0.3877

> <Gold.Chemscore.DEInternal.Weighted>
3.2299

> <Gold.Chemscore.Rot.Weighted>
8.9347

> <Gold.Chemscore.Internal.Correction.Weighted>
   9.000000E+99

> <Gold.Protein.RotatedTorsions>
[ 6907 6896 6895 6894 ] final -157.09 input  -60.11 | X-H torsion
[ 7974 7965 7964 7962 ] final    4.55 input  175.53 | X-H torsion
[ 8008 7997 7996 7995 ] final  -11.67 input   59.86 | X-H torsion
[ 10167 10162 10161 10158 ] final -173.88 input  -65.29 | X-H torsion
[ 10718 10713 10712 10709 ] final  101.74 input   66.30 | X-H torsion
[ 10763 10752 10751 10750 ] final -152.93 input  -60.55 | X-H torsion
[ 11005 11000 10999 10996 ] final -137.86 input  -57.11 | X-H torsion

> <Gold.Protein.ActiveResidues>
 VAL166  LYS551  ARG553  GLY616  TRP617  ASP618  TYR619  PRO620  LYS621  CYS622 
 ASP623  PHE694  ASN695  SER759  ASP760  ASP761  ALA762  ILE779  LEU786  VAL792 
 PHE793  MET794  SER795  GLU796  ALA797  LYS798  CYS799  TRP800  GLU811  SER814 

> <Gold.Protein.RotatedAtoms>
  151.2975  133.4137  159.2637 H   0  0  0  0  0  0  0  0  0  0  0  0  # atno 6907 bound_to 6896
  151.0224  134.9479  159.8077 H   0  0  0  0  0  0  0  0  0  0  0  0  # atno 6908 bound_to 6896
  152.5327  134.2938  159.9105 H   0  0  0  0  0  0  0  0  0  0  0  0  # atno 6909 bound_to 6896
  146.2443  140.0517  142.8374 H   0  0  0  0  0  0  0  0  0  0  0  0  # atno 7974 bound_to 7965
  154.5444  140.2296  155.8587 H   0  0  0  0  0  0  0  0  0  0  0  0  # atno 8008 bound_to 7997
  156.1889  140.3082  155.9255 H   0  0  0  0  0  0  0  0  0  0  0  0  # atno 8009 bound_to 7997
  155.3193  140.0439  157.3029 H   0  0  0  0  0  0  0  0  0  0  0  0  # atno 8010 bound_to 7997
  139.5664  144.1745  152.1319 H   0  0  0  0  0  0  0  0  0  0  0  0  # atno 10167 bound_to 10162
  157.6821  131.0734  150.5298 H   0  0  0  0  0  0  0  0  0  0  0  0  # atno 10718 bound_to 10713
  154.7962  135.3224  154.7662 H   0  0  0  0  0  0  0  0  0  0  0  0  # atno 10763 bound_to 10752
  153.8340  135.6877  153.4815 H   0  0  0  0  0  0  0  0  0  0  0  0  # atno 10764 bound_to 10752
  153.1654  135.4644  154.9772 H   0  0  0  0  0  0  0  0  0  0  0  0  # atno 10765 bound_to 10752
  140.8670  134.2098  157.4673 H   0  0  0  0  0  0  0  0  0  0  0  0  # atno 11005 bound_to 11000
  145.0978  140.9326  143.4730 LP  0  0  0  0  0  0  0  0  0  0  0  0  # atno 17320 bound_to 7965
  145.0703  139.3036  143.5835 LP  0  0  0  0  0  0  0  0  0  0  0  0  # atno 17321 bound_to 7965
  140.1269  144.5323  150.6827 LP  0  0  0  0  0  0  0  0  0  0  0  0  # atno 17342 bound_to 10162
  140.6948  143.2397  151.5032 LP  0  0  0  0  0  0  0  0  0  0  0  0  # atno 17343 bound_to 10162
  156.5608  130.4255  149.6064 LP  0  0  0  0  0  0  0  0  0  0  0  0  # atno 17370 bound_to 10713
  156.2822  130.7077  151.1905 LP  0  0  0  0  0  0  0  0  0  0  0  0  # atno 17371 bound_to 10713
  139.8710  134.9756  156.4891 LP  0  0  0  0  0  0  0  0  0  0  0  0  # atno 17394 bound_to 11000
  140.8617  133.8055  155.9272 LP  0  0  0  0  0  0  0  0  0  0  0  0  # atno 17395 bound_to 11000

$$$$
