AV-unprocessed.smi:2027|AV-procd|sdf|8211|dock9
  -GOLD-   2272010473D 1   1.00000     0.00000
 Structure written by MMmdl.
 50 52  0  0  0  0  0  0  0  0  2 V2000
  153.2060  142.3928  161.9540 C   0  0  0  0  0  0  0  0  0  0  0  0
  152.6333  142.1626  160.5666 C   0  0  0  0  0  0  0  0  0  0  0  0
  152.9759  140.9821  159.8691 C   0  0  0  0  0  0  0  0  0  0  0  0
  152.4650  140.7301  158.5772 C   0  0  0  0  0  0  0  0  0  0  0  0
  152.6678  139.6600  157.7227 N   0  0  0  0  0  0  0  0  0  0  0  0
  151.9259  140.0078  156.6755 C   0  0  0  0  0  0  0  0  0  0  0  0
  151.2670  141.1803  156.7488 N   0  0  0  0  0  0  0  0  0  0  0  0
  150.4071  141.7648  155.7353 C   0  0  0  0  0  0  0  0  0  0  0  0
  149.5367  140.7123  155.0216 C   0  0  2  0  0  0  0  0  0  0  0  0
  150.2737  140.1290  153.9633 O   0  0  0  0  0  0  0  0  0  0  0  0
  148.2565  141.3353  154.4349 C   0  0  0  0  0  0  0  0  0  0  0  0
  147.5536  142.1951  155.4243 N   0  3  1  0  0  0  0  0  0  0  0  0
  146.2543  142.6988  154.9219 C   0  0  0  0  0  0  0  0  0  0  0  0
  147.4280  141.5755  156.7672 C   0  0  0  0  0  0  0  0  0  0  0  0
  146.9342  142.5694  157.7851 C   0  0  0  0  0  0  0  0  0  0  0  0
  145.6500  143.1823  157.8531 C   0  0  0  0  0  0  0  0  0  0  0  0
  145.5345  144.0240  158.8666 N   0  0  0  0  0  0  0  0  0  0  0  0
  146.7316  143.9724  159.4853 N   0  0  0  0  0  0  0  0  0  0  0  0
  146.9614  144.7820  160.6628 C   0  0  0  0  0  0  0  0  0  0  0  0
  147.5957  143.1024  158.8563 C   0  0  0  0  0  0  0  0  0  0  0  0
  151.5936  141.6982  157.9979 C   0  0  0  0  0  0  0  0  0  0  0  0
  151.2457  142.8767  158.6815 C   0  0  0  0  0  0  0  0  0  0  0  0
  151.7678  143.1146  159.9700 C   0  0  0  0  0  0  0  0  0  0  0  0
  151.3901  144.3931  160.6970 C   0  0  0  0  0  0  0  0  0  0  0  0
  153.7790  141.5306  162.2965 H   0  0  0  0  0  0  0  0  0  0  0  0
  152.4075  142.5691  162.6751 H   0  0  0  0  0  0  0  0  0  0  0  0
  153.8694  143.2580  161.9527 H   0  0  0  0  0  0  0  0  0  0  0  0
  153.6372  140.2582  160.3222 H   0  0  0  0  0  0  0  0  0  0  0  0
  151.8588  139.3745  155.8027 H   0  0  0  0  0  0  0  0  0  0  0  0
  149.7745  142.5134  156.2146 H   0  0  0  0  0  0  0  0  0  0  0  0
  151.0305  142.2996  155.0172 H   0  0  0  0  0  0  0  0  0  0  0  0
  149.2828  139.9267  155.7337 H   0  0  0  0  0  0  0  0  0  0  0  0
  149.7690  140.2053  153.1668 H   0  0  0  0  0  0  0  0  0  0  0  0
  148.4870  141.9218  153.5442 H   0  0  0  0  0  0  0  0  0  0  0  0
  147.6096  140.5263  154.0945 H   0  0  0  0  0  0  0  0  0  0  0  0
  145.5454  141.8811  154.7848 H   0  0  0  0  0  0  0  0  0  0  0  0
  146.3698  143.2127  153.9681 H   0  0  0  0  0  0  0  0  0  0  0  0
  145.8198  143.4114  155.6239 H   0  0  0  0  0  0  0  0  0  0  0  0
  146.7307  140.7385  156.7111 H   0  0  0  0  0  0  0  0  0  0  0  0
  148.3885  141.1460  157.0566 H   0  0  0  0  0  0  0  0  0  0  0  0
  144.8053  143.0461  157.1941 H   0  0  0  0  0  0  0  0  0  0  0  0
  147.9644  144.6019  161.0513 H   0  0  0  0  0  0  0  0  0  0  0  0
  146.2323  144.5289  161.4337 H   0  0  0  0  0  0  0  0  0  0  0  0
  146.8631  145.8381  160.4095 H   0  0  0  0  0  0  0  0  0  0  0  0
  148.6006  142.9381  159.2172 H   0  0  0  0  0  0  0  0  0  0  0  0
  150.5849  143.5933  158.2164 H   0  0  0  0  0  0  0  0  0  0  0  0
  150.7907  145.0483  160.0641 H   0  0  0  0  0  0  0  0  0  0  0  0
  152.2821  144.9443  160.9955 H   0  0  0  0  0  0  0  0  0  0  0  0
  150.8082  144.1648  161.5904 H   0  0  0  0  0  0  0  0  0  0  0  0
  148.1431  143.0054  155.5557 H   0  0  0  0  0  0  0  0  0  0  0  0
  1  2  1  0  0  0  0
  1 25  1  0  0  0  0
  1 26  1  0  0  0  0
  1 27  1  0  0  0  0
  2 23  1  0  0  0  0
  2  3  2  0  0  0  0
  3  4  1  0  0  0  0
  3 28  1  0  0  0  0
  4 21  2  0  0  0  0
  4  5  1  0  0  0  0
  5  6  2  0  0  0  0
  6  7  1  0  0  0  0
  6 29  1  0  0  0  0
  7  8  1  0  0  0  0
  7 21  1  0  0  0  0
  8  9  1  0  0  0  0
  8 30  1  0  0  0  0
  8 31  1  0  0  0  0
  9 10  1  0  0  0  0
  9 11  1  0  0  0  0
  9 32  1  0  0  0  0
 10 33  1  0  0  0  0
 11 12  1  0  0  0  0
 11 34  1  0  0  0  0
 11 35  1  0  0  0  0
 12 13  1  0  0  0  0
 12 14  1  0  0  0  0
 12 50  1  0  0  0  0
 13 36  1  0  0  0  0
 13 37  1  0  0  0  0
 13 38  1  0  0  0  0
 14 15  1  0  0  0  0
 14 39  1  0  0  0  0
 14 40  1  0  0  0  0
 15 20  2  0  0  0  0
 15 16  1  0  0  0  0
 16 17  2  0  0  0  0
 16 41  1  0  0  0  0
 17 18  1  0  0  0  0
 18 19  1  0  0  0  0
 18 20  1  0  0  0  0
 19 42  1  0  0  0  0
 19 43  1  0  0  0  0
 19 44  1  0  0  0  0
 20 45  1  0  0  0  0
 21 22  1  0  0  0  0
 22 23  2  0  0  0  0
 22 46  1  0  0  0  0
 23 24  1  0  0  0  0
 24 47  1  0  0  0  0
 24 48  1  0  0  0  0
 24 49  1  0  0  0  0
M  CHG  1  12   1
M  END
> <s_m_source_file>
AV-unprocessed.smi

> <i_m_source_file_index>
2027

> <i_lp_mmshare_version>
43012

> <i_f3d_flags>
0

> <s_epik_input>
W0NIM11jKFtjSF0xKWMoW0NIM10pW2NIXWMoYzEyKW4oW2NIXW4yKVtDSDJdW0NASF0oW09IXSlbQ0gyXU4oW0NIM10pW0NIMl1jM1tjSF1ubihbQ0gzXSlbY0hdMw==

> <s_epik_cmdline>
J2VwaWtfcHl0aG9uJywgJy1waCcsICc3LjAnLCAnLXRuJywgJzgnLCAnLW1hJywgJzIwMCcsICctbWV0YWxfYmluZGluZycsICctaW1hZScsICc8aW5maWxlLm1hZT4nLCAnLW9tYWUnLCAnPG91dGZpbGUubWFlPic=

> <r_lp_tautomer_probability>
1

> <r_epik_Ionization_Penalty>
0.646578

> <r_epik_Ionization_Penalty_Charging>
0.559419

> <r_epik_Ionization_Penalty_Neutral>
0.087159

> <r_epik_State_Penalty>
0.661677

> <r_epik_Charging_Adjusted_Penalty>
1.2211

> <i_epik_Tot_Q>
1

> <i_epik_Tot_abs_Q>
1

> <r_epik_Metal_State_Penalty>
0.649174

> <b_epik_Metal_Only>
0

> <s_lp_Force_Field>
OPLS_2005

> <r_lp_Energy>
8.87495

> <b_lp_Chiralities_Consistent>
1

> <s_lp_Variant>
AV-unprocessed.smi:2027-3

> <Gold.Version>
5.8.1

> <Gold.Id.Protein>
6NUR|6NUR_protein|mol2

> <Gold.PLP.Fitness>
63.2704

> <Gold.PLP.PLP>
-49.8793

> <Gold.PLP.part.hbond>
-3.9374

> <Gold.PLP.part.metal>
0.0000

> <Gold.PLP.part.buried>
-7.3502

> <Gold.PLP.part.nonpolar>
-38.9187

> <Gold.PLP.part.repulsive>
0.1711

> <Gold.PLP.ligand.clash>
0.0000

> <Gold.PLP.ligand.torsion>
0.7710

> <Gold.PLP.Chemscore.Hbond>
4.9200

> <Gold.PLP.Chemscore.CHOScore>
0.0000

> <Gold.PLP.Chemscore.Metal>
0.0000

> <Gold.Chemscore.Hbonds>
donor molecule, donor type, donor heavy atom, donor atom, acceptor molecule, acceptor atom, score
      L1  H    10    33       P1  7957  1.00
      L1  H    12    50       P1  8028  2.00
      P1  H  7989  7998       L1    10  0.85
      P1  H  7997  8010       L1     5  0.81

> <Gold.PLP.Chemscore.Internal.Correction>
0.1730

> <Gold.Rescore>
     Score         DG    S(hbond)    S(metal)    S(lipo)     H(rot)  DE(clash)    DE(int)     intcor
     19.28     -20.16       2.21        0.00     117.01       2.50       0.00       0.87       ----

> <Gold.Chemscore.Fitness>
19.2840

> <Gold.Chemscore.DG>
-20.1557

> <Gold.Chemscore.ZeroCoef>
-5.4800

> <Gold.Chemscore.Hbond>
2.2147

> <Gold.Chemscore.Metal>
0.0000

> <Gold.Chemscore.Lipo>
117.0142

> <Gold.Chemscore.Internal_Hbond>
0.0000

> <Gold.Chemscore.DEClash>
0.0029

> <Gold.Chemscore.DEInternal>
0.8689

> <Gold.Chemscore.Rot>
2.5047

> <Gold.Chemscore.Internal.Correction>
   9.000000E+99

> <Gold.Chemscore.Hbonds>
donor molecule, donor type, donor heavy atom, donor atom, acceptor molecule, acceptor atom, score
      L1  H    10    33       P1  7957  0.89
      L1  H    12    50       P1  8028  0.91
      P1  H  7989  7998       L1    10  0.15
      P1  H  7997  8010       L1     5  0.09

> <Gold.Chemscore.Hbond.Weighted>
-7.3971

> <Gold.Chemscore.Metal.Weighted>
-0.0000

> <Gold.Chemscore.Lipo.Weighted>
-13.6907

> <Gold.Chemscore.Internal_Hbond.Weighted>
0.0000

> <Gold.Chemscore.DEClash.Weighted>
0.0029

> <Gold.Chemscore.DEInternal.Weighted>
0.8689

> <Gold.Chemscore.Rot.Weighted>
6.4120

> <Gold.Chemscore.Internal.Correction.Weighted>
   9.000000E+99

> <Gold.Protein.RotatedTorsions>
[ 6907 6896 6895 6894 ] final  -55.30 input  -60.11 | X-H torsion
[ 7974 7965 7964 7962 ] final  -53.29 input  175.53 | X-H torsion
[ 8008 7997 7996 7995 ] final   30.21 input   59.86 | X-H torsion
[ 10167 10162 10161 10158 ] final   -0.51 input  -65.29 | X-H torsion
[ 10718 10713 10712 10709 ] final  -34.56 input   66.30 | X-H torsion
[ 10763 10752 10751 10750 ] final   13.01 input  -60.55 | X-H torsion
[ 11005 11000 10999 10996 ] final  -70.87 input  -57.11 | X-H torsion

> <Gold.Protein.ActiveResidues>
 VAL166  LYS551  ARG553  GLY616  TRP617  ASP618  TYR619  PRO620  LYS621  CYS622 
 ASP623  PHE694  ASN695  SER759  ASP760  ASP761  ALA762  ILE779  LEU786  VAL792 
 PHE793  MET794  SER795  GLU796  ALA797  LYS798  CYS799  TRP800  GLU811  SER814 

> <Gold.Protein.RotatedAtoms>
  150.8264  134.7496  159.6815 H   0  0  0  0  0  0  0  0  0  0  0  0  # atno 6907 bound_to 6896
  152.4374  134.5656  159.9916 H   0  0  0  0  0  0  0  0  0  0  0  0  # atno 6908 bound_to 6896
  151.5827  133.3338  159.3047 H   0  0  0  0  0  0  0  0  0  0  0  0  # atno 6909 bound_to 6896
  145.8985  140.8014  142.9755 H   0  0  0  0  0  0  0  0  0  0  0  0  # atno 7974 bound_to 7965
  155.0868  140.3216  155.4585 H   0  0  0  0  0  0  0  0  0  0  0  0  # atno 8008 bound_to 7997
  156.2753  140.2085  156.5941 H   0  0  0  0  0  0  0  0  0  0  0  0  # atno 8009 bound_to 7997
  154.6935  140.0514  157.0374 H   0  0  0  0  0  0  0  0  0  0  0  0  # atno 8010 bound_to 7997
  140.6770  143.6885  150.8047 H   0  0  0  0  0  0  0  0  0  0  0  0  # atno 10167 bound_to 10162
  156.3491  130.4305  149.7720 H   0  0  0  0  0  0  0  0  0  0  0  0  # atno 10718 bound_to 10713
  153.1764  135.6820  153.8538 H   0  0  0  0  0  0  0  0  0  0  0  0  # atno 10763 bound_to 10752
  153.7884  135.3172  155.3376 H   0  0  0  0  0  0  0  0  0  0  0  0  # atno 10764 bound_to 10752
  154.8031  135.4765  154.0419 H   0  0  0  0  0  0  0  0  0  0  0  0  # atno 10765 bound_to 10752
  141.1582  133.6801  156.6818 H   0  0  0  0  0  0  0  0  0  0  0  0  # atno 11005 bound_to 11000
  144.6734  140.1639  143.7420 LP  0  0  0  0  0  0  0  0  0  0  0  0  # atno 17320 bound_to 7965
  145.8821  139.2328  143.1599 LP  0  0  0  0  0  0  0  0  0  0  0  0  # atno 17321 bound_to 7965
  140.0580  143.5183  152.2641 LP  0  0  0  0  0  0  0  0  0  0  0  0  # atno 17342 bound_to 10162
  139.6069  144.7598  151.3041 LP  0  0  0  0  0  0  0  0  0  0  0  0  # atno 17343 bound_to 10162
  156.4927  130.8092  151.3101 LP  0  0  0  0  0  0  0  0  0  0  0  0  # atno 17370 bound_to 10713
  157.7458  130.9970  150.2801 LP  0  0  0  0  0  0  0  0  0  0  0  0  # atno 17371 bound_to 10713
  140.3097  134.8096  157.4166 LP  0  0  0  0  0  0  0  0  0  0  0  0  # atno 17394 bound_to 11000
  140.1190  134.5245  155.8200 LP  0  0  0  0  0  0  0  0  0  0  0  0  # atno 17395 bound_to 11000

$$$$
