AV-unprocessed.smi:801|AV-procd|sdf|3789|dock3
  -GOLD-   22720 1223D 1   1.00000     0.00000
 Structure written by MMmdl.
 44 45  0  0  0  0  0  0  0  0  1 V2000
  149.2374  136.4093  157.7330 C   0  0  0  0  0  0  0  0  0  0  0  0
  148.4483  136.2441  156.5651 O   0  0  0  0  0  0  0  0  0  0  0  0
  148.3891  137.3980  155.7395 C   0  0  0  0  0  0  0  0  0  0  0  0
  149.6755  137.5702  154.9114 C   0  0  0  0  0  0  0  0  0  0  0  0
  150.7958  138.0111  155.7182 N   0  0  0  0  0  0  0  0  0  0  0  0
  150.8348  139.2452  156.3735 C   0  0  0  0  0  0  0  0  0  0  0  0
  149.7467  140.1144  156.1981 N   0  0  0  0  0  0  0  0  0  0  0  0
  149.4674  140.7687  155.0571 C   0  0  0  0  0  0  0  0  0  0  0  0
  148.3017  141.7495  155.1139 C   0  0  0  0  0  0  0  0  0  0  0  0
  150.0947  140.6183  154.0089 O   0  0  0  0  0  0  0  0  0  0  0  0
  151.9051  139.6416  157.1315 C   0  0  0  0  0  0  0  0  0  0  0  0
  151.9362  140.8983  157.7392 N   0  0  0  0  0  0  0  0  0  0  0  0
  152.9414  141.5364  158.5763 C   0  0  0  0  0  0  0  0  0  0  0  0
  152.4621  142.8297  159.2109 C   0  0  0  0  0  0  0  0  0  0  0  0
  152.5067  142.9986  160.6123 C   0  0  0  0  0  0  0  0  0  0  0  0
  152.0563  144.1980  161.1972 C   0  0  0  0  0  0  0  0  0  0  0  0
  151.5551  145.2332  160.3849 C   0  0  0  0  0  0  0  0  0  0  0  0
  151.5031  145.0677  158.9874 C   0  0  0  0  0  0  0  0  0  0  0  0
  151.9540  143.8685  158.4019 C   0  0  0  0  0  0  0  0  0  0  0  0
  153.0618  138.7406  157.2820 C   0  0  0  0  0  0  0  0  0  0  0  0
  154.0763  138.9500  157.9449 O   0  0  0  0  0  0  0  0  0  0  0  0
  152.9708  137.5396  156.5823 N   0  0  0  0  0  0  0  0  0  0  0  0
  151.9017  137.1355  155.7936 C   0  0  0  0  0  0  0  0  0  0  0  0
  151.9589  136.0560  155.2038 O   0  0  0  0  0  0  0  0  0  0  0  0
  153.7560  136.9085  156.6502 H   0  0  0  0  0  0  0  0  0  0  0  0
  149.1939  135.4992  158.3308 H   0  0  0  0  0  0  0  0  0  0  0  0
  148.8654  137.2298  158.3481 H   0  0  0  0  0  0  0  0  0  0  0  0
  150.2841  136.5976  157.4949 H   0  0  0  0  0  0  0  0  0  0  0  0
  147.5418  137.2732  155.0648 H   0  0  0  0  0  0  0  0  0  0  0  0
  148.1789  138.2872  156.3364 H   0  0  0  0  0  0  0  0  0  0  0  0
  149.9881  136.6436  154.4328 H   0  0  0  0  0  0  0  0  0  0  0  0
  149.5389  138.2757  154.0901 H   0  0  0  0  0  0  0  0  0  0  0  0
  149.2342  140.3689  157.0298 H   0  0  0  0  0  0  0  0  0  0  0  0
  147.3552  141.2146  155.0341 H   0  0  0  0  0  0  0  0  0  0  0  0
  148.3606  142.4670  154.2948 H   0  0  0  0  0  0  0  0  0  0  0  0
  148.3077  142.3049  156.0524 H   0  0  0  0  0  0  0  0  0  0  0  0
  151.0990  141.4520  157.6288 H   0  0  0  0  0  0  0  0  0  0  0  0
  153.2473  140.8384  159.3566 H   0  0  0  0  0  0  0  0  0  0  0  0
  153.8225  141.7627  157.9752 H   0  0  0  0  0  0  0  0  0  0  0  0
  152.8850  142.2083  161.2442 H   0  0  0  0  0  0  0  0  0  0  0  0
  152.0940  144.3228  162.2692 H   0  0  0  0  0  0  0  0  0  0  0  0
  151.2088  146.1525  160.8338 H   0  0  0  0  0  0  0  0  0  0  0  0
  151.1171  145.8606  158.3637 H   0  0  0  0  0  0  0  0  0  0  0  0
  151.9090  143.7506  157.3290 H   0  0  0  0  0  0  0  0  0  0  0  0
  1  2  1  0  0  0  0
  1 26  1  0  0  0  0
  1 27  1  0  0  0  0
  1 28  1  0  0  0  0
  2  3  1  0  0  0  0
  3  4  1  0  0  0  0
  3 29  1  0  0  0  0
  3 30  1  0  0  0  0
  4  5  1  0  0  0  0
  4 31  1  0  0  0  0
  4 32  1  0  0  0  0
  5 23  1  0  0  0  0
  5  6  1  0  0  0  0
  6  7  1  0  0  0  0
  6 11  2  0  0  0  0
  7  8  1  0  0  0  0
  7 33  1  0  0  0  0
  8  9  1  0  0  0  0
  8 10  2  0  0  0  0
  9 34  1  0  0  0  0
  9 35  1  0  0  0  0
  9 36  1  0  0  0  0
 11 12  1  0  0  0  0
 11 20  1  0  0  0  0
 12 13  1  0  0  0  0
 12 37  1  0  0  0  0
 13 14  1  0  0  0  0
 13 38  1  0  0  0  0
 13 39  1  0  0  0  0
 14 19  1  0  0  0  0
 14 15  2  0  0  0  0
 15 16  1  0  0  0  0
 15 40  1  0  0  0  0
 16 17  2  0  0  0  0
 16 41  1  0  0  0  0
 17 18  1  0  0  0  0
 17 42  1  0  0  0  0
 18 19  2  0  0  0  0
 18 43  1  0  0  0  0
 19 44  1  0  0  0  0
 20 21  2  0  0  0  0
 20 22  1  0  0  0  0
 22 25  1  0  0  0  0
 22 23  1  0  0  0  0
 23 24  2  0  0  0  0
M  END
> <s_m_source_file>
AV-unprocessed.smi

> <i_m_source_file_index>
801

> <i_lp_mmshare_version>
43012

> <i_f3d_flags>
0

> <s_epik_input>
W0NIM11PW0NIMl1bQ0gyXW4xYyhbTkhdQyg9TylbQ0gzXSljKGMoPU8pW25IXWMxPU8pW05IXVtDSDJdYzJbY0hdW2NIXVtjSF1bY0hdW2NIXTI=

> <s_epik_cmdline>
J2VwaWtfcHl0aG9uJywgJy1waCcsICc3LjAnLCAnLXRuJywgJzgnLCAnLW1hJywgJzIwMCcsICctbWV0YWxfYmluZGluZycsICctaW1hZScsICc8aW5maWxlLm1hZT4nLCAnLW9tYWUnLCAnPG91dGZpbGUubWFlPic=

> <r_lp_tautomer_probability>
0.999901

> <r_epik_Ionization_Penalty>
0.000786563

> <r_epik_Ionization_Penalty_Charging>
0.000779429

> <r_epik_Ionization_Penalty_Neutral>
7.13436e-06

> <r_epik_State_Penalty>
0.00049961

> <r_epik_Charging_Adjusted_Penalty>
0.00127904

> <i_epik_Tot_Q>
0

> <i_epik_Tot_abs_Q>
0

> <r_epik_Metal_State_Penalty>
0.266924

> <b_epik_Metal_Only>
0

> <s_lp_Force_Field>
OPLS_2005

> <r_lp_Energy>
22.7844

> <b_lp_Chiralities_Consistent>
1

> <s_lp_Variant>
AV-unprocessed.smi:801-1

> <Gold.Version>
5.8.1

> <Gold.Id.Protein>
6NUR|6NUR_protein|mol2

> <Gold.PLP.Fitness>
45.8938

> <Gold.PLP.PLP>
-37.9970

> <Gold.PLP.part.hbond>
-3.0000

> <Gold.PLP.part.metal>
0.0000

> <Gold.PLP.part.buried>
-5.9276

> <Gold.PLP.part.nonpolar>
-30.0887

> <Gold.PLP.part.repulsive>
1.3422

> <Gold.PLP.ligand.clash>
0.0000

> <Gold.PLP.ligand.torsion>
0.8656

> <Gold.PLP.Chemscore.Hbond>
2.8160

> <Gold.PLP.Chemscore.CHOScore>
0.0000

> <Gold.PLP.Chemscore.Metal>
0.0000

> <Gold.Chemscore.Hbonds>
donor molecule, donor type, donor heavy atom, donor atom, acceptor molecule, acceptor atom, score
      P1  H  7989  7998       L1    10  0.69
      P1  H  7997  8009       L1    21  0.83
      P1  H 10752 10765       L1    24  0.28

> <Gold.PLP.Chemscore.Internal.Correction>
1.1801

> <Gold.Rescore>
     Score         DG    S(hbond)    S(metal)    S(lipo)     H(rot)  DE(clash)    DE(int)     intcor
     17.50     -19.99       2.53        0.00      96.02       2.02       0.18       2.31       ----

> <Gold.Chemscore.Fitness>
17.5049

> <Gold.Chemscore.DG>
-19.9890

> <Gold.Chemscore.ZeroCoef>
-5.4800

> <Gold.Chemscore.Hbond>
2.5263

> <Gold.Chemscore.Metal>
0.0000

> <Gold.Chemscore.Lipo>
96.0221

> <Gold.Chemscore.Internal_Hbond>
0.0000

> <Gold.Chemscore.DEClash>
0.1760

> <Gold.Chemscore.DEInternal>
2.3080

> <Gold.Chemscore.Rot>
2.0170

> <Gold.Chemscore.Internal.Correction>
   9.000000E+99

> <Gold.Chemscore.Hbonds>
donor molecule, donor type, donor heavy atom, donor atom, acceptor molecule, acceptor atom, score
      P1  H  7989  7998       L1    10  0.67
      P1  H  7997  8009       L1    21  0.18
      P1  H  8011  8017       L1    10  0.03
      P1  H 10752 10765       L1    24  0.27

> <Gold.Chemscore.Hbond.Weighted>
-8.4380

> <Gold.Chemscore.Metal.Weighted>
-0.0000

> <Gold.Chemscore.Lipo.Weighted>
-11.2346

> <Gold.Chemscore.Internal_Hbond.Weighted>
0.0000

> <Gold.Chemscore.DEClash.Weighted>
0.1760

> <Gold.Chemscore.DEInternal.Weighted>
2.3080

> <Gold.Chemscore.Rot.Weighted>
5.1636

> <Gold.Chemscore.Internal.Correction.Weighted>
   9.000000E+99

> <Gold.Protein.RotatedTorsions>
[ 6907 6896 6895 6894 ] final  -22.59 input  -60.11 | X-H torsion
[ 7974 7965 7964 7962 ] final  -63.23 input  175.53 | X-H torsion
[ 8008 7997 7996 7995 ] final  148.57 input   59.86 | X-H torsion
[ 10167 10162 10161 10158 ] final   15.63 input  -65.29 | X-H torsion
[ 10718 10713 10712 10709 ] final -156.07 input   66.30 | X-H torsion
[ 10763 10752 10751 10750 ] final -161.24 input  -60.55 | X-H torsion
[ 11005 11000 10999 10996 ] final -153.28 input  -57.11 | X-H torsion

> <Gold.Protein.ActiveResidues>
 VAL166  LYS551  ARG553  GLY616  TRP617  ASP618  TYR619  PRO620  LYS621  CYS622 
 ASP623  PHE694  ASN695  SER759  ASP760  ASP761  ALA762  ILE779  LEU786  VAL792 
 PHE793  MET794  SER795  GLU796  ALA797  LYS798  CYS799  TRP800  GLU811  SER814 

> <Gold.Protein.RotatedAtoms>
  151.2163  135.0501  159.8931 H   0  0  0  0  0  0  0  0  0  0  0  0  # atno 6907 bound_to 6896
  152.5420  134.0689  159.8195 H   0  0  0  0  0  0  0  0  0  0  0  0  # atno 6908 bound_to 6896
  151.0849  133.5312  159.2650 H   0  0  0  0  0  0  0  0  0  0  0  0  # atno 6909 bound_to 6896
  145.7815  140.8759  143.0328 H   0  0  0  0  0  0  0  0  0  0  0  0  # atno 7974 bound_to 7965
  156.2786  140.2125  156.5720 H   0  0  0  0  0  0  0  0  0  0  0  0  # atno 8008 bound_to 7997
  154.7128  140.0510  157.0589 H   0  0  0  0  0  0  0  0  0  0  0  0  # atno 8009 bound_to 7997
  155.0583  140.3164  155.4672 H   0  0  0  0  0  0  0  0  0  0  0  0  # atno 8010 bound_to 7997
  140.5854  143.8900  150.6825 H   0  0  0  0  0  0  0  0  0  0  0  0  # atno 10167 bound_to 10162
  156.5215  130.8480  151.2683 H   0  0  0  0  0  0  0  0  0  0  0  0  # atno 10718 bound_to 10713
  154.7321  135.3049  154.8874 H   0  0  0  0  0  0  0  0  0  0  0  0  # atno 10763 bound_to 10752
  153.9714  135.6741  153.4751 H   0  0  0  0  0  0  0  0  0  0  0  0  # atno 10764 bound_to 10752
  153.0928  135.4951  154.8643 H   0  0  0  0  0  0  0  0  0  0  0  0  # atno 10765 bound_to 10752
  140.7099  134.3845  157.5199 H   0  0  0  0  0  0  0  0  0  0  0  0  # atno 11005 bound_to 11000
  144.6795  139.9996  143.7484 LP  0  0  0  0  0  0  0  0  0  0  0  0  # atno 17320 bound_to 7965
  146.0069  139.3137  143.0894 LP  0  0  0  0  0  0  0  0  0  0  0  0  # atno 17321 bound_to 7965
  140.2410  143.3664  152.1486 LP  0  0  0  0  0  0  0  0  0  0  0  0  # atno 17342 bound_to 10162
  139.5194  144.7019  151.5468 LP  0  0  0  0  0  0  0  0  0  0  0  0  # atno 17343 bound_to 10162
  157.7436  130.9916  150.2606 LP  0  0  0  0  0  0  0  0  0  0  0  0  # atno 17370 bound_to 10713
  156.3145  130.3777  149.7631 LP  0  0  0  0  0  0  0  0  0  0  0  0  # atno 17371 bound_to 10713
  139.8874  134.8882  156.2528 LP  0  0  0  0  0  0  0  0  0  0  0  0  # atno 17394 bound_to 11000
  141.0093  133.7105  156.1086 LP  0  0  0  0  0  0  0  0  0  0  0  0  # atno 17395 bound_to 11000

$$$$
