AV-unprocessed.smi:1220|AV-procd|sdf|5115|dock2
  -GOLD-   22720 4173D 1   1.00000     0.00000
 Structure written by MMmdl.
 35 36  0  0  0  0  0  0  0  0  1 V2000
  149.3747  142.6961  157.9613 C   0  0  0  0  0  0  0  0  0  0  0  0
  149.0396  143.2742  159.3461 C   0  0  1  0  0  0  0  0  0  0  0  0
  150.1663  144.1625  159.9201 C   0  0  0  0  0  0  0  0  0  0  0  0
  151.2988  143.3976  160.4093 N   0  0  0  0  0  0  0  0  0  0  0  0
  152.6028  143.4129  159.9609 C   0  0  0  0  0  0  0  0  0  0  0  0
  153.3077  142.5343  160.7327 C   0  0  0  0  0  0  0  0  0  0  0  0
  152.3366  142.0281  161.6414 C   0  0  0  0  0  0  0  0  0  0  0  0
  151.1358  142.5489  161.4470 N   0  0  0  0  0  0  0  0  0  0  0  0
  147.7954  144.0335  159.2590 N   0  0  0  0  0  0  0  0  0  0  0  0
  146.7464  143.9039  160.0867 C   0  0  0  0  0  0  0  0  0  0  0  0
  146.7211  143.1074  161.0254 O   0  0  0  0  0  0  0  0  0  0  0  0
  145.5460  144.8189  159.8151 C   0  0  2  0  0  0  0  0  0  0  0  0
  145.0085  144.6543  158.3772 C   0  0  0  0  0  0  0  0  0  0  0  0
  144.0435  145.8073  158.0860 C   0  0  0  0  0  0  0  0  0  0  0  0
  144.7276  147.2546  158.9738 S   0  0  0  0  0  0  0  0  0  0  0  0
  145.5019  148.0809  158.0355 O   0  0  0  0  0  0  0  0  0  0  0  0
  143.6736  147.8459  159.8119 O   0  0  0  0  0  0  0  0  0  0  0  0
  145.8908  146.3052  160.0257 C   0  0  0  0  0  0  0  0  0  0  0  0
  150.2521  142.0500  157.9990 H   0  0  0  0  0  0  0  0  0  0  0  0
  149.5753  143.4880  157.2390 H   0  0  0  0  0  0  0  0  0  0  0  0
  148.5492  142.0958  157.5774 H   0  0  0  0  0  0  0  0  0  0  0  0
  148.8814  142.4303  160.0204 H   0  0  0  0  0  0  0  0  0  0  0  0
  150.5246  144.8549  159.1570 H   0  0  0  0  0  0  0  0  0  0  0  0
  149.7916  144.7744  160.7421 H   0  0  0  0  0  0  0  0  0  0  0  0
  152.9167  144.0386  159.1383 H   0  0  0  0  0  0  0  0  0  0  0  0
  154.3574  142.2914  160.6607 H   0  0  0  0  0  0  0  0  0  0  0  0
  152.4678  141.3039  162.4319 H   0  0  0  0  0  0  0  0  0  0  0  0
  147.7287  144.7114  158.5137 H   0  0  0  0  0  0  0  0  0  0  0  0
  144.7358  144.5644  160.5009 H   0  0  0  0  0  0  0  0  0  0  0  0
  145.8322  144.6996  157.6627 H   0  0  0  0  0  0  0  0  0  0  0  0
  144.5197  143.6894  158.2382 H   0  0  0  0  0  0  0  0  0  0  0  0
  143.9441  146.0270  157.0229 H   0  0  0  0  0  0  0  0  0  0  0  0
  143.0548  145.5965  158.4944 H   0  0  0  0  0  0  0  0  0  0  0  0
  145.7786  146.6157  161.0646 H   0  0  0  0  0  0  0  0  0  0  0  0
  146.9051  146.5455  159.7032 H   0  0  0  0  0  0  0  0  0  0  0  0
  1  2  1  0  0  0  0
  1 19  1  0  0  0  0
  1 20  1  0  0  0  0
  1 21  1  0  0  0  0
  2  3  1  0  0  0  0
  2  9  1  0  0  0  0
  2 22  1  0  0  0  0
  3  4  1  0  0  0  0
  3 23  1  0  0  0  0
  3 24  1  0  0  0  0
  4  8  1  0  0  0  0
  4  5  1  0  0  0  0
  5  6  2  0  0  0  0
  5 25  1  0  0  0  0
  6  7  1  0  0  0  0
  6 26  1  0  0  0  0
  7  8  2  0  0  0  0
  7 27  1  0  0  0  0
  9 10  1  0  0  0  0
  9 28  1  0  0  0  0
 10 11  2  0  0  0  0
 10 12  1  0  0  0  0
 12 18  1  0  0  0  0
 12 13  1  0  0  0  0
 12 29  1  0  0  0  0
 13 14  1  0  0  0  0
 13 30  1  0  0  0  0
 13 31  1  0  0  0  0
 14 15  1  0  0  0  0
 14 32  1  0  0  0  0
 14 33  1  0  0  0  0
 15 16  2  0  0  0  0
 15 17  2  0  0  0  0
 15 18  1  0  0  0  0
 18 34  1  0  0  0  0
 18 35  1  0  0  0  0
M  END
> <s_m_source_file>
AV-unprocessed.smi

> <i_m_source_file_index>
1220

> <i_lp_mmshare_version>
43012

> <i_f3d_flags>
0

> <s_epik_input>
bjFbY0hdW2NIXVtjSF1uMVtDSDJdW0NAQEhdKFtDSDNdKVtOSF1DKD1PKVtDQEBIXShbQ0gyXTIpW0NIMl1bQ0gyXVMyKD1PKT1P

> <s_epik_cmdline>
J2VwaWtfcHl0aG9uJywgJy1waCcsICc3LjAnLCAnLXRuJywgJzgnLCAnLW1hJywgJzIwMCcsICctbWV0YWxfYmluZGluZycsICctaW1hZScsICc8aW5maWxlLm1hZT4nLCAnLW9tYWUnLCAnPG91dGZpbGUubWFlPic=

> <r_lp_tautomer_probability>
1

> <r_epik_Ionization_Penalty>
0.000293905

> <r_epik_Ionization_Penalty_Charging>
0

> <r_epik_Ionization_Penalty_Neutral>
0.000293905

> <r_epik_State_Penalty>
-0

> <r_epik_Charging_Adjusted_Penalty>
0

> <i_epik_Tot_Q>
0

> <i_epik_Tot_abs_Q>
0

> <r_epik_Metal_State_Penalty>
-0

> <b_epik_Metal_Only>
0

> <s_lp_Force_Field>
OPLS_2005

> <r_lp_Energy>
2.06683

> <b_lp_Chiralities_Consistent>
1

> <s_lp_Variant>
AV-unprocessed.smi:1220-2

> <Gold.Version>
5.8.1

> <Gold.Id.Protein>
6NUR|6NUR_protein|mol2

> <Gold.PLP.Fitness>
39.8029

> <Gold.PLP.PLP>
-34.4351

> <Gold.PLP.part.hbond>
-4.4218

> <Gold.PLP.part.metal>
0.0000

> <Gold.PLP.part.buried>
-2.7992

> <Gold.PLP.part.nonpolar>
-27.1875

> <Gold.PLP.part.repulsive>
0.6061

> <Gold.PLP.ligand.clash>
0.0000

> <Gold.PLP.ligand.torsion>
0.3266

> <Gold.PLP.Chemscore.Hbond>
2.0000

> <Gold.PLP.Chemscore.CHOScore>
0.0000

> <Gold.PLP.Chemscore.Metal>
0.0000

> <Gold.Chemscore.Hbonds>
donor molecule, donor type, donor heavy atom, donor atom, acceptor molecule, acceptor atom, score
      L1  H     9    28       P1  8029  1.00
      P1  H  6933  6944       L1    11  1.00
      P1  H  6933  6945       L1     8  0.38
      P1  H  6934  6946       L1    11  0.34

> <Gold.PLP.Chemscore.Internal.Correction>
0.0209

> <Gold.Rescore>
     Score         DG    S(hbond)    S(metal)    S(lipo)     H(rot)  DE(clash)    DE(int)     intcor
     12.81     -16.41       2.13        0.00      70.85       1.75       2.88       0.72       ----

> <Gold.Chemscore.Fitness>
12.8084

> <Gold.Chemscore.DG>
-16.4114

> <Gold.Chemscore.ZeroCoef>
-5.4800

> <Gold.Chemscore.Hbond>
2.1294

> <Gold.Chemscore.Metal>
0.0000

> <Gold.Chemscore.Lipo>
70.8457

> <Gold.Chemscore.Internal_Hbond>
0.0000

> <Gold.Chemscore.DEClash>
2.8831

> <Gold.Chemscore.DEInternal>
0.7199

> <Gold.Chemscore.Rot>
1.7460

> <Gold.Chemscore.Internal.Correction>
   9.000000E+99

> <Gold.Chemscore.Hbonds>
donor molecule, donor type, donor heavy atom, donor atom, acceptor molecule, acceptor atom, score
      L1  H     9    28       P1  8029  0.98
      P1  H  6933  6944       L1    11  0.83
      P1  H  6933  6945       L1     8  0.30
      P1  H  6934  6946       L1    11  0.33

> <Gold.Chemscore.Hbond.Weighted>
-7.1121

> <Gold.Chemscore.Metal.Weighted>
-0.0000

> <Gold.Chemscore.Lipo.Weighted>
-8.2890

> <Gold.Chemscore.Internal_Hbond.Weighted>
0.0000

> <Gold.Chemscore.DEClash.Weighted>
2.8831

> <Gold.Chemscore.DEInternal.Weighted>
0.7199

> <Gold.Chemscore.Rot.Weighted>
4.4697

> <Gold.Chemscore.Internal.Correction.Weighted>
   9.000000E+99

> <Gold.Protein.RotatedTorsions>
[ 6907 6896 6895 6894 ] final   11.87 input  -60.11 | X-H torsion
[ 7974 7965 7964 7962 ] final   41.25 input  175.53 | X-H torsion
[ 8008 7997 7996 7995 ] final -131.72 input   59.86 | X-H torsion
[ 10167 10162 10161 10158 ] final  140.75 input  -65.29 | X-H torsion
[ 10718 10713 10712 10709 ] final   73.20 input   66.30 | X-H torsion
[ 10763 10752 10751 10750 ] final   13.34 input  -60.55 | X-H torsion
[ 11005 11000 10999 10996 ] final -134.17 input  -57.11 | X-H torsion

> <Gold.Protein.ActiveResidues>
 VAL166  LYS551  ARG553  GLY616  TRP617  ASP618  TYR619  PRO620  LYS621  CYS622 
 ASP623  PHE694  ASN695  SER759  ASP760  ASP761  ALA762  ILE779  LEU786  VAL792 
 PHE793  MET794  SER795  GLU796  ALA797  LYS798  CYS799  TRP800  GLU811  SER814 

> <Gold.Protein.RotatedAtoms>
  151.7613  135.0809  160.0345 H   0  0  0  0  0  0  0  0  0  0  0  0  # atno 6907 bound_to 6896
  152.3351  133.5998  159.5845 H   0  0  0  0  0  0  0  0  0  0  0  0  # atno 6908 bound_to 6896
  150.7446  133.9724  159.3592 H   0  0  0  0  0  0  0  0  0  0  0  0  # atno 6909 bound_to 6896
  146.0839  139.5437  142.9519 H   0  0  0  0  0  0  0  0  0  0  0  0  # atno 7974 bound_to 7965
  155.3169  140.0460  157.3037 H   0  0  0  0  0  0  0  0  0  0  0  0  # atno 8008 bound_to 7997
  154.5401  140.2285  155.8621 H   0  0  0  0  0  0  0  0  0  0  0  0  # atno 8009 bound_to 7997
  156.1873  140.3059  155.9269 H   0  0  0  0  0  0  0  0  0  0  0  0  # atno 8010 bound_to 7997
  139.5040  144.6215  151.6040 H   0  0  0  0  0  0  0  0  0  0  0  0  # atno 10167 bound_to 10162
  157.6537  130.9616  150.1035 H   0  0  0  0  0  0  0  0  0  0  0  0  # atno 10718 bound_to 10713
  153.1731  135.6815  153.8581 H   0  0  0  0  0  0  0  0  0  0  0  0  # atno 10763 bound_to 10752
  153.7938  135.3165  155.3383 H   0  0  0  0  0  0  0  0  0  0  0  0  # atno 10764 bound_to 10752
  154.8011  135.4777  154.0370 H   0  0  0  0  0  0  0  0  0  0  0  0  # atno 10765 bound_to 10752
  140.9015  134.1685  157.4457 H   0  0  0  0  0  0  0  0  0  0  0  0  # atno 11005 bound_to 11000
  145.6167  141.0330  143.1937 LP  0  0  0  0  0  0  0  0  0  0  0  0  # atno 17320 bound_to 7965
  144.7312  139.7721  143.7346 LP  0  0  0  0  0  0  0  0  0  0  0  0  # atno 17321 bound_to 7965
  140.5918  143.9766  150.6329 LP  0  0  0  0  0  0  0  0  0  0  0  0  # atno 17342 bound_to 10162
  140.2949  143.3299  152.1027 LP  0  0  0  0  0  0  0  0  0  0  0  0  # atno 17343 bound_to 10162
  156.1951  130.3657  149.8859 LP  0  0  0  0  0  0  0  0  0  0  0  0  # atno 17370 bound_to 10713
  156.6777  130.8846  151.3571 LP  0  0  0  0  0  0  0  0  0  0  0  0  # atno 17371 bound_to 10713
  139.8743  134.9900  156.5481 LP  0  0  0  0  0  0  0  0  0  0  0  0  # atno 17394 bound_to 11000
  140.8224  133.8343  155.8908 LP  0  0  0  0  0  0  0  0  0  0  0  0  # atno 17395 bound_to 11000

$$$$
