AV-unprocessed.smi:1868|AV-procd|sdf|7587|dock7
  -GOLD-   22720 9303D 1   1.00000     0.00000
 Structure written by MMmdl.
 47 49  0  0  0  0  0  0  0  0  2 V2000
  151.5514  138.8531  155.2865 C   0  0  0  0  0  0  0  0  0  0  0  0
  151.6980  139.9335  156.3105 C   0  0  0  0  0  0  0  0  0  0  0  0
  152.5420  139.8298  157.3368 N   0  0  0  0  0  0  0  0  0  0  0  0
  152.3609  141.0280  158.0005 C   0  0  0  0  0  0  0  0  0  0  0  0
  152.9710  141.5305  159.1720 C   0  0  0  0  0  0  0  0  0  0  0  0
  152.6190  142.8017  159.6708 C   0  0  0  0  0  0  0  0  0  0  0  0
  151.6539  143.5868  159.0074 C   0  0  0  0  0  0  0  0  0  0  0  0
  151.0342  143.1055  157.8382 C   0  0  0  0  0  0  0  0  0  0  0  0
  151.3895  141.8362  157.3439 C   0  0  0  0  0  0  0  0  0  0  0  0
  150.9804  141.0821  156.2477 N   0  0  0  0  0  0  0  0  0  0  0  0
  149.9909  141.4670  155.2501 C   0  0  0  0  0  0  0  0  0  0  0  0
  148.5445  141.3718  155.7757 C   0  0  1  0  0  0  0  0  0  0  0  0
  148.2779  142.4712  156.6253 O   0  0  0  0  0  0  0  0  0  0  0  0
  147.5202  141.3826  154.6238 C   0  0  0  0  0  0  0  0  0  0  0  0
  147.3306  140.0429  154.0094 N   0  3  2  0  0  0  0  0  0  0  0  0
  146.5575  140.0786  152.7396 C   0  0  0  0  0  0  0  0  0  0  0  0
  146.5059  138.6881  152.0808 C   0  0  0  0  0  0  0  0  0  0  0  0
  145.9410  137.6137  153.0279 C   0  0  2  0  0  0  0  0  0  0  0  0
  144.4185  137.7298  153.2199 C   0  0  0  0  0  0  0  0  0  0  0  0
  146.7140  137.6484  154.3584 C   0  0  0  0  0  0  0  0  0  0  0  0
  146.7617  139.0609  154.9678 C   0  0  0  0  0  0  0  0  0  0  0  0
  152.1748  137.9961  155.5439 H   0  0  0  0  0  0  0  0  0  0  0  0
  151.8598  139.2185  154.3069 H   0  0  0  0  0  0  0  0  0  0  0  0
  150.5159  138.5182  155.2304 H   0  0  0  0  0  0  0  0  0  0  0  0
  153.7115  140.9371  159.6874 H   0  0  0  0  0  0  0  0  0  0  0  0
  153.0920  143.1762  160.5670 H   0  0  0  0  0  0  0  0  0  0  0  0
  151.3902  144.5594  159.3968 H   0  0  0  0  0  0  0  0  0  0  0  0
  150.2944  143.7053  157.3294 H   0  0  0  0  0  0  0  0  0  0  0  0
  150.2089  142.4845  154.9224 H   0  0  0  0  0  0  0  0  0  0  0  0
  150.1159  140.8359  154.3698 H   0  0  0  0  0  0  0  0  0  0  0  0
  148.4472  140.4600  156.3632 H   0  0  0  0  0  0  0  0  0  0  0  0
  148.7203  143.2324  156.2798 H   0  0  0  0  0  0  0  0  0  0  0  0
  146.5685  141.7438  155.0173 H   0  0  0  0  0  0  0  0  0  0  0  0
  147.8177  142.0938  153.8516 H   0  0  0  0  0  0  0  0  0  0  0  0
  145.5492  140.4460  152.9345 H   0  0  0  0  0  0  0  0  0  0  0  0
  147.0113  140.7782  152.0388 H   0  0  0  0  0  0  0  0  0  0  0  0
  145.9179  138.7294  151.1632 H   0  0  0  0  0  0  0  0  0  0  0  0
  147.5149  138.4034  151.7791 H   0  0  0  0  0  0  0  0  0  0  0  0
  146.1202  136.6407  152.5683 H   0  0  0  0  0  0  0  0  0  0  0  0
  144.1313  138.6768  153.6757 H   0  0  0  0  0  0  0  0  0  0  0  0
  144.0436  136.9303  153.8594 H   0  0  0  0  0  0  0  0  0  0  0  0
  143.8983  137.6532  152.2646 H   0  0  0  0  0  0  0  0  0  0  0  0
  146.2750  136.9480  155.0697 H   0  0  0  0  0  0  0  0  0  0  0  0
  147.7349  137.3036  154.1878 H   0  0  0  0  0  0  0  0  0  0  0  0
  147.3725  139.0333  155.8712 H   0  0  0  0  0  0  0  0  0  0  0  0
  145.7649  139.3817  155.2733 H   0  0  0  0  0  0  0  0  0  0  0  0
  148.2564  139.7076  153.7827 H   0  0  0  0  0  0  0  0  0  0  0  0
  1  2  1  0  0  0  0
  1 22  1  0  0  0  0
  1 23  1  0  0  0  0
  1 24  1  0  0  0  0
  2 10  1  0  0  0  0
  2  3  2  0  0  0  0
  3  4  1  0  0  0  0
  4  9  2  0  0  0  0
  4  5  1  0  0  0  0
  5  6  2  0  0  0  0
  5 25  1  0  0  0  0
  6  7  1  0  0  0  0
  6 26  1  0  0  0  0
  7  8  2  0  0  0  0
  7 27  1  0  0  0  0
  8  9  1  0  0  0  0
  8 28  1  0  0  0  0
  9 10  1  0  0  0  0
 10 11  1  0  0  0  0
 11 12  1  0  0  0  0
 11 29  1  0  0  0  0
 11 30  1  0  0  0  0
 12 13  1  0  0  0  0
 12 14  1  0  0  0  0
 12 31  1  0  0  0  0
 13 32  1  0  0  0  0
 14 15  1  0  0  0  0
 14 33  1  0  0  0  0
 14 34  1  0  0  0  0
 15 21  1  0  0  0  0
 15 16  1  0  0  0  0
 15 47  1  0  0  0  0
 16 17  1  0  0  0  0
 16 35  1  0  0  0  0
 16 36  1  0  0  0  0
 17 18  1  0  0  0  0
 17 37  1  0  0  0  0
 17 38  1  0  0  0  0
 18 19  1  0  0  0  0
 18 20  1  0  0  0  0
 18 39  1  0  0  0  0
 19 40  1  0  0  0  0
 19 41  1  0  0  0  0
 19 42  1  0  0  0  0
 20 21  1  0  0  0  0
 20 43  1  0  0  0  0
 20 44  1  0  0  0  0
 21 45  1  0  0  0  0
 21 46  1  0  0  0  0
M  CHG  1  15   1
M  END
> <s_m_source_file>
AV-unprocessed.smi

> <i_m_source_file_index>
1868

> <i_lp_mmshare_version>
43012

> <i_f3d_flags>
0

> <s_epik_input>
W2NIXTFbY0hdW2NIXVtjSF1jKGMxMiluKGMobjIpW0NIM10pW0NIMl1bQ0BIXShbT0hdKVtDSDJdTjNbQ0gyXVtDSDJdW0NIXShbQ0gzXSlbQ0gyXVtDSDJdMw==

> <s_epik_cmdline>
J2VwaWtfcHl0aG9uJywgJy1waCcsICc3LjAnLCAnLXRuJywgJzgnLCAnLW1hJywgJzIwMCcsICctbWV0YWxfYmluZGluZycsICctaW1hZScsICc8aW5maWxlLm1hZT4nLCAnLW9tYWUnLCAnPG91dGZpbGUubWFlPic=

> <r_epik_Ionization_Penalty>
0.101157

> <r_epik_Ionization_Penalty_Charging>
0.00181365

> <r_epik_Ionization_Penalty_Neutral>
0.0993436

> <r_epik_State_Penalty>
0.0871902

> <r_epik_Charging_Adjusted_Penalty>
0.0890039

> <i_epik_Tot_Q>
1

> <i_epik_Tot_abs_Q>
1

> <r_epik_Metal_State_Penalty>
9.24346e-05

> <b_epik_Metal_Only>
0

> <s_lp_Force_Field>
OPLS_2005

> <r_lp_Energy>
23.8168

> <b_lp_Chiralities_Consistent>
1

> <s_lp_Variant>
AV-unprocessed.smi:1868-4

> <Gold.Version>
5.8.1

> <Gold.Id.Protein>
6NUR|6NUR_protein|mol2

> <Gold.PLP.Fitness>
42.9513

> <Gold.PLP.PLP>
-38.0986

> <Gold.PLP.part.hbond>
-2.0000

> <Gold.PLP.part.metal>
0.0000

> <Gold.PLP.part.buried>
1.0198

> <Gold.PLP.part.nonpolar>
-37.2316

> <Gold.PLP.part.repulsive>
0.0186

> <Gold.PLP.ligand.clash>
0.0000

> <Gold.PLP.ligand.torsion>
0.5902

> <Gold.PLP.Chemscore.Hbond>
2.0000

> <Gold.PLP.Chemscore.CHOScore>
0.0000

> <Gold.PLP.Chemscore.Metal>
0.0000

> <Gold.Chemscore.Hbonds>
donor molecule, donor type, donor heavy atom, donor atom, acceptor molecule, acceptor atom, score
      L1  H    13    32       P1  8028  1.00
      P1  H  7997  8008       L1     3  1.00

> <Gold.PLP.Chemscore.Internal.Correction>
0.0331

> <Gold.Rescore>
     Score         DG    S(hbond)    S(metal)    S(lipo)     H(rot)  DE(clash)    DE(int)     intcor
     17.33     -18.77       1.23        0.00     120.60       1.92       0.80       0.64       ----

> <Gold.Chemscore.Fitness>
17.3306

> <Gold.Chemscore.DG>
-18.7675

> <Gold.Chemscore.ZeroCoef>
-5.4800

> <Gold.Chemscore.Hbond>
1.2253

> <Gold.Chemscore.Metal>
0.0000

> <Gold.Chemscore.Lipo>
120.5967

> <Gold.Chemscore.Internal_Hbond>
0.0000

> <Gold.Chemscore.DEClash>
0.8000

> <Gold.Chemscore.DEInternal>
0.6369

> <Gold.Chemscore.Rot>
1.9198

> <Gold.Chemscore.Internal.Correction>
   9.000000E+99

> <Gold.Chemscore.Hbonds>
donor molecule, donor type, donor heavy atom, donor atom, acceptor molecule, acceptor atom, score
      L1  H    13    32       P1  8028  0.94
      P1  H  7997  8008       L1     3  0.11

> <Gold.Chemscore.Hbond.Weighted>
-4.0924

> <Gold.Chemscore.Metal.Weighted>
-0.0000

> <Gold.Chemscore.Lipo.Weighted>
-14.1098

> <Gold.Chemscore.Internal_Hbond.Weighted>
0.0000

> <Gold.Chemscore.DEClash.Weighted>
0.8000

> <Gold.Chemscore.DEInternal.Weighted>
0.6369

> <Gold.Chemscore.Rot.Weighted>
4.9147

> <Gold.Chemscore.Internal.Correction.Weighted>
   9.000000E+99

> <Gold.Protein.RotatedTorsions>
[ 6907 6896 6895 6894 ] final -160.11 input  -60.11 | X-H torsion
[ 7974 7965 7964 7962 ] final  158.18 input  175.53 | X-H torsion
[ 8008 7997 7996 7995 ] final  -48.24 input   59.86 | X-H torsion
[ 10167 10162 10161 10158 ] final -137.86 input  -65.29 | X-H torsion
[ 10718 10713 10712 10709 ] final  121.34 input   66.30 | X-H torsion
[ 10763 10752 10751 10750 ] final   70.81 input  -60.55 | X-H torsion
[ 11005 11000 10999 10996 ] final  -28.66 input  -57.11 | X-H torsion

> <Gold.Protein.ActiveResidues>
 VAL166  LYS551  ARG553  GLY616  TRP617  ASP618  TYR619  PRO620  LYS621  CYS622 
 ASP623  PHE694  ASN695  SER759  ASP760  ASP761  ALA762  ILE779  LEU786  VAL792 
 PHE793  MET794  SER795  GLU796  ALA797  LYS798  CYS799  TRP800  GLU811  SER814 

> <Gold.Protein.RotatedAtoms>
  151.3440  133.3951  159.2673 H   0  0  0  0  0  0  0  0  0  0  0  0  # atno 6907 bound_to 6896
  150.9855  134.9202  159.7879 H   0  0  0  0  0  0  0  0  0  0  0  0  # atno 6908 bound_to 6896
  152.5231  134.3405  159.9267 H   0  0  0  0  0  0  0  0  0  0  0  0  # atno 6909 bound_to 6896
  144.7860  139.7443  143.6240 H   0  0  0  0  0  0  0  0  0  0  0  0  # atno 7974 bound_to 7965
  154.4026  140.1326  156.4306 H   0  0  0  0  0  0  0  0  0  0  0  0  # atno 8008 bound_to 7997
  155.7554  140.3487  155.5151 H   0  0  0  0  0  0  0  0  0  0  0  0  # atno 8009 bound_to 7997
  155.8909  140.1003  157.1409 H   0  0  0  0  0  0  0  0  0  0  0  0  # atno 8010 bound_to 7997
  139.8535  143.7168  152.2656 H   0  0  0  0  0  0  0  0  0  0  0  0  # atno 10167 bound_to 10162
  157.5825  131.1073  150.8159 H   0  0  0  0  0  0  0  0  0  0  0  0  # atno 10718 bound_to 10713
  153.0363  135.5160  154.7498 H   0  0  0  0  0  0  0  0  0  0  0  0  # atno 10763 bound_to 10752
  154.6472  135.2920  155.0034 H   0  0  0  0  0  0  0  0  0  0  0  0  # atno 10764 bound_to 10752
  154.0931  135.6647  153.4908 H   0  0  0  0  0  0  0  0  0  0  0  0  # atno 10765 bound_to 10752
  140.9228  133.7388  156.0825 H   0  0  0  0  0  0  0  0  0  0  0  0  # atno 11005 bound_to 11000
  146.2092  139.5437  142.9692 LP  0  0  0  0  0  0  0  0  0  0  0  0  # atno 17320 bound_to 7965
  145.5920  141.0368  143.2065 LP  0  0  0  0  0  0  0  0  0  0  0  0  # atno 17321 bound_to 7965
  139.7442  144.7551  151.0605 LP  0  0  0  0  0  0  0  0  0  0  0  0  # atno 17342 bound_to 10162
  140.7784  143.4936  150.9861 LP  0  0  0  0  0  0  0  0  0  0  0  0  # atno 17343 bound_to 10162
  156.8602  130.5110  149.5304 LP  0  0  0  0  0  0  0  0  0  0  0  0  # atno 17370 bound_to 10713
  156.0872  130.5867  150.9669 LP  0  0  0  0  0  0  0  0  0  0  0  0  # atno 17371 bound_to 10713
  140.7965  134.3558  157.5451 LP  0  0  0  0  0  0  0  0  0  0  0  0  # atno 17394 bound_to 11000
  139.8779  134.9172  156.3172 LP  0  0  0  0  0  0  0  0  0  0  0  0  # atno 17395 bound_to 11000

$$$$
