#       Name:                AV-unprocessed.smi:1911
#       Creating user name   scv26
#       Creation time:       Fri Mar 27 09:47:56 2020


#       File generated by GOLD software.
#

@<TRIPOS>MOLECULE
AV-unprocessed.smi:1911
    57    59     1
SMALL
NO_CHARGES


@<TRIPOS>ATOM
      1 ****        -7.5409  -4.5847   2.5951 N.am           1 S1                 0.0000
      2 ****        -6.3417  -4.3750   2.0471 C.2            1 S1                 0.0000
      3 ****        -5.4749  -5.2468   2.0139 O.2            1 S1                 0.0000
      4 ****        -6.0940  -2.9919   1.4351 C.3            1 S1                 0.0000
      5 ****        -4.6520  -2.6877   1.2451 N.4            1 S1                 1.0000
      6 ****        -3.9611  -2.3196   2.5106 C.3            1 S1                 0.0000
      7 ****        -2.4496  -2.1449   2.2877 C.3            1 S1                 0.0000
      8 ****        -2.1681  -1.0972   1.1991 C.3            1 S1                 0.0000
      9 ****        -0.7313  -1.0029   0.9565 N.am           1 S1                 0.0000
     10 ****        -0.1112   0.0522   0.4082 C.2            1 S1                 0.0000
     11 ****        -0.7035   1.0636   0.0330 O.2            1 S1                 0.0000
     12 ****         1.2128  -0.1575   0.3103 N.am           1 S1                 0.0000
     13 ****         2.2109   0.7145  -0.2031 C.ar           1 S1                 0.0000
     14 ****         3.4427   0.1542  -0.5935 C.ar           1 S1                 0.0000
     15 ****         4.4564   0.9943  -1.0917 C.ar           1 S1                 0.0000
     16 ****         4.2128   2.3854  -1.1818 C.ar           1 S1                 0.0000
     17 ****         5.1968   3.2681  -1.6702 N.pl3          1 S1                 0.0000
     18 ****         6.4148   2.7982  -2.3098 C.3            1 S1                 0.0000
     19 ****         7.1163   4.0687  -2.7898 C.3            1 S1                 0.0000
     20 ****         5.9544   5.0108  -3.1050 C.3            1 S1                 0.0000
     21 ****         4.8786   4.6297  -2.0820 C.3            1 S1                 0.0000
     22 ****         3.0361   2.9274  -0.7880 N.ar           1 S1                 0.0000
     23 ****         2.0665   2.1181  -0.3122 C.ar           1 S1                 0.0000
     24 ****        -2.9219  -1.4805  -0.0878 C.3            1 S1                 0.0000
     25 ****        -4.4231  -1.6737   0.1841 C.3            1 S1                 0.0000
     26 ****        -7.7529  -5.4826   3.0070 H              1 S1                 0.0000
     27 ****        -8.2359  -3.8517   2.5946 H              1 S1                 0.0000
     28 ****        -6.6003  -2.9851   0.4687 H              1 S1                 0.0000
     29 ****        -6.5642  -2.2147   2.0403 H              1 S1                 0.0000
     30 ****        -4.3899  -1.3971   2.9054 H              1 S1                 0.0000
     31 ****        -4.1229  -3.0892   3.2658 H              1 S1                 0.0000
     32 ****        -1.9715  -1.8507   3.2229 H              1 S1                 0.0000
     33 ****        -2.0127  -3.1041   2.0049 H              1 S1                 0.0000
     34 ****        -2.5328  -0.1304   1.5524 H              1 S1                 0.0000
     35 ****        -0.1677  -1.7944   1.2314 H              1 S1                 0.0000
     36 ****         1.5406  -1.0708   0.5886 H              1 S1                 0.0000
     37 ****         3.6122  -0.9100  -0.5175 H              1 S1                 0.0000
     38 ****         5.3981   0.5611  -1.3932 H              1 S1                 0.0000
     39 ****         7.0421   2.2317  -1.6208 H              1 S1                 0.0000
     40 ****         6.1573   2.1575  -3.1542 H              1 S1                 0.0000
     41 ****         7.7184   4.4862  -1.9814 H              1 S1                 0.0000
     42 ****         7.7710   3.8953  -3.6444 H              1 S1                 0.0000
     43 ****         6.2331   6.0637  -3.0542 H              1 S1                 0.0000
     44 ****         5.5871   4.8099  -4.1126 H              1 S1                 0.0000
     45 ****         3.8817   4.7112  -2.5168 H              1 S1                 0.0000
     46 ****         4.9253   5.2812  -1.2088 H              1 S1                 0.0000
     47 ****         1.1698   2.6287   0.0018 H              1 S1                 0.0000
     48 ****        -2.7862  -0.7118  -0.8495 H              1 S1                 0.0000
     49 ****        -2.5066  -2.4010  -0.5011 H              1 S1                 0.0000
     50 ****        -4.9145  -1.9873  -0.7379 H              1 S1                 0.0000
     51 ****        -4.8773  -0.7267   0.4801 H              1 S1                 0.0000
     52 ****        -4.2279  -3.5437   0.9159 H              1 S1                 0.0000
     53 ****        -5.6575  -6.1485   2.4058 LP             1 S1                 0.0000
     54 ****        -4.5876  -5.0539   1.5951 LP             1 S1                 0.0000
     55 ****        -1.6967   1.1267   0.1308 LP             1 S1                 0.0000
     56 ****        -0.1915   1.8224  -0.3696 LP             1 S1                 0.0000
     57 ****         2.8875   3.9145  -0.8489 LP             1 S1                 0.0000
@<TRIPOS>BOND
    1    1    2 am    
    2    1   26 1     
    3    1   27 1     
    4    2    3 2     
    5    2    4 1     
    6    4    5 1     
    7    4   28 1     
    8    4   29 1     
    9    5   25 1     
   10    5    6 1     
   11    5   52 1     
   12    6    7 1     
   13    6   30 1     
   14    6   31 1     
   15    7    8 1     
   16    7   32 1     
   17    7   33 1     
   18    8    9 1     
   19    8   24 1     
   20    8   34 1     
   21    9   10 am    
   22    9   35 1     
   23   10   11 2     
   24   10   12 am    
   25   12   13 1     
   26   12   36 1     
   27   13   23 ar    
   28   13   14 ar    
   29   14   15 ar    
   30   14   37 1     
   31   15   16 ar    
   32   15   38 1     
   33   16   17 1     
   34   16   22 ar    
   35   17   21 1     
   36   17   18 1     
   37   18   19 1     
   38   18   39 1     
   39   18   40 1     
   40   19   20 1     
   41   19   41 1     
   42   19   42 1     
   43   20   21 1     
   44   20   43 1     
   45   20   44 1     
   46   21   45 1     
   47   21   46 1     
   48   22   23 ar    
   49   23   47 1     
   50   24   25 1     
   51   24   48 1     
   52   24   49 1     
   53   25   50 1     
   54   25   51 1     
   55    3   53 1     
   56    3   54 1     
   57   11   55 1     
   58   11   56 1     
   59   22   57 1     
@<TRIPOS>SUBSTRUCTURE
      1 S1             1
@<TRIPOS>SET
LONE_PAIRS      STATIC     ATOMS    <user>   **** ""
5 53 54 55 56 57
DONOR_HYDROGENS      STATIC     ATOMS    <user>   **** ""
5 26 27 52 35 36
ATOM$BLUE        STATIC     ATOMS    COLORGROUP SYSTEM
5 53 54 55 56 57
ATOM$RED        STATIC     ATOMS    COLORGROUP SYSTEM
5 26 27 52 35 36
