AV-unprocessed.smi:3289|AV-procd|sdf|12607|dock6
  -GOLD-   2272018533D 1   1.00000     0.00000
 Structure written by MMmdl.
 40 41  0  0  0  0  0  0  0  0  2 V2000
  150.6795  145.0291  159.5052 C   0  0  0  0  0  0  0  0  0  0  0  0
  151.8224  144.1927  158.9093 C   0  0  0  0  0  0  0  0  0  0  0  0
  152.6222  144.9938  157.8712 C   0  0  0  0  0  0  0  0  0  0  0  0
  151.3234  142.8964  158.3308 C   0  0  0  0  0  0  0  0  0  0  0  0
  150.4770  142.7939  157.2980 N   0  3  0  0  0  0  0  0  0  0  0  0
  150.2486  141.4814  156.9901 C   0  0  0  0  0  0  0  0  0  0  0  0
  150.9993  140.7439  157.8659 C   0  0  0  0  0  0  0  0  0  0  0  0
  151.6567  141.6367  158.6749 N   0  0  0  0  0  0  0  0  0  0  0  0
  152.5900  141.2848  159.7570 C   0  0  0  0  0  0  0  0  0  0  0  0
  153.3328  139.9762  159.4731 C   0  0  0  0  0  0  0  0  0  0  0  0
  153.4422  139.5647  158.3178 O   0  0  0  0  0  0  0  0  0  0  0  0
  153.8528  139.3440  160.5360 N   0  0  0  0  0  0  0  0  0  0  0  0
  154.6293  138.1103  160.4821 C   0  0  0  0  0  0  0  0  0  0  0  0
  154.0441  137.0240  161.4031 C   0  0  2  0  0  0  0  0  0  0  0  0
  154.0472  137.4346  162.8822 C   0  0  0  0  0  0  0  0  0  0  0  0
  155.2444  136.7017  163.4472 C   0  0  0  0  0  0  0  0  0  0  0  0
  155.2242  135.4204  162.6289 C   0  0  0  0  0  0  0  0  0  0  0  0
  154.8587  135.8526  161.3263 O   0  0  0  0  0  0  0  0  0  0  0  0
  150.1450  144.4712  160.2749 H   0  0  0  0  0  0  0  0  0  0  0  0
  149.9569  145.3238  158.7434 H   0  0  0  0  0  0  0  0  0  0  0  0
  151.0614  145.9405  159.9662 H   0  0  0  0  0  0  0  0  0  0  0  0
  152.4942  143.9356  159.7265 H   0  0  0  0  0  0  0  0  0  0  0  0
  153.4680  144.4195  157.4929 H   0  0  0  0  0  0  0  0  0  0  0  0
  153.0189  145.9120  158.3053 H   0  0  0  0  0  0  0  0  0  0  0  0
  152.0016  145.2710  157.0184 H   0  0  0  0  0  0  0  0  0  0  0  0
  149.5905  141.1790  156.1887 H   0  0  0  0  0  0  0  0  0  0  0  0
  151.1176  139.6745  157.9665 H   0  0  0  0  0  0  0  0  0  0  0  0
  153.2792  142.1164  159.9091 H   0  0  0  0  0  0  0  0  0  0  0  0
  152.0175  141.1745  160.6787 H   0  0  0  0  0  0  0  0  0  0  0  0
  153.7085  139.7497  161.4494 H   0  0  0  0  0  0  0  0  0  0  0  0
  154.7097  137.7459  159.4563 H   0  0  0  0  0  0  0  0  0  0  0  0
  155.6432  138.3525  160.8011 H   0  0  0  0  0  0  0  0  0  0  0  0
  153.0270  136.7811  161.0923 H   0  0  0  0  0  0  0  0  0  0  0  0
  154.0998  138.5128  163.0363 H   0  0  0  0  0  0  0  0  0  0  0  0
  153.1381  137.0745  163.3659 H   0  0  0  0  0  0  0  0  0  0  0  0
  156.1592  137.2614  163.2482 H   0  0  0  0  0  0  0  0  0  0  0  0
  155.1737  136.5252  164.5209 H   0  0  0  0  0  0  0  0  0  0  0  0
  156.1845  134.9046  162.6255 H   0  0  0  0  0  0  0  0  0  0  0  0
  154.4651  134.7337  163.0063 H   0  0  0  0  0  0  0  0  0  0  0  0
  150.0667  143.5820  156.8131 H   0  0  0  0  0  0  0  0  0  0  0  0
  1  2  1  0  0  0  0
  1 19  1  0  0  0  0
  1 20  1  0  0  0  0
  1 21  1  0  0  0  0
  2  3  1  0  0  0  0
  2  4  1  0  0  0  0
  2 22  1  0  0  0  0
  3 23  1  0  0  0  0
  3 24  1  0  0  0  0
  3 25  1  0  0  0  0
  4  8  1  0  0  0  0
  4  5  2  0  0  0  0
  5  6  1  0  0  0  0
  5 40  1  0  0  0  0
  6  7  2  0  0  0  0
  6 26  1  0  0  0  0
  7  8  1  0  0  0  0
  7 27  1  0  0  0  0
  8  9  1  0  0  0  0
  9 10  1  0  0  0  0
  9 28  1  0  0  0  0
  9 29  1  0  0  0  0
 10 11  2  0  0  0  0
 10 12  1  0  0  0  0
 12 13  1  0  0  0  0
 12 30  1  0  0  0  0
 13 14  1  0  0  0  0
 13 31  1  0  0  0  0
 13 32  1  0  0  0  0
 14 18  1  0  0  0  0
 14 15  1  0  0  0  0
 14 33  1  0  0  0  0
 15 16  1  0  0  0  0
 15 34  1  0  0  0  0
 15 35  1  0  0  0  0
 16 17  1  0  0  0  0
 16 36  1  0  0  0  0
 16 37  1  0  0  0  0
 17 18  1  0  0  0  0
 17 38  1  0  0  0  0
 17 39  1  0  0  0  0
M  CHG  1   5   1
M  END
> <s_m_source_file>
AV-unprocessed.smi

> <i_m_source_file_index>
3289

> <i_lp_mmshare_version>
43012

> <i_f3d_flags>
0

> <s_epik_input>
W0NIM11bQ0hdKFtDSDNdKWMxbltjSF1bY0hdbjFbQ0gyXUMoPU8pW05IXVtDSDJdW0NAQEhdMltDSDJdW0NIMl1bQ0gyXU8y

> <s_epik_cmdline>
J2VwaWtfcHl0aG9uJywgJy1waCcsICc3LjAnLCAnLXRuJywgJzgnLCAnLW1hJywgJzIwMCcsICctbWV0YWxfYmluZGluZycsICctaW1hZScsICc8aW5maWxlLm1hZT4nLCAnLW9tYWUnLCAnPG91dGZpbGUubWFlPic=

> <r_lp_tautomer_probability>
1

> <r_epik_Ionization_Penalty>
0.274547

> <r_epik_Ionization_Penalty_Charging>
0

> <r_epik_Ionization_Penalty_Neutral>
0.274547

> <r_epik_State_Penalty>
0.266843

> <r_epik_Charging_Adjusted_Penalty>
0.266843

> <i_epik_Tot_Q>
1

> <i_epik_Tot_abs_Q>
1

> <r_epik_Metal_State_Penalty>
0.55046

> <b_epik_Metal_Only>
0

> <s_lp_Force_Field>
OPLS_2005

> <r_lp_Energy>
23.0035

> <b_lp_Chiralities_Consistent>
1

> <s_lp_Variant>
AV-unprocessed.smi:3289-1

> <Gold.Version>
5.8.1

> <Gold.Id.Protein>
6NUR|6NUR_protein|mol2

> <Gold.PLP.Fitness>
45.2412

> <Gold.PLP.PLP>
-37.5966

> <Gold.PLP.part.hbond>
-2.0000

> <Gold.PLP.part.metal>
0.0000

> <Gold.PLP.part.buried>
-5.9354

> <Gold.PLP.part.nonpolar>
-29.3683

> <Gold.PLP.part.repulsive>
0.0590

> <Gold.PLP.ligand.clash>
0.0000

> <Gold.PLP.ligand.torsion>
0.7232

> <Gold.PLP.Chemscore.Hbond>
3.0000

> <Gold.PLP.Chemscore.CHOScore>
0.0000

> <Gold.PLP.Chemscore.Metal>
0.0000

> <Gold.Chemscore.Hbonds>
donor molecule, donor type, donor heavy atom, donor atom, acceptor molecule, acceptor atom, score
      L1  H     5    40       P1  8028  2.00
      P1  H  7997  8009       L1    11  1.00

> <Gold.PLP.Chemscore.Internal.Correction>
0.0911

> <Gold.Rescore>
     Score         DG    S(hbond)    S(metal)    S(lipo)     H(rot)  DE(clash)    DE(int)     intcor
     16.30     -18.58       1.96        0.00      95.13       1.78       0.07       2.21       ----

> <Gold.Chemscore.Fitness>
16.3007

> <Gold.Chemscore.DG>
-18.5799

> <Gold.Chemscore.ZeroCoef>
-5.4800

> <Gold.Chemscore.Hbond>
1.9569

> <Gold.Chemscore.Metal>
0.0000

> <Gold.Chemscore.Lipo>
95.1268

> <Gold.Chemscore.Internal_Hbond>
0.0000

> <Gold.Chemscore.DEClash>
0.0653

> <Gold.Chemscore.DEInternal>
2.2139

> <Gold.Chemscore.Rot>
1.7835

> <Gold.Chemscore.Internal.Correction>
   9.000000E+99

> <Gold.Chemscore.Hbonds>
donor molecule, donor type, donor heavy atom, donor atom, acceptor molecule, acceptor atom, score
      L1  H     5    40       P1  8028  0.97
      P1  H  7997  8009       L1    11  0.96

> <Gold.Chemscore.Hbond.Weighted>
-6.5359

> <Gold.Chemscore.Metal.Weighted>
-0.0000

> <Gold.Chemscore.Lipo.Weighted>
-11.1298

> <Gold.Chemscore.Internal_Hbond.Weighted>
0.0000

> <Gold.Chemscore.DEClash.Weighted>
0.0653

> <Gold.Chemscore.DEInternal.Weighted>
2.2139

> <Gold.Chemscore.Rot.Weighted>
4.5659

> <Gold.Chemscore.Internal.Correction.Weighted>
   9.000000E+99

> <Gold.Protein.RotatedTorsions>
[ 6907 6896 6895 6894 ] final  149.57 input  -60.11 | X-H torsion
[ 7974 7965 7964 7962 ] final   49.95 input  175.53 | X-H torsion
[ 8008 7997 7996 7995 ] final  133.54 input   59.86 | X-H torsion
[ 10167 10162 10161 10158 ] final -100.37 input  -65.29 | X-H torsion
[ 10718 10713 10712 10709 ] final   15.86 input   66.30 | X-H torsion
[ 10763 10752 10751 10750 ] final  -65.87 input  -60.55 | X-H torsion
[ 11005 11000 10999 10996 ] final  137.11 input  -57.11 | X-H torsion

> <Gold.Protein.ActiveResidues>
 VAL166  LYS551  ARG553  GLY616  TRP617  ASP618  TYR619  PRO620  LYS621  CYS622 
 ASP623  PHE694  ASN695  SER759  ASP760  ASP761  ALA762  ILE779  LEU786  VAL792 
 PHE793  MET794  SER795  GLU796  ALA797  LYS798  CYS799  TRP800  GLU811  SER814 

> <Gold.Protein.RotatedAtoms>
  152.1262  133.4381  159.4698 H   0  0  0  0  0  0  0  0  0  0  0  0  # atno 6907 bound_to 6896
  150.6875  134.2475  159.4506 H   0  0  0  0  0  0  0  0  0  0  0  0  # atno 6908 bound_to 6896
  152.0356  134.9742  160.0624 H   0  0  0  0  0  0  0  0  0  0  0  0  # atno 6909 bound_to 6896
  146.0059  139.4490  142.9986 H   0  0  0  0  0  0  0  0  0  0  0  0  # atno 7974 bound_to 7965
  156.2993  140.2519  156.3270 H   0  0  0  0  0  0  0  0  0  0  0  0  # atno 8008 bound_to 7997
  154.9181  140.0401  157.2002 H   0  0  0  0  0  0  0  0  0  0  0  0  # atno 8009 bound_to 7997
  154.8338  140.2880  155.5708 H   0  0  0  0  0  0  0  0  0  0  0  0  # atno 8010 bound_to 7997
  140.2526  143.3462  152.0700 H   0  0  0  0  0  0  0  0  0  0  0  0  # atno 10167 bound_to 10162
  157.0595  130.6303  149.5783 H   0  0  0  0  0  0  0  0  0  0  0  0  # atno 10718 bound_to 10713
  154.3514  135.6136  153.5644 H   0  0  0  0  0  0  0  0  0  0  0  0  # atno 10763 bound_to 10752
  152.9798  135.5793  154.4739 H   0  0  0  0  0  0  0  0  0  0  0  0  # atno 10764 bound_to 10752
  154.4461  135.2851  155.1791 H   0  0  0  0  0  0  0  0  0  0  0  0  # atno 10765 bound_to 10752
  140.0091  134.9446  157.0240 H   0  0  0  0  0  0  0  0  0  0  0  0  # atno 11005 bound_to 11000
  145.7416  141.0006  143.1298 LP  0  0  0  0  0  0  0  0  0  0  0  0  # atno 17320 bound_to 7965
  144.6935  139.9106  143.7463 LP  0  0  0  0  0  0  0  0  0  0  0  0  # atno 17321 bound_to 7965
  139.5041  144.6769  151.6105 LP  0  0  0  0  0  0  0  0  0  0  0  0  # atno 17342 bound_to 10162
  140.6028  143.9578  150.6398 LP  0  0  0  0  0  0  0  0  0  0  0  0  # atno 17343 bound_to 10162
  155.9983  130.5056  150.7565 LP  0  0  0  0  0  0  0  0  0  0  0  0  # atno 17370 bound_to 10713
  157.4966  131.0915  151.0364 LP  0  0  0  0  0  0  0  0  0  0  0  0  # atno 17371 bound_to 10713
  140.4586  134.1507  155.7189 LP  0  0  0  0  0  0  0  0  0  0  0  0  # atno 17394 bound_to 11000
  141.1698  133.8630  157.1604 LP  0  0  0  0  0  0  0  0  0  0  0  0  # atno 17395 bound_to 11000

$$$$
