#       Name:                AV-unprocessed.smi:2198
#       Creating user name   scv26
#       Creation time:       Fri Mar 27 12:13:06 2020


#       File generated by GOLD software.
#

@<TRIPOS>MOLECULE
AV-unprocessed.smi:2198
    48    49     1
SMALL
NO_CHARGES


@<TRIPOS>ATOM
      1 ****        -6.3661  -1.8800   1.0152 C.3            1 S1                 0.0000
      2 ****        -4.8591  -1.7687   1.1107 C.2            1 S1                 0.0000
      3 ****        -4.2348  -0.6841   1.4337 N.2            1 S1                 0.0000
      4 ****        -2.8342  -0.7044   1.4929 C.2            1 S1                 0.0000
      5 ****        -2.1764   0.6092   1.8802 C.3            1 S1                 0.0000
      6 ****        -2.1225  -1.8369   1.2177 C.2            1 S1                 0.0000
      7 ****        -0.5971  -1.8919   1.2731 C.3            1 S1                 0.0000
      8 ****         0.1195  -1.3495   0.0355 C.2            1 S1                 0.0000
      9 ****        -0.1029  -1.8438  -1.0694 O.2            1 S1                 0.0000
     10 ****         0.9682  -0.3290   0.2329 N.am           1 S1                 0.0000
     11 ****         1.7332   0.3477  -0.8095 C.3            1 S1                 0.0000
     12 ****         3.0409  -0.4136  -1.1026 C.3            1 S1                 0.0000
     13 ****         3.8953   0.3260  -2.1430 C.3            1 S1                 0.0000
     14 ****         4.1839   1.7703  -1.7041 C.3            1 S1                 0.0000
     15 ****         2.8837   2.5447  -1.4148 C.3            1 S1                 0.0000
     16 ****         3.1765   3.9843  -0.9681 C.3            1 S1                 0.0000
     17 ****         2.0287   1.7954  -0.3740 C.3            1 S1                 0.0000
     18 ****        -2.8460  -3.0689   0.8470 C.2            1 S1                 0.0000
     19 ****        -2.3068  -4.1402   0.5741 O.2            1 S1                 0.0000
     20 ****        -4.1927  -2.9571   0.8170 N.am           1 S1                 0.0000
     21 ****        -4.7324  -3.7732   0.5683 H              1 S1                 0.0000
     22 ****        -6.7488  -1.1764   0.2755 H              1 S1                 0.0000
     23 ****        -6.8209  -1.6468   1.9783 H              1 S1                 0.0000
     24 ****        -6.6786  -2.8841   0.7248 H              1 S1                 0.0000
     25 ****        -1.5760   0.4895   2.7821 H              1 S1                 0.0000
     26 ****        -2.9209   1.3815   2.0781 H              1 S1                 0.0000
     27 ****        -1.5323   0.9678   1.0773 H              1 S1                 0.0000
     28 ****        -0.2601  -1.3462   2.1549 H              1 S1                 0.0000
     29 ****        -0.2559  -2.9141   1.4399 H              1 S1                 0.0000
     30 ****         1.0859   0.0110   1.1764 H              1 S1                 0.0000
     31 ****         1.1350   0.3858  -1.7221 H              1 S1                 0.0000
     32 ****         3.6146  -0.5321  -0.1821 H              1 S1                 0.0000
     33 ****         2.8201  -1.4198  -1.4608 H              1 S1                 0.0000
     34 ****         4.8324  -0.2085  -2.3018 H              1 S1                 0.0000
     35 ****         3.3768   0.3319  -3.1025 H              1 S1                 0.0000
     36 ****         4.8139   1.7601  -0.8135 H              1 S1                 0.0000
     37 ****         4.7561   2.2792  -2.4808 H              1 S1                 0.0000
     38 ****         2.3119   2.5991  -2.3424 H              1 S1                 0.0000
     39 ****         3.7534   4.0027  -0.0429 H              1 S1                 0.0000
     40 ****         2.2528   4.5376  -0.7956 H              1 S1                 0.0000
     41 ****         3.7457   4.5229  -1.7261 H              1 S1                 0.0000
     42 ****         1.0901   2.3289  -0.2166 H              1 S1                 0.0000
     43 ****         2.5457   1.7919   0.5868 H              1 S1                 0.0000
     44 ****        -4.7412   0.1538   1.6375 LP             1 S1                 0.0000
     45 ****        -0.7518  -2.5995  -1.1576 LP             1 S1                 0.0000
     46 ****         0.3653  -1.4896  -1.8790 LP             1 S1                 0.0000
     47 ****        -1.3100  -4.2178   0.5949 LP             1 S1                 0.0000
     48 ****        -2.8652  -4.9335   0.3315 LP             1 S1                 0.0000
@<TRIPOS>BOND
    1    1    2 1     
    2    1   22 1     
    3    1   23 1     
    4    1   24 1     
    5    2   20 1     
    6    2    3 2     
    7    3    4 1     
    8    4    5 1     
    9    4    6 2     
   10    5   25 1     
   11    5   26 1     
   12    5   27 1     
   13    6    7 1     
   14    6   18 1     
   15    7    8 1     
   16    7   28 1     
   17    7   29 1     
   18    8    9 2     
   19    8   10 am    
   20   10   11 1     
   21   10   30 1     
   22   11   17 1     
   23   11   12 1     
   24   11   31 1     
   25   12   13 1     
   26   12   32 1     
   27   12   33 1     
   28   13   14 1     
   29   13   34 1     
   30   13   35 1     
   31   14   15 1     
   32   14   36 1     
   33   14   37 1     
   34   15   16 1     
   35   15   17 1     
   36   15   38 1     
   37   16   39 1     
   38   16   40 1     
   39   16   41 1     
   40   17   42 1     
   41   17   43 1     
   42   18   19 2     
   43   18   20 am    
   44   20   21 1     
   45    3   44 1     
   46    9   45 1     
   47    9   46 1     
   48   19   47 1     
   49   19   48 1     
@<TRIPOS>SUBSTRUCTURE
      1 S1             1
@<TRIPOS>SET
LONE_PAIRS      STATIC     ATOMS    <user>   **** ""
5 44 45 46 47 48
DONOR_HYDROGENS      STATIC     ATOMS    <user>   **** ""
2 30 21
ATOM$BLUE        STATIC     ATOMS    COLORGROUP SYSTEM
5 44 45 46 47 48
ATOM$RED        STATIC     ATOMS    COLORGROUP SYSTEM
2 30 21
