AV-unprocessed.smi:2338|AV-procd|sdf|9334|dock8
  -GOLD-   2272012553D 1   1.00000     0.00000
 Structure written by MMmdl.
 31 32  0  0  0  0  0  0  0  0  1 V2000
  148.3748  141.4953  153.6101 N   0  0  0  0  0  0  0  0  0  0  0  0
  148.9095  141.1790  154.7923 C   0  0  0  0  0  0  0  0  0  0  0  0
  148.3726  141.4871  155.8552 O   0  0  0  0  0  0  0  0  0  0  0  0
  150.2300  140.3874  154.7731 C   0  0  2  0  0  0  0  0  0  0  0  0
  149.9958  139.0618  154.0115 C   0  0  0  0  0  0  0  0  0  0  0  0
  151.1926  138.2926  153.9705 O   0  0  0  0  0  0  0  0  0  0  0  0
  151.6293  137.9325  155.2748 C   0  0  0  0  0  0  0  0  0  0  0  0
  151.9491  139.2079  156.0678 C   0  0  0  0  0  0  0  0  0  0  0  0
  150.7887  140.0932  156.1010 N   0  0  0  0  0  0  0  0  0  0  0  0
  151.0090  141.1830  156.9667 C   0  0  0  0  0  0  0  0  0  0  0  0
  150.9762  142.4311  156.4388 N   0  0  0  0  0  0  0  0  0  0  0  0
  151.1966  143.4839  157.2540 C   0  0  0  0  0  0  0  0  0  0  0  0
  151.4650  143.3575  158.6325 C   0  0  0  0  0  0  0  0  0  0  0  0
  151.7144  144.5863  159.4914 C   0  0  0  0  0  0  0  0  0  0  0  0
  152.0751  144.2448  160.7288 F   0  0  0  0  0  0  0  0  0  0  0  0
  152.6886  145.3127  158.9456 F   0  0  0  0  0  0  0  0  0  0  0  0
  150.6117  145.3318  159.5671 F   0  0  0  0  0  0  0  0  0  0  0  0
  151.5108  142.0577  159.1781 C   0  0  0  0  0  0  0  0  0  0  0  0
  151.2798  140.9517  158.3371 C   0  0  0  0  0  0  0  0  0  0  0  0
  151.3191  139.3541  158.9973 Cl  0  0  0  0  0  0  0  0  0  0  0  0
  147.5116  142.0180  153.5750 H   0  0  0  0  0  0  0  0  0  0  0  0
  148.8361  141.2158  152.7566 H   0  0  0  0  0  0  0  0  0  0  0  0
  150.9709  140.9646  154.2160 H   0  0  0  0  0  0  0  0  0  0  0  0
  149.1994  138.4745  154.4735 H   0  0  0  0  0  0  0  0  0  0  0  0
  149.6842  139.2620  152.9856 H   0  0  0  0  0  0  0  0  0  0  0  0
  150.8658  137.3382  155.7795 H   0  0  0  0  0  0  0  0  0  0  0  0
  152.5182  137.3070  155.1923 H   0  0  0  0  0  0  0  0  0  0  0  0
  152.2532  138.9392  157.0806 H   0  0  0  0  0  0  0  0  0  0  0  0
  152.7918  139.7279  155.6092 H   0  0  0  0  0  0  0  0  0  0  0  0
  151.1604  144.4573  156.7877 H   0  0  0  0  0  0  0  0  0  0  0  0
  151.7201  141.9044  160.2265 H   0  0  0  0  0  0  0  0  0  0  0  0
  1  2  1  0  0  0  0
  1 21  1  0  0  0  0
  1 22  1  0  0  0  0
  2  3  2  0  0  0  0
  2  4  1  0  0  0  0
  4  9  1  0  0  0  0
  4  5  1  0  0  0  0
  4 23  1  0  0  0  0
  5  6  1  0  0  0  0
  5 24  1  0  0  0  0
  5 25  1  0  0  0  0
  6  7  1  0  0  0  0
  7  8  1  0  0  0  0
  7 26  1  0  0  0  0
  7 27  1  0  0  0  0
  8  9  1  0  0  0  0
  8 28  1  0  0  0  0
  8 29  1  0  0  0  0
  9 10  1  0  0  0  0
 10 19  1  0  0  0  0
 10 11  2  0  0  0  0
 11 12  1  0  0  0  0
 12 13  2  0  0  0  0
 12 30  1  0  0  0  0
 13 14  1  0  0  0  0
 13 18  1  0  0  0  0
 14 15  1  0  0  0  0
 14 16  1  0  0  0  0
 14 17  1  0  0  0  0
 18 19  2  0  0  0  0
 18 31  1  0  0  0  0
 19 20  1  0  0  0  0
M  END
> <s_m_source_file>
AV-unprocessed.smi

> <i_m_source_file_index>
2338

> <i_lp_mmshare_version>
43012

> <i_f3d_flags>
0

> <s_epik_input>
W05IMl1DKD1PKVtDQEBIXTFbQ0gyXU9bQ0gyXVtDSDJdTjFjMm5bY0hdYyhDKEYpKEYpRilbY0hdYzJDbA==

> <s_epik_cmdline>
J2VwaWtfcHl0aG9uJywgJy1waCcsICc3LjAnLCAnLXRuJywgJzgnLCAnLW1hJywgJzIwMCcsICctbWV0YWxfYmluZGluZycsICctaW1hZScsICc8aW5maWxlLm1hZT4nLCAnLW9tYWUnLCAnPG91dGZpbGUubWFlPic=

> <r_lp_tautomer_probability>
1

> <r_epik_Ionization_Penalty>
1.71167e-07

> <r_epik_Ionization_Penalty_Charging>
0

> <r_epik_Ionization_Penalty_Neutral>
1.71167e-07

> <r_epik_State_Penalty>
-0

> <r_epik_Charging_Adjusted_Penalty>
0

> <i_epik_Tot_Q>
0

> <i_epik_Tot_abs_Q>
0

> <r_epik_Metal_State_Penalty>
-0

> <b_epik_Metal_Only>
0

> <s_lp_Force_Field>
OPLS_2005

> <r_lp_Energy>
18.5611

> <b_lp_Chiralities_Consistent>
1

> <s_lp_Variant>
AV-unprocessed.smi:2338-1

> <Gold.Version>
5.8.1

> <Gold.Id.Protein>
6NUR|6NUR_protein|mol2

> <Gold.PLP.Fitness>
43.2439

> <Gold.PLP.PLP>
-37.8964

> <Gold.PLP.part.hbond>
-1.0000

> <Gold.PLP.part.metal>
0.0000

> <Gold.PLP.part.buried>
-3.5876

> <Gold.PLP.part.nonpolar>
-33.9063

> <Gold.PLP.part.repulsive>
0.5206

> <Gold.PLP.ligand.clash>
0.3692

> <Gold.PLP.ligand.torsion>
0.2571

> <Gold.PLP.Chemscore.Hbond>
1.0000

> <Gold.PLP.Chemscore.CHOScore>
0.8653

> <Gold.PLP.Chemscore.Metal>
0.0000

> <Gold.Chemscore.Hbonds>
donor molecule, donor type, donor heavy atom, donor atom, acceptor molecule, acceptor atom, score
      L1  H     1    22       P1  7957  0.80
      L1  C    12    30       P1  8028  0.59

> <Gold.PLP.Chemscore.Internal.Correction>
0.6351

> <Gold.Rescore>
     Score         DG    S(hbond)    S(metal)    S(lipo)     H(rot)  DE(clash)    DE(int)     intcor
     10.84     -13.85       1.00        0.00      76.04       1.51       0.21       2.79       ----

> <Gold.Chemscore.Fitness>
10.8430

> <Gold.Chemscore.DG>
-13.8465

> <Gold.Chemscore.ZeroCoef>
-5.4800

> <Gold.Chemscore.Hbond>
0.9992

> <Gold.Chemscore.Metal>
0.0000

> <Gold.Chemscore.Lipo>
76.0397

> <Gold.Chemscore.Internal_Hbond>
0.0000

> <Gold.Chemscore.DEClash>
0.2093

> <Gold.Chemscore.DEInternal>
2.7942

> <Gold.Chemscore.Rot>
1.5107

> <Gold.Chemscore.Internal.Correction>
   9.000000E+99

> <Gold.Chemscore.Hbonds>
donor molecule, donor type, donor heavy atom, donor atom, acceptor molecule, acceptor atom, score
      L1  H     1    22       P1  7957  0.78

> <Gold.Chemscore.Hbond.Weighted>
-3.3372

> <Gold.Chemscore.Metal.Weighted>
-0.0000

> <Gold.Chemscore.Lipo.Weighted>
-8.8966

> <Gold.Chemscore.Internal_Hbond.Weighted>
0.0000

> <Gold.Chemscore.DEClash.Weighted>
0.2093

> <Gold.Chemscore.DEInternal.Weighted>
2.7942

> <Gold.Chemscore.Rot.Weighted>
3.8674

> <Gold.Chemscore.Internal.Correction.Weighted>
   9.000000E+99

> <Gold.Protein.RotatedTorsions>
[ 6907 6896 6895 6894 ] final -100.28 input  -60.11 | X-H torsion
[ 7974 7965 7964 7962 ] final -159.87 input  175.53 | X-H torsion
[ 8008 7997 7996 7995 ] final  -26.44 input   59.86 | X-H torsion
[ 10167 10162 10161 10158 ] final   50.66 input  -65.29 | X-H torsion
[ 10718 10713 10712 10709 ] final -168.91 input   66.30 | X-H torsion
[ 10763 10752 10751 10750 ] final   52.22 input  -60.55 | X-H torsion
[ 11005 11000 10999 10996 ] final   50.28 input  -57.11 | X-H torsion

> <Gold.Protein.ActiveResidues>
 VAL166  LYS551  ARG553  GLY616  TRP617  ASP618  TYR619  PRO620  LYS621  CYS622 
 ASP623  PHE694  ASN695  SER759  ASP760  ASP761  ALA762  ILE779  LEU786  VAL792 
 PHE793  MET794  SER795  GLU796  ALA797  LYS798  CYS799  TRP800  GLU811  SER814 

> <Gold.Protein.RotatedAtoms>
  150.7110  134.0911  159.3931 H   0  0  0  0  0  0  0  0  0  0  0  0  # atno 6907 bound_to 6896
  151.8896  135.0419  160.0506 H   0  0  0  0  0  0  0  0  0  0  0  0  # atno 6908 bound_to 6896
  152.2502  133.5173  159.5357 H   0  0  0  0  0  0  0  0  0  0  0  0  # atno 6909 bound_to 6896
  144.7448  140.3622  143.6093 H   0  0  0  0  0  0  0  0  0  0  0  0  # atno 7974 bound_to 7965
  154.4425  140.1899  156.0776 H   0  0  0  0  0  0  0  0  0  0  0  0  # atno 8008 bound_to 7997
  156.0464  140.3314  155.7274 H   0  0  0  0  0  0  0  0  0  0  0  0  # atno 8009 bound_to 7997
  155.5623  140.0605  157.2816 H   0  0  0  0  0  0  0  0  0  0  0  0  # atno 8010 bound_to 7997
  140.2701  144.3275  150.6292 H   0  0  0  0  0  0  0  0  0  0  0  0  # atno 10167 bound_to 10162
  156.7039  130.9207  151.3082 H   0  0  0  0  0  0  0  0  0  0  0  0  # atno 10718 bound_to 10713
  152.9788  135.5820  154.4542 H   0  0  0  0  0  0  0  0  0  0  0  0  # atno 10763 bound_to 10752
  154.4127  135.2770  155.2028 H   0  0  0  0  0  0  0  0  0  0  0  0  # atno 10764 bound_to 10752
  154.3811  135.6146  153.5845 H   0  0  0  0  0  0  0  0  0  0  0  0  # atno 10765 bound_to 10752
  140.1031  134.5055  155.8744 H   0  0  0  0  0  0  0  0  0  0  0  0  # atno 11005 bound_to 11000
  145.7165  139.1698  143.2509 LP  0  0  0  0  0  0  0  0  0  0  0  0  # atno 17320 bound_to 7965
  146.1309  140.7187  142.9413 LP  0  0  0  0  0  0  0  0  0  0  0  0  # atno 17321 bound_to 7965
  140.5897  143.2168  151.7276 LP  0  0  0  0  0  0  0  0  0  0  0  0  # atno 17342 bound_to 10162
  139.4991  144.3958  152.0233 LP  0  0  0  0  0  0  0  0  0  0  0  0  # atno 17343 bound_to 10162
  157.6962  130.9285  150.0652 LP  0  0  0  0  0  0  0  0  0  0  0  0  # atno 17370 bound_to 10713
  156.1709  130.3646  149.9166 LP  0  0  0  0  0  0  0  0  0  0  0  0  # atno 17371 bound_to 10713
  141.2111  133.6702  156.6557 LP  0  0  0  0  0  0  0  0  0  0  0  0  # atno 17394 bound_to 11000
  140.3193  134.8021  157.4239 LP  0  0  0  0  0  0  0  0  0  0  0  0  # atno 17395 bound_to 11000

$$$$
