AV-unprocessed.smi:2091|AV-procd|sdf|8541|dock2
  -GOLD-   2272011263D 1   1.00000     0.00000
 Structure written by MMmdl.
 35 36  0  0  0  0  0  0  0  0  2 V2000
  150.5273  140.9821  157.7386 O   0  0  0  0  0  0  0  0  0  0  0  0
  150.5605  142.0201  157.0761 C   0  0  0  0  0  0  0  0  0  0  0  0
  151.3920  143.2220  157.5437 C   0  0  0  0  0  0  0  0  0  0  0  0
  152.0395  142.9999  158.8467 N   0  0  0  0  0  0  0  0  0  0  0  0
  152.8160  141.8380  159.0023 C   0  0  0  0  0  0  0  0  0  0  0  0
  153.4454  141.5536  160.1584 C   0  0  0  0  0  0  0  0  0  0  0  0
  153.3065  142.4884  161.2682 C   0  0  0  0  0  0  0  0  0  0  0  0
  153.8792  142.2478  162.3292 O   0  0  0  0  0  0  0  0  0  0  0  0
  152.5373  143.5987  161.0700 N   0  5  0  0  0  0  0  0  0  0  0  0
  151.9003  143.8736  159.8892 C   0  0  0  0  0  0  0  0  0  0  0  0
  151.2085  144.8805  159.7325 O   0  0  0  0  0  0  0  0  0  0  0  0
  149.9141  142.1692  155.9090 N   0  0  0  0  0  0  0  0  0  0  0  0
  149.0807  141.1536  155.2617 C   0  0  1  0  0  0  0  0  0  0  0  0
  148.4735  141.7906  153.9907 C   0  0  0  0  0  0  0  0  0  0  0  0
  147.1946  141.0927  153.4958 C   0  0  0  0  0  0  0  0  0  0  0  0
  147.3893  139.6476  153.0125 C   0  0  0  0  0  0  0  0  0  0  0  0
  147.8824  138.6894  154.1101 C   0  0  0  0  0  0  0  0  0  0  0  0
  149.3085  138.8396  154.3688 N   0  0  0  0  0  0  0  0  0  0  0  0
  149.9287  139.9244  154.8578 C   0  0  0  0  0  0  0  0  0  0  0  0
  151.1540  139.9382  154.9766 O   0  0  0  0  0  0  0  0  0  0  0  0
  152.1388  143.4339  156.7776 H   0  0  0  0  0  0  0  0  0  0  0  0
  150.7642  144.1144  157.5855 H   0  0  0  0  0  0  0  0  0  0  0  0
  152.8623  141.1959  158.1352 H   0  0  0  0  0  0  0  0  0  0  0  0
  154.0358  140.6554  160.2623 H   0  0  0  0  0  0  0  0  0  0  0  0
  150.0080  143.0523  155.4292 H   0  0  0  0  0  0  0  0  0  0  0  0
  148.2869  140.8540  155.9483 H   0  0  0  0  0  0  0  0  0  0  0  0
  148.2064  142.8264  154.2059 H   0  0  0  0  0  0  0  0  0  0  0  0
  149.2111  141.8416  153.1878 H   0  0  0  0  0  0  0  0  0  0  0  0
  146.4432  141.1126  154.2861 H   0  0  0  0  0  0  0  0  0  0  0  0
  146.7763  141.6771  152.6758 H   0  0  0  0  0  0  0  0  0  0  0  0
  146.4303  139.2835  152.6424 H   0  0  0  0  0  0  0  0  0  0  0  0
  148.0673  139.6229  152.1583 H   0  0  0  0  0  0  0  0  0  0  0  0
  147.3106  138.8137  155.0309 H   0  0  0  0  0  0  0  0  0  0  0  0
  147.7222  137.6610  153.7861 H   0  0  0  0  0  0  0  0  0  0  0  0
  149.8903  138.0508  154.1258 H   0  0  0  0  0  0  0  0  0  0  0  0
  1  2  2  0  0  0  0
  2  3  1  0  0  0  0
  2 12  1  0  0  0  0
  3  4  1  0  0  0  0
  3 21  1  0  0  0  0
  3 22  1  0  0  0  0
  4 10  1  0  0  0  0
  4  5  1  0  0  0  0
  5  6  2  0  0  0  0
  5 23  1  0  0  0  0
  6  7  1  0  0  0  0
  6 24  1  0  0  0  0
  7  8  2  0  0  0  0
  7  9  1  0  0  0  0
  9 10  1  0  0  0  0
 10 11  2  0  0  0  0
 12 13  1  0  0  0  0
 12 25  1  0  0  0  0
 13 19  1  0  0  0  0
 13 14  1  0  0  0  0
 13 26  1  0  0  0  0
 14 15  1  0  0  0  0
 14 27  1  0  0  0  0
 14 28  1  0  0  0  0
 15 16  1  0  0  0  0
 15 29  1  0  0  0  0
 15 30  1  0  0  0  0
 16 17  1  0  0  0  0
 16 31  1  0  0  0  0
 16 32  1  0  0  0  0
 17 18  1  0  0  0  0
 17 33  1  0  0  0  0
 17 34  1  0  0  0  0
 18 19  1  0  0  0  0
 18 35  1  0  0  0  0
 19 20  2  0  0  0  0
M  CHG  1   9  -1
M  END
> <s_m_source_file>
AV-unprocessed.smi

> <i_m_source_file_index>
2091

> <i_lp_mmshare_version>
43012

> <i_f3d_flags>
0

> <s_epik_input>
Tz1jMVtuSF1jKD1PKVtjSF1bY0hdbjFbQ0gyXUMoPU8pW05IXVtDQEBIXTJbQ0gyXVtDSDJdW0NIMl1bQ0gyXVtOSF1DMj1P

> <s_epik_cmdline>
J2VwaWtfcHl0aG9uJywgJy1waCcsICc3LjAnLCAnLXRuJywgJzgnLCAnLW1hJywgJzIwMCcsICctbWV0YWxfYmluZGluZycsICctaW1hZScsICc8aW5maWxlLm1hZT4nLCAnLW9tYWUnLCAnPG91dGZpbGUubWFlPic=

> <r_lp_tautomer_probability>
0.999537

> <r_epik_Ionization_Penalty>
3.03155

> <r_epik_Ionization_Penalty_Charging>
2.38195e-08

> <r_epik_Ionization_Penalty_Neutral>
3.03155

> <r_epik_State_Penalty>
3.03052

> <r_epik_Charging_Adjusted_Penalty>
3.03052

> <i_epik_Tot_Q>
-1

> <i_epik_Tot_abs_Q>
1

> <r_epik_Metal_State_Penalty>
0.455936

> <b_epik_Metal_Only>
1

> <s_lp_Force_Field>
OPLS_2005

> <r_lp_Energy>
21.0556

> <b_lp_Chiralities_Consistent>
1

> <s_lp_Variant>
AV-unprocessed.smi:2091-4

> <Gold.Version>
5.8.1

> <Gold.Id.Protein>
6NUR|6NUR_protein|mol2

> <Gold.PLP.Fitness>
44.9853

> <Gold.PLP.PLP>
-39.1999

> <Gold.PLP.part.hbond>
-3.4421

> <Gold.PLP.part.metal>
0.0000

> <Gold.PLP.part.buried>
-3.8529

> <Gold.PLP.part.nonpolar>
-32.4874

> <Gold.PLP.part.repulsive>
0.4843

> <Gold.PLP.ligand.clash>
0.0000

> <Gold.PLP.ligand.torsion>
0.0734

> <Gold.PLP.Chemscore.Hbond>
1.9760

> <Gold.PLP.Chemscore.CHOScore>
0.0000

> <Gold.PLP.Chemscore.Metal>
0.0000

> <Gold.Chemscore.Hbonds>
donor molecule, donor type, donor heavy atom, donor atom, acceptor molecule, acceptor atom, score
      L1  H    12    25       P1  8028  0.58
      P1  H  7989  7998       L1    20  1.00

> <Gold.PLP.Chemscore.Internal.Correction>
0.0042

> <Gold.Rescore>
     Score         DG    S(hbond)    S(metal)    S(lipo)     H(rot)  DE(clash)    DE(int)     intcor
     12.29     -14.27       1.97        0.00      59.45       1.85       0.04       1.94       ----

> <Gold.Chemscore.Fitness>
12.2945

> <Gold.Chemscore.DG>
-14.2720

> <Gold.Chemscore.ZeroCoef>
-5.4800

> <Gold.Chemscore.Hbond>
1.9692

> <Gold.Chemscore.Metal>
0.0000

> <Gold.Chemscore.Lipo>
59.4503

> <Gold.Chemscore.Internal_Hbond>
0.0000

> <Gold.Chemscore.DEClash>
0.0398

> <Gold.Chemscore.DEInternal>
1.9377

> <Gold.Chemscore.Rot>
1.8519

> <Gold.Chemscore.Internal.Correction>
   9.000000E+99

> <Gold.Chemscore.Hbonds>
donor molecule, donor type, donor heavy atom, donor atom, acceptor molecule, acceptor atom, score
      L1  H    12    25       P1  8028  0.55
      P1  H  7989  7998       L1    20  0.30

> <Gold.Chemscore.Hbond.Weighted>
-6.5771

> <Gold.Chemscore.Metal.Weighted>
-0.0000

> <Gold.Chemscore.Lipo.Weighted>
-6.9557

> <Gold.Chemscore.Internal_Hbond.Weighted>
0.0000

> <Gold.Chemscore.DEClash.Weighted>
0.0398

> <Gold.Chemscore.DEInternal.Weighted>
1.9377

> <Gold.Chemscore.Rot.Weighted>
4.7408

> <Gold.Chemscore.Internal.Correction.Weighted>
   9.000000E+99

> <Gold.Protein.RotatedTorsions>
[ 6907 6896 6895 6894 ] final -127.99 input  -60.11 | X-H torsion
[ 7974 7965 7964 7962 ] final   86.87 input  175.53 | X-H torsion
[ 8008 7997 7996 7995 ] final  160.55 input   59.86 | X-H torsion
[ 10167 10162 10161 10158 ] final  -13.75 input  -65.29 | X-H torsion
[ 10718 10713 10712 10709 ] final   36.95 input   66.30 | X-H torsion
[ 10763 10752 10751 10750 ] final  -72.31 input  -60.55 | X-H torsion
[ 11005 11000 10999 10996 ] final   68.13 input  -57.11 | X-H torsion

> <Gold.Protein.ActiveResidues>
 VAL166  LYS551  ARG553  GLY616  TRP617  ASP618  TYR619  PRO620  LYS621  CYS622 
 ASP623  PHE694  ASN695  SER759  ASP760  ASP761  ALA762  ILE779  LEU786  VAL792 
 PHE793  MET794  SER795  GLU796  ALA797  LYS798  CYS799  TRP800  GLU811  SER814 

> <Gold.Protein.RotatedAtoms>
  150.9131  133.6972  159.2849 H   0  0  0  0  0  0  0  0  0  0  0  0  # atno 6907 bound_to 6896
  151.4452  135.1023  159.9691 H   0  0  0  0  0  0  0  0  0  0  0  0  # atno 6908 bound_to 6896
  152.4940  133.8530  159.7266 H   0  0  0  0  0  0  0  0  0  0  0  0  # atno 6909 bound_to 6896
  145.5665  139.2309  143.2430 H   0  0  0  0  0  0  0  0  0  0  0  0  # atno 7974 bound_to 7965
  156.2164  140.1801  156.7578 H   0  0  0  0  0  0  0  0  0  0  0  0  # atno 8008 bound_to 7997
  154.5798  140.0668  156.9117 H   0  0  0  0  0  0  0  0  0  0  0  0  # atno 8009 bound_to 7997
  155.2522  140.3330  155.4283 H   0  0  0  0  0  0  0  0  0  0  0  0  # atno 8010 bound_to 7997
  140.7188  143.5393  150.9427 H   0  0  0  0  0  0  0  0  0  0  0  0  # atno 10167 bound_to 10162
  157.3410  130.7548  149.6912 H   0  0  0  0  0  0  0  0  0  0  0  0  # atno 10718 bound_to 10713
  154.4439  135.5934  153.6147 H   0  0  0  0  0  0  0  0  0  0  0  0  # atno 10763 bound_to 10752
  152.9807  135.6004  154.3688 H   0  0  0  0  0  0  0  0  0  0  0  0  # atno 10764 bound_to 10752
  154.3542  135.2841  155.2334 H   0  0  0  0  0  0  0  0  0  0  0  0  # atno 10765 bound_to 10752
  139.9729  134.6870  156.0411 H   0  0  0  0  0  0  0  0  0  0  0  0  # atno 11005 bound_to 11000
  146.1814  140.6491  142.9187 LP  0  0  0  0  0  0  0  0  0  0  0  0  # atno 17320 bound_to 7965
  144.7458  140.5063  143.6837 LP  0  0  0  0  0  0  0  0  0  0  0  0  # atno 17321 bound_to 7965
  139.9116  143.6714  152.3114 LP  0  0  0  0  0  0  0  0  0  0  0  0  # atno 17342 bound_to 10162
  139.7099  144.7622  151.1130 LP  0  0  0  0  0  0  0  0  0  0  0  0  # atno 17343 bound_to 10162
  155.9708  130.4167  150.4246 LP  0  0  0  0  0  0  0  0  0  0  0  0  # atno 17370 bound_to 10713
  157.2294  131.0500  151.2501 LP  0  0  0  0  0  0  0  0  0  0  0  0  # atno 17371 bound_to 10713
  141.1408  133.6565  156.3724 LP  0  0  0  0  0  0  0  0  0  0  0  0  # atno 17394 bound_to 11000
  140.5255  134.6263  157.5332 LP  0  0  0  0  0  0  0  0  0  0  0  0  # atno 17395 bound_to 11000

$$$$
