AV-unprocessed.smi:2667|AV-procd|sdf|10336|dock7
  -GOLD-   2272014353D 1   1.00000     0.00000
 Structure written by MMmdl.
 45 47  0  0  0  0  0  0  0  0  2 V2000
  150.5724  128.8042  153.8956 C   0  0  0  0  0  0  0  0  0  0  0  0
  150.4669  130.3366  153.8441 C   0  0  0  0  0  0  0  0  0  0  0  0
  151.1109  131.0472  155.0447 C   0  0  0  0  0  0  0  0  0  0  0  0
  151.7265  130.3908  155.8860 O   0  0  0  0  0  0  0  0  0  0  0  0
  150.9543  132.5284  155.1296 C   0  0  0  0  0  0  0  0  0  0  0  0
  151.5031  133.2799  156.1951 C   0  0  0  0  0  0  0  0  0  0  0  0
  151.3343  134.6768  156.2446 C   0  0  0  0  0  0  0  0  0  0  0  0
  150.6169  135.3554  155.2406 C   0  0  0  0  0  0  0  0  0  0  0  0
  150.4970  136.7209  155.3747 O   0  0  0  0  0  0  0  0  0  0  0  0
  151.5027  137.4243  156.0910 C   0  0  0  0  0  0  0  0  0  0  0  0
  151.3029  138.9479  155.9727 C   0  0  2  0  0  0  0  0  0  0  0  0
  151.8474  139.3915  154.7471 O   0  0  0  0  0  0  0  0  0  0  0  0
  151.7794  139.8020  157.1741 C   0  0  0  0  0  0  0  0  0  0  0  0
  151.2870  141.1889  157.1989 N   0  0  0  0  0  0  0  0  0  0  0  0
  150.5394  141.8623  156.2814 C   0  0  0  0  0  0  0  0  0  0  0  0
  150.3394  143.1226  156.7554 N   0  3  0  0  0  0  0  0  0  0  0  0
  150.9847  143.2653  157.9852 C   0  0  0  0  0  0  0  0  0  0  0  0
  151.0749  144.3561  158.8446 C   0  0  0  0  0  0  0  0  0  0  0  0
  151.8217  144.1710  160.0266 C   0  0  0  0  0  0  0  0  0  0  0  0
  152.4456  142.9401  160.3155 C   0  0  0  0  0  0  0  0  0  0  0  0
  152.3479  141.8412  159.4366 C   0  0  0  0  0  0  0  0  0  0  0  0
  151.6029  142.0294  158.2730 C   0  0  0  0  0  0  0  0  0  0  0  0
  150.0694  134.6065  154.1711 C   0  0  0  0  0  0  0  0  0  0  0  0
  150.2374  133.2093  154.1198 C   0  0  0  0  0  0  0  0  0  0  0  0
  150.1048  128.3588  153.0174 H   0  0  0  0  0  0  0  0  0  0  0  0
  150.0711  128.3997  154.7757 H   0  0  0  0  0  0  0  0  0  0  0  0
  151.6124  128.4764  153.9164 H   0  0  0  0  0  0  0  0  0  0  0  0
  150.9410  130.6977  152.9313 H   0  0  0  0  0  0  0  0  0  0  0  0
  149.4159  130.6222  153.7934 H   0  0  0  0  0  0  0  0  0  0  0  0
  152.0599  132.8067  156.9898 H   0  0  0  0  0  0  0  0  0  0  0  0
  151.7602  135.2352  157.0655 H   0  0  0  0  0  0  0  0  0  0  0  0
  151.4931  137.1284  157.1413 H   0  0  0  0  0  0  0  0  0  0  0  0
  152.4834  137.1710  155.6851 H   0  0  0  0  0  0  0  0  0  0  0  0
  150.2288  139.1132  155.8814 H   0  0  0  0  0  0  0  0  0  0  0  0
  152.0722  138.6354  154.2272 H   0  0  0  0  0  0  0  0  0  0  0  0
  151.5123  139.3237  158.1171 H   0  0  0  0  0  0  0  0  0  0  0  0
  152.8689  139.8552  157.1658 H   0  0  0  0  0  0  0  0  0  0  0  0
  150.1583  141.4620  155.3527 H   0  0  0  0  0  0  0  0  0  0  0  0
  150.6008  145.3013  158.6244 H   0  0  0  0  0  0  0  0  0  0  0  0
  151.9192  144.9899  160.7248 H   0  0  0  0  0  0  0  0  0  0  0  0
  153.0103  142.8360  161.2304 H   0  0  0  0  0  0  0  0  0  0  0  0
  152.8295  140.9034  159.6682 H   0  0  0  0  0  0  0  0  0  0  0  0
  149.5155  135.0799  153.3749 H   0  0  0  0  0  0  0  0  0  0  0  0
  149.8064  132.6666  153.2907 H   0  0  0  0  0  0  0  0  0  0  0  0
  149.8045  143.8320  156.2710 H   0  0  0  0  0  0  0  0  0  0  0  0
  1  2  1  0  0  0  0
  1 25  1  0  0  0  0
  1 26  1  0  0  0  0
  1 27  1  0  0  0  0
  2  3  1  0  0  0  0
  2 28  1  0  0  0  0
  2 29  1  0  0  0  0
  3  4  2  0  0  0  0
  3  5  1  0  0  0  0
  5 24  1  0  0  0  0
  5  6  2  0  0  0  0
  6  7  1  0  0  0  0
  6 30  1  0  0  0  0
  7  8  2  0  0  0  0
  7 31  1  0  0  0  0
  8  9  1  0  0  0  0
  8 23  1  0  0  0  0
  9 10  1  0  0  0  0
 10 11  1  0  0  0  0
 10 32  1  0  0  0  0
 10 33  1  0  0  0  0
 11 12  1  0  0  0  0
 11 13  1  0  0  0  0
 11 34  1  0  0  0  0
 12 35  1  0  0  0  0
 13 14  1  0  0  0  0
 13 36  1  0  0  0  0
 13 37  1  0  0  0  0
 14 22  1  0  0  0  0
 14 15  1  0  0  0  0
 15 16  2  0  0  0  0
 15 38  1  0  0  0  0
 16 17  1  0  0  0  0
 16 45  1  0  0  0  0
 17 22  2  0  0  0  0
 17 18  1  0  0  0  0
 18 19  2  0  0  0  0
 18 39  1  0  0  0  0
 19 20  1  0  0  0  0
 19 40  1  0  0  0  0
 20 21  2  0  0  0  0
 20 41  1  0  0  0  0
 21 22  1  0  0  0  0
 21 42  1  0  0  0  0
 23 24  2  0  0  0  0
 23 43  1  0  0  0  0
 24 44  1  0  0  0  0
M  CHG  1  16   1
M  END
> <s_m_source_file>
AV-unprocessed.smi

> <i_m_source_file_index>
2667

> <i_lp_mmshare_version>
43012

> <i_f3d_flags>
0

> <s_epik_input>
W0NIM11bQ0gyXUMoPU8pYzFbY0hdW2NIXWMoW2NIXVtjSF0xKU9bQ0gyXVtDQEhdKFtPSF0pW0NIMl1uKFtjSF1uMiljKGMyMylbY0hdW2NIXVtjSF1bY0hdMw==

> <s_epik_cmdline>
J2VwaWtfcHl0aG9uJywgJy1waCcsICc3LjAnLCAnLXRuJywgJzgnLCAnLW1hJywgJzIwMCcsICctbWV0YWxfYmluZGluZycsICctaW1hZScsICc8aW5maWxlLm1hZT4nLCAnLW9tYWUnLCAnPG91dGZpbGUubWFlPic=

> <r_lp_tautomer_probability>
0.9999

> <r_epik_Ionization_Penalty>
1.40272

> <r_epik_Ionization_Penalty_Charging>
1.40272

> <r_epik_Ionization_Penalty_Neutral>
2.3993e-06

> <r_epik_State_Penalty>
1.48501

> <r_epik_Charging_Adjusted_Penalty>
2.88772

> <i_epik_Tot_Q>
1

> <i_epik_Tot_abs_Q>
1

> <r_epik_Metal_State_Penalty>
5.5274

> <b_epik_Metal_Only>
0

> <s_lp_Force_Field>
OPLS_2005

> <r_lp_Energy>
30.2491

> <b_lp_Chiralities_Consistent>
1

> <s_lp_Variant>
AV-unprocessed.smi:2667-3

> <Gold.Version>
5.8.1

> <Gold.Id.Protein>
6NUR|6NUR_protein|mol2

> <Gold.PLP.Fitness>
56.4264

> <Gold.PLP.PLP>
-48.8406

> <Gold.PLP.part.hbond>
-1.9820

> <Gold.PLP.part.metal>
0.0000

> <Gold.PLP.part.buried>
-6.1133

> <Gold.PLP.part.nonpolar>
-40.1780

> <Gold.PLP.part.repulsive>
0.1516

> <Gold.PLP.ligand.clash>
0.0000

> <Gold.PLP.ligand.torsion>
0.7886

> <Gold.PLP.Chemscore.Hbond>
3.0000

> <Gold.PLP.Chemscore.CHOScore>
0.0000

> <Gold.PLP.Chemscore.Metal>
0.0000

> <Gold.Chemscore.Hbonds>
donor molecule, donor type, donor heavy atom, donor atom, acceptor molecule, acceptor atom, score
      L1  H    16    45       P1  8028  1.40
      P1  H  7989  7998       L1    12  1.00

> <Gold.PLP.Chemscore.Internal.Correction>
0.1630

> <Gold.Rescore>
     Score         DG    S(hbond)    S(metal)    S(lipo)     H(rot)  DE(clash)    DE(int)     intcor
     18.61     -19.53       1.86        0.00     123.53       2.59       0.08       0.85       ----

> <Gold.Chemscore.Fitness>
18.6064

> <Gold.Chemscore.DG>
-19.5306

> <Gold.Chemscore.ZeroCoef>
-5.4800

> <Gold.Chemscore.Hbond>
1.8627

> <Gold.Chemscore.Metal>
0.0000

> <Gold.Chemscore.Lipo>
123.5265

> <Gold.Chemscore.Internal_Hbond>
0.0000

> <Gold.Chemscore.DEClash>
0.0788

> <Gold.Chemscore.DEInternal>
0.8453

> <Gold.Chemscore.Rot>
2.5873

> <Gold.Chemscore.Internal.Correction>
   9.000000E+99

> <Gold.Chemscore.Hbonds>
donor molecule, donor type, donor heavy atom, donor atom, acceptor molecule, acceptor atom, score
      L1  H    16    45       P1  8028  0.69
      P1  H  7989  7998       L1    12  0.52

> <Gold.Chemscore.Hbond.Weighted>
-6.2215

> <Gold.Chemscore.Metal.Weighted>
-0.0000

> <Gold.Chemscore.Lipo.Weighted>
-14.4526

> <Gold.Chemscore.Internal_Hbond.Weighted>
0.0000

> <Gold.Chemscore.DEClash.Weighted>
0.0788

> <Gold.Chemscore.DEInternal.Weighted>
0.8453

> <Gold.Chemscore.Rot.Weighted>
6.6235

> <Gold.Chemscore.Internal.Correction.Weighted>
   9.000000E+99

> <Gold.Protein.RotatedTorsions>
[ 6907 6896 6895 6894 ] final  113.24 input  -60.11 | X-H torsion
[ 7974 7965 7964 7962 ] final  -60.39 input  175.53 | X-H torsion
[ 8008 7997 7996 7995 ] final -159.12 input   59.86 | X-H torsion
[ 10167 10162 10161 10158 ] final  145.56 input  -65.29 | X-H torsion
[ 10718 10713 10712 10709 ] final    0.02 input   66.30 | X-H torsion
[ 10763 10752 10751 10750 ] final -110.27 input  -60.55 | X-H torsion
[ 11005 11000 10999 10996 ] final -169.78 input  -57.11 | X-H torsion

> <Gold.Protein.ActiveResidues>
 VAL166  LYS551  ARG553  GLY616  TRP617  ASP618  TYR619  PRO620  LYS621  CYS622 
 ASP623  PHE694  ASN695  SER759  ASP760  ASP761  ALA762  ILE779  LEU786  VAL792 
 PHE793  MET794  SER795  GLU796  ALA797  LYS798  CYS799  TRP800  GLU811  SER814 

> <Gold.Protein.RotatedAtoms>
  152.4872  133.8403  159.7148 H   0  0  0  0  0  0  0  0  0  0  0  0  # atno 6907 bound_to 6896
  150.8968  133.7161  159.2896 H   0  0  0  0  0  0  0  0  0  0  0  0  # atno 6908 bound_to 6896
  151.4615  135.1042  159.9778 H   0  0  0  0  0  0  0  0  0  0  0  0  # atno 6909 bound_to 6896
  145.8161  140.8569  143.0157 H   0  0  0  0  0  0  0  0  0  0  0  0  # atno 7974 bound_to 7965
  155.7578  140.0835  157.2170 H   0  0  0  0  0  0  0  0  0  0  0  0  # atno 8008 bound_to 7997
  154.4006  140.1548  156.2854 H   0  0  0  0  0  0  0  0  0  0  0  0  # atno 8009 bound_to 7997
  155.8869  140.3417  155.5930 H   0  0  0  0  0  0  0  0  0  0  0  0  # atno 8010 bound_to 7997
  139.4924  144.5893  151.6713 H   0  0  0  0  0  0  0  0  0  0  0  0  # atno 10167 bound_to 10162
  156.8271  130.5476  149.5691 H   0  0  0  0  0  0  0  0  0  0  0  0  # atno 10718 bound_to 10713
  154.8239  135.4570  154.0859 H   0  0  0  0  0  0  0  0  0  0  0  0  # atno 10763 bound_to 10752
  153.2190  135.6891  153.8029 H   0  0  0  0  0  0  0  0  0  0  0  0  # atno 10764 bound_to 10752
  153.7453  135.3306  155.3288 H   0  0  0  0  0  0  0  0  0  0  0  0  # atno 10765 bound_to 10752
  140.5269  134.5655  157.5064 H   0  0  0  0  0  0  0  0  0  0  0  0  # atno 11005 bound_to 11000
  144.6752  140.0466  143.7480 LP  0  0  0  0  0  0  0  0  0  0  0  0  # atno 17320 bound_to 7965
  145.9725  139.2880  143.1090 LP  0  0  0  0  0  0  0  0  0  0  0  0  # atno 17321 bound_to 7965
  140.5516  144.0415  150.6129 LP  0  0  0  0  0  0  0  0  0  0  0  0  # atno 17342 bound_to 10162
  140.3471  143.2985  152.0526 LP  0  0  0  0  0  0  0  0  0  0  0  0  # atno 17343 bound_to 10162
  156.0955  130.5929  150.9806 LP  0  0  0  0  0  0  0  0  0  0  0  0  # atno 17370 bound_to 10713
  157.6426  131.0908  150.8219 LP  0  0  0  0  0  0  0  0  0  0  0  0  # atno 17371 bound_to 10713
  139.9575  134.7509  156.0309 LP  0  0  0  0  0  0  0  0  0  0  0  0  # atno 17394 bound_to 11000
  141.1303  133.6588  156.3447 LP  0  0  0  0  0  0  0  0  0  0  0  0  # atno 17395 bound_to 11000

$$$$
