#       Name:                AV-unprocessed.smi:3041
#       Creating user name   scv26
#       Creation time:       Fri Mar 27 16:57:41 2020


#       File generated by GOLD software.
#

@<TRIPOS>MOLECULE
AV-unprocessed.smi:3041
    43    44     1
SMALL
NO_CHARGES


@<TRIPOS>ATOM
      1 ****        -4.0178   2.3101   0.8341 C.3            1 S1                 0.0000
      2 ****        -3.5012   1.1516   1.5304 N.pl3          1 S1                 0.0000
      3 ****        -3.2633  -0.1129   1.0372 C.2            1 S1                 0.0000
      4 ****        -2.7734  -0.8684   2.0652 C.2            1 S1                 0.0000
      5 ****        -2.3402  -2.3104   2.0526 C.3            1 S1                 0.0000
      6 ****        -0.8095  -2.4785   2.0515 C.3            1 S1                 0.0000
      7 ****        -0.1854  -1.8582   0.8851 N.am           1 S1                 0.0000
      8 ****         0.4129  -0.6582   0.8686 C.2            1 S1                 0.0000
      9 ****         0.5221   0.0720   1.8537 O.2            1 S1                 0.0000
     10 ****         0.8694  -0.3507  -0.3531 N.am           1 S1                 0.0000
     11 ****         1.5745   0.8762  -0.7093 C.3            1 S1                 0.0000
     12 ****         2.8560   0.5634  -1.4993 C.3            1 S1                 0.0000
     13 ****         2.6307  -0.1038  -2.8424 C.3            1 S1                 0.0000
     14 ****         3.9544   0.1638  -3.5525 C.3            1 S1                 0.0000
     15 ****         4.4325   1.4022  -3.0347 O.3            1 S1                 0.0000
     16 ****         3.6452   1.8032  -1.9174 C.3            1 S1                 0.0000
     17 ****        -2.7545   0.0395   3.1623 C.2            1 S1                 0.0000
     18 ****        -3.1915   1.2457   2.8396 N.2            1 S1                 0.0000
     19 ****        -4.0213   2.1289  -0.2411 H              1 S1                 0.0000
     20 ****        -3.3935   3.1795   1.0433 H              1 S1                 0.0000
     21 ****        -5.0371   2.5126   1.1640 H              1 S1                 0.0000
     22 ****        -3.4532  -0.3670   0.0049 H              1 S1                 0.0000
     23 ****        -2.7477  -2.8333   2.9183 H              1 S1                 0.0000
     24 ****        -2.7528  -2.8240   1.1834 H              1 S1                 0.0000
     25 ****        -0.3873  -2.0802   2.9758 H              1 S1                 0.0000
     26 ****        -0.5611  -3.5399   2.0395 H              1 S1                 0.0000
     27 ****        -0.2215  -2.3806   0.0221 H              1 S1                 0.0000
     28 ****         0.7239  -1.0200  -1.0946 H              1 S1                 0.0000
     29 ****         0.9036   1.4978  -1.3033 H              1 S1                 0.0000
     30 ****         1.8327   1.4577   0.1773 H              1 S1                 0.0000
     31 ****         3.5072  -0.0725  -0.8968 H              1 S1                 0.0000
     32 ****         2.4007  -1.1668  -2.7633 H              1 S1                 0.0000
     33 ****         1.8150   0.3841  -3.3783 H              1 S1                 0.0000
     34 ****         4.6794  -0.6149  -3.3124 H              1 S1                 0.0000
     35 ****         3.8440   0.2009  -4.6363 H              1 S1                 0.0000
     36 ****         2.9732   2.5997  -2.2399 H              1 S1                 0.0000
     37 ****         4.2674   2.1927  -1.1114 H              1 S1                 0.0000
     38 ****        -2.4327  -0.1412   4.1772 H              1 S1                 0.0000
     39 ****         0.1519  -0.2196   2.7357 LP             1 S1                 0.0000
     40 ****         0.9810   0.9567   1.7719 LP             1 S1                 0.0000
     41 ****         4.3764   2.1020  -3.7468 LP             1 S1                 0.0000
     42 ****         5.3842   1.2949  -2.7470 LP             1 S1                 0.0000
     43 ****        -3.2737   2.0466   3.4327 LP             1 S1                 0.0000
@<TRIPOS>BOND
    1    1    2 1     
    2    1   19 1     
    3    1   20 1     
    4    1   21 1     
    5    2   18 1     
    6    2    3 1     
    7    3    4 2     
    8    3   22 1     
    9    4    5 1     
   10    4   17 1     
   11    5    6 1     
   12    5   23 1     
   13    5   24 1     
   14    6    7 1     
   15    6   25 1     
   16    6   26 1     
   17    7    8 am    
   18    7   27 1     
   19    8    9 2     
   20    8   10 am    
   21   10   11 1     
   22   10   28 1     
   23   11   12 1     
   24   11   29 1     
   25   11   30 1     
   26   12   16 1     
   27   12   13 1     
   28   12   31 1     
   29   13   14 1     
   30   13   32 1     
   31   13   33 1     
   32   14   15 1     
   33   14   34 1     
   34   14   35 1     
   35   15   16 1     
   36   16   36 1     
   37   16   37 1     
   38   17   18 2     
   39   17   38 1     
   40    9   39 1     
   41    9   40 1     
   42   15   41 1     
   43   15   42 1     
   44   18   43 1     
@<TRIPOS>SUBSTRUCTURE
      1 S1             1
@<TRIPOS>SET
LONE_PAIRS      STATIC     ATOMS    <user>   **** ""
5 39 40 41 42 43
DONOR_HYDROGENS      STATIC     ATOMS    <user>   **** ""
2 27 28
ATOM$BLUE        STATIC     ATOMS    COLORGROUP SYSTEM
5 39 40 41 42 43
ATOM$RED        STATIC     ATOMS    COLORGROUP SYSTEM
2 27 28
