AV-unprocessed.smi:44|AV-procd|sdf|396|dock2
  -GOLD-   2262016253D 1   1.00000     0.00000
 Structure written by MMmdl.
 29 31  0  0  0  0  0  0  0  0  1 V2000
  151.3289  137.1795  155.7869 O   0  0  0  0  0  0  0  0  0  0  0  0
  151.4584  137.9387  156.7449 C   0  0  0  0  0  0  0  0  0  0  0  0
  151.9745  137.5609  157.9399 N   0  0  0  0  0  0  0  0  0  0  0  0
  152.1250  138.4312  159.0491 C   0  0  0  0  0  0  0  0  0  0  0  0
  151.7889  139.6957  159.0625 N   0  0  0  0  0  0  0  0  0  0  0  0
  151.2622  140.1073  157.8547 C   0  0  0  0  0  0  0  0  0  0  0  0
  151.0663  139.3675  156.7193 C   0  0  0  0  0  0  0  0  0  0  0  0
  150.5065  140.1345  155.7055 N   0  0  0  0  0  0  0  0  0  0  0  0
  150.3887  141.3270  156.2861 C   0  0  0  0  0  0  0  0  0  0  0  0
  150.8166  141.3927  157.5631 N   0  0  0  0  0  0  0  0  0  0  0  0
  150.8087  142.5818  158.4693 C   0  0  2  0  0  0  0  0  0  0  0  0
  151.7921  143.6420  157.9601 C   0  0  0  0  0  0  0  0  0  0  0  0
  152.4577  144.0830  159.2452 C   0  0  0  0  0  0  0  0  0  0  0  0
  152.5054  142.7702  160.0246 C   0  0  1  0  0  0  0  0  0  0  0  0
  152.6788  142.9341  161.5410 C   0  0  0  0  0  0  0  0  0  0  0  0
  151.5549  143.5851  162.0943 O   0  0  0  0  0  0  0  0  0  0  0  0
  151.2419  142.1800  159.7370 O   0  0  0  0  0  0  0  0  0  0  0  0
  152.2662  136.5996  158.0386 H   0  0  0  0  0  0  0  0  0  0  0  0
  149.7729  142.9190  158.5129 H   0  0  0  0  0  0  0  0  0  0  0  0
  153.2873  142.1249  159.6205 H   0  0  0  0  0  0  0  0  0  0  0  0
  152.5603  137.9382  159.9196 H   0  0  0  0  0  0  0  0  0  0  0  0
  149.9767  142.1785  155.7653 H   0  0  0  0  0  0  0  0  0  0  0  0
  152.5247  143.1912  157.2883 H   0  0  0  0  0  0  0  0  0  0  0  0
  151.2713  144.4434  157.4355 H   0  0  0  0  0  0  0  0  0  0  0  0
  153.4437  144.5202  159.0860 H   0  0  0  0  0  0  0  0  0  0  0  0
  151.8341  144.8156  159.7596 H   0  0  0  0  0  0  0  0  0  0  0  0
  152.8182  141.9676  162.0262 H   0  0  0  0  0  0  0  0  0  0  0  0
  153.5646  143.5331  161.7541 H   0  0  0  0  0  0  0  0  0  0  0  0
  151.8468  144.1352  162.8050 H   0  0  0  0  0  0  0  0  0  0  0  0
  1  2  2  0  0  0  0
  2  7  1  0  0  0  0
  2  3  1  0  0  0  0
  3 18  1  0  0  0  0
  3  4  1  0  0  0  0
  4  5  2  0  0  0  0
  4 21  1  0  0  0  0
  5  6  1  0  0  0  0
  6 10  1  0  0  0  0
  6  7  2  0  0  0  0
  7  8  1  0  0  0  0
  8  9  2  0  0  0  0
  9 10  1  0  0  0  0
  9 22  1  0  0  0  0
 10 11  1  0  0  0  0
 11 19  1  0  0  0  0
 11 17  1  0  0  0  0
 11 12  1  0  0  0  0
 12 13  1  0  0  0  0
 12 23  1  0  0  0  0
 12 24  1  0  0  0  0
 13 14  1  0  0  0  0
 13 25  1  0  0  0  0
 13 26  1  0  0  0  0
 14 20  1  0  0  0  0
 14 15  1  0  0  0  0
 14 17  1  0  0  0  0
 15 16  1  0  0  0  0
 15 27  1  0  0  0  0
 15 28  1  0  0  0  0
 16 29  1  0  0  0  0
M  END
> <s_m_source_file>
AV-unprocessed.smi

> <i_m_source_file_index>
44

> <i_lp_mmshare_version>
43012

> <i_f3d_flags>
0

> <s_epik_input>
bjFbY0hdW25IXWMoPU8pYyhjMTIpbltjSF1uMltDQEhdM1tDSDJdW0NIMl1bQ0BIXShPMylbQ0gyXVtPSF0=

> <s_epik_cmdline>
J2VwaWtfcHl0aG9uJywgJy1waCcsICc3LjAnLCAnLXRuJywgJzgnLCAnLW1hJywgJzIwMCcsICctbWV0YWxfYmluZGluZycsICctaW1hZScsICc8aW5maWxlLm1hZT4nLCAnLW9tYWUnLCAnPG91dGZpbGUubWFlPic=

> <r_lp_tautomer_probability>
0.85571

> <r_epik_Ionization_Penalty>
0.00801444

> <r_epik_Ionization_Penalty_Charging>
0.00794574

> <r_epik_Ionization_Penalty_Neutral>
6.87072e-05

> <r_epik_State_Penalty>
0.0826172

> <r_epik_Charging_Adjusted_Penalty>
0.090563

> <i_epik_Tot_Q>
0

> <i_epik_Tot_abs_Q>
0

> <r_epik_Metal_State_Penalty>
0.440697

> <b_epik_Metal_Only>
0

> <s_epik_Chemistry_Notes>
This compound contains an acetal/aminal-like group ( X-CH(R)-Y where X, Y are N, S, or O) that may be acid/base labile, releasing an aldehyde.

> <s_lp_Force_Field>
OPLS_2005

> <r_lp_Energy>
42.0168

> <b_lp_Chiralities_Consistent>
1

> <s_lp_Variant>
AV-unprocessed.smi:44-2

> <Gold.Version>
5.8.1

> <Gold.Id.Protein>
6NUR|6NUR_protein|mol2

> <Gold.PLP.Fitness>
46.1642

> <Gold.PLP.PLP>
-37.8517

> <Gold.PLP.part.hbond>
-4.0099

> <Gold.PLP.part.metal>
0.0000

> <Gold.PLP.part.buried>
-5.9475

> <Gold.PLP.part.nonpolar>
-28.6066

> <Gold.PLP.part.repulsive>
0.2808

> <Gold.PLP.ligand.clash>
0.0000

> <Gold.PLP.ligand.torsion>
0.0931

> <Gold.PLP.Chemscore.Hbond>
1.9400

> <Gold.PLP.Chemscore.CHOScore>
0.8892

> <Gold.PLP.Chemscore.Metal>
0.0000

> <Gold.Chemscore.Hbonds>
donor molecule, donor type, donor heavy atom, donor atom, acceptor molecule, acceptor atom, score
      P1  H  6933  6945       L1    16  0.12
      L1  C     9    22       P1  8028  0.41

> <Gold.PLP.Chemscore.Internal.Correction>
0.0113

> <Gold.Rescore>
     Score         DG    S(hbond)    S(metal)    S(lipo)     H(rot)  DE(clash)    DE(int)     intcor
     10.63     -12.83       2.14        0.00      51.36       2.27       0.52       1.68       ----

> <Gold.Chemscore.Fitness>
10.6295

> <Gold.Chemscore.DG>
-12.8284

> <Gold.Chemscore.ZeroCoef>
-5.4800

> <Gold.Chemscore.Hbond>
2.1425

> <Gold.Chemscore.Metal>
0.0000

> <Gold.Chemscore.Lipo>
51.3580

> <Gold.Chemscore.Internal_Hbond>
0.0000

> <Gold.Chemscore.DEClash>
0.5167

> <Gold.Chemscore.DEInternal>
1.6823

> <Gold.Chemscore.Rot>
2.2720

> <Gold.Chemscore.Internal.Correction>
   9.000000E+99

> <Gold.Chemscore.Hbonds>
donor molecule, donor type, donor heavy atom, donor atom, acceptor molecule, acceptor atom, score
      P1  H  6933  6945       L1    16  0.04

> <Gold.Chemscore.Hbond.Weighted>
-7.1560

> <Gold.Chemscore.Metal.Weighted>
-0.0000

> <Gold.Chemscore.Lipo.Weighted>
-6.0089

> <Gold.Chemscore.Internal_Hbond.Weighted>
0.0000

> <Gold.Chemscore.DEClash.Weighted>
0.5167

> <Gold.Chemscore.DEInternal.Weighted>
1.6823

> <Gold.Chemscore.Rot.Weighted>
5.8164

> <Gold.Chemscore.Internal.Correction.Weighted>
   9.000000E+99

> <Gold.Protein.RotatedTorsions>
[ 6907 6896 6895 6894 ] final  178.48 input  -60.11 | X-H torsion
[ 7974 7965 7964 7962 ] final   42.39 input  175.53 | X-H torsion
[ 8008 7997 7996 7995 ] final  -33.30 input   59.86 | X-H torsion
[ 10167 10162 10161 10158 ] final  -66.51 input  -65.29 | X-H torsion
[ 10718 10713 10712 10709 ] final   73.88 input   66.30 | X-H torsion
[ 10763 10752 10751 10750 ] final   48.44 input  -60.55 | X-H torsion
[ 11005 11000 10999 10996 ] final  123.33 input  -57.11 | X-H torsion

> <Gold.Protein.ActiveResidues>
 VAL166  LYS551  ARG553  GLY616  TRP617  ASP618  TYR619  PRO620  LYS621  CYS622 
 ASP623  PHE694  ASN695  SER759  ASP760  ASP761  ALA762  ILE779  LEU786  VAL792 
 PHE793  MET794  SER795  GLU796  ALA797  LYS798  CYS799  TRP800  GLU811  SER814 

> <Gold.Protein.RotatedAtoms>
  151.6872  133.3311  159.3233 H   0  0  0  0  0  0  0  0  0  0  0  0  # atno 6907 bound_to 6896
  150.7795  134.6730  159.6411 H   0  0  0  0  0  0  0  0  0  0  0  0  # atno 6908 bound_to 6896
  152.3849  134.6536  160.0181 H   0  0  0  0  0  0  0  0  0  0  0  0  # atno 6909 bound_to 6896
  146.0744  139.5306  142.9577 H   0  0  0  0  0  0  0  0  0  0  0  0  # atno 7974 bound_to 7965
  154.4153  140.1714  156.1866 H   0  0  0  0  0  0  0  0  0  0  0  0  # atno 8008 bound_to 7997
  155.9638  140.3391  155.6490 H   0  0  0  0  0  0  0  0  0  0  0  0  # atno 8009 bound_to 7997
  155.6714  140.0712  157.2509 H   0  0  0  0  0  0  0  0  0  0  0  0  # atno 8010 bound_to 7997
  140.5651  143.2314  151.6650 H   0  0  0  0  0  0  0  0  0  0  0  0  # atno 10167 bound_to 10162
  157.6568  130.9650  150.1132 H   0  0  0  0  0  0  0  0  0  0  0  0  # atno 10718 bound_to 10713
  152.9792  135.5944  154.3927 H   0  0  0  0  0  0  0  0  0  0  0  0  # atno 10763 bound_to 10752
  154.3580  135.2767  155.2337 H   0  0  0  0  0  0  0  0  0  0  0  0  # atno 10764 bound_to 10752
  154.4347  135.6028  153.6146 H   0  0  0  0  0  0  0  0  0  0  0  0  # atno 10765 bound_to 10752
  139.9308  134.9641  156.8243 H   0  0  0  0  0  0  0  0  0  0  0  0  # atno 11005 bound_to 11000
  145.6333  141.0300  143.1851 LP  0  0  0  0  0  0  0  0  0  0  0  0  # atno 17320 bound_to 7965
  144.7252  139.7899  143.7367 LP  0  0  0  0  0  0  0  0  0  0  0  0  # atno 17321 bound_to 7965
  139.5089  144.3595  152.0576 LP  0  0  0  0  0  0  0  0  0  0  0  0  # atno 17342 bound_to 10162
  140.2726  144.3947  150.6146 LP  0  0  0  0  0  0  0  0  0  0  0  0  # atno 17343 bound_to 10162
  156.2023  130.3661  149.8773 LP  0  0  0  0  0  0  0  0  0  0  0  0  # atno 17370 bound_to 10713
  156.6673  130.8806  151.3557 LP  0  0  0  0  0  0  0  0  0  0  0  0  # atno 17371 bound_to 10713
  140.6209  133.9995  155.7618 LP  0  0  0  0  0  0  0  0  0  0  0  0  # atno 17394 bound_to 11000
  141.0895  133.9939  157.3261 LP  0  0  0  0  0  0  0  0  0  0  0  0  # atno 17395 bound_to 11000

$$$$
