#       Name:                AV-unprocessed.smi:1391
#       Creating user name   scv26
#       Creation time:       Fri Mar 27 05:28:28 2020


#       File generated by GOLD software.
#

@<TRIPOS>MOLECULE
AV-unprocessed.smi:1391
    48    49     1
SMALL
NO_CHARGES


@<TRIPOS>ATOM
      1 ****        -1.4502   2.2459   0.2188 O.2            1 S1                 0.0000
      2 ****        -1.9581   1.3864   0.9402 C.2            1 S1                 0.0000
      3 ****        -3.4832   1.2865   1.0883 C.3            1 S1                 0.0000
      4 ****        -4.2106   1.7785  -0.0938 N.am           1 S1                 0.0000
      5 ****        -4.7472   3.0797  -0.0238 C.2            1 S1                 0.0000
      6 ****        -5.4211   3.6259  -1.0484 C.2            1 S1                 0.0000
      7 ****        -5.5910   2.8424  -2.2491 C.2            1 S1                 0.0000
      8 ****        -5.0798   1.5977  -2.3276 C.2            1 S1                 0.0000
      9 ****        -4.3411   0.9974  -1.2107 C.2            1 S1                 0.0000
     10 ****        -3.8651  -0.1366  -1.2757 O.2            1 S1                 0.0000
     11 ****        -1.2347   0.5025   1.6439 N.am           1 S1                 0.0000
     12 ****         0.2211   0.4210   1.6322 C.3            1 S1                 0.0000
     13 ****         0.7346  -0.3043   0.3719 C.3            1 S1                 0.0000
     14 ****         2.2197  -0.3479   0.2920 N.4            1 S1                 1.0000
     15 ****         2.7034  -0.6716  -1.0795 C.3            1 S1                 0.0000
     16 ****         2.7962  -2.1780  -1.3883 C.3            1 S1                 0.0000
     17 ****         4.1756  -2.7661  -1.0527 C.3            1 S1                 0.0000
     18 ****         4.4711  -2.8541   0.4502 C.3            1 S1                 0.0000
     19 ****         4.3104  -1.5238   1.2055 C.3            1 S1                 0.0000
     20 ****         2.8358  -1.1233   1.4074 C.3            1 S1                 0.0000
     21 ****        -3.7654   0.2518   1.2928 H              1 S1                 0.0000
     22 ****        -3.7737   1.8437   1.9800 H              1 S1                 0.0000
     23 ****        -4.5702   3.6025   0.9048 H              1 S1                 0.0000
     24 ****        -5.8215   4.6265  -0.9782 H              1 S1                 0.0000
     25 ****        -6.1282   3.2572  -3.0892 H              1 S1                 0.0000
     26 ****        -5.2150   1.0268  -3.2346 H              1 S1                 0.0000
     27 ****        -1.7279  -0.1645   2.2204 H              1 S1                 0.0000
     28 ****         0.6525   1.4211   1.7027 H              1 S1                 0.0000
     29 ****         0.5188  -0.1127   2.5343 H              1 S1                 0.0000
     30 ****         0.3336  -1.3179   0.3266 H              1 S1                 0.0000
     31 ****         0.3466   0.2180  -0.5035 H              1 S1                 0.0000
     32 ****         2.0539  -0.1941  -1.8142 H              1 S1                 0.0000
     33 ****         3.6745  -0.1994  -1.2305 H              1 S1                 0.0000
     34 ****         1.9974  -2.7378  -0.9007 H              1 S1                 0.0000
     35 ****         2.6380  -2.3113  -2.4592 H              1 S1                 0.0000
     36 ****         4.2473  -3.7673  -1.4790 H              1 S1                 0.0000
     37 ****         4.9531  -2.1798  -1.5442 H              1 S1                 0.0000
     38 ****         3.8345  -3.6142   0.9049 H              1 S1                 0.0000
     39 ****         5.4936  -3.2112   0.5783 H              1 S1                 0.0000
     40 ****         4.7514  -1.6617   2.1936 H              1 S1                 0.0000
     41 ****         4.8870  -0.7237   0.7401 H              1 S1                 0.0000
     42 ****         2.7754  -0.5038   2.3022 H              1 S1                 0.0000
     43 ****         2.2414  -2.0136   1.6180 H              1 S1                 0.0000
     44 ****         2.5150   0.6078   0.4331 H              1 S1                 0.0000
     45 ****        -2.0324   2.8889  -0.2787 LP             1 S1                 0.0000
     46 ****        -0.4556   2.3007   0.1307 LP             1 S1                 0.0000
     47 ****        -3.3643  -0.5141  -0.4967 LP             1 S1                 0.0000
     48 ****        -3.9793  -0.6799  -2.1074 LP             1 S1                 0.0000
@<TRIPOS>BOND
    1    1    2 2     
    2    2    3 1     
    3    2   11 am    
    4    3    4 1     
    5    3   21 1     
    6    3   22 1     
    7    4    9 am    
    8    4    5 1     
    9    5    6 2     
   10    5   23 1     
   11    6    7 1     
   12    6   24 1     
   13    7    8 2     
   14    7   25 1     
   15    8    9 1     
   16    8   26 1     
   17    9   10 2     
   18   11   12 1     
   19   11   27 1     
   20   12   13 1     
   21   12   28 1     
   22   12   29 1     
   23   13   14 1     
   24   13   30 1     
   25   13   31 1     
   26   14   20 1     
   27   14   15 1     
   28   14   44 1     
   29   15   16 1     
   30   15   32 1     
   31   15   33 1     
   32   16   17 1     
   33   16   34 1     
   34   16   35 1     
   35   17   18 1     
   36   17   36 1     
   37   17   37 1     
   38   18   19 1     
   39   18   38 1     
   40   18   39 1     
   41   19   20 1     
   42   19   40 1     
   43   19   41 1     
   44   20   42 1     
   45   20   43 1     
   46    1   45 1     
   47    1   46 1     
   48   10   47 1     
   49   10   48 1     
@<TRIPOS>SUBSTRUCTURE
      1 S1             1
@<TRIPOS>SET
LONE_PAIRS      STATIC     ATOMS    <user>   **** ""
4 45 46 47 48
DONOR_HYDROGENS      STATIC     ATOMS    <user>   **** ""
2 27 44
ATOM$BLUE        STATIC     ATOMS    COLORGROUP SYSTEM
4 45 46 47 48
ATOM$RED        STATIC     ATOMS    COLORGROUP SYSTEM
2 27 44
