AV-unprocessed.smi:212|AV-procd|sdf|1623|dock7
  -GOLD-   2262019563D 1   1.00000     0.00000
 Structure written by MMmdl.
 65 68  0  0  0  0  0  0  0  0  2 V2000
  143.4296  137.3743  152.9947 C   0  0  0  0  0  0  0  0  0  0  0  0
  144.9536  137.3832  153.2024 C   0  0  2  0  0  0  0  0  0  0  0  0
  145.6948  136.5751  152.1163 C   0  0  0  0  0  0  0  0  0  0  0  0
  145.4982  135.1115  152.2925 N   0  3  1  0  0  0  0  0  0  0  0  0
  146.0881  134.3006  151.1949 C   0  0  0  0  0  0  0  0  0  0  0  0
  145.5481  132.8512  151.1691 C   0  0  0  0  0  0  0  0  0  0  0  0
  145.8060  132.2162  149.7921 C   0  0  0  0  0  0  0  0  0  0  0  0
  146.1602  131.9791  152.2815 C   0  0  0  0  0  0  0  0  0  0  0  0
  144.1455  132.8744  151.3450 O   0  0  0  0  0  0  0  0  0  0  0  0
  145.9065  134.6520  153.6437 C   0  0  0  0  0  0  0  0  0  0  0  0
  145.1806  135.4513  154.7417 C   0  0  0  0  0  0  0  0  0  0  0  0
  145.3214  136.8935  154.5336 N   0  0  0  0  0  0  0  0  0  0  0  0
  146.3456  137.5451  155.1448 C   0  0  0  0  0  0  0  0  0  0  0  0
  146.8649  137.0587  156.3037 N   0  0  0  0  0  0  0  0  0  0  0  0
  147.8801  137.6857  156.9057 C   0  0  0  0  0  0  0  0  0  0  0  0
  148.5158  138.7963  156.5283 N   0  0  0  0  0  0  0  0  0  0  0  0
  147.9943  139.2942  155.3712 C   0  0  0  0  0  0  0  0  0  0  0  0
  146.9198  138.7381  154.6215 C   0  0  0  0  0  0  0  0  0  0  0  0
  146.6621  139.5290  153.5074 N   0  0  0  0  0  0  0  0  0  0  0  0
  147.5384  140.4930  153.5904 C   0  0  0  0  0  0  0  0  0  0  0  0
  148.3820  140.4247  154.6760 N   0  0  0  0  0  0  0  0  0  0  0  0
  149.4447  141.3539  155.0159 C   0  0  0  0  0  0  0  0  0  0  0  0
  150.2637  140.9160  156.2556 C   0  0  1  0  0  0  0  0  0  0  0  0
  151.5843  140.2024  155.8766 C   0  0  0  0  0  0  0  0  0  0  0  0
  151.4486  139.4654  154.6785 O   0  0  0  0  0  0  0  0  0  0  0  0
  150.4891  142.0972  157.2328 C   0  0  2  0  0  0  0  0  0  0  0  0
  151.3799  143.2074  156.7036 C   0  0  0  0  0  0  0  0  0  0  0  0
  151.7852  143.9315  157.9824 C   0  0  0  0  0  0  0  0  0  0  0  0
  151.8457  142.9272  158.9887 O   0  0  0  0  0  0  0  0  0  0  0  0
  151.2410  141.7274  158.5161 C   0  0  0  0  0  0  0  0  0  0  0  0
  143.1670  137.7971  152.0246 H   0  0  0  0  0  0  0  0  0  0  0  0
  142.9306  137.9723  153.7579 H   0  0  0  0  0  0  0  0  0  0  0  0
  143.0143  136.3672  153.0358 H   0  0  0  0  0  0  0  0  0  0  0  0
  145.2723  138.4194  153.0907 H   0  0  0  0  0  0  0  0  0  0  0  0
  145.3597  136.8894  151.1281 H   0  0  0  0  0  0  0  0  0  0  0  0
  146.7628  136.7946  152.1652 H   0  0  0  0  0  0  0  0  0  0  0  0
  145.9256  134.7923  150.2338 H   0  0  0  0  0  0  0  0  0  0  0  0
  147.1718  134.2553  151.3155 H   0  0  0  0  0  0  0  0  0  0  0  0
  146.8740  132.1525  149.5810 H   0  0  0  0  0  0  0  0  0  0  0  0
  145.3474  132.7985  148.9918 H   0  0  0  0  0  0  0  0  0  0  0  0
  145.4007  131.2051  149.7356 H   0  0  0  0  0  0  0  0  0  0  0  0
  147.2472  131.9433  152.2002 H   0  0  0  0  0  0  0  0  0  0  0  0
  145.7940  130.9531  152.2270 H   0  0  0  0  0  0  0  0  0  0  0  0
  145.9155  132.3560  153.2754 H   0  0  0  0  0  0  0  0  0  0  0  0
  143.9449  133.4079  152.0992 H   0  0  0  0  0  0  0  0  0  0  0  0
  145.6765  133.5921  153.7586 H   0  0  0  0  0  0  0  0  0  0  0  0
  146.9875  134.7558  153.7469 H   0  0  0  0  0  0  0  0  0  0  0  0
  144.1186  135.2055  154.7319 H   0  0  0  0  0  0  0  0  0  0  0  0
  145.5406  135.1602  155.7294 H   0  0  0  0  0  0  0  0  0  0  0  0
  148.2340  137.2331  157.8202 H   0  0  0  0  0  0  0  0  0  0  0  0
  147.5985  141.2822  152.8548 H   0  0  0  0  0  0  0  0  0  0  0  0
  150.0986  141.4638  154.1497 H   0  0  0  0  0  0  0  0  0  0  0  0
  148.9875  142.3296  155.1814 H   0  0  0  0  0  0  0  0  0  0  0  0
  149.6617  140.1762  156.7851 H   0  0  0  0  0  0  0  0  0  0  0  0
  152.3938  140.9217  155.7554 H   0  0  0  0  0  0  0  0  0  0  0  0
  151.9053  139.5262  156.6690 H   0  0  0  0  0  0  0  0  0  0  0  0
  151.4892  138.5442  154.8857 H   0  0  0  0  0  0  0  0  0  0  0  0
  149.5272  142.5309  157.5108 H   0  0  0  0  0  0  0  0  0  0  0  0
  152.2613  142.7903  156.2143 H   0  0  0  0  0  0  0  0  0  0  0  0
  150.8749  143.8662  155.9966 H   0  0  0  0  0  0  0  0  0  0  0  0
  152.7358  144.4562  157.8825 H   0  0  0  0  0  0  0  0  0  0  0  0
  151.0235  144.6596  158.2642 H   0  0  0  0  0  0  0  0  0  0  0  0
  150.5854  141.2967  159.2735 H   0  0  0  0  0  0  0  0  0  0  0  0
  152.0330  141.0067  158.3079 H   0  0  0  0  0  0  0  0  0  0  0  0
  144.5018  134.9545  152.2413 H   0  0  0  0  0  0  0  0  0  0  0  0
  1  2  1  0  0  0  0
  1 31  1  0  0  0  0
  1 32  1  0  0  0  0
  1 33  1  0  0  0  0
  2 12  1  0  0  0  0
  2  3  1  0  0  0  0
  2 34  1  0  0  0  0
  3  4  1  0  0  0  0
  3 35  1  0  0  0  0
  3 36  1  0  0  0  0
  4  5  1  0  0  0  0
  4 10  1  0  0  0  0
  4 65  1  0  0  0  0
  5  6  1  0  0  0  0
  5 37  1  0  0  0  0
  5 38  1  0  0  0  0
  6  7  1  0  0  0  0
  6  8  1  0  0  0  0
  6  9  1  0  0  0  0
  7 39  1  0  0  0  0
  7 40  1  0  0  0  0
  7 41  1  0  0  0  0
  8 42  1  0  0  0  0
  8 43  1  0  0  0  0
  8 44  1  0  0  0  0
  9 45  1  0  0  0  0
 10 11  1  0  0  0  0
 10 46  1  0  0  0  0
 10 47  1  0  0  0  0
 11 12  1  0  0  0  0
 11 48  1  0  0  0  0
 11 49  1  0  0  0  0
 12 13  1  0  0  0  0
 13 18  1  0  0  0  0
 13 14  2  0  0  0  0
 14 15  1  0  0  0  0
 15 16  2  0  0  0  0
 15 50  1  0  0  0  0
 16 17  1  0  0  0  0
 17 21  1  0  0  0  0
 17 18  2  0  0  0  0
 18 19  1  0  0  0  0
 19 20  2  0  0  0  0
 20 21  1  0  0  0  0
 20 51  1  0  0  0  0
 21 22  1  0  0  0  0
 22 23  1  0  0  0  0
 22 52  1  0  0  0  0
 22 53  1  0  0  0  0
 23 24  1  0  0  0  0
 23 26  1  0  0  0  0
 23 54  1  0  0  0  0
 24 25  1  0  0  0  0
 24 55  1  0  0  0  0
 24 56  1  0  0  0  0
 25 57  1  0  0  0  0
 26 30  1  0  0  0  0
 26 27  1  0  0  0  0
 26 58  1  0  0  0  0
 27 28  1  0  0  0  0
 27 59  1  0  0  0  0
 27 60  1  0  0  0  0
 28 29  1  0  0  0  0
 28 61  1  0  0  0  0
 28 62  1  0  0  0  0
 29 30  1  0  0  0  0
 30 63  1  0  0  0  0
 30 64  1  0  0  0  0
M  CHG  1   4   1
M  END
> <s_m_source_file>
AV-unprocessed.smi

> <i_m_source_file_index>
212

> <i_lp_mmshare_version>
43012

> <i_f3d_flags>
0

> <s_epik_input>
W0NIM11bQ0BASF0xW0NIMl1OKFtDSDJdQyhbQ0gzXSkoW0NIM10pW09IXSlbQ0gyXVtDSDJdTjFjKG5bY0hdbjIpYyhjMjMpbltjSF1uM1tDSDJdW0NASF0oW0NIMl1bT0hdKVtDQEBIXTRbQ0gyXVtDSDJdT1tDSDJdNA==

> <s_epik_cmdline>
J2VwaWtfcHl0aG9uJywgJy1waCcsICc3LjAnLCAnLXRuJywgJzgnLCAnLW1hJywgJzIwMCcsICctbWV0YWxfYmluZGluZycsICctaW1hZScsICc8aW5maWxlLm1hZT4nLCAnLW9tYWUnLCAnPG91dGZpbGUubWFlPic=

> <r_lp_tautomer_probability>
1

> <r_epik_Ionization_Penalty>
0.00182193

> <r_epik_Ionization_Penalty_Charging>
0.00173996

> <r_epik_Ionization_Penalty_Neutral>
8.19718e-05

> <r_epik_State_Penalty>
-0

> <r_epik_Charging_Adjusted_Penalty>
0.00173996

> <i_epik_Tot_Q>
1

> <i_epik_Tot_abs_Q>
1

> <r_epik_Metal_State_Penalty>
-0

> <b_epik_Metal_Only>
0

> <s_lp_Force_Field>
OPLS_2005

> <r_lp_Energy>
57.8669

> <b_lp_Chiralities_Consistent>
1

> <s_lp_Variant>
AV-unprocessed.smi:212-7

> <Gold.Version>
5.8.1

> <Gold.Id.Protein>
6NUR|6NUR_protein|mol2

> <Gold.PLP.Fitness>
40.3232

> <Gold.PLP.PLP>
-38.6718

> <Gold.PLP.part.hbond>
-1.0000

> <Gold.PLP.part.metal>
0.0000

> <Gold.PLP.part.buried>
-4.8723

> <Gold.PLP.part.nonpolar>
-33.9304

> <Gold.PLP.part.repulsive>
0.2117

> <Gold.PLP.ligand.clash>
0.0000

> <Gold.PLP.ligand.torsion>
1.3310

> <Gold.PLP.Chemscore.Hbond>
1.0000

> <Gold.PLP.Chemscore.CHOScore>
0.0592

> <Gold.PLP.Chemscore.Metal>
0.0000

> <Gold.Chemscore.Hbonds>
donor molecule, donor type, donor heavy atom, donor atom, acceptor molecule, acceptor atom, score
      P1  H  7989  7998       L1    25  0.90
      L1  C    20    51       P1  7957  0.04

> <Gold.PLP.Chemscore.Internal.Correction>
1.1358

> <Gold.Rescore>
     Score         DG    S(hbond)    S(metal)    S(lipo)     H(rot)  DE(clash)    DE(int)     intcor
      6.89     -11.96       0.93        0.00     103.08       3.40       0.55       4.52       ----

> <Gold.Chemscore.Fitness>
6.8903

> <Gold.Chemscore.DG>
-11.9621

> <Gold.Chemscore.ZeroCoef>
-5.4800

> <Gold.Chemscore.Hbond>
0.9350

> <Gold.Chemscore.Metal>
0.0000

> <Gold.Chemscore.Lipo>
103.0755

> <Gold.Chemscore.Internal_Hbond>
0.0000

> <Gold.Chemscore.DEClash>
0.5501

> <Gold.Chemscore.DEInternal>
4.5217

> <Gold.Chemscore.Rot>
3.3986

> <Gold.Chemscore.Internal.Correction>
   9.000000E+99

> <Gold.Chemscore.Hbonds>
donor molecule, donor type, donor heavy atom, donor atom, acceptor molecule, acceptor atom, score
      P1  H  7989  7998       L1    25  0.18

> <Gold.Chemscore.Hbond.Weighted>
-3.1227

> <Gold.Chemscore.Metal.Weighted>
-0.0000

> <Gold.Chemscore.Lipo.Weighted>
-12.0598

> <Gold.Chemscore.Internal_Hbond.Weighted>
0.0000

> <Gold.Chemscore.DEClash.Weighted>
0.5501

> <Gold.Chemscore.DEInternal.Weighted>
4.5217

> <Gold.Chemscore.Rot.Weighted>
8.7005

> <Gold.Chemscore.Internal.Correction.Weighted>
   9.000000E+99

> <Gold.Protein.RotatedTorsions>
[ 6907 6896 6895 6894 ] final  -45.18 input  -60.11 | X-H torsion
[ 7974 7965 7964 7962 ] final -161.92 input  175.53 | X-H torsion
[ 8008 7997 7996 7995 ] final   72.39 input   59.86 | X-H torsion
[ 10167 10162 10161 10158 ] final -121.05 input  -65.29 | X-H torsion
[ 10718 10713 10712 10709 ] final  112.12 input   66.30 | X-H torsion
[ 10763 10752 10751 10750 ] final   -7.69 input  -60.55 | X-H torsion
[ 11005 11000 10999 10996 ] final   43.89 input  -57.11 | X-H torsion

> <Gold.Protein.ActiveResidues>
 VAL166  LYS551  ARG553  GLY616  TRP617  ASP618  TYR619  PRO620  LYS621  CYS622 
 ASP623  PHE694  ASN695  SER759  ASP760  ASP761  ALA762  ILE779  LEU786  VAL792 
 PHE793  MET794  SER795  GLU796  ALA797  LYS798  CYS799  TRP800  GLU811  SER814 

> <Gold.Protein.RotatedAtoms>
  150.9248  134.8665  159.7512 H   0  0  0  0  0  0  0  0  0  0  0  0  # atno 6907 bound_to 6896
  152.5010  134.4165  159.9476 H   0  0  0  0  0  0  0  0  0  0  0  0  # atno 6908 bound_to 6896
  151.4197  133.3662  159.2789 H   0  0  0  0  0  0  0  0  0  0  0  0  # atno 6909 bound_to 6896
  144.7374  140.3327  143.6150 H   0  0  0  0  0  0  0  0  0  0  0  0  # atno 7974 bound_to 7965
  155.7682  140.3485  155.5233 H   0  0  0  0  0  0  0  0  0  0  0  0  # atno 8008 bound_to 7997
  155.8848  140.1008  157.1481 H   0  0  0  0  0  0  0  0  0  0  0  0  # atno 8009 bound_to 7997
  154.4028  140.1315  156.4228 H   0  0  0  0  0  0  0  0  0  0  0  0  # atno 8010 bound_to 7997
  140.0293  143.5265  152.2184 H   0  0  0  0  0  0  0  0  0  0  0  0  # atno 10167 bound_to 10162
  157.6409  131.0962  150.6849 H   0  0  0  0  0  0  0  0  0  0  0  0  # atno 10718 bound_to 10713
  153.4299  135.7012  153.6237 H   0  0  0  0  0  0  0  0  0  0  0  0  # atno 10763 bound_to 10752
  153.4656  135.3726  155.2363 H   0  0  0  0  0  0  0  0  0  0  0  0  # atno 10764 bound_to 10752
  154.8725  135.4030  154.3681 H   0  0  0  0  0  0  0  0  0  0  0  0  # atno 10765 bound_to 10752
  140.1602  134.4350  155.8322 H   0  0  0  0  0  0  0  0  0  0  0  0  # atno 11005 bound_to 11000
  145.7455  139.1777  143.2351 LP  0  0  0  0  0  0  0  0  0  0  0  0  # atno 17320 bound_to 7965
  146.1101  140.7438  142.9507 LP  0  0  0  0  0  0  0  0  0  0  0  0  # atno 17321 bound_to 7965
  139.6087  144.7603  151.3002 LP  0  0  0  0  0  0  0  0  0  0  0  0  # atno 17342 bound_to 10162
  140.7309  143.6867  150.7956 LP  0  0  0  0  0  0  0  0  0  0  0  0  # atno 17343 bound_to 10162
  156.7173  130.4670  149.5532 LP  0  0  0  0  0  0  0  0  0  0  0  0  # atno 17370 bound_to 10713
  156.1689  130.6424  151.0813 LP  0  0  0  0  0  0  0  0  0  0  0  0  # atno 17371 bound_to 10713
  141.2208  133.6910  156.7580 LP  0  0  0  0  0  0  0  0  0  0  0  0  # atno 17394 bound_to 11000
  140.2499  134.8549  157.3657 LP  0  0  0  0  0  0  0  0  0  0  0  0  # atno 17395 bound_to 11000

$$$$
