AV-unprocessed.smi:2979|AV-procd|sdf|11371|dock2
  -GOLD-   2272016293D 1   1.00000     0.00000
 Structure written by MMmdl.
 36 37  0  0  0  0  0  0  0  0  2 V2000
  153.7449  137.8959  159.0440 C   0  0  0  0  0  0  0  0  0  0  0  0
  154.2948  139.1417  158.6527 O   0  0  0  0  0  0  0  0  0  0  0  0
  153.6133  140.2409  159.2308 C   0  0  0  0  0  0  0  0  0  0  0  0
  152.1681  140.2511  158.7134 C   0  0  0  0  0  0  0  0  0  0  0  0
  151.7096  141.6031  158.3629 N   0  0  0  0  0  0  0  0  0  0  0  0
  151.1065  142.0759  157.2326 C   0  0  0  0  0  0  0  0  0  0  0  0
  150.7569  141.3040  156.0010 C   0  0  0  0  0  0  0  0  0  0  0  0
  149.2549  141.3819  155.6940 C   0  0  0  0  0  0  0  0  0  0  0  0
  148.8538  140.5071  154.5000 C   0  0  0  0  0  0  0  0  0  0  0  0
  149.7532  140.7189  153.4338 O   0  0  0  0  0  0  0  0  0  0  0  0
  150.8974  143.4104  157.4164 N   0  3  0  0  0  0  0  0  0  0  0  0
  151.3619  143.7939  158.6750 C   0  0  0  0  0  0  0  0  0  0  0  0
  151.3688  145.0343  159.3055 C   0  0  0  0  0  0  0  0  0  0  0  0
  151.9248  145.0824  160.6011 C   0  0  0  0  0  0  0  0  0  0  0  0
  152.4430  143.9268  161.2212 C   0  0  0  0  0  0  0  0  0  0  0  0
  152.4288  142.6747  160.5722 C   0  0  0  0  0  0  0  0  0  0  0  0
  151.8811  142.6370  159.2902 C   0  0  0  0  0  0  0  0  0  0  0  0
  154.3072  137.0856  158.5803 H   0  0  0  0  0  0  0  0  0  0  0  0
  152.7048  137.8077  158.7275 H   0  0  0  0  0  0  0  0  0  0  0  0
  153.7947  137.7641  160.1257 H   0  0  0  0  0  0  0  0  0  0  0  0
  153.6294  140.1563  160.3182 H   0  0  0  0  0  0  0  0  0  0  0  0
  154.1174  141.1713  158.9677 H   0  0  0  0  0  0  0  0  0  0  0  0
  152.0844  139.6225  157.8271 H   0  0  0  0  0  0  0  0  0  0  0  0
  151.4847  139.8343  159.4541 H   0  0  0  0  0  0  0  0  0  0  0  0
  151.3384  141.6812  155.1596 H   0  0  0  0  0  0  0  0  0  0  0  0
  151.0551  140.2643  156.1407 H   0  0  0  0  0  0  0  0  0  0  0  0
  148.6885  141.0767  156.5750 H   0  0  0  0  0  0  0  0  0  0  0  0
  148.9772  142.4160  155.4898 H   0  0  0  0  0  0  0  0  0  0  0  0
  148.8685  139.4513  154.7728 H   0  0  0  0  0  0  0  0  0  0  0  0
  147.8437  140.7466  154.1663 H   0  0  0  0  0  0  0  0  0  0  0  0
  149.5804  140.0778  152.7613 H   0  0  0  0  0  0  0  0  0  0  0  0
  150.9722  145.9205  158.8322 H   0  0  0  0  0  0  0  0  0  0  0  0
  151.9546  146.0245  161.1294 H   0  0  0  0  0  0  0  0  0  0  0  0
  152.8611  144.0018  162.2146 H   0  0  0  0  0  0  0  0  0  0  0  0
  152.8295  141.7953  161.0543 H   0  0  0  0  0  0  0  0  0  0  0  0
  150.4676  144.0140  156.7271 H   0  0  0  0  0  0  0  0  0  0  0  0
  1  2  1  0  0  0  0
  1 18  1  0  0  0  0
  1 19  1  0  0  0  0
  1 20  1  0  0  0  0
  2  3  1  0  0  0  0
  3  4  1  0  0  0  0
  3 21  1  0  0  0  0
  3 22  1  0  0  0  0
  4  5  1  0  0  0  0
  4 23  1  0  0  0  0
  4 24  1  0  0  0  0
  5 17  1  0  0  0  0
  5  6  1  0  0  0  0
  6  7  1  0  0  0  0
  6 11  2  0  0  0  0
  7  8  1  0  0  0  0
  7 25  1  0  0  0  0
  7 26  1  0  0  0  0
  8  9  1  0  0  0  0
  8 27  1  0  0  0  0
  8 28  1  0  0  0  0
  9 10  1  0  0  0  0
  9 29  1  0  0  0  0
  9 30  1  0  0  0  0
 10 31  1  0  0  0  0
 11 12  1  0  0  0  0
 11 36  1  0  0  0  0
 12 17  2  0  0  0  0
 12 13  1  0  0  0  0
 13 14  2  0  0  0  0
 13 32  1  0  0  0  0
 14 15  1  0  0  0  0
 14 33  1  0  0  0  0
 15 16  2  0  0  0  0
 15 34  1  0  0  0  0
 16 17  1  0  0  0  0
 16 35  1  0  0  0  0
M  CHG  1  11   1
M  END
> <s_m_source_file>
AV-unprocessed.smi

> <i_m_source_file_index>
2979

> <i_lp_mmshare_version>
43012

> <i_f3d_flags>
0

> <s_epik_input>
W2NIXTFbY0hdW2NIXVtjSF1jKGMxMiluKFtDSDJdW0NIMl1PW0NIM10pYyhuMilbQ0gyXVtDSDJdW0NIMl1bT0hd

> <s_epik_cmdline>
J2VwaWtfcHl0aG9uJywgJy1waCcsICc3LjAnLCAnLXRuJywgJzgnLCAnLW1hJywgJzIwMCcsICctbWV0YWxfYmluZGluZycsICctaW1hZScsICc8aW5maWxlLm1hZT4nLCAnLW9tYWUnLCAnPG91dGZpbGUubWFlPic=

> <r_epik_Ionization_Penalty>
0.784545

> <r_epik_Ionization_Penalty_Charging>
0.784544

> <r_epik_Ionization_Penalty_Neutral>
1.64912e-07

> <r_epik_State_Penalty>
0.814415

> <r_epik_Charging_Adjusted_Penalty>
1.59896

> <i_epik_Tot_Q>
1

> <i_epik_Tot_abs_Q>
1

> <r_epik_Metal_State_Penalty>
4.73458

> <b_epik_Metal_Only>
0

> <s_lp_Force_Field>
OPLS_2005

> <r_lp_Energy>
12.3561

> <b_lp_Chiralities_Consistent>
1

> <s_lp_Variant>
AV-unprocessed.smi:2979-2

> <Gold.Version>
5.8.1

> <Gold.Id.Protein>
6NUR|6NUR_protein|mol2

> <Gold.PLP.Fitness>
56.6951

> <Gold.PLP.PLP>
-42.2024

> <Gold.PLP.part.hbond>
-4.1929

> <Gold.PLP.part.metal>
0.0000

> <Gold.PLP.part.buried>
-4.6085

> <Gold.PLP.part.nonpolar>
-32.2341

> <Gold.PLP.part.repulsive>
0.0000

> <Gold.PLP.ligand.clash>
0.0000

> <Gold.PLP.ligand.torsion>
0.4461

> <Gold.PLP.Chemscore.Hbond>
5.1040

> <Gold.PLP.Chemscore.CHOScore>
0.0000

> <Gold.PLP.Chemscore.Metal>
0.0000

> <Gold.Chemscore.Hbonds>
donor molecule, donor type, donor heavy atom, donor atom, acceptor molecule, acceptor atom, score
      L1  H    10    31       P1  7957  0.72
      L1  H    11    36       P1  8028  2.00
      P1  H  7989  7998       L1    10  0.35
      P1  H  7997  8008       L1     2  1.00
      P1  H  8011  8017       L1    10  1.00

> <Gold.PLP.Chemscore.Internal.Correction>
0.0728

> <Gold.Rescore>
     Score         DG    S(hbond)    S(metal)    S(lipo)     H(rot)  DE(clash)    DE(int)     intcor
     20.47     -20.97       2.87        0.00     106.02       2.54       0.06       0.44       ----

> <Gold.Chemscore.Fitness>
20.4702

> <Gold.Chemscore.DG>
-20.9662

> <Gold.Chemscore.ZeroCoef>
-5.4800

> <Gold.Chemscore.Hbond>
2.8661

> <Gold.Chemscore.Metal>
0.0000

> <Gold.Chemscore.Lipo>
106.0171

> <Gold.Chemscore.Internal_Hbond>
0.0000

> <Gold.Chemscore.DEClash>
0.0562

> <Gold.Chemscore.DEInternal>
0.4398

> <Gold.Chemscore.Rot>
2.5353

> <Gold.Chemscore.Internal.Correction>
   9.000000E+99

> <Gold.Chemscore.Hbonds>
donor molecule, donor type, donor heavy atom, donor atom, acceptor molecule, acceptor atom, score
      L1  H    10    31       P1  7957  0.71
      L1  H    11    36       P1  8028  0.92
      P1  H  7989  7998       L1    10  0.18
      P1  H  7997  8008       L1     2  0.25
      P1  H  8011  8017       L1    10  0.24

> <Gold.Chemscore.Hbond.Weighted>
-9.5727

> <Gold.Chemscore.Metal.Weighted>
-0.0000

> <Gold.Chemscore.Lipo.Weighted>
-12.4040

> <Gold.Chemscore.Internal_Hbond.Weighted>
0.0000

> <Gold.Chemscore.DEClash.Weighted>
0.0562

> <Gold.Chemscore.DEInternal.Weighted>
0.4398

> <Gold.Chemscore.Rot.Weighted>
6.4905

> <Gold.Chemscore.Internal.Correction.Weighted>
   9.000000E+99

> <Gold.Protein.RotatedTorsions>
[ 6907 6896 6895 6894 ] final  -56.54 input  -60.11 | X-H torsion
[ 7974 7965 7964 7962 ] final  -37.81 input  175.53 | X-H torsion
[ 8008 7997 7996 7995 ] final -128.69 input   59.86 | X-H torsion
[ 10167 10162 10161 10158 ] final   -4.23 input  -65.29 | X-H torsion
[ 10718 10713 10712 10709 ] final -119.48 input   66.30 | X-H torsion
[ 10763 10752 10751 10750 ] final   -9.48 input  -60.55 | X-H torsion
[ 11005 11000 10999 10996 ] final  102.90 input  -57.11 | X-H torsion

> <Gold.Protein.ActiveResidues>
 VAL166  LYS551  ARG553  GLY616  TRP617  ASP618  TYR619  PRO620  LYS621  CYS622 
 ASP623  PHE694  ASN695  SER759  ASP760  ASP761  ALA762  ILE779  LEU786  VAL792 
 PHE793  MET794  SER795  GLU796  ALA797  LYS798  CYS799  TRP800  GLU811  SER814 

> <Gold.Protein.RotatedAtoms>
  150.8159  134.7340  159.6729 H   0  0  0  0  0  0  0  0  0  0  0  0  # atno 6907 bound_to 6896
  152.4278  134.5833  159.9963 H   0  0  0  0  0  0  0  0  0  0  0  0  # atno 6908 bound_to 6896
  151.6030  133.3317  159.3087 H   0  0  0  0  0  0  0  0  0  0  0  0  # atno 6909 bound_to 6896
  146.0542  140.6439  142.9027 H   0  0  0  0  0  0  0  0  0  0  0  0  # atno 7974 bound_to 7965
  155.2668  140.0438  157.3003 H   0  0  0  0  0  0  0  0  0  0  0  0  # atno 8008 bound_to 7997
  154.5677  140.2365  155.8207 H   0  0  0  0  0  0  0  0  0  0  0  0  # atno 8009 bound_to 7997
  156.2098  140.3002  155.9715 H   0  0  0  0  0  0  0  0  0  0  0  0  # atno 8010 bound_to 7997
  140.6920  143.6448  150.8403 H   0  0  0  0  0  0  0  0  0  0  0  0  # atno 10167 bound_to 10162
  156.1185  130.6304  150.9422 H   0  0  0  0  0  0  0  0  0  0  0  0  # atno 10718 bound_to 10713
  153.4553  135.7015  153.6083 H   0  0  0  0  0  0  0  0  0  0  0  0  # atno 10763 bound_to 10752
  153.4400  135.3782  155.2222 H   0  0  0  0  0  0  0  0  0  0  0  0  # atno 10764 bound_to 10752
  154.8728  135.3971  154.3972 H   0  0  0  0  0  0  0  0  0  0  0  0  # atno 10765 bound_to 10752
  139.8780  134.9242  156.5127 H   0  0  0  0  0  0  0  0  0  0  0  0  # atno 11005 bound_to 11000
  144.7139  140.4139  143.7059 LP  0  0  0  0  0  0  0  0  0  0  0  0  # atno 17320 bound_to 7965
  145.6672  139.1592  143.2775 LP  0  0  0  0  0  0  0  0  0  0  0  0  # atno 17321 bound_to 7965
  140.0162  143.5590  152.2819 LP  0  0  0  0  0  0  0  0  0  0  0  0  # atno 17342 bound_to 10162
  139.6332  144.7647  151.2492 LP  0  0  0  0  0  0  0  0  0  0  0  0  # atno 17343 bound_to 10162
  157.6368  131.0915  150.8332 LP  0  0  0  0  0  0  0  0  0  0  0  0  # atno 17370 bound_to 10713
  156.8432  130.5055  149.5319 LP  0  0  0  0  0  0  0  0  0  0  0  0  # atno 17371 bound_to 10713
  140.8508  133.8133  155.9167 LP  0  0  0  0  0  0  0  0  0  0  0  0  # atno 17394 bound_to 11000
  140.9146  134.2218  157.4965 LP  0  0  0  0  0  0  0  0  0  0  0  0  # atno 17395 bound_to 11000

$$$$
