#       Name:                AV-unprocessed.smi:1285
#       Creating user name   scv26
#       Creation time:       Fri Mar 27 04:51:14 2020


#       File generated by GOLD software.
#

@<TRIPOS>MOLECULE
AV-unprocessed.smi:1285
    53    54     1
SMALL
NO_CHARGES


@<TRIPOS>ATOM
      1 ****        -3.2865  -0.7808   0.4498 C.3            1 S1                 0.0000
      2 ****        -1.7540  -0.6496   0.5180 C.3            1 S1                 0.0000
      3 ****        -1.0756   0.0241  -0.7173 C.3            1 S1                 0.0000
      4 ****        -1.5177   1.5126  -0.6998 C.3            1 S1                 0.0000
      5 ****         0.4756  -0.0250  -0.5279 C.3            1 S1                 0.0000
      6 ****         0.9481   0.6773   0.6655 N.am           1 S1                 0.0000
      7 ****         1.3516   0.1005   1.8093 C.2            1 S1                 0.0000
      8 ****         1.3746  -1.1191   1.9782 O.2            1 S1                 0.0000
      9 ****         1.7842   1.0528   2.9343 C.3            1 S1                 0.0000
     10 ****         1.4358   0.5049   4.3333 C.3            1 S1                 0.0000
     11 ****         3.1987   1.3791   2.8007 N.pl3          1 S1                 0.0000
     12 ****         3.7851   2.4161   2.1982 C.2            1 S1                 0.0000
     13 ****         5.1098   2.3771   2.2250 N.2            1 S1                 0.0000
     14 ****         5.2894   1.1998   2.8941 C.2            1 S1                 0.0000
     15 ****         4.1784   0.5563   3.2520 N.2            1 S1                 0.0000
     16 ****        -1.5051  -0.6343  -1.9837 N.3            1 S1                 0.0000
     17 ****        -1.0458   0.0147  -3.2173 C.3            1 S1                 0.0000
     18 ****        -1.6547  -0.6366  -4.4710 C.3            1 S1                 0.0000
     19 ****        -1.3447  -2.0250  -4.4898 O.3            1 S1                 0.0000
     20 ****        -1.8213  -2.7036  -3.3339 C.3            1 S1                 0.0000
     21 ****        -1.2092  -2.0695  -2.0736 C.3            1 S1                 0.0000
     22 ****        -3.6654  -1.2720   1.3462 H              1 S1                 0.0000
     23 ****        -3.6071  -1.3761  -0.4049 H              1 S1                 0.0000
     24 ****        -3.7734   0.1917   0.3840 H              1 S1                 0.0000
     25 ****        -1.5217  -0.0880   1.4229 H              1 S1                 0.0000
     26 ****        -1.3239  -1.6356   0.6935 H              1 S1                 0.0000
     27 ****        -1.4270   1.9557   0.2926 H              1 S1                 0.0000
     28 ****        -2.5573   1.6276  -1.0077 H              1 S1                 0.0000
     29 ****        -0.9118   2.1269  -1.3660 H              1 S1                 0.0000
     30 ****         0.8348  -1.0542  -0.5148 H              1 S1                 0.0000
     31 ****         0.9772   0.4494  -1.3705 H              1 S1                 0.0000
     32 ****         0.9573   1.6857   0.6188 H              1 S1                 0.0000
     33 ****         1.2296   1.9846   2.8093 H              1 S1                 0.0000
     34 ****         0.3653   0.3182   4.4249 H              1 S1                 0.0000
     35 ****         1.7097   1.2194   5.1100 H              1 S1                 0.0000
     36 ****         1.9519  -0.4315   4.5494 H              1 S1                 0.0000
     37 ****         3.2314   3.2151   1.7272 H              1 S1                 0.0000
     38 ****         6.2680   0.8024   3.1193 H              1 S1                 0.0000
     39 ****        -1.3158   1.0692  -3.2279 H              1 S1                 0.0000
     40 ****         0.0404  -0.0364  -3.2906 H              1 S1                 0.0000
     41 ****        -2.7369  -0.4977  -4.4911 H              1 S1                 0.0000
     42 ****        -1.2554  -0.1708  -5.3720 H              1 S1                 0.0000
     43 ****        -2.9110  -2.6586  -3.2982 H              1 S1                 0.0000
     44 ****        -1.5461  -3.7563  -3.4002 H              1 S1                 0.0000
     45 ****        -0.1319  -2.2334  -2.0908 H              1 S1                 0.0000
     46 ****        -1.5967  -2.6053  -1.2093 H              1 S1                 0.0000
     47 ****         1.0835  -1.7313   1.2430 LP             1 S1                 0.0000
     48 ****         1.6843  -1.4973   2.8506 LP             1 S1                 0.0000
     49 ****         5.7820   3.0219   1.8613 LP             1 S1                 0.0000
     50 ****         4.0892  -0.3158   3.7333 LP             1 S1                 0.0000
     51 ****        -2.4963  -0.5187  -1.9193 LP             1 S1                 0.0000
     52 ****        -0.3516  -2.1316  -4.5379 LP             1 S1                 0.0000
     53 ****        -1.7637  -2.4366  -5.2992 LP             1 S1                 0.0000
@<TRIPOS>BOND
    1    1    2 1     
    2    1   22 1     
    3    1   23 1     
    4    1   24 1     
    5    2    3 1     
    6    2   25 1     
    7    2   26 1     
    8    3    4 1     
    9    3    5 1     
   10    3   16 1     
   11    4   27 1     
   12    4   28 1     
   13    4   29 1     
   14    5    6 1     
   15    5   30 1     
   16    5   31 1     
   17    6    7 am    
   18    6   32 1     
   19    7    8 2     
   20    7    9 1     
   21    9   10 1     
   22    9   11 1     
   23    9   33 1     
   24   10   34 1     
   25   10   35 1     
   26   10   36 1     
   27   11   15 1     
   28   11   12 1     
   29   12   13 2     
   30   12   37 1     
   31   13   14 1     
   32   14   15 2     
   33   14   38 1     
   34   16   21 1     
   35   16   17 1     
   36   17   18 1     
   37   17   39 1     
   38   17   40 1     
   39   18   19 1     
   40   18   41 1     
   41   18   42 1     
   42   19   20 1     
   43   20   21 1     
   44   20   43 1     
   45   20   44 1     
   46   21   45 1     
   47   21   46 1     
   48    8   47 1     
   49    8   48 1     
   50   13   49 1     
   51   15   50 1     
   52   16   51 1     
   53   19   52 1     
   54   19   53 1     
@<TRIPOS>SUBSTRUCTURE
      1 S1             1
@<TRIPOS>SET
LONE_PAIRS      STATIC     ATOMS    <user>   **** ""
7 47 48 49 50 51 52 53
DONOR_HYDROGENS      STATIC     ATOMS    <user>   **** ""
1 32
ATOM$BLUE        STATIC     ATOMS    COLORGROUP SYSTEM
7 47 48 49 50 51 52 53
ATOM$RED        STATIC     ATOMS    COLORGROUP SYSTEM
1 32
