#       Name:                AV-unprocessed.smi:2882
#       Creating user name   scv26
#       Creation time:       Fri Mar 27 15:54:49 2020


#       File generated by GOLD software.
#

@<TRIPOS>MOLECULE
AV-unprocessed.smi:2882
    33    35     1
SMALL
NO_CHARGES


@<TRIPOS>ATOM
      1 ****        -1.0519  -3.9984  -0.6350 N.1            1 S1                 0.0000
      2 ****        -1.5887  -2.9751  -0.5723 C.1            1 S1                 0.0000
      3 ****        -2.2635  -1.6858  -0.4931 C.ar           1 S1                 0.0000
      4 ****        -3.5943  -1.7096  -0.2489 N.ar           1 S1                 0.0000
      5 ****        -4.2292  -0.5210  -0.1676 C.ar           1 S1                 0.0000
      6 ****        -3.5398   0.6961  -0.3307 C.ar           1 S1                 0.0000
      7 ****        -2.2128   0.7291  -0.5751 N.ar           1 S1                 0.0000
      8 ****        -1.5618  -0.4581  -0.6563 C.ar           1 S1                 0.0000
      9 ****        -0.1783  -0.4398  -0.9113 N.pl3          1 S1                 0.0000
     10 ****         0.6043   0.7797  -0.7346 C.3            1 S1                 0.0000
     11 ****         2.0637   0.6207  -1.1674 C.3            1 S1                 0.0000
     12 ****         2.8177   1.0841   0.0873 C.3            1 S1                 0.0000
     13 ****         2.7664   0.0275   1.1984 C.3            1 S1                 0.0000
     14 ****         1.3153   0.1362   1.6625 C.3            1 S1                 0.0000
     15 ****         0.7642   1.2303   0.7319 C.3            1 S1                 0.0000
     16 ****         1.9156   2.0476   0.6051 O.3            1 S1                 0.0000
     17 ****        -5.2912  -0.5407   0.0275 H              1 S1                 0.0000
     18 ****        -4.0533   1.6439  -0.2654 H              1 S1                 0.0000
     19 ****         0.3204  -1.3178  -0.9293 H              1 S1                 0.0000
     20 ****         0.1575   1.5858  -1.3180 H              1 S1                 0.0000
     21 ****         2.3312  -0.3980  -1.4523 H              1 S1                 0.0000
     22 ****         2.2783   1.2745  -2.0133 H              1 S1                 0.0000
     23 ****         3.8192   1.4657  -0.1133 H              1 S1                 0.0000
     24 ****         3.0232  -0.9688   0.8370 H              1 S1                 0.0000
     25 ****         3.4478   0.2829   2.0107 H              1 S1                 0.0000
     26 ****         0.7716  -0.8058   1.5877 H              1 S1                 0.0000
     27 ****         1.2755   0.4643   2.7018 H              1 S1                 0.0000
     28 ****        -0.1059   1.7505   1.1330 H              1 S1                 0.0000
     29 ****        -0.5881  -4.8827  -0.6891 LP             1 S1                 0.0000
     30 ****        -4.0871  -2.5721  -0.1334 LP             1 S1                 0.0000
     31 ****        -1.7280   1.5959  -0.6918 LP             1 S1                 0.0000
     32 ****         1.7695   2.8046  -0.0318 LP             1 S1                 0.0000
     33 ****         2.2181   2.4081   1.4875 LP             1 S1                 0.0000
@<TRIPOS>BOND
    1    1    2 3     
    2    2    3 1     
    3    3    8 ar    
    4    3    4 ar    
    5    4    5 ar    
    6    5    6 ar    
    7    5   17 1     
    8    6    7 ar    
    9    6   18 1     
   10    7    8 ar    
   11    8    9 1     
   12    9   10 1     
   13    9   19 1     
   14   10   15 1     
   15   10   11 1     
   16   10   20 1     
   17   11   12 1     
   18   11   21 1     
   19   11   22 1     
   20   12   16 1     
   21   12   13 1     
   22   12   23 1     
   23   13   14 1     
   24   13   24 1     
   25   13   25 1     
   26   14   15 1     
   27   14   26 1     
   28   14   27 1     
   29   15   16 1     
   30   15   28 1     
   31    1   29 1     
   32    4   30 1     
   33    7   31 1     
   34   16   32 1     
   35   16   33 1     
@<TRIPOS>SUBSTRUCTURE
      1 S1             1
@<TRIPOS>SET
LONE_PAIRS      STATIC     ATOMS    <user>   **** ""
5 29 30 31 32 33
DONOR_HYDROGENS      STATIC     ATOMS    <user>   **** ""
1 19
ATOM$BLUE        STATIC     ATOMS    COLORGROUP SYSTEM
5 29 30 31 32 33
ATOM$RED        STATIC     ATOMS    COLORGROUP SYSTEM
1 19
