#       Name:                AV-unprocessed.smi:799
#       Creating user name   scv26
#       Creation time:       Fri Mar 27 01:22:07 2020


#       File generated by GOLD software.
#

@<TRIPOS>MOLECULE
AV-unprocessed.smi:799
    52    53     1
SMALL
NO_CHARGES


@<TRIPOS>ATOM
      1 ****        -5.2067   3.6790   0.3635 C.3            1 S1                 0.0000
      2 ****        -4.5251   2.3619   0.5893 C.2            1 S1                 0.0000
      3 ****        -3.1424   2.0521   0.4378 C.2            1 S1                 0.0000
      4 ****        -3.0917   0.7265   0.7724 C.2            1 S1                 0.0000
      5 ****        -2.0144  -0.1023   0.7893 N.am           1 S1                 0.0000
      6 ****        -0.7107   0.2192   0.7269 C.2            1 S1                 0.0000
      7 ****        -0.2660   1.3650   0.6579 O.2            1 S1                 0.0000
      8 ****         0.0555  -0.8850   0.7637 N.am           1 S1                 0.0000
      9 ****         1.5252  -0.9866   0.7791 C.3            1 S1                 0.0000
     10 ****         1.8531  -2.4943   0.8877 C.3            1 S1                 0.0000
     11 ****         2.0807  -0.2606   2.0397 C.3            1 S1                 0.0000
     12 ****         1.4528  -0.6936   3.2323 O.3            1 S1                 0.0000
     13 ****         2.1353  -0.3702  -0.5329 C.3            1 S1                 0.0000
     14 ****         1.4867  -0.8892  -1.8446 C.3            1 S1                 0.0000
     15 ****         2.0373  -0.1616  -3.0818 C.3            1 S1                 0.0000
     16 ****         3.5643  -0.2856  -3.1678 C.3            1 S1                 0.0000
     17 ****         4.2268   0.2265  -1.8821 C.3            1 S1                 0.0000
     18 ****         3.6771  -0.4991  -0.6431 C.3            1 S1                 0.0000
     19 ****        -4.3641   0.2973   1.0847 N.pl3          1 S1                 0.0000
     20 ****        -4.8383  -1.0105   1.4952 C.3            1 S1                 0.0000
     21 ****        -5.2452   1.3147   0.9750 N.2            1 S1                 0.0000
     22 ****        -4.5059   4.4262  -0.0095 H              1 S1                 0.0000
     23 ****        -5.6379   4.0615   1.2888 H              1 S1                 0.0000
     24 ****        -6.0108   3.5854  -0.3666 H              1 S1                 0.0000
     25 ****        -2.3399   2.7052   0.1295 H              1 S1                 0.0000
     26 ****        -2.2263  -1.0831   0.8981 H              1 S1                 0.0000
     27 ****        -0.4321  -1.7667   0.8212 H              1 S1                 0.0000
     28 ****         2.9232  -2.6724   0.9903 H              1 S1                 0.0000
     29 ****         1.5056  -3.0542   0.0201 H              1 S1                 0.0000
     30 ****         1.3767  -2.9434   1.7600 H              1 S1                 0.0000
     31 ****         3.1478  -0.4449   2.1584 H              1 S1                 0.0000
     32 ****         1.9621   0.8201   1.9600 H              1 S1                 0.0000
     33 ****         1.8198  -0.2107   3.9568 H              1 S1                 0.0000
     34 ****         1.9349   0.7010  -0.4991 H              1 S1                 0.0000
     35 ****         1.6652  -1.9583  -1.9572 H              1 S1                 0.0000
     36 ****         0.4051  -0.7590  -1.8274 H              1 S1                 0.0000
     37 ****         1.5815  -0.5673  -3.9853 H              1 S1                 0.0000
     38 ****         1.7568   0.8917  -3.0413 H              1 S1                 0.0000
     39 ****         3.8390  -1.3283  -3.3318 H              1 S1                 0.0000
     40 ****         3.9363   0.2731  -4.0270 H              1 S1                 0.0000
     41 ****         5.3068   0.0895  -1.9430 H              1 S1                 0.0000
     42 ****         4.0573   1.2996  -1.7845 H              1 S1                 0.0000
     43 ****         4.1681  -0.0849   0.2359 H              1 S1                 0.0000
     44 ****         3.9674  -1.5484  -0.6958 H              1 S1                 0.0000
     45 ****        -4.0300  -1.7412   1.4663 H              1 S1                 0.0000
     46 ****        -5.6339  -1.3402   0.8267 H              1 S1                 0.0000
     47 ****        -5.2273  -0.9558   2.5125 H              1 S1                 0.0000
     48 ****        -0.8923   2.1445   0.6449 LP             1 S1                 0.0000
     49 ****         0.7216   1.5164   0.6149 LP             1 S1                 0.0000
     50 ****         1.6144  -1.6718   3.3626 LP             1 S1                 0.0000
     51 ****         0.4691  -0.5227   3.1768 LP             1 S1                 0.0000
     52 ****        -6.2298   1.2859   1.1474 LP             1 S1                 0.0000
@<TRIPOS>BOND
    1    1    2 1     
    2    1   22 1     
    3    1   23 1     
    4    1   24 1     
    5    2   21 2     
    6    2    3 1     
    7    3    4 2     
    8    3   25 1     
    9    4    5 1     
   10    4   19 1     
   11    5    6 am    
   12    5   26 1     
   13    6    7 2     
   14    6    8 am    
   15    8    9 1     
   16    8   27 1     
   17    9   10 1     
   18    9   11 1     
   19    9   13 1     
   20   10   28 1     
   21   10   29 1     
   22   10   30 1     
   23   11   12 1     
   24   11   31 1     
   25   11   32 1     
   26   12   33 1     
   27   13   18 1     
   28   13   14 1     
   29   13   34 1     
   30   14   15 1     
   31   14   35 1     
   32   14   36 1     
   33   15   16 1     
   34   15   37 1     
   35   15   38 1     
   36   16   17 1     
   37   16   39 1     
   38   16   40 1     
   39   17   18 1     
   40   17   41 1     
   41   17   42 1     
   42   18   43 1     
   43   18   44 1     
   44   19   20 1     
   45   19   21 1     
   46   20   45 1     
   47   20   46 1     
   48   20   47 1     
   49    7   48 1     
   50    7   49 1     
   51   12   50 1     
   52   12   51 1     
   53   21   52 1     
@<TRIPOS>SUBSTRUCTURE
      1 S1             1
@<TRIPOS>SET
LONE_PAIRS      STATIC     ATOMS    <user>   **** ""
5 48 49 50 51 52
DONOR_HYDROGENS      STATIC     ATOMS    <user>   **** ""
3 26 27 33
ATOM$BLUE        STATIC     ATOMS    COLORGROUP SYSTEM
5 48 49 50 51 52
ATOM$RED        STATIC     ATOMS    COLORGROUP SYSTEM
3 26 27 33
