#       Name:                AV-unprocessed.smi:1603
#       Creating user name   scv26
#       Creation time:       Fri Mar 27 07:09:25 2020


#       File generated by GOLD software.
#

@<TRIPOS>MOLECULE
AV-unprocessed.smi:1603
    52    54     1
SMALL
NO_CHARGES


@<TRIPOS>ATOM
      1 ****        -2.9294   0.0502   1.9586 O.2            1 S1                 0.0000
      2 ****        -2.5745   0.8667   1.1081 C.2            1 S1                 0.0000
      3 ****        -2.9073   2.2981   1.1668 C.2            1 S1                 0.0000
      4 ****        -3.7658   2.7864   2.3307 C.3            1 S1                 0.0000
      5 ****        -4.0364   4.0887   2.2318 F              1 S1                 0.0000
      6 ****        -4.9265   2.1311   2.3674 F              1 S1                 0.0000
      7 ****        -3.1372   2.5863   3.4893 F              1 S1                 0.0000
      8 ****        -2.4611   3.1392   0.2022 C.2            1 S1                 0.0000
      9 ****        -1.6533   2.6367  -0.8909 C.2            1 S1                 0.0000
     10 ****        -1.1216   3.5135  -1.9882 C.3            1 S1                 0.0000
     11 ****        -1.9346   4.6398  -2.5846 C.3            1 S1                 0.0000
     12 ****        -1.6308   3.4086  -3.4067 C.3            1 S1                 0.0000
     13 ****        -1.3661   1.3795  -0.9421 N.2            1 S1                 0.0000
     14 ****        -1.8215   0.5073   0.0273 N.am           1 S1                 0.0000
     15 ****        -1.4017  -0.8846  -0.1784 C.3            1 S1                 0.0000
     16 ****        -0.0518  -1.1855   0.5100 C.3            1 S1                 0.0000
     17 ****        -0.3072  -1.6266   1.8298 O.3            1 S1                 0.0000
     18 ****         0.7105  -2.3195  -0.2062 C.3            1 S1                 0.0000
     19 ****         2.0426  -2.5855   0.3950 N.4            1 S1                 1.0000
     20 ****         2.5361  -3.9513   0.0971 C.3            1 S1                 0.0000
     21 ****         3.8855  -4.2000   0.7919 C.3            1 S1                 0.0000
     22 ****         4.8222  -3.2120   0.3812 O.3            1 S1                 0.0000
     23 ****         4.4032  -1.9010   0.7392 C.3            1 S1                 0.0000
     24 ****         3.0713  -1.5755   0.0421 C.3            1 S1                 0.0000
     25 ****        -2.6950   4.1929   0.2281 H              1 S1                 0.0000
     26 ****        -0.0564   3.6935  -1.8552 H              1 S1                 0.0000
     27 ****        -2.9615   4.7713  -2.2486 H              1 S1                 0.0000
     28 ****        -1.4078   5.5566  -2.8407 H              1 S1                 0.0000
     29 ****        -0.9025   3.5067  -4.2091 H              1 S1                 0.0000
     30 ****        -2.4538   2.7244  -3.6053 H              1 S1                 0.0000
     31 ****        -2.1731  -1.5934   0.1297 H              1 S1                 0.0000
     32 ****        -1.3002  -1.0437  -1.2538 H              1 S1                 0.0000
     33 ****         0.5543  -0.2803   0.5407 H              1 S1                 0.0000
     34 ****        -0.8394  -0.9779   2.2670 H              1 S1                 0.0000
     35 ****         0.1026  -3.2252  -0.1650 H              1 S1                 0.0000
     36 ****         0.8392  -2.0884  -1.2648 H              1 S1                 0.0000
     37 ****         1.8096  -4.6908   0.4358 H              1 S1                 0.0000
     38 ****         2.6422  -4.0757  -0.9818 H              1 S1                 0.0000
     39 ****         3.7745  -4.1851   1.8775 H              1 S1                 0.0000
     40 ****         4.2700  -5.1844   0.5246 H              1 S1                 0.0000
     41 ****         4.3061  -1.8195   1.8231 H              1 S1                 0.0000
     42 ****         5.1705  -1.1893   0.4343 H              1 S1                 0.0000
     43 ****         3.2134  -1.5590  -1.0397 H              1 S1                 0.0000
     44 ****         2.7482  -0.5779   0.3366 H              1 S1                 0.0000
     45 ****         1.9143  -2.5436   1.3965 H              1 S1                 0.0000
     46 ****        -2.6663  -0.9105   1.8699 LP             1 S1                 0.0000
     47 ****        -3.4807   0.3477   2.7380 LP             1 S1                 0.0000
     48 ****        -0.8060   1.0319  -1.6942 LP             1 S1                 0.0000
     49 ****         0.5568  -1.7398   2.3203 LP             1 S1                 0.0000
     50 ****        -0.7933  -2.5002   1.8049 LP             1 S1                 0.0000
     51 ****         4.9257  -3.2581  -0.6124 LP             1 S1                 0.0000
     52 ****         5.7023  -3.4002   0.8170 LP             1 S1                 0.0000
@<TRIPOS>BOND
    1    1    2 2     
    2    2   14 am    
    3    2    3 1     
    4    3    4 1     
    5    3    8 2     
    6    4    5 1     
    7    4    6 1     
    8    4    7 1     
    9    8    9 1     
   10    8   25 1     
   11    9   10 1     
   12    9   13 2     
   13   10   12 1     
   14   10   11 1     
   15   10   26 1     
   16   11   12 1     
   17   11   27 1     
   18   11   28 1     
   19   12   29 1     
   20   12   30 1     
   21   13   14 1     
   22   14   15 1     
   23   15   16 1     
   24   15   31 1     
   25   15   32 1     
   26   16   17 1     
   27   16   18 1     
   28   16   33 1     
   29   17   34 1     
   30   18   19 1     
   31   18   35 1     
   32   18   36 1     
   33   19   24 1     
   34   19   20 1     
   35   19   45 1     
   36   20   21 1     
   37   20   37 1     
   38   20   38 1     
   39   21   22 1     
   40   21   39 1     
   41   21   40 1     
   42   22   23 1     
   43   23   24 1     
   44   23   41 1     
   45   23   42 1     
   46   24   43 1     
   47   24   44 1     
   48    1   46 1     
   49    1   47 1     
   50   13   48 1     
   51   17   49 1     
   52   17   50 1     
   53   22   51 1     
   54   22   52 1     
@<TRIPOS>SUBSTRUCTURE
      1 S1             1
@<TRIPOS>SET
LONE_PAIRS      STATIC     ATOMS    <user>   **** ""
7 46 47 48 49 50 51 52
DONOR_HYDROGENS      STATIC     ATOMS    <user>   **** ""
2 34 45
ATOM$BLUE        STATIC     ATOMS    COLORGROUP SYSTEM
7 46 47 48 49 50 51 52
ATOM$RED        STATIC     ATOMS    COLORGROUP SYSTEM
2 34 45
