#       Name:                AV-unprocessed.smi:618
#       Creating user name   scv26
#       Creation time:       Fri Mar 27 00:00:43 2020


#       File generated by GOLD software.
#

@<TRIPOS>MOLECULE
AV-unprocessed.smi:618
    46    48     1
SMALL
NO_CHARGES


@<TRIPOS>ATOM
      1 ****        -1.2654   1.0395  -0.8618 O.2            1 S1                 0.0000
      2 ****        -1.7370  -0.0705  -1.1062 C.2            1 S1                 0.0000
      3 ****        -0.9932  -1.1725  -1.2762 N.am           1 S1                 0.0000
      4 ****         0.4602  -1.2375  -1.1640 C.3            1 S1                 0.0000
      5 ****         0.8940  -1.7420   0.2286 C.3            1 S1                 0.0000
      6 ****         2.4161  -2.0046   0.3249 C.3            1 S1                 0.0000
      7 ****         3.1486  -0.7566   0.4267 N.3            1 S1                 0.0000
      8 ****         4.5771  -0.8554   0.6175 C.3            1 S1                 0.0000
      9 ****         4.9949   0.5453   1.0975 C.3            1 S1                 0.0000
     10 ****         3.6888   1.1753   1.6289 C.3            1 S1                 0.0000
     11 ****         2.6961   0.0138   1.5524 C.3            1 S1                 0.0000
     12 ****         1.2107   0.3650   1.4057 C.3            1 S1                 0.0000
     13 ****         0.4688  -0.8523   1.2742 O.3            1 S1                 0.0000
     14 ****        -3.0467  -0.3498  -1.2179 N.am           1 S1                 0.0000
     15 ****        -4.1528   0.5334  -1.0918 C.ar           1 S1                 0.0000
     16 ****        -4.0790   1.9354  -1.2772 C.ar           1 S1                 0.0000
     17 ****        -5.2526   2.7013  -1.1399 C.ar           1 S1                 0.0000
     18 ****        -6.4564   2.0387  -0.8310 C.ar           1 S1                 0.0000
     19 ****        -6.5440   0.7020  -0.6655 N.ar           1 S1                 0.0000
     20 ****        -5.4147  -0.0257  -0.7985 C.ar           1 S1                 0.0000
     21 ****        -1.4701  -2.0400  -1.4732 H              1 S1                 0.0000
     22 ****         0.8123  -1.9330  -1.9262 H              1 S1                 0.0000
     23 ****         0.9201  -0.2774  -1.4025 H              1 S1                 0.0000
     24 ****         0.3866  -2.6916   0.4021 H              1 S1                 0.0000
     25 ****         2.6179  -2.6178   1.2045 H              1 S1                 0.0000
     26 ****         2.7613  -2.5749  -0.5380 H              1 S1                 0.0000
     27 ****         4.8041  -1.5939   1.3881 H              1 S1                 0.0000
     28 ****         5.0860  -1.1549  -0.2992 H              1 S1                 0.0000
     29 ****         5.7629   0.4837   1.8691 H              1 S1                 0.0000
     30 ****         5.3936   1.1378   0.2733 H              1 S1                 0.0000
     31 ****         3.7897   1.5643   2.6425 H              1 S1                 0.0000
     32 ****         3.3763   1.9944   0.9798 H              1 S1                 0.0000
     33 ****         2.8144  -0.5833   2.4591 H              1 S1                 0.0000
     34 ****         0.8550   0.9069   2.2819 H              1 S1                 0.0000
     35 ****         1.0461   1.0096   0.5424 H              1 S1                 0.0000
     36 ****        -3.2828  -1.3236  -1.3415 H              1 S1                 0.0000
     37 ****        -3.1576   2.4344  -1.5338 H              1 S1                 0.0000
     38 ****        -5.2312   3.7729  -1.2730 H              1 S1                 0.0000
     39 ****        -7.3744   2.5964  -0.7199 H              1 S1                 0.0000
     40 ****        -5.5229  -1.0920  -0.6611 H              1 S1                 0.0000
     41 ****        -0.2755   1.1552  -0.7800 LP             1 S1                 0.0000
     42 ****        -1.8721   1.8258  -0.7451 LP             1 S1                 0.0000
     43 ****         2.9701  -0.3421  -0.4657 LP             1 S1                 0.0000
     44 ****         0.5354  -1.3459   2.1413 LP             1 S1                 0.0000
     45 ****        -0.4860  -0.6110   1.1006 LP             1 S1                 0.0000
     46 ****        -7.4174   0.2647  -0.4513 LP             1 S1                 0.0000
@<TRIPOS>BOND
    1    1    2 2     
    2    2    3 am    
    3    2   14 am    
    4    3    4 1     
    5    3   21 1     
    6    4    5 1     
    7    4   22 1     
    8    4   23 1     
    9    5   13 1     
   10    5    6 1     
   11    5   24 1     
   12    6    7 1     
   13    6   25 1     
   14    6   26 1     
   15    7   11 1     
   16    7    8 1     
   17    8    9 1     
   18    8   27 1     
   19    8   28 1     
   20    9   10 1     
   21    9   29 1     
   22    9   30 1     
   23   10   11 1     
   24   10   31 1     
   25   10   32 1     
   26   11   12 1     
   27   11   33 1     
   28   12   13 1     
   29   12   34 1     
   30   12   35 1     
   31   14   15 1     
   32   14   36 1     
   33   15   20 ar    
   34   15   16 ar    
   35   16   17 ar    
   36   16   37 1     
   37   17   18 ar    
   38   17   38 1     
   39   18   19 ar    
   40   18   39 1     
   41   19   20 ar    
   42   20   40 1     
   43    1   41 1     
   44    1   42 1     
   45    7   43 1     
   46   13   44 1     
   47   13   45 1     
   48   19   46 1     
@<TRIPOS>SUBSTRUCTURE
      1 S1             1
@<TRIPOS>SET
LONE_PAIRS      STATIC     ATOMS    <user>   **** ""
6 41 42 43 44 45 46
DONOR_HYDROGENS      STATIC     ATOMS    <user>   **** ""
2 21 36
ATOM$BLUE        STATIC     ATOMS    COLORGROUP SYSTEM
6 41 42 43 44 45 46
ATOM$RED        STATIC     ATOMS    COLORGROUP SYSTEM
2 21 36
