#       Name:                AV-unprocessed.smi:2169
#       Creating user name   scv26
#       Creation time:       Fri Mar 27 12:01:40 2020


#       File generated by GOLD software.
#

@<TRIPOS>MOLECULE
AV-unprocessed.smi:2169
    47    48     1
SMALL
NO_CHARGES


@<TRIPOS>ATOM
      1 ****        -3.7136  -4.2172  -0.7379 C.3            1 S1                 0.0000
      2 ****        -5.2005  -3.1339  -0.7345 S.o2           1 S1                 0.0000
      3 ****        -5.8601  -3.2560  -2.0436 O.2            1 S1                 0.0000
      4 ****        -5.9628  -3.4059   0.4938 O.2            1 S1                 0.0000
      5 ****        -4.5533  -1.5229  -0.6127 N.pl3          1 S1                 0.0000
      6 ****        -4.0387  -1.0301   0.6808 C.3            1 S1                 0.0000
      7 ****        -2.5014  -1.0773   0.7373 C.3            1 S1                 0.0000
      8 ****        -1.8736  -0.3337  -0.4538 C.3            1 S1                 0.0000
      9 ****        -0.4181  -0.4477  -0.4345 N.am           1 S1                 0.0000
     10 ****         0.4071   0.3193   0.2917 C.2            1 S1                 0.0000
     11 ****         0.0307   1.2100   1.0537 O.2            1 S1                 0.0000
     12 ****         1.6926   0.0029   0.0828 N.am           1 S1                 0.0000
     13 ****         2.8291   0.6644   0.7126 C.3            1 S1                 0.0000
     14 ****         3.1512   2.0056   0.0331 C.3            1 S1                 0.0000
     15 ****         4.3623   2.6812   0.6455 C.ar           1 S1                 0.0000
     16 ****         5.6439   2.5264   0.0780 C.ar           1 S1                 0.0000
     17 ****         6.7371   3.1746   0.6845 C.ar           1 S1                 0.0000
     18 ****         6.5009   3.9510   1.8367 C.ar           1 S1                 0.0000
     19 ****         5.2785   4.1052   2.3895 N.ar           1 S1                 0.0000
     20 ****         4.2354   3.4811   1.8009 C.ar           1 S1                 0.0000
     21 ****        -2.4225  -0.9190  -1.7631 C.3            1 S1                 0.0000
     22 ****        -3.9601  -0.8734  -1.7988 C.3            1 S1                 0.0000
     23 ****        -4.0317  -5.2562  -0.8192 H              1 S1                 0.0000
     24 ****        -3.1595  -4.0898   0.1904 H              1 S1                 0.0000
     25 ****        -3.0791  -3.9751  -1.5884 H              1 S1                 0.0000
     26 ****        -4.3760  -0.0016   0.8149 H              1 S1                 0.0000
     27 ****        -4.4664  -1.6028   1.5033 H              1 S1                 0.0000
     28 ****        -2.1629  -0.6364   1.6754 H              1 S1                 0.0000
     29 ****        -2.1613  -2.1124   0.7493 H              1 S1                 0.0000
     30 ****        -2.1509   0.7213  -0.4049 H              1 S1                 0.0000
     31 ****        -0.0097  -1.1536  -1.0293 H              1 S1                 0.0000
     32 ****         1.9014  -0.7448  -0.5625 H              1 S1                 0.0000
     33 ****         2.6341   0.8091   1.7766 H              1 S1                 0.0000
     34 ****         3.6884  -0.0031   0.6415 H              1 S1                 0.0000
     35 ****         3.3283   1.8528  -1.0324 H              1 S1                 0.0000
     36 ****         2.2994   2.6830   0.1085 H              1 S1                 0.0000
     37 ****         5.7890   1.9220  -0.8054 H              1 S1                 0.0000
     38 ****         7.7326   3.0798   0.2768 H              1 S1                 0.0000
     39 ****         7.3163   4.4616   2.3276 H              1 S1                 0.0000
     40 ****         3.2714   3.6228   2.2674 H              1 S1                 0.0000
     41 ****        -2.0247  -0.3640  -2.6136 H              1 S1                 0.0000
     42 ****        -2.0793  -1.9461  -1.8839 H              1 S1                 0.0000
     43 ****        -4.3317  -1.3366  -2.7124 H              1 S1                 0.0000
     44 ****        -4.2930   0.1648  -1.8238 H              1 S1                 0.0000
     45 ****        -0.9457   1.3978   1.1597 LP             1 S1                 0.0000
     46 ****         0.7015   1.7457   1.5667 LP             1 S1                 0.0000
     47 ****         5.1497   4.6639   3.2089 LP             1 S1                 0.0000
@<TRIPOS>BOND
    1    1    2 1     
    2    1   23 1     
    3    1   24 1     
    4    1   25 1     
    5    2    3 2     
    6    2    4 2     
    7    2    5 1     
    8    5   22 1     
    9    5    6 1     
   10    6    7 1     
   11    6   26 1     
   12    6   27 1     
   13    7    8 1     
   14    7   28 1     
   15    7   29 1     
   16    8    9 1     
   17    8   21 1     
   18    8   30 1     
   19    9   10 am    
   20    9   31 1     
   21   10   11 2     
   22   10   12 am    
   23   12   13 1     
   24   12   32 1     
   25   13   14 1     
   26   13   33 1     
   27   13   34 1     
   28   14   15 1     
   29   14   35 1     
   30   14   36 1     
   31   15   20 ar    
   32   15   16 ar    
   33   16   17 ar    
   34   16   37 1     
   35   17   18 ar    
   36   17   38 1     
   37   18   19 ar    
   38   18   39 1     
   39   19   20 ar    
   40   20   40 1     
   41   21   22 1     
   42   21   41 1     
   43   21   42 1     
   44   22   43 1     
   45   22   44 1     
   46   11   45 1     
   47   11   46 1     
   48   19   47 1     
@<TRIPOS>SUBSTRUCTURE
      1 S1             1
@<TRIPOS>SET
LONE_PAIRS      STATIC     ATOMS    <user>   **** ""
5 3 4 45 46 47
DONOR_HYDROGENS      STATIC     ATOMS    <user>   **** ""
2 31 32
ATOM$BLUE        STATIC     ATOMS    COLORGROUP SYSTEM
5 3 4 45 46 47
ATOM$RED        STATIC     ATOMS    COLORGROUP SYSTEM
2 31 32
