#       Name:                AV-unprocessed.smi:34
#       Creating user name   scv26
#       Creation time:       Thu Mar 26 15:54:42 2020


#       File generated by GOLD software.
#

@<TRIPOS>MOLECULE
AV-unprocessed.smi:34
    66    70     1
SMALL
NO_CHARGES


@<TRIPOS>ATOM
      1 ****        -5.2125   1.0159   2.0045 O.2            1 S1                 0.0000
      2 ****        -5.2328  -0.1180   1.5248 C.2            1 S1                 0.0000
      3 ****        -4.0168  -0.8619   1.2456 N.am           1 S1                 0.0000
      4 ****        -2.7340  -0.4511   1.3809 C.ar           1 S1                 0.0000
      5 ****        -2.4072   0.7679   1.8853 N.ar           1 S1                 0.0000
      6 ****        -1.1252   1.1266   2.0006 C.ar           1 S1                 0.0000
      7 ****        -0.0328   0.4315   1.6774 N.ar           1 S1                 0.0000
      8 ****        -0.3518  -0.7944   1.1713 C.ar           1 S1                 0.0000
      9 ****        -1.6681  -1.3045   0.9932 C.ar           1 S1                 0.0000
     10 ****        -1.6078  -2.5825   0.4524 N.2            1 S1                 0.0000
     11 ****        -0.3285  -2.8083   0.3166 C.2            1 S1                 0.0000
     12 ****         0.4985  -1.7868   0.7280 N.pl3          1 S1                 0.0000
     13 ****         1.9908  -1.7492   0.6909 C.3            1 S1                 0.0000
     14 ****         2.3745  -0.5342   0.1297 O.3            1 S1                 0.0000
     15 ****         3.5983  -0.1373   0.7269 C.3            1 S1                 0.0000
     16 ****         3.8560   1.3580   0.5055 C.3            1 S1                 0.0000
     17 ****         4.2291   1.5680  -0.8464 O.3            1 S1                 0.0000
     18 ****         4.3640   2.8207  -1.3230 C.2            1 S1                 0.0000
     19 ****         4.1973   3.8330  -0.6395 O.2            1 S1                 0.0000
     20 ****         4.7331   2.8547  -2.7678 C.ar           1 S1                 0.0000
     21 ****         4.8724   4.1030  -3.4183 C.ar           1 S1                 0.0000
     22 ****         5.2168   4.1666  -4.7825 C.ar           1 S1                 0.0000
     23 ****         5.4275   2.9826  -5.5127 C.ar           1 S1                 0.0000
     24 ****         5.2930   1.7346  -4.8770 C.ar           1 S1                 0.0000
     25 ****         4.9475   1.6690  -3.5130 C.ar           1 S1                 0.0000
     26 ****         3.4134  -0.5391   2.1918 C.3            1 S1                 0.0000
     27 ****         2.7256   0.3901   2.8576 F              1 S1                 0.0000
     28 ****         2.5893  -1.8193   2.1081 C.3            1 S1                 0.0000
     29 ****         3.4351  -2.9406   2.2688 O.3            1 S1                 0.0000
     30 ****        -6.5217  -0.8441   1.2695 C.ar           1 S1                 0.0000
     31 ****        -7.6698  -0.5365   2.0339 C.ar           1 S1                 0.0000
     32 ****        -8.8873  -1.2022   1.7919 C.ar           1 S1                 0.0000
     33 ****        -8.9690  -2.1759   0.7788 C.ar           1 S1                 0.0000
     34 ****        -7.8336  -2.4799   0.0042 C.ar           1 S1                 0.0000
     35 ****        -6.6157  -1.8144   0.2448 C.ar           1 S1                 0.0000
     36 ****        -4.1449  -1.7962   0.8850 H              1 S1                 0.0000
     37 ****        -0.9497   2.1105   2.4098 H              1 S1                 0.0000
     38 ****         0.0495  -3.7350  -0.0902 H              1 S1                 0.0000
     39 ****         2.2844  -2.5797   0.0468 H              1 S1                 0.0000
     40 ****         4.4082  -0.7289   0.2955 H              1 S1                 0.0000
     41 ****         2.9670   1.9385   0.7572 H              1 S1                 0.0000
     42 ****         4.6672   1.6972   1.1510 H              1 S1                 0.0000
     43 ****         4.7144   5.0255  -2.8786 H              1 S1                 0.0000
     44 ****         5.3190   5.1256  -5.2687 H              1 S1                 0.0000
     45 ****         5.6918   3.0316  -6.5588 H              1 S1                 0.0000
     46 ****         5.4552   0.8250  -5.4360 H              1 S1                 0.0000
     47 ****         4.8524   0.6948  -3.0562 H              1 S1                 0.0000
     48 ****         4.3609  -0.6601   2.7187 H              1 S1                 0.0000
     49 ****         1.8078  -1.8474   2.8693 H              1 S1                 0.0000
     50 ****         2.9106  -3.7242   2.2057 H              1 S1                 0.0000
     51 ****        -7.6237   0.2089   2.8148 H              1 S1                 0.0000
     52 ****        -9.7591  -0.9643   2.3835 H              1 S1                 0.0000
     53 ****        -9.9028  -2.6859   0.5933 H              1 S1                 0.0000
     54 ****        -7.8971  -3.2224  -0.7775 H              1 S1                 0.0000
     55 ****        -5.7598  -2.0563  -0.3686 H              1 S1                 0.0000
     56 ****        -4.3386   1.4542   2.2150 LP             1 S1                 0.0000
     57 ****        -6.0698   1.4985   2.1836 LP             1 S1                 0.0000
     58 ****        -3.1287   1.3986   2.1712 LP             1 S1                 0.0000
     59 ****         0.9022   0.7672   1.7919 LP             1 S1                 0.0000
     60 ****        -2.3680  -3.1894   0.2206 LP             1 S1                 0.0000
     61 ****         1.6727   0.1563   0.3049 LP             1 S1                 0.0000
     62 ****         2.4982  -0.6410  -0.8568 LP             1 S1                 0.0000
     63 ****         3.9476   3.7494   0.3252 LP             1 S1                 0.0000
     64 ****         4.3118   4.7378  -1.0497 LP             1 S1                 0.0000
     65 ****         3.8785  -2.9029   3.1644 LP             1 S1                 0.0000
     66 ****         4.1321  -2.9427   1.5517 LP             1 S1                 0.0000
@<TRIPOS>BOND
    1    1    2 2     
    2    2    3 am    
    3    2   30 1     
    4    3    4 1     
    5    3   36 1     
    6    4    9 ar    
    7    4    5 ar    
    8    5    6 ar    
    9    6    7 ar    
   10    6   37 1     
   11    7    8 ar    
   12    8   12 1     
   13    8    9 ar    
   14    9   10 1     
   15   10   11 2     
   16   11   12 1     
   17   11   38 1     
   18   12   13 1     
   19   13   28 1     
   20   13   14 1     
   21   13   39 1     
   22   14   15 1     
   23   15   16 1     
   24   15   26 1     
   25   15   40 1     
   26   16   17 1     
   27   16   41 1     
   28   16   42 1     
   29   17   18 1     
   30   18   19 2     
   31   18   20 1     
   32   20   25 ar    
   33   20   21 ar    
   34   21   22 ar    
   35   21   43 1     
   36   22   23 ar    
   37   22   44 1     
   38   23   24 ar    
   39   23   45 1     
   40   24   25 ar    
   41   24   46 1     
   42   25   47 1     
   43   26   27 1     
   44   26   28 1     
   45   26   48 1     
   46   28   29 1     
   47   28   49 1     
   48   29   50 1     
   49   30   35 ar    
   50   30   31 ar    
   51   31   32 ar    
   52   31   51 1     
   53   32   33 ar    
   54   32   52 1     
   55   33   34 ar    
   56   33   53 1     
   57   34   35 ar    
   58   34   54 1     
   59   35   55 1     
   60    1   56 1     
   61    1   57 1     
   62    5   58 1     
   63    7   59 1     
   64   10   60 1     
   65   14   61 1     
   66   14   62 1     
   67   19   63 1     
   68   19   64 1     
   69   29   65 1     
   70   29   66 1     
@<TRIPOS>SUBSTRUCTURE
      1 S1             1
@<TRIPOS>SET
LONE_PAIRS      STATIC     ATOMS    <user>   **** ""
11 56 57 58 59 60 61 62 63 64 65 66
DONOR_HYDROGENS      STATIC     ATOMS    <user>   **** ""
2 36 50
ATOM$BLUE        STATIC     ATOMS    COLORGROUP SYSTEM
11 56 57 58 59 60 61 62 63 64 65 66
ATOM$RED        STATIC     ATOMS    COLORGROUP SYSTEM
2 36 50
