AV-unprocessed.smi:1|AV-procd|sdf|23|dock6
  -GOLD-   2262015133D 1   1.00000     0.00000
 Structure written by MMmdl.
 56 61  0  0  0  0  0  0  0  0  2 V2000
  146.0519  132.2679  154.9595 O   0  0  0  0  0  0  0  0  0  0  0  0
  146.8477  132.4481  154.0352 C   0  0  0  0  0  0  0  0  0  0  0  0
  148.2014  132.5134  154.1014 N   0  5  0  0  0  0  0  0  0  0  0  0
  148.7959  132.9640  155.2160 C   0  0  0  0  0  0  0  0  0  0  0  0
  149.4075  132.1020  156.0680 N   0  0  0  0  0  0  0  0  0  0  0  0
  149.9880  132.5542  157.1861 C   0  0  0  0  0  0  0  0  0  0  0  0
  150.0658  133.8072  157.6451 N   0  0  0  0  0  0  0  0  0  0  0  0
  149.4480  134.6820  156.7980 C   0  0  0  0  0  0  0  0  0  0  0  0
  148.7971  134.3384  155.5783 C   0  0  0  0  0  0  0  0  0  0  0  0
  148.2731  135.4669  154.9643 N   0  0  0  0  0  0  0  0  0  0  0  0
  148.6216  136.4251  155.8201 C   0  0  0  0  0  0  0  0  0  0  0  0
  149.3036  136.0536  156.9212 N   0  0  0  0  0  0  0  0  0  0  0  0
  149.7953  136.9243  158.0245 C   0  0  2  0  0  0  0  0  0  0  0  0
  148.8315  137.8860  158.3032 O   0  0  0  0  0  0  0  0  0  0  0  0
  149.4595  139.0787  158.7691 C   0  0  2  0  0  0  0  0  0  0  0  0
  148.8450  140.2643  158.0153 C   0  0  0  0  0  0  0  0  0  0  0  0
  149.3773  141.4726  158.5330 O   0  0  0  0  0  0  0  0  0  0  0  0
  150.5410  141.9573  158.0594 C   0  0  0  0  0  0  0  0  0  0  0  0
  151.1657  141.4444  157.1287 O   0  0  0  0  0  0  0  0  0  0  0  0
  150.9934  143.1825  158.7799 C   0  0  0  0  0  0  0  0  0  0  0  0
  152.3755  143.4755  158.8502 C   0  0  0  0  0  0  0  0  0  0  0  0
  152.8320  144.6260  159.5229 C   0  0  0  0  0  0  0  0  0  0  0  0
  151.9117  145.4971  160.1344 C   0  0  0  0  0  0  0  0  0  0  0  0
  150.5344  145.2164  160.0727 C   0  0  0  0  0  0  0  0  0  0  0  0
  150.0761  144.0669  159.3999 C   0  0  0  0  0  0  0  0  0  0  0  0
  150.9661  138.9083  158.5142 C   0  0  1  0  0  0  0  0  0  0  0  0
  151.6337  138.6225  159.7322 O   0  0  0  0  0  0  0  0  0  0  0  0
  152.7093  137.3701  159.4734 S   0  0  0  0  0  0  0  0  0  0  0  0
  154.0645  137.9347  159.3841 O   0  0  0  0  0  0  0  0  0  0  0  0
  152.3664  136.2734  160.3916 O   0  0  0  0  0  0  0  0  0  0  0  0
  152.2217  136.9384  157.9354 O   0  0  0  0  0  0  0  0  0  0  0  0
  151.0573  137.6756  157.6116 C   0  0  1  0  0  0  0  0  0  0  0  0
  146.3091  132.6883  152.6505 C   0  0  0  0  0  0  0  0  0  0  0  0
  145.2940  131.8487  152.1383 C   0  0  0  0  0  0  0  0  0  0  0  0
  144.7972  132.0394  150.8341 C   0  0  0  0  0  0  0  0  0  0  0  0
  145.3180  133.0657  150.0240 C   0  0  0  0  0  0  0  0  0  0  0  0
  146.3386  133.8995  150.5181 C   0  0  0  0  0  0  0  0  0  0  0  0
  146.8351  133.7102  151.8226 C   0  0  0  0  0  0  0  0  0  0  0  0
  150.4552  131.8021  157.8040 H   0  0  0  0  0  0  0  0  0  0  0  0
  148.3595  137.4571  155.6389 H   0  0  0  0  0  0  0  0  0  0  0  0
  149.9328  136.2691  158.8860 H   0  0  0  0  0  0  0  0  0  0  0  0
  149.2602  139.1794  159.8370 H   0  0  0  0  0  0  0  0  0  0  0  0
  149.0477  140.1848  156.9462 H   0  0  0  0  0  0  0  0  0  0  0  0
  147.7621  140.2635  158.1461 H   0  0  0  0  0  0  0  0  0  0  0  0
  153.1011  142.8218  158.3877 H   0  0  0  0  0  0  0  0  0  0  0  0
  153.8896  144.8402  159.5690 H   0  0  0  0  0  0  0  0  0  0  0  0
  152.2617  146.3795  160.6496 H   0  0  0  0  0  0  0  0  0  0  0  0
  149.8269  145.8842  160.5419 H   0  0  0  0  0  0  0  0  0  0  0  0
  149.0123  143.8816  159.3723 H   0  0  0  0  0  0  0  0  0  0  0  0
  151.4281  139.7841  158.0570 H   0  0  0  0  0  0  0  0  0  0  0  0
  151.0200  137.9546  156.5582 H   0  0  0  0  0  0  0  0  0  0  0  0
  144.8858  131.0543  152.7465 H   0  0  0  0  0  0  0  0  0  0  0  0
  144.0171  131.3959  150.4552 H   0  0  0  0  0  0  0  0  0  0  0  0
  144.9381  133.2105  149.0236 H   0  0  0  0  0  0  0  0  0  0  0  0
  146.7446  134.6834  149.8959 H   0  0  0  0  0  0  0  0  0  0  0  0
  147.6268  134.3539  152.1789 H   0  0  0  0  0  0  0  0  0  0  0  0
  1  2  2  0  0  0  0
  2  3  1  0  0  0  0
  2 33  1  0  0  0  0
  3  4  1  0  0  0  0
  4  9  1  0  0  0  0
  4  5  2  0  0  0  0
  5  6  1  0  0  0  0
  6  7  2  0  0  0  0
  6 39  1  0  0  0  0
  7  8  1  0  0  0  0
  8 12  1  0  0  0  0
  8  9  2  0  0  0  0
  9 10  1  0  0  0  0
 10 11  2  0  0  0  0
 11 12  1  0  0  0  0
 11 40  1  0  0  0  0
 12 13  1  0  0  0  0
 13 32  1  0  0  0  0
 13 14  1  0  0  0  0
 13 41  1  0  0  0  0
 14 15  1  0  0  0  0
 15 16  1  0  0  0  0
 15 26  1  0  0  0  0
 15 42  1  0  0  0  0
 16 17  1  0  0  0  0
 16 43  1  0  0  0  0
 16 44  1  0  0  0  0
 17 18  1  0  0  0  0
 18 19  2  0  0  0  0
 18 20  1  0  0  0  0
 20 25  1  0  0  0  0
 20 21  2  0  0  0  0
 21 22  1  0  0  0  0
 21 45  1  0  0  0  0
 22 23  2  0  0  0  0
 22 46  1  0  0  0  0
 23 24  1  0  0  0  0
 23 47  1  0  0  0  0
 24 25  2  0  0  0  0
 24 48  1  0  0  0  0
 25 49  1  0  0  0  0
 26 32  1  0  0  0  0
 26 27  1  0  0  0  0
 26 50  1  0  0  0  0
 27 28  1  0  0  0  0
 28 29  2  0  0  0  0
 28 30  2  0  0  0  0
 28 31  1  0  0  0  0
 31 32  1  0  0  0  0
 32 51  1  0  0  0  0
 33 38  1  0  0  0  0
 33 34  2  0  0  0  0
 34 35  1  0  0  0  0
 34 52  1  0  0  0  0
 35 36  2  0  0  0  0
 35 53  1  0  0  0  0
 36 37  1  0  0  0  0
 36 54  1  0  0  0  0
 37 38  2  0  0  0  0
 37 55  1  0  0  0  0
 38 56  1  0  0  0  0
M  CHG  1   3  -1
M  END
> <s_m_source_file>
AV-unprocessed.smi

> <i_m_source_file_index>
1

> <i_lp_mmshare_version>
43012

> <i_f3d_flags>
0

> <s_epik_input>
W2NIXTFbY0hdW2NIXVtjSF1bY0hdYzFDKD1PKVtOSF1jKG5bY0hdbjIpYyhjMjMpbltjSF1uM1tDQEBIXShbQ0BIXShbQ0BIXTQ1KU9TKE81KSg9Tyk9TylPW0NASF00W0NIMl1PQyg9TyljNltjSF1bY0hdW2NIXVtjSF1bY0hdNg==

> <s_epik_cmdline>
J2VwaWtfcHl0aG9uJywgJy1waCcsICc3LjAnLCAnLXRuJywgJzgnLCAnLW1hJywgJzIwMCcsICctbWV0YWxfYmluZGluZycsICctaW1hZScsICc8aW5maWxlLm1hZT4nLCAnLW9tYWUnLCAnPG91dGZpbGUubWFlPic=

> <r_lp_tautomer_probability>
1

> <r_epik_Ionization_Penalty>
4.39121

> <r_epik_Ionization_Penalty_Charging>
3.39398

> <r_epik_Ionization_Penalty_Neutral>
0.997232

> <r_epik_State_Penalty>
3.39839

> <r_epik_Charging_Adjusted_Penalty>
6.79237

> <i_epik_Tot_Q>
-1

> <i_epik_Tot_abs_Q>
1

> <r_epik_Metal_State_Penalty>
0.497663

> <b_epik_Metal_Only>
1

> <s_epik_Chemistry_Notes>
This compound has an ester and may undergo hydrolysis at high or low pH. This compound contains an acetal/aminal-like group ( X-CH(R)-Y where X, Y are N, S, or O) that may be acid/base labile, releasing an aldehyde.

> <s_lp_Force_Field>
OPLS_2005

> <r_lp_Energy>
40.5787

> <b_lp_Chiralities_Consistent>
1

> <s_lp_Variant>
AV-unprocessed.smi:1-23

> <Gold.Version>
5.8.1

> <Gold.Id.Protein>
6NUR|6NUR_protein|mol2

> <Gold.PLP.Fitness>
57.7578

> <Gold.PLP.PLP>
-56.1292

> <Gold.PLP.part.hbond>
-3.0000

> <Gold.PLP.part.metal>
0.0000

> <Gold.PLP.part.buried>
-11.3459

> <Gold.PLP.part.nonpolar>
-43.7039

> <Gold.PLP.part.repulsive>
0.9142

> <Gold.PLP.ligand.clash>
0.0000

> <Gold.PLP.ligand.torsion>
2.6596

> <Gold.PLP.Chemscore.Hbond>
2.1171

> <Gold.PLP.Chemscore.CHOScore>
0.0000

> <Gold.PLP.Chemscore.Metal>
0.0000

> <Gold.Chemscore.Hbonds>
donor molecule, donor type, donor heavy atom, donor atom, acceptor molecule, acceptor atom, score
      P1  H  6896  6907       L1     7  0.09
      P1  H  6896  6908       L1    30  0.46

> <Gold.PLP.Chemscore.Internal.Correction>
0.5964

> <Gold.Rescore>
     Score         DG    S(hbond)    S(metal)    S(lipo)     H(rot)  DE(clash)    DE(int)     intcor
     17.38     -20.72       1.92        0.00     121.63       2.11       0.06       3.28       ----

> <Gold.Chemscore.Fitness>
17.3782

> <Gold.Chemscore.DG>
-20.7156

> <Gold.Chemscore.ZeroCoef>
-5.4800

> <Gold.Chemscore.Hbond>
1.9207

> <Gold.Chemscore.Metal>
0.0000

> <Gold.Chemscore.Lipo>
121.6344

> <Gold.Chemscore.Internal_Hbond>
0.0000

> <Gold.Chemscore.DEClash>
0.0557

> <Gold.Chemscore.DEInternal>
3.2817

> <Gold.Chemscore.Rot>
2.1136

> <Gold.Chemscore.Internal.Correction>
   9.000000E+99

> <Gold.Chemscore.Hbonds>
donor molecule, donor type, donor heavy atom, donor atom, acceptor molecule, acceptor atom, score
      P1  H  6896  6907       L1     7  0.09
      P1  H  6896  6908       L1    30  0.45

> <Gold.Chemscore.Hbond.Weighted>
-6.4151

> <Gold.Chemscore.Metal.Weighted>
-0.0000

> <Gold.Chemscore.Lipo.Weighted>
-14.2312

> <Gold.Chemscore.Internal_Hbond.Weighted>
0.0000

> <Gold.Chemscore.DEClash.Weighted>
0.0557

> <Gold.Chemscore.DEInternal.Weighted>
3.2817

> <Gold.Chemscore.Rot.Weighted>
5.4107

> <Gold.Chemscore.Internal.Correction.Weighted>
   9.000000E+99

> <Gold.Protein.RotatedTorsions>
[ 6907 6896 6895 6894 ] final  -62.20 input  -60.11 | X-H torsion
[ 7974 7965 7964 7962 ] final -148.47 input  175.53 | X-H torsion
[ 8008 7997 7996 7995 ] final -108.74 input   59.86 | X-H torsion
[ 10167 10162 10161 10158 ] final  -37.32 input  -65.29 | X-H torsion
[ 10718 10713 10712 10709 ] final  -14.54 input   66.30 | X-H torsion
[ 10763 10752 10751 10750 ] final  141.07 input  -60.55 | X-H torsion
[ 11005 11000 10999 10996 ] final  -14.21 input  -57.11 | X-H torsion

> <Gold.Protein.ActiveResidues>
 VAL166  LYS551  ARG553  GLY616  TRP617  ASP618  TYR619  PRO620  LYS621  CYS622 
 ASP623  PHE694  ASN695  SER759  ASP760  ASP761  ALA762  ILE779  LEU786  VAL792 
 PHE793  MET794  SER795  GLU796  ALA797  LYS798  CYS799  TRP800  GLU811  SER814 

> <Gold.Protein.RotatedAtoms>
  150.7732  134.6603  159.6335 H   0  0  0  0  0  0  0  0  0  0  0  0  # atno 6907 bound_to 6896
  152.3792  134.6613  160.0158 H   0  0  0  0  0  0  0  0  0  0  0  0  # atno 6908 bound_to 6896
  151.6948  133.3274  159.3288 H   0  0  0  0  0  0  0  0  0  0  0  0  # atno 6909 bound_to 6896
  144.8027  140.5192  143.5696 H   0  0  0  0  0  0  0  0  0  0  0  0  # atno 7974 bound_to 7965
  154.9488  140.0401  157.2134 H   0  0  0  0  0  0  0  0  0  0  0  0  # atno 8008 bound_to 7997
  154.7998  140.2850  155.5908 H   0  0  0  0  0  0  0  0  0  0  0  0  # atno 8009 bound_to 7997
  156.2960  140.2557  156.2863 H   0  0  0  0  0  0  0  0  0  0  0  0  # atno 8010 bound_to 7997
  140.7121  143.3350  151.2484 H   0  0  0  0  0  0  0  0  0  0  0  0  # atno 10167 bound_to 10162
  156.6146  130.4859  149.6188 H   0  0  0  0  0  0  0  0  0  0  0  0  # atno 10718 bound_to 10713
  153.9331  135.2988  155.3445 H   0  0  0  0  0  0  0  0  0  0  0  0  # atno 10763 bound_to 10752
  154.7516  135.4977  153.9302 H   0  0  0  0  0  0  0  0  0  0  0  0  # atno 10764 bound_to 10752
  153.1081  135.6752  153.9655 H   0  0  0  0  0  0  0  0  0  0  0  0  # atno 10765 bound_to 10752
  140.7841  133.8340  155.9319 H   0  0  0  0  0  0  0  0  0  0  0  0  # atno 11005 bound_to 11000
  145.5513  139.1477  143.3393 LP  0  0  0  0  0  0  0  0  0  0  0  0  # atno 17320 bound_to 7965
  146.2312  140.5651  142.8974 LP  0  0  0  0  0  0  0  0  0  0  0  0  # atno 17321 bound_to 7965
  139.6842  143.9802  152.2825 LP  0  0  0  0  0  0  0  0  0  0  0  0  # atno 17342 bound_to 10162
  139.9442  144.6662  150.8236 LP  0  0  0  0  0  0  0  0  0  0  0  0  # atno 17343 bound_to 10162
  156.2362  130.6824  151.1511 LP  0  0  0  0  0  0  0  0  0  0  0  0  # atno 17370 bound_to 10713
  157.7245  131.0659  150.5993 LP  0  0  0  0  0  0  0  0  0  0  0  0  # atno 17371 bound_to 10713
  140.9454  134.1847  157.4767 LP  0  0  0  0  0  0  0  0  0  0  0  0  # atno 17394 bound_to 11000
  139.8739  134.9888  156.5430 LP  0  0  0  0  0  0  0  0  0  0  0  0  # atno 17395 bound_to 11000

$$$$
