#       Name:                AV-unprocessed.smi:193
#       Creating user name   scv26
#       Creation time:       Thu Mar 26 19:32:21 2020


#       File generated by GOLD software.
#

@<TRIPOS>MOLECULE
AV-unprocessed.smi:193
    69    73     1
SMALL
NO_CHARGES


@<TRIPOS>ATOM
      1 ****        -3.6731  -3.9693   0.7573 C.3            1 S1                 0.0000
      2 ****        -3.3119  -2.6174   0.1209 C.3            1 S1                 0.0000
      3 ****        -1.7950  -2.5730  -0.1552 C.3            1 S1                 0.0000
      4 ****        -1.3908  -1.5898  -1.1587 N.pl3          1 S1                 0.0000
      5 ****        -0.0631  -1.4911  -1.3852 C.ar           1 S1                 0.0000
      6 ****         0.3663  -1.6613  -2.6600 N.ar           1 S1                 0.0000
      7 ****         1.6702  -1.5760  -2.9420 C.ar           1 S1                 0.0000
      8 ****         2.6881  -1.3251  -2.1159 N.ar           1 S1                 0.0000
      9 ****         2.2550  -1.1337  -0.8367 C.ar           1 S1                 0.0000
     10 ****         0.9065  -1.1961  -0.3863 C.ar           1 S1                 0.0000
     11 ****         0.8493  -0.9307   0.9767 N.2            1 S1                 0.0000
     12 ****         2.0947  -0.7349   1.3150 C.2            1 S1                 0.0000
     13 ****         3.0049  -0.8339   0.2870 N.pl3          1 S1                 0.0000
     14 ****         4.4466  -0.6645   0.3825 C.3            1 S1                 0.0000
     15 ****         4.9184   0.8046   0.2494 C.3            1 S1                 0.0000
     16 ****         4.3728   1.5328   1.3364 O.3            1 S1                 0.0000
     17 ****         6.4560   0.8826   0.3334 C.3            1 S1                 0.0000
     18 ****         6.9833   2.2974   0.0362 C.3            1 S1                 0.0000
     19 ****         6.5125   2.7351  -1.2326 O.3            1 S1                 0.0000
     20 ****         5.0953   2.8435  -1.2862 C.3            1 S1                 0.0000
     21 ****         4.4492   1.4641  -1.0661 C.3            1 S1                 0.0000
     22 ****        -2.1477  -0.3675  -1.4113 C.3            1 S1                 0.0000
     23 ****        -2.5626   0.3615  -0.1265 C.3            1 S1                 0.0000
     24 ****        -3.8569  -0.1486   0.3861 N.4            1 S1                 1.0000
     25 ****        -4.5267   0.8470   1.2531 C.3            1 S1                 0.0000
     26 ****        -6.0354   0.7629   1.2210 C.3            1 S1                 0.0000
     27 ****        -5.3249   1.8816   0.4900 C.3            1 S1                 0.0000
     28 ****        -5.4224   3.3047   0.9939 C.3            1 S1                 0.0000
     29 ****        -3.7558  -1.4691   1.0566 C.3            1 S1                 0.0000
     30 ****        -3.1642  -4.1075   1.7120 H              1 S1                 0.0000
     31 ****        -3.3924  -4.7993   0.1080 H              1 S1                 0.0000
     32 ****        -4.7457  -4.0489   0.9370 H              1 S1                 0.0000
     33 ****        -3.8604  -2.5581  -0.8203 H              1 S1                 0.0000
     34 ****        -1.2597  -2.4206   0.7812 H              1 S1                 0.0000
     35 ****        -1.4721  -3.5454  -0.5302 H              1 S1                 0.0000
     36 ****         1.9365  -1.7297  -3.9774 H              1 S1                 0.0000
     37 ****         2.3870  -0.5059   2.3298 H              1 S1                 0.0000
     38 ****         4.7752  -1.0822   1.3353 H              1 S1                 0.0000
     39 ****         4.9104  -1.2773  -0.3916 H              1 S1                 0.0000
     40 ****         4.6600   2.4307   1.2691 H              1 S1                 0.0000
     41 ****         6.8038   0.5512   1.3129 H              1 S1                 0.0000
     42 ****         6.8914   0.1949  -0.3928 H              1 S1                 0.0000
     43 ****         6.6815   3.0020   0.8125 H              1 S1                 0.0000
     44 ****         8.0734   2.2927   0.0225 H              1 S1                 0.0000
     45 ****         4.7459   3.5641  -0.5453 H              1 S1                 0.0000
     46 ****         4.8113   3.2352  -2.2632 H              1 S1                 0.0000
     47 ****         4.7163   0.8202  -1.9050 H              1 S1                 0.0000
     48 ****         3.3632   1.5615  -1.0886 H              1 S1                 0.0000
     49 ****        -1.5391   0.3111  -2.0118 H              1 S1                 0.0000
     50 ****        -3.0195  -0.5973  -2.0248 H              1 S1                 0.0000
     51 ****        -1.7863   0.3284   0.6394 H              1 S1                 0.0000
     52 ****        -2.6918   1.4143  -0.3812 H              1 S1                 0.0000
     53 ****        -4.0092   1.1106   2.1743 H              1 S1                 0.0000
     54 ****        -6.4975  -0.0153   0.6163 H              1 S1                 0.0000
     55 ****        -6.5692   1.0167   2.1348 H              1 S1                 0.0000
     56 ****        -5.3135   1.8060  -0.5962 H              1 S1                 0.0000
     57 ****        -5.4297   3.3302   2.0841 H              1 S1                 0.0000
     58 ****        -6.3386   3.7694   0.6291 H              1 S1                 0.0000
     59 ****        -4.5715   3.8862   0.6385 H              1 S1                 0.0000
     60 ****        -4.7436  -1.7092   1.4524 H              1 S1                 0.0000
     61 ****        -3.0945  -1.3977   1.9218 H              1 S1                 0.0000
     62 ****        -4.4591  -0.2698  -0.4156 H              1 S1                 0.0000
     63 ****        -0.2919  -1.8504  -3.3887 LP             1 S1                 0.0000
     64 ****         3.6463  -1.2828  -2.3988 LP             1 S1                 0.0000
     65 ****         0.0401  -0.8973   1.5633 LP             1 S1                 0.0000
     66 ****         4.6912   1.1404   2.1993 LP             1 S1                 0.0000
     67 ****         3.3741   1.4944   1.3011 LP             1 S1                 0.0000
     68 ****         6.8095   2.0799  -1.9272 LP             1 S1                 0.0000
     69 ****         6.9093   3.6318  -1.4289 LP             1 S1                 0.0000
@<TRIPOS>BOND
    1    1    2 1     
    2    1   30 1     
    3    1   31 1     
    4    1   32 1     
    5    2   29 1     
    6    2    3 1     
    7    2   33 1     
    8    3    4 1     
    9    3   34 1     
   10    3   35 1     
   11    4    5 1     
   12    4   22 1     
   13    5   10 ar    
   14    5    6 ar    
   15    6    7 ar    
   16    7    8 ar    
   17    7   36 1     
   18    8    9 ar    
   19    9   13 1     
   20    9   10 ar    
   21   10   11 1     
   22   11   12 2     
   23   12   13 1     
   24   12   37 1     
   25   13   14 1     
   26   14   15 1     
   27   14   38 1     
   28   14   39 1     
   29   15   21 1     
   30   15   16 1     
   31   15   17 1     
   32   16   40 1     
   33   17   18 1     
   34   17   41 1     
   35   17   42 1     
   36   18   19 1     
   37   18   43 1     
   38   18   44 1     
   39   19   20 1     
   40   20   21 1     
   41   20   45 1     
   42   20   46 1     
   43   21   47 1     
   44   21   48 1     
   45   22   23 1     
   46   22   49 1     
   47   22   50 1     
   48   23   24 1     
   49   23   51 1     
   50   23   52 1     
   51   24   25 1     
   52   24   29 1     
   53   24   62 1     
   54   25   27 1     
   55   25   26 1     
   56   25   53 1     
   57   26   27 1     
   58   26   54 1     
   59   26   55 1     
   60   27   28 1     
   61   27   56 1     
   62   28   57 1     
   63   28   58 1     
   64   28   59 1     
   65   29   60 1     
   66   29   61 1     
   67    6   63 1     
   68    8   64 1     
   69   11   65 1     
   70   16   66 1     
   71   16   67 1     
   72   19   68 1     
   73   19   69 1     
@<TRIPOS>SUBSTRUCTURE
      1 S1             1
@<TRIPOS>SET
LONE_PAIRS      STATIC     ATOMS    <user>   **** ""
7 63 64 65 66 67 68 69
DONOR_HYDROGENS      STATIC     ATOMS    <user>   **** ""
2 40 62
ATOM$BLUE        STATIC     ATOMS    COLORGROUP SYSTEM
7 63 64 65 66 67 68 69
ATOM$RED        STATIC     ATOMS    COLORGROUP SYSTEM
2 40 62
