AV-unprocessed.smi:2212|AV-procd|sdf|8952|dock2
  -GOLD-   2272012163D 1   1.00000     0.00000
 Structure written by MMmdl.
 32 33  0  0  0  0  0  0  0  0  2 V2000
  143.5941  134.8129  153.1973 C   0  0  0  0  0  0  0  0  0  0  0  0
  144.7954  134.1452  152.8313 O   0  0  0  0  0  0  0  0  0  0  0  0
  145.0491  133.9965  151.4299 C   0  0  0  0  0  0  0  0  0  0  0  0
  145.1161  135.3527  150.7114 C   0  0  0  0  0  0  0  0  0  0  0  0
  146.1528  136.2119  151.2757 N   0  0  0  0  0  0  0  0  0  0  0  0
  145.9373  137.2642  152.0782 C   0  0  0  0  0  0  0  0  0  0  0  0
  144.8205  137.6093  152.4661 O   0  0  0  0  0  0  0  0  0  0  0  0
  147.0859  137.8844  152.3964 N   0  0  0  0  0  0  0  0  0  0  0  0
  147.2378  139.0442  153.1980 C   0  0  0  0  0  0  0  0  0  0  0  0
  146.3509  140.0279  153.3666 N   0  3  0  0  0  0  0  0  0  0  0  0
  146.8817  140.9648  154.2169 C   0  0  0  0  0  0  0  0  0  0  0  0
  148.1298  140.4979  154.5510 C   0  0  0  0  0  0  0  0  0  0  0  0
  148.3667  139.2932  153.9182 O   0  0  0  0  0  0  0  0  0  0  0  0
  146.2426  133.0320  151.2898 C   0  0  0  0  0  0  0  0  0  0  0  0
  145.2594  131.8613  151.2565 C   0  0  0  0  0  0  0  0  0  0  0  0
  144.1866  132.8653  150.8307 C   0  0  0  0  0  0  0  0  0  0  0  0
  143.4559  134.7303  154.2752 H   0  0  0  0  0  0  0  0  0  0  0  0
  142.7159  134.3812  152.7187 H   0  0  0  0  0  0  0  0  0  0  0  0
  143.6351  135.8754  152.9582 H   0  0  0  0  0  0  0  0  0  0  0  0
  145.2883  135.2094  149.6433 H   0  0  0  0  0  0  0  0  0  0  0  0
  144.1628  135.8766  150.7768 H   0  0  0  0  0  0  0  0  0  0  0  0
  147.1028  136.0024  151.0057 H   0  0  0  0  0  0  0  0  0  0  0  0
  145.4302  140.1041  152.9515 H   0  0  0  0  0  0  0  0  0  0  0  0
  146.3297  141.8518  154.4928 H   0  0  0  0  0  0  0  0  0  0  0  0
  148.9223  140.8740  155.1817 H   0  0  0  0  0  0  0  0  0  0  0  0
  146.7739  133.1491  150.3440 H   0  0  0  0  0  0  0  0  0  0  0  0
  146.9330  133.0263  152.1340 H   0  0  0  0  0  0  0  0  0  0  0  0
  145.4872  131.0935  150.5169 H   0  0  0  0  0  0  0  0  0  0  0  0
  145.0735  131.4343  152.2433 H   0  0  0  0  0  0  0  0  0  0  0  0
  143.2144  132.7017  151.2941 H   0  0  0  0  0  0  0  0  0  0  0  0
  144.0960  132.9374  149.7455 H   0  0  0  0  0  0  0  0  0  0  0  0
  147.9371  137.4942  152.0194 H   0  0  0  0  0  0  0  0  0  0  0  0
  1  2  1  0  0  0  0
  1 17  1  0  0  0  0
  1 18  1  0  0  0  0
  1 19  1  0  0  0  0
  2  3  1  0  0  0  0
  3 16  1  0  0  0  0
  3  4  1  0  0  0  0
  3 14  1  0  0  0  0
  4  5  1  0  0  0  0
  4 20  1  0  0  0  0
  4 21  1  0  0  0  0
  5 22  1  0  0  0  0
  5  6  1  0  0  0  0
  6  8  1  0  0  0  0
  6  7  2  0  0  0  0
  8  9  1  0  0  0  0
  8 32  1  0  0  0  0
  9 13  1  0  0  0  0
  9 10  2  0  0  0  0
 10 23  1  0  0  0  0
 10 11  1  0  0  0  0
 11 24  1  0  0  0  0
 11 12  2  0  0  0  0
 12 25  1  0  0  0  0
 12 13  1  0  0  0  0
 14 15  1  0  0  0  0
 14 26  1  0  0  0  0
 14 27  1  0  0  0  0
 15 16  1  0  0  0  0
 15 28  1  0  0  0  0
 15 29  1  0  0  0  0
 16 30  1  0  0  0  0
 16 31  1  0  0  0  0
M  CHG  1  10   1
M  END
> <s_m_source_file>
AV-unprocessed.smi

> <i_m_source_file_index>
2212

> <i_lp_mmshare_version>
43012

> <i_f3d_flags>
0

> <s_epik_input>
W0NIMl0xW0NIMl1bQ0gyXUMxKE9bQ0gzXSlbQ0gyXVtOSF1DKD1PKVtOSF1jMm5bY0hdW2NIXW8y

> <s_epik_cmdline>
J2VwaWtfcHl0aG9uJywgJy1waCcsICc3LjAnLCAnLXRuJywgJzgnLCAnLW1hJywgJzIwMCcsICctbWV0YWxfYmluZGluZycsICctaW1hZScsICc8aW5maWxlLm1hZT4nLCAnLW9tYWUnLCAnPG91dGZpbGUubWFlPic=

> <r_epik_Ionization_Penalty>
6.73843

> <r_epik_Ionization_Penalty_Charging>
6.66704

> <r_epik_Ionization_Penalty_Neutral>
0.0713889

> <r_epik_State_Penalty>
1.94951

> <r_epik_Charging_Adjusted_Penalty>
8.61656

> <i_epik_Tot_Q>
1

> <i_epik_Tot_abs_Q>
1

> <r_epik_Metal_State_Penalty>
1.97013

> <b_epik_Metal_Only>
0

> <s_lp_Force_Field>
OPLS_2005

> <r_lp_Energy>
24.3681

> <b_lp_Chiralities_Consistent>
1

> <s_lp_Variant>
AV-unprocessed.smi:2212-2

> <Gold.Version>
5.8.1

> <Gold.Id.Protein>
6NUR|6NUR_protein|mol2

> <Gold.PLP.Fitness>
36.0726

> <Gold.PLP.PLP>
-25.2707

> <Gold.PLP.part.hbond>
-3.0000

> <Gold.PLP.part.metal>
0.0000

> <Gold.PLP.part.buried>
-6.1186

> <Gold.PLP.part.nonpolar>
-19.2088

> <Gold.PLP.part.repulsive>
2.4848

> <Gold.PLP.ligand.clash>
0.0000

> <Gold.PLP.ligand.torsion>
0.3979

> <Gold.PLP.Chemscore.Hbond>
3.7520

> <Gold.PLP.Chemscore.CHOScore>
0.0000

> <Gold.PLP.Chemscore.Metal>
0.0000

> <Gold.Chemscore.Hbonds>
donor molecule, donor type, donor heavy atom, donor atom, acceptor molecule, acceptor atom, score
      L1  H     5    22       P1  7948  0.75
      L1  H     8    32       P1  7948  1.00
      L1  H    10    23       P1 10175  2.00

> <Gold.PLP.Chemscore.Internal.Correction>
0.3417

> <Gold.Rescore>
     Score         DG    S(hbond)    S(metal)    S(lipo)     H(rot)  DE(clash)    DE(int)     intcor
     15.82     -16.32       2.92        0.00      45.72       1.67       0.02       0.48       ----

> <Gold.Chemscore.Fitness>
15.8213

> <Gold.Chemscore.DG>
-16.3234

> <Gold.Chemscore.ZeroCoef>
-5.4800

> <Gold.Chemscore.Hbond>
2.9210

> <Gold.Chemscore.Metal>
0.0000

> <Gold.Chemscore.Lipo>
45.7235

> <Gold.Chemscore.Internal_Hbond>
0.0000

> <Gold.Chemscore.DEClash>
0.0234

> <Gold.Chemscore.DEInternal>
0.4786

> <Gold.Chemscore.Rot>
1.6650

> <Gold.Chemscore.Internal.Correction>
   9.000000E+99

> <Gold.Chemscore.Hbonds>
donor molecule, donor type, donor heavy atom, donor atom, acceptor molecule, acceptor atom, score
      L1  H     5    22       P1  7948  0.68
      L1  H     8    32       P1  7948  0.94
      L1  H    10    23       P1 10175  0.99

> <Gold.Chemscore.Hbond.Weighted>
-9.7562

> <Gold.Chemscore.Metal.Weighted>
-0.0000

> <Gold.Chemscore.Lipo.Weighted>
-5.3497

> <Gold.Chemscore.Internal_Hbond.Weighted>
0.0000

> <Gold.Chemscore.DEClash.Weighted>
0.0234

> <Gold.Chemscore.DEInternal.Weighted>
0.4786

> <Gold.Chemscore.Rot.Weighted>
4.2625

> <Gold.Chemscore.Internal.Correction.Weighted>
   9.000000E+99

> <Gold.Protein.RotatedTorsions>
[ 6907 6896 6895 6894 ] final   47.58 input  -60.11 | X-H torsion
[ 7974 7965 7964 7962 ] final  108.02 input  175.53 | X-H torsion
[ 8008 7997 7996 7995 ] final  136.46 input   59.86 | X-H torsion
[ 10167 10162 10161 10158 ] final  -60.19 input  -65.29 | X-H torsion
[ 10718 10713 10712 10709 ] final  -79.66 input   66.30 | X-H torsion
[ 10763 10752 10751 10750 ] final  -55.62 input  -60.55 | X-H torsion
[ 11005 11000 10999 10996 ] final  131.96 input  -57.11 | X-H torsion

> <Gold.Protein.ActiveResidues>
 VAL166  LYS551  ARG553  GLY616  TRP617  ASP618  TYR619  PRO620  LYS621  CYS622 
 ASP623  PHE694  ASN695  SER759  ASP760  ASP761  ALA762  ILE779  LEU786  VAL792 
 PHE793  MET794  SER795  GLU796  ALA797  LYS798  CYS799  TRP800  GLU811  SER814 

> <Gold.Protein.RotatedAtoms>
  152.2697  134.7946  160.0416 H   0  0  0  0  0  0  0  0  0  0  0  0  # atno 6907 bound_to 6896
  151.8563  133.3444  159.3697 H   0  0  0  0  0  0  0  0  0  0  0  0  # atno 6908 bound_to 6896
  150.7147  134.5177  159.5683 H   0  0  0  0  0  0  0  0  0  0  0  0  # atno 6909 bound_to 6896
  145.2861  139.2616  143.3890 H   0  0  0  0  0  0  0  0  0  0  0  0  # atno 7974 bound_to 7965
  156.3004  140.2444  156.3749 H   0  0  0  0  0  0  0  0  0  0  0  0  # atno 8008 bound_to 7997
  154.8754  140.0414  157.1770 H   0  0  0  0  0  0  0  0  0  0  0  0  # atno 8009 bound_to 7997
  154.8751  140.2941  155.5462 H   0  0  0  0  0  0  0  0  0  0  0  0  # atno 8010 bound_to 7997
  140.6087  143.2381  151.5760 H   0  0  0  0  0  0  0  0  0  0  0  0  # atno 10167 bound_to 10162
  156.0087  130.4552  150.3682 H   0  0  0  0  0  0  0  0  0  0  0  0  # atno 10718 bound_to 10713
  154.1937  135.6423  153.5067 H   0  0  0  0  0  0  0  0  0  0  0  0  # atno 10763 bound_to 10752
  153.0028  135.5435  154.6388 H   0  0  0  0  0  0  0  0  0  0  0  0  # atno 10764 bound_to 10752
  154.5783  135.2923  155.0731 H   0  0  0  0  0  0  0  0  0  0  0  0  # atno 10765 bound_to 10752
  139.9761  134.9563  156.9514 H   0  0  0  0  0  0  0  0  0  0  0  0  # atno 11005 bound_to 11000
  146.3200  140.3340  142.8642 LP  0  0  0  0  0  0  0  0  0  0  0  0  # atno 17320 bound_to 7965
  144.9212  140.7870  143.5747 LP  0  0  0  0  0  0  0  0  0  0  0  0  # atno 17321 bound_to 7965
  139.5345  144.2822  152.1220 LP  0  0  0  0  0  0  0  0  0  0  0  0  # atno 17342 bound_to 10162
  140.2016  144.4652  150.6428 LP  0  0  0  0  0  0  0  0  0  0  0  0  # atno 17343 bound_to 10162
  157.1768  131.0382  151.2768 LP  0  0  0  0  0  0  0  0  0  0  0  0  # atno 17370 bound_to 10713
  157.4181  130.7422  149.6891 LP  0  0  0  0  0  0  0  0  0  0  0  0  # atno 17371 bound_to 10713
  140.5191  134.0925  155.7288 LP  0  0  0  0  0  0  0  0  0  0  0  0  # atno 17394 bound_to 11000
  141.1438  133.9091  157.2263 LP  0  0  0  0  0  0  0  0  0  0  0  0  # atno 17395 bound_to 11000

$$$$
