AV-unprocessed.smi:1683|AV-procd|sdf|6750|dock3
  -GOLD-   22720 7503D 1   1.00000     0.00000
 Structure written by MMmdl.
 37 38  0  0  0  0  0  0  0  0  2 V2000
  144.3757  136.3668  151.8083 O   0  0  0  0  0  0  0  0  0  0  0  0
  145.5926  136.1874  151.7519 C   0  0  0  0  0  0  0  0  0  0  0  0
  146.4930  137.1510  151.9934 N   0  0  0  0  0  0  0  0  0  0  0  0
  146.1647  138.5304  152.3380 C   0  0  0  0  0  0  0  0  0  0  0  0
  147.4108  139.3361  152.7522 C   0  0  1  0  0  0  0  0  0  0  0  0
  147.1214  140.7370  153.2848 C   0  0  0  0  0  0  0  0  0  0  0  0
  148.4002  141.0708  154.0478 C   0  0  0  0  0  0  0  0  0  0  0  0
  148.8511  139.7947  154.6486 N   0  3  2  0  0  0  0  0  0  0  0  0
  150.3200  139.6585  154.8121 C   0  0  0  0  0  0  0  0  0  0  0  0
  150.8663  140.4541  156.0114 C   0  0  0  0  0  0  0  0  0  0  0  0
  152.1528  140.1533  156.1814 F   0  0  0  0  0  0  0  0  0  0  0  0
  150.7647  141.7673  155.8089 F   0  0  0  0  0  0  0  0  0  0  0  0
  150.2009  140.1265  157.1190 F   0  0  0  0  0  0  0  0  0  0  0  0
  148.2195  138.6907  153.8851 C   0  0  0  0  0  0  0  0  0  0  0  0
  146.1893  135.0219  151.4524 N   0  0  0  0  0  0  0  0  0  0  0  0
  145.5608  133.7964  151.1147 C   0  0  0  0  0  0  0  0  0  0  0  0
  146.2117  132.5331  151.0880 C   0  0  0  0  0  0  0  0  0  0  0  0
  145.3777  131.5665  150.7323 N   0  0  0  0  0  0  0  0  0  0  0  0
  144.2009  132.2009  150.5298 N   0  0  0  0  0  0  0  0  0  0  0  0
  144.2653  133.5591  150.7498 C   0  0  0  0  0  0  0  0  0  0  0  0
  143.3721  131.6994  150.2433 H   0  0  0  0  0  0  0  0  0  0  0  0
  147.4728  136.9171  151.9241 H   0  0  0  0  0  0  0  0  0  0  0  0
  145.6900  138.9918  151.4716 H   0  0  0  0  0  0  0  0  0  0  0  0
  145.4224  138.5449  153.1380 H   0  0  0  0  0  0  0  0  0  0  0  0
  148.0738  139.4366  151.8908 H   0  0  0  0  0  0  0  0  0  0  0  0
  146.9026  141.4559  152.4945 H   0  0  0  0  0  0  0  0  0  0  0  0
  146.2720  140.7164  153.9693 H   0  0  0  0  0  0  0  0  0  0  0  0
  149.1508  141.4402  153.3470 H   0  0  0  0  0  0  0  0  0  0  0  0
  148.2410  141.8380  154.8061 H   0  0  0  0  0  0  0  0  0  0  0  0
  150.5468  138.6038  154.9758 H   0  0  0  0  0  0  0  0  0  0  0  0
  150.8303  139.9455  153.8911 H   0  0  0  0  0  0  0  0  0  0  0  0
  147.5664  138.1456  154.5677 H   0  0  0  0  0  0  0  0  0  0  0  0
  148.9450  137.9781  153.4891 H   0  0  0  0  0  0  0  0  0  0  0  0
  147.1986  135.0098  151.4594 H   0  0  0  0  0  0  0  0  0  0  0  0
  147.2404  132.2901  151.3104 H   0  0  0  0  0  0  0  0  0  0  0  0
  143.4089  134.2056  150.6273 H   0  0  0  0  0  0  0  0  0  0  0  0
  148.4493  139.7507  155.5743 H   0  0  0  0  0  0  0  0  0  0  0  0
  1  2  2  0  0  0  0
  2  3  1  0  0  0  0
  2 15  1  0  0  0  0
  3  4  1  0  0  0  0
  3 22  1  0  0  0  0
  4  5  1  0  0  0  0
  4 23  1  0  0  0  0
  4 24  1  0  0  0  0
  5 14  1  0  0  0  0
  5  6  1  0  0  0  0
  5 25  1  0  0  0  0
  6  7  1  0  0  0  0
  6 26  1  0  0  0  0
  6 27  1  0  0  0  0
  7  8  1  0  0  0  0
  7 28  1  0  0  0  0
  7 29  1  0  0  0  0
  8  9  1  0  0  0  0
  8 14  1  0  0  0  0
  8 37  1  0  0  0  0
  9 10  1  0  0  0  0
  9 30  1  0  0  0  0
  9 31  1  0  0  0  0
 10 11  1  0  0  0  0
 10 12  1  0  0  0  0
 10 13  1  0  0  0  0
 14 32  1  0  0  0  0
 14 33  1  0  0  0  0
 15 16  1  0  0  0  0
 15 34  1  0  0  0  0
 16 20  2  0  0  0  0
 16 17  1  0  0  0  0
 17 18  2  0  0  0  0
 17 35  1  0  0  0  0
 18 19  1  0  0  0  0
 19 21  1  0  0  0  0
 19 20  1  0  0  0  0
 20 36  1  0  0  0  0
M  CHG  1   8   1
M  END
> <s_m_source_file>
AV-unprocessed.smi

> <i_m_source_file_index>
1683

> <i_lp_mmshare_version>
43012

> <i_f3d_flags>
0

> <s_epik_input>
W2NIXTFbbkhdbltjSF1jMVtOSF1DKD1PKVtOSF1bQ0gyXVtDQEBIXTJbQ0gyXVtDSDJdTihbQ0gyXTIpW0NIMl1DKEYpKEYpRg==

> <s_epik_cmdline>
J2VwaWtfcHl0aG9uJywgJy1waCcsICc3LjAnLCAnLXRuJywgJzgnLCAnLW1hJywgJzIwMCcsICctbWV0YWxfYmluZGluZycsICctaW1hZScsICc8aW5maWxlLm1hZT4nLCAnLW9tYWUnLCAnPG91dGZpbGUubWFlPic=

> <r_lp_tautomer_probability>
0.5

> <r_epik_Ionization_Penalty>
0.641865

> <r_epik_Ionization_Penalty_Charging>
0.64182

> <r_epik_Ionization_Penalty_Neutral>
4.50685e-05

> <r_epik_State_Penalty>
0.65957

> <r_epik_Charging_Adjusted_Penalty>
1.30139

> <i_epik_Tot_Q>
1

> <i_epik_Tot_abs_Q>
1

> <r_epik_Metal_State_Penalty>
0.659571

> <b_epik_Metal_Only>
0

> <s_lp_Force_Field>
OPLS_2005

> <r_lp_Energy>
31.4735

> <b_lp_Chiralities_Consistent>
1

> <s_lp_Variant>
AV-unprocessed.smi:1683-4

> <Gold.Version>
5.8.1

> <Gold.Id.Protein>
6NUR|6NUR_protein|mol2

> <Gold.PLP.Fitness>
43.3199

> <Gold.PLP.PLP>
-32.9580

> <Gold.PLP.part.hbond>
-2.0000

> <Gold.PLP.part.metal>
0.0000

> <Gold.PLP.part.buried>
-3.1102

> <Gold.PLP.part.nonpolar>
-29.9704

> <Gold.PLP.part.repulsive>
1.9126

> <Gold.PLP.ligand.clash>
0.0000

> <Gold.PLP.ligand.torsion>
0.3222

> <Gold.PLP.Chemscore.Hbond>
1.6989

> <Gold.PLP.Chemscore.CHOScore>
1.8193

> <Gold.PLP.Chemscore.Metal>
0.0000

> <Gold.Chemscore.Hbonds>
donor molecule, donor type, donor heavy atom, donor atom, acceptor molecule, acceptor atom, score
      L1  H     3    22       P1  7948  1.00
      L1  H    15    34       P1  7948  0.68
      L1  C    17    35       P1 10747  1.00
      L1  C    20    36       P1 10186  0.74

> <Gold.PLP.Chemscore.Internal.Correction>
0.4517

> <Gold.Rescore>
     Score         DG    S(hbond)    S(metal)    S(lipo)     H(rot)  DE(clash)    DE(int)     intcor
     12.19     -14.38       1.89        0.00      61.77       1.81       0.12       2.07       ----

> <Gold.Chemscore.Fitness>
12.1880

> <Gold.Chemscore.DG>
-14.3769

> <Gold.Chemscore.ZeroCoef>
-5.4800

> <Gold.Chemscore.Hbond>
1.8884

> <Gold.Chemscore.Metal>
0.0000

> <Gold.Chemscore.Lipo>
61.7715

> <Gold.Chemscore.Internal_Hbond>
0.0000

> <Gold.Chemscore.DEClash>
0.1207

> <Gold.Chemscore.DEInternal>
2.0682

> <Gold.Chemscore.Rot>
1.8116

> <Gold.Chemscore.Internal.Correction>
   9.000000E+99

> <Gold.Chemscore.Hbonds>
donor molecule, donor type, donor heavy atom, donor atom, acceptor molecule, acceptor atom, score
      L1  H     3    22       P1  7948  0.99
      L1  H    15    34       P1  7948  0.53

> <Gold.Chemscore.Hbond.Weighted>
-6.3074

> <Gold.Chemscore.Metal.Weighted>
-0.0000

> <Gold.Chemscore.Lipo.Weighted>
-7.2273

> <Gold.Chemscore.Internal_Hbond.Weighted>
0.0000

> <Gold.Chemscore.DEClash.Weighted>
0.1207

> <Gold.Chemscore.DEInternal.Weighted>
2.0682

> <Gold.Chemscore.Rot.Weighted>
4.6378

> <Gold.Chemscore.Internal.Correction.Weighted>
   9.000000E+99

> <Gold.Protein.RotatedTorsions>
[ 6907 6896 6895 6894 ] final    0.91 input  -60.11 | X-H torsion
[ 7974 7965 7964 7962 ] final  100.51 input  175.53 | X-H torsion
[ 8008 7997 7996 7995 ] final  -43.47 input   59.86 | X-H torsion
[ 10167 10162 10161 10158 ] final   44.36 input  -65.29 | X-H torsion
[ 10718 10713 10712 10709 ] final  -59.73 input   66.30 | X-H torsion
[ 10763 10752 10751 10750 ] final   78.61 input  -60.55 | X-H torsion
[ 11005 11000 10999 10996 ] final   69.94 input  -57.11 | X-H torsion

> <Gold.Protein.ActiveResidues>
 VAL166  LYS551  ARG553  GLY616  TRP617  ASP618  TYR619  PRO620  LYS621  CYS622 
 ASP623  PHE694  ASN695  SER759  ASP760  ASP761  ALA762  ILE779  LEU786  VAL792 
 PHE793  MET794  SER795  GLU796  ALA797  LYS798  CYS799  TRP800  GLU811  SER814 

> <Gold.Protein.RotatedAtoms>
  151.5841  135.1057  160.0023 H   0  0  0  0  0  0  0  0  0  0  0  0  # atno 6907 bound_to 6896
  152.4339  133.7322  159.6604 H   0  0  0  0  0  0  0  0  0  0  0  0  # atno 6908 bound_to 6896
  150.8235  133.8142  159.3152 H   0  0  0  0  0  0  0  0  0  0  0  0  # atno 6909 bound_to 6896
  145.3846  139.2373  143.3385 H   0  0  0  0  0  0  0  0  0  0  0  0  # atno 7974 bound_to 7965
  154.3997  140.1447  156.3525 H   0  0  0  0  0  0  0  0  0  0  0  0  # atno 8008 bound_to 7997
  155.8256  140.3468  155.5520 H   0  0  0  0  0  0  0  0  0  0  0  0  # atno 8009 bound_to 7997
  155.8242  140.0902  157.1821 H   0  0  0  0  0  0  0  0  0  0  0  0  # atno 8010 bound_to 7997
  140.3350  144.2541  150.6163 H   0  0  0  0  0  0  0  0  0  0  0  0  # atno 10167 bound_to 10162
  156.1040  130.4182  150.0756 H   0  0  0  0  0  0  0  0  0  0  0  0  # atno 10718 bound_to 10713
  153.0888  135.4870  154.8649 H   0  0  0  0  0  0  0  0  0  0  0  0  # atno 10763 bound_to 10752
  154.7243  135.3046  154.8998 H   0  0  0  0  0  0  0  0  0  0  0  0  # atno 10764 bound_to 10752
  153.9653  135.6807  153.4799 H   0  0  0  0  0  0  0  0  0  0  0  0  # atno 10765 bound_to 10752
  139.9625  134.7036  156.0615 H   0  0  0  0  0  0  0  0  0  0  0  0  # atno 11005 bound_to 11000
  146.2826  140.4519  142.8770 LP  0  0  0  0  0  0  0  0  0  0  0  0  # atno 17320 bound_to 7965
  144.8483  140.6962  143.6185 LP  0  0  0  0  0  0  0  0  0  0  0  0  # atno 17321 bound_to 7965
  140.5362  143.2233  151.8160 LP  0  0  0  0  0  0  0  0  0  0  0  0  # atno 17342 bound_to 10162
  139.4850  144.4659  151.9485 LP  0  0  0  0  0  0  0  0  0  0  0  0  # atno 17343 bound_to 10162
  156.8736  130.9532  151.3607 LP  0  0  0  0  0  0  0  0  0  0  0  0  # atno 17370 bound_to 10713
  157.6215  130.8658  149.9116 LP  0  0  0  0  0  0  0  0  0  0  0  0  # atno 17371 bound_to 10713
  141.1303  133.6588  156.3448 LP  0  0  0  0  0  0  0  0  0  0  0  0  # atno 17394 bound_to 11000
  140.5468  134.6067  157.5396 LP  0  0  0  0  0  0  0  0  0  0  0  0  # atno 17395 bound_to 11000

$$$$
