AV-unprocessed.smi:1870|AV-procd|sdf|7595|dock4
  -GOLD-   22720 9313D 1   1.00000     0.00000
 Structure written by MMmdl.
 48 50  0  0  0  0  0  0  0  0  2 V2000
  149.0475  140.2554  154.5562 C   0  0  0  0  0  0  0  0  0  0  0  0
  150.0648  139.3192  155.1511 C   0  0  0  0  0  0  0  0  0  0  0  0
  150.0422  138.0961  154.7332 N   0  0  0  0  0  0  0  0  0  0  0  0
  150.9340  137.1557  155.2114 N   0  0  0  0  0  0  0  0  0  0  0  0
  150.7556  135.8171  154.6358 C   0  0  0  0  0  0  0  0  0  0  0  0
  149.3967  135.1967  155.0267 C   0  0  2  0  0  0  0  0  0  0  0  0
  149.4403  134.8318  156.3928 O   0  0  0  0  0  0  0  0  0  0  0  0
  149.1060  133.9162  154.2166 C   0  0  0  0  0  0  0  0  0  0  0  0
  148.0347  134.1013  153.2029 N   0  3  2  0  0  0  0  0  0  0  0  0
  146.8493  134.8002  153.7532 C   0  0  0  0  0  0  0  0  0  0  0  0
  145.9300  135.2603  152.6147 C   0  0  0  0  0  0  0  0  0  0  0  0
  145.6250  134.1438  151.6332 C   0  0  0  0  0  0  0  0  0  0  0  0
  144.5258  134.2606  150.7576 C   0  0  0  0  0  0  0  0  0  0  0  0
  144.2591  133.2468  149.8180 C   0  0  0  0  0  0  0  0  0  0  0  0
  145.0929  132.1148  149.7486 C   0  0  0  0  0  0  0  0  0  0  0  0
  146.1918  131.9947  150.6208 C   0  0  0  0  0  0  0  0  0  0  0  0
  146.4639  133.0054  151.5666 C   0  0  0  0  0  0  0  0  0  0  0  0
  147.6443  132.8399  152.5168 C   0  0  0  0  0  0  0  0  0  0  0  0
  151.8981  137.4029  156.1435 C   0  0  0  0  0  0  0  0  0  0  0  0
  152.6696  136.5314  156.5466 O   0  0  0  0  0  0  0  0  0  0  0  0
  151.9194  138.7908  156.6114 C   0  0  0  0  0  0  0  0  0  0  0  0
  152.9199  139.0957  157.5830 C   0  0  0  0  0  0  0  0  0  0  0  0
  153.7428  139.3274  158.3636 N   0  0  0  0  0  0  0  0  0  0  0  0
  151.0476  139.7228  156.1515 C   0  0  0  0  0  0  0  0  0  0  0  0
  151.0286  141.1758  156.6066 C   0  0  0  0  0  0  0  0  0  0  0  0
  149.5318  141.1298  154.1215 H   0  0  0  0  0  0  0  0  0  0  0  0
  148.3475  140.5993  155.3180 H   0  0  0  0  0  0  0  0  0  0  0  0
  148.4666  139.7769  153.7662 H   0  0  0  0  0  0  0  0  0  0  0  0
  150.8027  135.9193  153.5498 H   0  0  0  0  0  0  0  0  0  0  0  0
  151.5810  135.1468  154.8839 H   0  0  0  0  0  0  0  0  0  0  0  0
  148.6049  135.9295  154.8747 H   0  0  0  0  0  0  0  0  0  0  0  0
  148.8325  135.3738  156.8730 H   0  0  0  0  0  0  0  0  0  0  0  0
  150.0104  133.5675  153.7155 H   0  0  0  0  0  0  0  0  0  0  0  0
  148.8224  133.1254  154.9131 H   0  0  0  0  0  0  0  0  0  0  0  0
  146.3163  134.1302  154.4301 H   0  0  0  0  0  0  0  0  0  0  0  0
  147.1494  135.6704  154.3380 H   0  0  0  0  0  0  0  0  0  0  0  0
  144.9990  135.6541  153.0247 H   0  0  0  0  0  0  0  0  0  0  0  0
  146.4015  136.0748  152.0637 H   0  0  0  0  0  0  0  0  0  0  0  0
  143.8874  135.1312  150.7997 H   0  0  0  0  0  0  0  0  0  0  0  0
  143.4173  133.3393  149.1477 H   0  0  0  0  0  0  0  0  0  0  0  0
  144.8889  131.3378  149.0265 H   0  0  0  0  0  0  0  0  0  0  0  0
  146.8236  131.1202  150.5643 H   0  0  0  0  0  0  0  0  0  0  0  0
  148.4871  132.4484  151.9483 H   0  0  0  0  0  0  0  0  0  0  0  0
  147.3773  132.0853  153.2580 H   0  0  0  0  0  0  0  0  0  0  0  0
  151.7099  141.3554  157.4376 H   0  0  0  0  0  0  0  0  0  0  0  0
  150.0312  141.4657  156.9385 H   0  0  0  0  0  0  0  0  0  0  0  0
  151.3236  141.8334  155.7884 H   0  0  0  0  0  0  0  0  0  0  0  0
  148.4162  134.7159  152.4974 H   0  0  0  0  0  0  0  0  0  0  0  0
  1  2  1  0  0  0  0
  1 26  1  0  0  0  0
  1 27  1  0  0  0  0
  1 28  1  0  0  0  0
  2 24  1  0  0  0  0
  2  3  2  0  0  0  0
  3  4  1  0  0  0  0
  4  5  1  0  0  0  0
  4 19  1  0  0  0  0
  5  6  1  0  0  0  0
  5 29  1  0  0  0  0
  5 30  1  0  0  0  0
  6  7  1  0  0  0  0
  6  8  1  0  0  0  0
  6 31  1  0  0  0  0
  7 32  1  0  0  0  0
  8  9  1  0  0  0  0
  8 33  1  0  0  0  0
  8 34  1  0  0  0  0
  9 18  1  0  0  0  0
  9 10  1  0  0  0  0
  9 48  1  0  0  0  0
 10 11  1  0  0  0  0
 10 35  1  0  0  0  0
 10 36  1  0  0  0  0
 11 12  1  0  0  0  0
 11 37  1  0  0  0  0
 11 38  1  0  0  0  0
 12 17  2  0  0  0  0
 12 13  1  0  0  0  0
 13 14  2  0  0  0  0
 13 39  1  0  0  0  0
 14 15  1  0  0  0  0
 14 40  1  0  0  0  0
 15 16  2  0  0  0  0
 15 41  1  0  0  0  0
 16 17  1  0  0  0  0
 16 42  1  0  0  0  0
 17 18  1  0  0  0  0
 18 43  1  0  0  0  0
 18 44  1  0  0  0  0
 19 20  2  0  0  0  0
 19 21  1  0  0  0  0
 21 22  1  0  0  0  0
 21 24  2  0  0  0  0
 22 23  3  0  0  0  0
 24 25  1  0  0  0  0
 25 45  1  0  0  0  0
 25 46  1  0  0  0  0
 25 47  1  0  0  0  0
M  CHG  1   9   1
M  END
> <s_m_source_file>
AV-unprocessed.smi

> <i_m_source_file_index>
1870

> <i_lp_mmshare_version>
43012

> <i_f3d_flags>
0

> <s_epik_input>
TiNDYyhjMVtDSDNdKWMoPU8pbihuYzFbQ0gzXSlbQ0gyXVtDQEhdKFtPSF0pW0NIMl1OKFtDSDJdW0NIMl0yKVtDSDJdYyhjMjMpW2NIXVtjSF1bY0hdW2NIXTM=

> <s_epik_cmdline>
J2VwaWtfcHl0aG9uJywgJy1waCcsICc3LjAnLCAnLXRuJywgJzgnLCAnLW1hJywgJzIwMCcsICctbWV0YWxfYmluZGluZycsICctaW1hZScsICc8aW5maWxlLm1hZT4nLCAnLW9tYWUnLCAnPG91dGZpbGUubWFlPic=

> <r_epik_Ionization_Penalty>
0.0122865

> <r_epik_Ionization_Penalty_Charging>
0.0122864

> <r_epik_Ionization_Penalty_Neutral>
1.48087e-07

> <r_epik_State_Penalty>
0.00950248

> <r_epik_Charging_Adjusted_Penalty>
0.0217889

> <i_epik_Tot_Q>
1

> <i_epik_Tot_abs_Q>
1

> <r_epik_Metal_State_Penalty>
0.00950248

> <b_epik_Metal_Only>
0

> <s_lp_Force_Field>
OPLS_2005

> <r_lp_Energy>
38.404

> <b_lp_Chiralities_Consistent>
1

> <s_lp_Variant>
AV-unprocessed.smi:1870-3

> <Gold.Version>
5.8.1

> <Gold.Id.Protein>
6NUR|6NUR_protein|mol2

> <Gold.PLP.Fitness>
50.6494

> <Gold.PLP.PLP>
-40.2728

> <Gold.PLP.part.hbond>
-3.0000

> <Gold.PLP.part.metal>
0.0000

> <Gold.PLP.part.buried>
-0.0230

> <Gold.PLP.part.nonpolar>
-36.5358

> <Gold.PLP.part.repulsive>
0.1838

> <Gold.PLP.ligand.clash>
0.0000

> <Gold.PLP.ligand.torsion>
0.8221

> <Gold.PLP.Chemscore.Hbond>
4.0000

> <Gold.PLP.Chemscore.CHOScore>
0.0000

> <Gold.PLP.Chemscore.Metal>
0.0000

> <Gold.Chemscore.Hbonds>
donor molecule, donor type, donor heavy atom, donor atom, acceptor molecule, acceptor atom, score
      L1  H     9    48       P1  7948  1.90
      P1  H  7997  8008       L1    23  0.95
      P1  H 10752 10765       L1    20  1.00

> <Gold.PLP.Chemscore.Internal.Correction>
0.0208

> <Gold.Rescore>
     Score         DG    S(hbond)    S(metal)    S(lipo)     H(rot)  DE(clash)    DE(int)     intcor
     19.15     -20.56       2.54        0.00     103.76       2.16       0.64       0.77       ----

> <Gold.Chemscore.Fitness>
19.1484

> <Gold.Chemscore.DG>
-20.5568

> <Gold.Chemscore.ZeroCoef>
-5.4800

> <Gold.Chemscore.Hbond>
2.5370

> <Gold.Chemscore.Metal>
0.0000

> <Gold.Chemscore.Lipo>
103.7595

> <Gold.Chemscore.Internal_Hbond>
0.0000

> <Gold.Chemscore.DEClash>
0.6403

> <Gold.Chemscore.DEInternal>
0.7681

> <Gold.Chemscore.Rot>
2.1628

> <Gold.Chemscore.Internal.Correction>
   9.000000E+99

> <Gold.Chemscore.Hbonds>
donor molecule, donor type, donor heavy atom, donor atom, acceptor molecule, acceptor atom, score
      L1  H     9    48       P1  7948  0.21
      P1  H  7997  8008       L1    23  0.21
      P1  H 10752 10765       L1    20  0.91

> <Gold.Chemscore.Hbond.Weighted>
-8.4737

> <Gold.Chemscore.Metal.Weighted>
-0.0000

> <Gold.Chemscore.Lipo.Weighted>
-12.1399

> <Gold.Chemscore.Internal_Hbond.Weighted>
0.0000

> <Gold.Chemscore.DEClash.Weighted>
0.6403

> <Gold.Chemscore.DEInternal.Weighted>
0.7681

> <Gold.Chemscore.Rot.Weighted>
5.5367

> <Gold.Chemscore.Internal.Correction.Weighted>
   9.000000E+99

> <Gold.Protein.RotatedTorsions>
[ 6907 6896 6895 6894 ] final   93.32 input  -60.11 | X-H torsion
[ 7974 7965 7964 7962 ] final  -37.18 input  175.53 | X-H torsion
[ 8008 7997 7996 7995 ] final -113.59 input   59.86 | X-H torsion
[ 10167 10162 10161 10158 ] final   83.23 input  -65.29 | X-H torsion
[ 10718 10713 10712 10709 ] final  135.43 input   66.30 | X-H torsion
[ 10763 10752 10751 10750 ] final -131.05 input  -60.55 | X-H torsion
[ 11005 11000 10999 10996 ] final  165.16 input  -57.11 | X-H torsion

> <Gold.Protein.ActiveResidues>
 VAL166  LYS551  ARG553  GLY616  TRP617  ASP618  TYR619  PRO620  LYS621  CYS622 
 ASP623  PHE694  ASN695  SER759  ASP760  ASP761  ALA762  ILE779  LEU786  VAL792 
 PHE793  MET794  SER795  GLU796  ALA797  LYS798  CYS799  TRP800  GLU811  SER814 

> <Gold.Protein.RotatedAtoms>
  152.5452  134.1366  159.8461 H   0  0  0  0  0  0  0  0  0  0  0  0  # atno 6907 bound_to 6896
  151.1406  133.4966  159.2604 H   0  0  0  0  0  0  0  0  0  0  0  0  # atno 6908 bound_to 6896
  151.1577  135.0268  159.8751 H   0  0  0  0  0  0  0  0  0  0  0  0  # atno 6909 bound_to 6896
  146.0597  140.6366  142.9003 H   0  0  0  0  0  0  0  0  0  0  0  0  # atno 7974 bound_to 7965
  155.0231  140.0393  157.2445 H   0  0  0  0  0  0  0  0  0  0  0  0  # atno 8008 bound_to 7997
  154.7361  140.2740  155.6390 H   0  0  0  0  0  0  0  0  0  0  0  0  # atno 8009 bound_to 7997
  156.2853  140.2674  156.2075 H   0  0  0  0  0  0  0  0  0  0  0  0  # atno 8010 bound_to 7997
  139.9205  144.6215  150.8444 H   0  0  0  0  0  0  0  0  0  0  0  0  # atno 10167 bound_to 10162
  157.4572  131.1070  150.9964 H   0  0  0  0  0  0  0  0  0  0  0  0  # atno 10718 bound_to 10713
  154.8753  135.3842  154.4183 H   0  0  0  0  0  0  0  0  0  0  0  0  # atno 10763 bound_to 10752
  153.4890  135.7030  153.5900 H   0  0  0  0  0  0  0  0  0  0  0  0  # atno 10764 bound_to 10752
  153.4282  135.3885  155.2121 H   0  0  0  0  0  0  0  0  0  0  0  0  # atno 10765 bound_to 10752
  140.2533  134.7960  157.3522 H   0  0  0  0  0  0  0  0  0  0  0  0  # atno 11005 bound_to 11000
  144.7168  140.4236  143.7038 LP  0  0  0  0  0  0  0  0  0  0  0  0  # atno 17320 bound_to 7965
  145.6582  139.1576  143.2823 LP  0  0  0  0  0  0  0  0  0  0  0  0  # atno 17321 bound_to 7965
  140.7663  143.3300  151.2431 LP  0  0  0  0  0  0  0  0  0  0  0  0  # atno 17342 bound_to 10162
  139.6865  143.9764  152.2837 LP  0  0  0  0  0  0  0  0  0  0  0  0  # atno 17343 bound_to 10162
  157.0773  130.5889  149.5414 LP  0  0  0  0  0  0  0  0  0  0  0  0  # atno 17370 bound_to 10713
  156.0012  130.5092  150.7670 LP  0  0  0  0  0  0  0  0  0  0  0  0  # atno 17371 bound_to 10713
  140.1536  134.4818  155.7943 LP  0  0  0  0  0  0  0  0  0  0  0  0  # atno 17394 bound_to 11000
  141.2199  133.6872  156.7422 LP  0  0  0  0  0  0  0  0  0  0  0  0  # atno 17395 bound_to 11000

$$$$
