AV-unprocessed.smi:339|AV-procd|sdf|2379|dock2
  -GOLD-   2262022303D 1   1.00000     0.00000
 Structure written by MMmdl.
 45 46  0  0  0  0  0  0  0  0  1 V2000
  151.3138  144.4626  156.9192 C   0  0  0  0  0  0  0  0  0  0  0  0
  151.6000  143.2649  157.8056 C   0  0  0  0  0  0  0  0  0  0  0  0
  152.1489  143.4661  159.0889 C   0  0  0  0  0  0  0  0  0  0  0  0
  152.4293  142.3661  159.9204 C   0  0  0  0  0  0  0  0  0  0  0  0
  152.1693  141.0587  159.4696 C   0  0  0  0  0  0  0  0  0  0  0  0
  151.6210  140.8454  158.1881 C   0  0  0  0  0  0  0  0  0  0  0  0
  151.3587  139.4283  157.7123 C   0  0  0  0  0  0  0  0  0  0  0  0
  151.3207  141.9518  157.3586 C   0  0  0  0  0  0  0  0  0  0  0  0
  150.7813  141.7489  156.1148 O   0  0  0  0  0  0  0  0  0  0  0  0
  149.3749  141.5529  156.1321 C   0  0  0  0  0  0  0  0  0  0  0  0
  148.8338  141.6879  154.7000 C   0  0  1  0  0  0  0  0  0  0  0  0
  149.6829  140.9290  153.8610 O   0  0  0  0  0  0  0  0  0  0  0  0
  147.4038  141.1174  154.5706 C   0  0  0  0  0  0  0  0  0  0  0  0
  146.3796  142.1563  154.7324 N   0  0  0  0  0  0  0  0  0  0  0  0
  146.1526  142.9005  153.5920 N   0  0  0  0  0  0  0  0  0  0  0  0
  145.2904  143.8632  153.5769 C   0  0  0  0  0  0  0  0  0  0  0  0
  145.1284  144.6039  152.2771 C   0  0  0  0  0  0  0  0  0  0  0  0
  144.5358  144.1772  154.7863 C   0  0  0  0  0  0  0  0  0  0  0  0
  143.5335  145.3209  154.7113 C   0  0  0  0  0  0  0  0  0  0  0  0
  144.7612  143.4322  155.8974 C   0  0  0  0  0  0  0  0  0  0  0  0
  144.0624  143.6572  157.1214 C   0  0  0  0  0  0  0  0  0  0  0  0
  143.5094  143.8544  158.1191 N   0  0  0  0  0  0  0  0  0  0  0  0
  145.7391  142.3421  155.9219 C   0  0  0  0  0  0  0  0  0  0  0  0
  145.9744  141.6534  156.9160 O   0  0  0  0  0  0  0  0  0  0  0  0
  151.8996  145.3286  157.2285 H   0  0  0  0  0  0  0  0  0  0  0  0
  150.2584  144.7289  156.9727 H   0  0  0  0  0  0  0  0  0  0  0  0
  151.5630  144.2463  155.8801 H   0  0  0  0  0  0  0  0  0  0  0  0
  152.3581  144.4660  159.4402 H   0  0  0  0  0  0  0  0  0  0  0  0
  152.8491  142.5249  160.9027 H   0  0  0  0  0  0  0  0  0  0  0  0
  152.3946  140.2197  160.1112 H   0  0  0  0  0  0  0  0  0  0  0  0
  151.6400  139.3123  156.6651 H   0  0  0  0  0  0  0  0  0  0  0  0
  150.3014  139.1841  157.8139 H   0  0  0  0  0  0  0  0  0  0  0  0
  151.9325  138.7062  158.2936 H   0  0  0  0  0  0  0  0  0  0  0  0
  149.0970  140.5923  156.5702 H   0  0  0  0  0  0  0  0  0  0  0  0
  148.9396  142.3263  156.7658 H   0  0  0  0  0  0  0  0  0  0  0  0
  148.8557  142.7369  154.4017 H   0  0  0  0  0  0  0  0  0  0  0  0
  149.2512  140.8051  153.0296 H   0  0  0  0  0  0  0  0  0  0  0  0
  147.2840  140.5940  153.6198 H   0  0  0  0  0  0  0  0  0  0  0  0
  147.2388  140.3508  155.3301 H   0  0  0  0  0  0  0  0  0  0  0  0
  144.0822  144.6288  151.9720 H   0  0  0  0  0  0  0  0  0  0  0  0
  145.6941  144.1367  151.4696 H   0  0  0  0  0  0  0  0  0  0  0  0
  145.4782  145.6321  152.3733 H   0  0  0  0  0  0  0  0  0  0  0  0
  143.1365  145.5842  155.6911 H   0  0  0  0  0  0  0  0  0  0  0  0
  142.6919  145.0457  154.0752 H   0  0  0  0  0  0  0  0  0  0  0  0
  143.9971  146.2185  154.3007 H   0  0  0  0  0  0  0  0  0  0  0  0
  1  2  1  0  0  0  0
  1 25  1  0  0  0  0
  1 26  1  0  0  0  0
  1 27  1  0  0  0  0
  2  8  1  0  0  0  0
  2  3  2  0  0  0  0
  3  4  1  0  0  0  0
  3 28  1  0  0  0  0
  4  5  2  0  0  0  0
  4 29  1  0  0  0  0
  5  6  1  0  0  0  0
  5 30  1  0  0  0  0
  6  7  1  0  0  0  0
  6  8  2  0  0  0  0
  7 31  1  0  0  0  0
  7 32  1  0  0  0  0
  7 33  1  0  0  0  0
  8  9  1  0  0  0  0
  9 10  1  0  0  0  0
 10 11  1  0  0  0  0
 10 34  1  0  0  0  0
 10 35  1  0  0  0  0
 11 12  1  0  0  0  0
 11 13  1  0  0  0  0
 11 36  1  0  0  0  0
 12 37  1  0  0  0  0
 13 14  1  0  0  0  0
 13 38  1  0  0  0  0
 13 39  1  0  0  0  0
 14 23  1  0  0  0  0
 14 15  1  0  0  0  0
 15 16  2  0  0  0  0
 16 17  1  0  0  0  0
 16 18  1  0  0  0  0
 17 40  1  0  0  0  0
 17 41  1  0  0  0  0
 17 42  1  0  0  0  0
 18 19  1  0  0  0  0
 18 20  2  0  0  0  0
 19 43  1  0  0  0  0
 19 44  1  0  0  0  0
 19 45  1  0  0  0  0
 20 21  1  0  0  0  0
 20 23  1  0  0  0  0
 21 22  3  0  0  0  0
 23 24  2  0  0  0  0
M  END
> <s_m_source_file>
AV-unprocessed.smi

> <i_m_source_file_index>
339

> <i_lp_mmshare_version>
43012

> <i_f3d_flags>
0

> <s_epik_input>
W0NIM11jMVtjSF1bY0hdW2NIXWMoW0NIM10pYzFPW0NIMl1bQ0BIXShbT0hdKVtDSDJdbjJuYyhbQ0gzXSljKFtDSDNdKWMoQyNOKWMyPU8=

> <s_epik_cmdline>
J2VwaWtfcHl0aG9uJywgJy1waCcsICc3LjAnLCAnLXRuJywgJzgnLCAnLW1hJywgJzIwMCcsICctbWV0YWxfYmluZGluZycsICctaW1hZScsICc8aW5maWxlLm1hZT4nLCAnLW9tYWUnLCAnPG91dGZpbGUubWFlPic=

> <r_lp_tautomer_probability>
1

> <r_epik_Ionization_Penalty>
1.17331e-07

> <r_epik_Ionization_Penalty_Charging>
1.57223e-10

> <r_epik_Ionization_Penalty_Neutral>
1.17174e-07

> <r_epik_State_Penalty>
-0

> <r_epik_Charging_Adjusted_Penalty>
1.57223e-10

> <i_epik_Tot_Q>
0

> <i_epik_Tot_abs_Q>
0

> <r_epik_Metal_State_Penalty>
-0

> <b_epik_Metal_Only>
0

> <s_lp_Force_Field>
OPLS_2005

> <r_lp_Energy>
35.8185

> <b_lp_Chiralities_Consistent>
1

> <s_lp_Variant>
AV-unprocessed.smi:339-2

> <Gold.Version>
5.8.1

> <Gold.Id.Protein>
6NUR|6NUR_protein|mol2

> <Gold.PLP.Fitness>
46.6433

> <Gold.PLP.PLP>
-45.2769

> <Gold.PLP.part.hbond>
-2.9292

> <Gold.PLP.part.metal>
0.0000

> <Gold.PLP.part.buried>
-3.3386

> <Gold.PLP.part.nonpolar>
-38.4225

> <Gold.PLP.part.repulsive>
0.3385

> <Gold.PLP.ligand.clash>
0.0000

> <Gold.PLP.ligand.torsion>
1.2025

> <Gold.PLP.Chemscore.Hbond>
1.2280

> <Gold.PLP.Chemscore.CHOScore>
0.0000

> <Gold.PLP.Chemscore.Metal>
0.0000

> <Gold.Chemscore.Hbonds>
donor molecule, donor type, donor heavy atom, donor atom, acceptor molecule, acceptor atom, score
      L1  H    12    37       P1  7957  0.78
      P1  H  7989  7998       L1    12  0.43

> <Gold.PLP.Chemscore.Internal.Correction>
0.0874

> <Gold.Rescore>
     Score         DG    S(hbond)    S(metal)    S(lipo)     H(rot)  DE(clash)    DE(int)     intcor
     15.45     -17.35       1.07        0.00     120.96       2.29       0.66       1.25       ----

> <Gold.Chemscore.Fitness>
15.4491

> <Gold.Chemscore.DG>
-17.3522

> <Gold.Chemscore.ZeroCoef>
-5.4800

> <Gold.Chemscore.Hbond>
1.0728

> <Gold.Chemscore.Metal>
0.0000

> <Gold.Chemscore.Lipo>
120.9626

> <Gold.Chemscore.Internal_Hbond>
0.0000

> <Gold.Chemscore.DEClash>
0.6569

> <Gold.Chemscore.DEInternal>
1.2461

> <Gold.Chemscore.Rot>
2.2905

> <Gold.Chemscore.Internal.Correction>
   9.000000E+99

> <Gold.Chemscore.Hbonds>
donor molecule, donor type, donor heavy atom, donor atom, acceptor molecule, acceptor atom, score
      L1  H    12    37       P1  7957  0.74
      P1  H  7989  7998       L1    12  0.21

> <Gold.Chemscore.Hbond.Weighted>
-3.5832

> <Gold.Chemscore.Metal.Weighted>
-0.0000

> <Gold.Chemscore.Lipo.Weighted>
-14.1526

> <Gold.Chemscore.Internal_Hbond.Weighted>
0.0000

> <Gold.Chemscore.DEClash.Weighted>
0.6569

> <Gold.Chemscore.DEInternal.Weighted>
1.2461

> <Gold.Chemscore.Rot.Weighted>
5.8636

> <Gold.Chemscore.Internal.Correction.Weighted>
   9.000000E+99

> <Gold.Protein.RotatedTorsions>
[ 6907 6896 6895 6894 ] final   90.17 input  -60.11 | X-H torsion
[ 7974 7965 7964 7962 ] final   56.18 input  175.53 | X-H torsion
[ 8008 7997 7996 7995 ] final   47.96 input   59.86 | X-H torsion
[ 10167 10162 10161 10158 ] final   54.95 input  -65.29 | X-H torsion
[ 10718 10713 10712 10709 ] final -153.41 input   66.30 | X-H torsion
[ 10763 10752 10751 10750 ] final -108.58 input  -60.55 | X-H torsion
[ 11005 11000 10999 10996 ] final  -79.89 input  -57.11 | X-H torsion

> <Gold.Protein.ActiveResidues>
 VAL166  LYS551  ARG553  GLY616  TRP617  ASP618  TYR619  PRO620  LYS621  CYS622 
 ASP623  PHE694  ASN695  SER759  ASP760  ASP761  ALA762  ILE779  LEU786  VAL792 
 PHE793  MET794  SER795  GLU796  ALA797  LYS798  CYS799  TRP800  GLU811  SER814 

> <Gold.Protein.RotatedAtoms>
  152.5442  134.1853  159.8651 H   0  0  0  0  0  0  0  0  0  0  0  0  # atno 6907 bound_to 6896
  151.1852  133.4693  159.2602 H   0  0  0  0  0  0  0  0  0  0  0  0  # atno 6908 bound_to 6896
  151.1138  135.0053  159.8562 H   0  0  0  0  0  0  0  0  0  0  0  0  # atno 6909 bound_to 6896
  145.9426  139.3901  143.0354 H   0  0  0  0  0  0  0  0  0  0  0  0  # atno 7974 bound_to 7965
  155.3778  140.3427  155.4245 H   0  0  0  0  0  0  0  0  0  0  0  0  # atno 8008 bound_to 7997
  156.1627  140.1606  156.8618 H   0  0  0  0  0  0  0  0  0  0  0  0  # atno 8009 bound_to 7997
  154.5155  140.0779  156.8055 H   0  0  0  0  0  0  0  0  0  0  0  0  # atno 8010 bound_to 7997
  140.2246  144.3752  150.6437 H   0  0  0  0  0  0  0  0  0  0  0  0  # atno 10167 bound_to 10162
  156.4855  130.8323  151.2548 H   0  0  0  0  0  0  0  0  0  0  0  0  # atno 10718 bound_to 10713
  154.8144  135.4632  154.0603 H   0  0  0  0  0  0  0  0  0  0  0  0  # atno 10763 bound_to 10752
  153.2008  135.6868  153.8241 H   0  0  0  0  0  0  0  0  0  0  0  0  # atno 10764 bound_to 10752
  153.7726  135.3268  155.3331 H   0  0  0  0  0  0  0  0  0  0  0  0  # atno 10765 bound_to 10752
  141.1668  133.7125  156.8190 H   0  0  0  0  0  0  0  0  0  0  0  0  # atno 11005 bound_to 11000
  145.8280  140.9645  143.0864 LP  0  0  0  0  0  0  0  0  0  0  0  0  # atno 17320 bound_to 7965
  144.6781  140.0125  143.7484 LP  0  0  0  0  0  0  0  0  0  0  0  0  # atno 17321 bound_to 7965
  140.6230  143.2178  151.6655 LP  0  0  0  0  0  0  0  0  0  0  0  0  # atno 17342 bound_to 10162
  139.5132  144.3452  152.0703 LP  0  0  0  0  0  0  0  0  0  0  0  0  # atno 17343 bound_to 10162
  157.7479  131.0031  150.3024 LP  0  0  0  0  0  0  0  0  0  0  0  0  # atno 17370 bound_to 10713
  156.3479  130.3826  149.7354 LP  0  0  0  0  0  0  0  0  0  0  0  0  # atno 17371 bound_to 10713
  140.2133  134.8811  157.3298 LP  0  0  0  0  0  0  0  0  0  0  0  0  # atno 17394 bound_to 11000
  140.2064  134.4192  155.7635 LP  0  0  0  0  0  0  0  0  0  0  0  0  # atno 17395 bound_to 11000

$$$$
