AV-unprocessed.smi:2744|AV-procd|sdf|10568|dock1
  -GOLD-   2272015 23D 1   1.00000     0.00000
 Structure written by MMmdl.
 40 41  0  0  0  0  0  0  0  0  1 V2000
  146.1887  142.8598  155.0586 C   0  0  0  0  0  0  0  0  0  0  0  0
  146.5344  142.0489  153.7978 C   0  0  0  0  0  0  0  0  0  0  0  0
  147.4963  140.8534  154.0059 C   0  0  1  0  0  0  0  0  0  0  0  0
  147.1020  139.9941  155.2262 C   0  0  0  0  0  0  0  0  0  0  0  0
  147.4166  140.0252  152.8614 O   0  0  0  0  0  0  0  0  0  0  0  0
  148.9510  141.3827  154.1074 C   0  0  0  0  0  0  0  0  0  0  0  0
  149.5403  141.2813  155.4347 N   0  0  0  0  0  0  0  0  0  0  0  0
  149.0696  141.8673  156.5891 C   0  0  0  0  0  0  0  0  0  0  0  0
  149.7736  141.6315  157.6627 N   0  0  0  0  0  0  0  0  0  0  0  0
  150.8160  140.8327  157.2108 C   0  0  0  0  0  0  0  0  0  0  0  0
  151.9333  140.2257  157.8406 C   0  0  0  0  0  0  0  0  0  0  0  0
  152.1507  140.3767  159.1663 N   0  0  0  0  0  0  0  0  0  0  0  0
  153.1768  141.2836  159.6732 C   0  0  0  0  0  0  0  0  0  0  0  0
  154.2135  140.5328  160.5257 C   0  0  0  0  0  0  0  0  0  0  0  0
  152.5226  142.4142  160.4777 C   0  0  0  0  0  0  0  0  0  0  0  0
  152.7764  139.4956  157.0638 N   0  0  0  0  0  0  0  0  0  0  0  0
  152.5384  139.3657  155.7547 C   0  0  0  0  0  0  0  0  0  0  0  0
  151.5354  139.8727  155.0338 N   0  0  0  0  0  0  0  0  0  0  0  0
  150.6884  140.6061  155.8117 C   0  0  0  0  0  0  0  0  0  0  0  0
  145.4545  143.6310  154.8257 H   0  0  0  0  0  0  0  0  0  0  0  0
  147.0629  143.3638  155.4695 H   0  0  0  0  0  0  0  0  0  0  0  0
  145.7626  142.2290  155.8389 H   0  0  0  0  0  0  0  0  0  0  0  0
  145.6034  141.6852  153.3605 H   0  0  0  0  0  0  0  0  0  0  0  0
  146.9612  142.7284  153.0591 H   0  0  0  0  0  0  0  0  0  0  0  0
  147.1522  140.5751  156.1474 H   0  0  0  0  0  0  0  0  0  0  0  0
  147.7554  139.1298  155.3445 H   0  0  0  0  0  0  0  0  0  0  0  0
  146.0896  139.6009  155.1376 H   0  0  0  0  0  0  0  0  0  0  0  0
  148.2926  139.8634  152.5457 H   0  0  0  0  0  0  0  0  0  0  0  0
  149.5987  140.8554  153.4053 H   0  0  0  0  0  0  0  0  0  0  0  0
  148.9813  142.4325  153.8126 H   0  0  0  0  0  0  0  0  0  0  0  0
  148.1755  142.4733  156.6110 H   0  0  0  0  0  0  0  0  0  0  0  0
  151.6669  139.8298  159.8641 H   0  0  0  0  0  0  0  0  0  0  0  0
  153.6884  141.7459  158.8283 H   0  0  0  0  0  0  0  0  0  0  0  0
  154.9794  141.2137  160.8981 H   0  0  0  0  0  0  0  0  0  0  0  0
  154.7202  139.7571  159.9517 H   0  0  0  0  0  0  0  0  0  0  0  0
  153.7461  140.0555  161.3877 H   0  0  0  0  0  0  0  0  0  0  0  0
  153.2702  143.1205  160.8403 H   0  0  0  0  0  0  0  0  0  0  0  0
  151.9833  142.0272  161.3430 H   0  0  0  0  0  0  0  0  0  0  0  0
  151.8137  142.9724  159.8653 H   0  0  0  0  0  0  0  0  0  0  0  0
  153.2540  138.7709  155.2066 H   0  0  0  0  0  0  0  0  0  0  0  0
  1  2  1  0  0  0  0
  1 20  1  0  0  0  0
  1 21  1  0  0  0  0
  1 22  1  0  0  0  0
  2  3  1  0  0  0  0
  2 23  1  0  0  0  0
  2 24  1  0  0  0  0
  3  4  1  0  0  0  0
  3  5  1  0  0  0  0
  3  6  1  0  0  0  0
  4 25  1  0  0  0  0
  4 26  1  0  0  0  0
  4 27  1  0  0  0  0
  5 28  1  0  0  0  0
  6  7  1  0  0  0  0
  6 29  1  0  0  0  0
  6 30  1  0  0  0  0
  7 19  1  0  0  0  0
  7  8  1  0  0  0  0
  8  9  2  0  0  0  0
  8 31  1  0  0  0  0
  9 10  1  0  0  0  0
 10 19  2  0  0  0  0
 10 11  1  0  0  0  0
 11 12  1  0  0  0  0
 11 16  2  0  0  0  0
 12 13  1  0  0  0  0
 12 32  1  0  0  0  0
 13 14  1  0  0  0  0
 13 15  1  0  0  0  0
 13 33  1  0  0  0  0
 14 34  1  0  0  0  0
 14 35  1  0  0  0  0
 14 36  1  0  0  0  0
 15 37  1  0  0  0  0
 15 38  1  0  0  0  0
 15 39  1  0  0  0  0
 16 17  1  0  0  0  0
 17 18  2  0  0  0  0
 17 40  1  0  0  0  0
 18 19  1  0  0  0  0
M  END
> <s_m_source_file>
AV-unprocessed.smi

> <i_m_source_file_index>
2744

> <i_lp_mmshare_version>
43012

> <i_f3d_flags>
0

> <s_epik_input>
W0NIM11bQ0gyXVtDQEBdKFtDSDNdKShbT0hdKVtDSDJdbihbY0hdbjEpYyhjMTIpbltjSF1uYzJbTkhdW0NIXShbQ0gzXSlbQ0gzXQ==

> <s_epik_cmdline>
J2VwaWtfcHl0aG9uJywgJy1waCcsICc3LjAnLCAnLXRuJywgJzgnLCAnLW1hJywgJzIwMCcsICctbWV0YWxfYmluZGluZycsICctaW1hZScsICc8aW5maWxlLm1hZT4nLCAnLW9tYWUnLCAnPG91dGZpbGUubWFlPic=

> <r_lp_tautomer_probability>
1

> <r_epik_Ionization_Penalty>
0.00217876

> <r_epik_Ionization_Penalty_Charging>
0

> <r_epik_Ionization_Penalty_Neutral>
0.00217876

> <r_epik_State_Penalty>
-0

> <r_epik_Charging_Adjusted_Penalty>
0

> <i_epik_Tot_Q>
0

> <i_epik_Tot_abs_Q>
0

> <r_epik_Metal_State_Penalty>
-0

> <b_epik_Metal_Only>
0

> <s_lp_Force_Field>
OPLS_2005

> <r_lp_Energy>
9.06816

> <b_lp_Chiralities_Consistent>
1

> <s_lp_Variant>
AV-unprocessed.smi:2744-1

> <Gold.Version>
5.8.1

> <Gold.Id.Protein>
6NUR|6NUR_protein|mol2

> <Gold.PLP.Fitness>
43.5820

> <Gold.PLP.PLP>
-36.5449

> <Gold.PLP.part.hbond>
-3.0000

> <Gold.PLP.part.metal>
0.0000

> <Gold.PLP.part.buried>
-1.3065

> <Gold.PLP.part.nonpolar>
-31.8777

> <Gold.PLP.part.repulsive>
0.2559

> <Gold.PLP.ligand.clash>
0.0000

> <Gold.PLP.ligand.torsion>
1.9075

> <Gold.PLP.Chemscore.Hbond>
3.0000

> <Gold.PLP.Chemscore.CHOScore>
0.5404

> <Gold.PLP.Chemscore.Metal>
0.0000

> <Gold.Chemscore.Hbonds>
donor molecule, donor type, donor heavy atom, donor atom, acceptor molecule, acceptor atom, score
      L1  H     5    28       P1  7957  0.98
      P1  H  7989  7998       L1    18  1.00
      P1  H  7997  8009       L1    16  0.85
      L1  C     8    31       P1  8028  0.52

> <Gold.PLP.Chemscore.Internal.Correction>
0.2311

> <Gold.Rescore>
     Score         DG    S(hbond)    S(metal)    S(lipo)     H(rot)  DE(clash)    DE(int)     intcor
     11.82     -13.72       2.24        0.00      58.41       2.38       0.16       1.73       ----

> <Gold.Chemscore.Fitness>
11.8238

> <Gold.Chemscore.DG>
-13.7170

> <Gold.Chemscore.ZeroCoef>
-5.4800

> <Gold.Chemscore.Hbond>
2.2444

> <Gold.Chemscore.Metal>
0.0000

> <Gold.Chemscore.Lipo>
58.4088

> <Gold.Chemscore.Internal_Hbond>
0.0000

> <Gold.Chemscore.DEClash>
0.1635

> <Gold.Chemscore.DEInternal>
1.7297

> <Gold.Chemscore.Rot>
2.3802

> <Gold.Chemscore.Internal.Correction>
   9.000000E+99

> <Gold.Chemscore.Hbonds>
donor molecule, donor type, donor heavy atom, donor atom, acceptor molecule, acceptor atom, score
      L1  H     5    28       P1  7957  0.93
      P1  H  7989  7998       L1    18  0.39
      P1  H  7997  8009       L1    16  0.13

> <Gold.Chemscore.Hbond.Weighted>
-7.4964

> <Gold.Chemscore.Metal.Weighted>
-0.0000

> <Gold.Chemscore.Lipo.Weighted>
-6.8338

> <Gold.Chemscore.Internal_Hbond.Weighted>
0.0000

> <Gold.Chemscore.DEClash.Weighted>
0.1635

> <Gold.Chemscore.DEInternal.Weighted>
1.7297

> <Gold.Chemscore.Rot.Weighted>
6.0933

> <Gold.Chemscore.Internal.Correction.Weighted>
   9.000000E+99

> <Gold.Protein.RotatedTorsions>
[ 6907 6896 6895 6894 ] final  105.93 input  -60.11 | X-H torsion
[ 7974 7965 7964 7962 ] final -101.38 input  175.53 | X-H torsion
[ 8008 7997 7996 7995 ] final  160.66 input   59.86 | X-H torsion
[ 10167 10162 10161 10158 ] final  -99.72 input  -65.29 | X-H torsion
[ 10718 10713 10712 10709 ] final -140.24 input   66.30 | X-H torsion
[ 10763 10752 10751 10750 ] final  -13.06 input  -60.55 | X-H torsion
[ 11005 11000 10999 10996 ] final -123.00 input  -57.11 | X-H torsion

> <Gold.Protein.ActiveResidues>
 VAL166  LYS551  ARG553  GLY616  TRP617  ASP618  TYR619  PRO620  LYS621  CYS622 
 ASP623  PHE694  ASN695  SER759  ASP760  ASP761  ALA762  ILE779  LEU786  VAL792 
 PHE793  MET794  SER795  GLU796  ALA797  LYS798  CYS799  TRP800  GLU811  SER814 

> <Gold.Protein.RotatedAtoms>
  152.5212  133.9456  159.7647 H   0  0  0  0  0  0  0  0  0  0  0  0  # atno 6907 bound_to 6896
  150.9777  133.6270  159.2734 H   0  0  0  0  0  0  0  0  0  0  0  0  # atno 6908 bound_to 6896
  151.3458  135.0879  159.9439 H   0  0  0  0  0  0  0  0  0  0  0  0  # atno 6909 bound_to 6896
  145.2823  140.9330  143.2925 H   0  0  0  0  0  0  0  0  0  0  0  0  # atno 7974 bound_to 7965
  156.2157  140.1798  156.7594 H   0  0  0  0  0  0  0  0  0  0  0  0  # atno 8008 bound_to 7997
  154.5788  140.0670  156.9103 H   0  0  0  0  0  0  0  0  0  0  0  0  # atno 8009 bound_to 7997
  155.2539  140.3331  155.4282 H   0  0  0  0  0  0  0  0  0  0  0  0  # atno 8010 bound_to 7997
  140.2594  143.3418  152.0640 H   0  0  0  0  0  0  0  0  0  0  0  0  # atno 10167 bound_to 10162
  156.3200  130.7529  151.1624 H   0  0  0  0  0  0  0  0  0  0  0  0  # atno 10718 bound_to 10713
  153.5078  135.7016  153.5797 H   0  0  0  0  0  0  0  0  0  0  0  0  # atno 10763 bound_to 10752
  153.3901  135.3898  155.1917 H   0  0  0  0  0  0  0  0  0  0  0  0  # atno 10764 bound_to 10752
  154.8706  135.3856  154.4554 H   0  0  0  0  0  0  0  0  0  0  0  0  # atno 10765 bound_to 10752
  140.9952  134.0482  157.3606 H   0  0  0  0  0  0  0  0  0  0  0  0  # atno 11005 bound_to 11000
  144.9243  139.4374  143.6526 LP  0  0  0  0  0  0  0  0  0  0  0  0  # atno 17320 bound_to 7965
  146.3212  139.8120  142.8944 LP  0  0  0  0  0  0  0  0  0  0  0  0  # atno 17321 bound_to 7965
  139.5021  144.6728  151.6201 LP  0  0  0  0  0  0  0  0  0  0  0  0  # atno 17342 bound_to 10162
  140.5978  143.9665  150.6366 LP  0  0  0  0  0  0  0  0  0  0  0  0  # atno 17343 bound_to 10162
  157.7410  131.0510  150.5129 LP  0  0  0  0  0  0  0  0  0  0  0  0  # atno 17370 bound_to 10713
  156.5280  130.4178  149.6216 LP  0  0  0  0  0  0  0  0  0  0  0  0  # atno 17371 bound_to 10713
  139.9011  135.0165  156.7274 LP  0  0  0  0  0  0  0  0  0  0  0  0  # atno 17394 bound_to 11000
  140.6977  133.9334  155.8005 LP  0  0  0  0  0  0  0  0  0  0  0  0  # atno 17395 bound_to 11000

$$$$
