AV-unprocessed.smi:2129|AV-procd|sdf|8684|dock6
  -GOLD-   2272011433D 1   1.00000     0.00000
 Structure written by MMmdl.
 33 33  0  0  0  0  0  0  0  0  2 V2000
  153.1460  142.1444  160.7335 C   0  0  0  0  0  0  0  0  0  0  0  0
  152.1348  143.3046  160.7562 C   0  0  0  0  0  0  0  0  0  0  0  0
  151.8067  143.9425  159.3776 C   0  0  0  0  0  0  0  0  0  0  0  0
  151.0980  145.2995  159.5833 C   0  0  0  0  0  0  0  0  0  0  0  0
  153.1057  144.1971  158.5881 C   0  0  0  0  0  0  0  0  0  0  0  0
  150.9727  143.0565  158.5550 N   0  0  0  0  0  0  0  0  0  0  0  0
  151.2811  141.8488  158.0503 C   0  0  0  0  0  0  0  0  0  0  0  0
  152.3523  141.2748  158.2479 O   0  0  0  0  0  0  0  0  0  0  0  0
  150.1906  141.1806  157.2032 C   0  0  0  0  0  0  0  0  0  0  0  0
  150.6113  139.8758  156.6686 N   0  0  0  0  0  0  0  0  0  0  0  0
  150.9413  138.8651  157.5887 C   0  0  0  0  0  0  0  0  0  0  0  0
  151.3400  137.6427  157.1883 C   0  0  0  0  0  0  0  0  0  0  0  0
  151.4263  137.3791  155.7572 C   0  0  0  0  0  0  0  0  0  0  0  0
  151.7848  136.2674  155.3733 O   0  0  0  0  0  0  0  0  0  0  0  0
  151.0995  138.3935  154.9040 N   0  5  0  0  0  0  0  0  0  0  0  0
  150.6964  139.6322  155.3257 C   0  0  0  0  0  0  0  0  0  0  0  0
  150.4059  140.5338  154.5384 O   0  0  0  0  0  0  0  0  0  0  0  0
  153.3029  141.7569  161.7400 H   0  0  0  0  0  0  0  0  0  0  0  0
  154.1169  142.4602  160.3532 H   0  0  0  0  0  0  0  0  0  0  0  0
  152.7971  141.3139  160.1196 H   0  0  0  0  0  0  0  0  0  0  0  0
  151.2172  142.9434  161.2217 H   0  0  0  0  0  0  0  0  0  0  0  0
  152.5089  144.0780  161.4281 H   0  0  0  0  0  0  0  0  0  0  0  0
  151.7447  146.0042  160.1074 H   0  0  0  0  0  0  0  0  0  0  0  0
  150.1878  145.2030  160.1750 H   0  0  0  0  0  0  0  0  0  0  0  0
  150.8234  145.7543  158.6308 H   0  0  0  0  0  0  0  0  0  0  0  0
  153.7976  144.8229  159.1526 H   0  0  0  0  0  0  0  0  0  0  0  0
  152.9023  144.7052  157.6445 H   0  0  0  0  0  0  0  0  0  0  0  0
  153.6245  143.2694  158.3459 H   0  0  0  0  0  0  0  0  0  0  0  0
  150.0597  143.4175  158.3195 H   0  0  0  0  0  0  0  0  0  0  0  0
  149.2996  141.0727  157.8226 H   0  0  0  0  0  0  0  0  0  0  0  0
  149.8933  141.8398  156.3852 H   0  0  0  0  0  0  0  0  0  0  0  0
  150.8571  139.1438  158.6288 H   0  0  0  0  0  0  0  0  0  0  0  0
  151.5922  136.8778  157.9078 H   0  0  0  0  0  0  0  0  0  0  0  0
  1  2  1  0  0  0  0
  1 18  1  0  0  0  0
  1 19  1  0  0  0  0
  1 20  1  0  0  0  0
  2  3  1  0  0  0  0
  2 21  1  0  0  0  0
  2 22  1  0  0  0  0
  3  4  1  0  0  0  0
  3  5  1  0  0  0  0
  3  6  1  0  0  0  0
  4 23  1  0  0  0  0
  4 24  1  0  0  0  0
  4 25  1  0  0  0  0
  5 26  1  0  0  0  0
  5 27  1  0  0  0  0
  5 28  1  0  0  0  0
  6  7  1  0  0  0  0
  6 29  1  0  0  0  0
  7  8  2  0  0  0  0
  7  9  1  0  0  0  0
  9 10  1  0  0  0  0
  9 30  1  0  0  0  0
  9 31  1  0  0  0  0
 10 16  1  0  0  0  0
 10 11  1  0  0  0  0
 11 12  2  0  0  0  0
 11 32  1  0  0  0  0
 12 13  1  0  0  0  0
 12 33  1  0  0  0  0
 13 14  2  0  0  0  0
 13 15  1  0  0  0  0
 15 16  1  0  0  0  0
 16 17  2  0  0  0  0
M  CHG  1  15  -1
M  END
> <s_m_source_file>
AV-unprocessed.smi

> <i_m_source_file_index>
2129

> <i_lp_mmshare_version>
43012

> <i_f3d_flags>
0

> <s_epik_input>
W0NIM11bQ0gyXUMoW0NIM10pKFtDSDNdKVtOSF1DKD1PKVtDSDJdbjFbY0hdW2NIXWMoPU8pW25IXWMxPU8=

> <s_epik_cmdline>
J2VwaWtfcHl0aG9uJywgJy1waCcsICc3LjAnLCAnLXRuJywgJzgnLCAnLW1hJywgJzIwMCcsICctbWV0YWxfYmluZGluZycsICctaW1hZScsICc8aW5maWxlLm1hZT4nLCAnLW9tYWUnLCAnPG91dGZpbGUubWFlPic=

> <r_lp_tautomer_probability>
0.999537

> <r_epik_Ionization_Penalty>
3.14534

> <r_epik_Ionization_Penalty_Charging>
2.92803e-08

> <r_epik_Ionization_Penalty_Neutral>
3.14534

> <r_epik_State_Penalty>
3.14446

> <r_epik_Charging_Adjusted_Penalty>
3.14446

> <i_epik_Tot_Q>
-1

> <i_epik_Tot_abs_Q>
1

> <r_epik_Metal_State_Penalty>
0.465837

> <b_epik_Metal_Only>
1

> <s_lp_Force_Field>
OPLS_2005

> <r_lp_Energy>
14.5296

> <b_lp_Chiralities_Consistent>
1

> <s_lp_Variant>
AV-unprocessed.smi:2129-2

> <Gold.Version>
5.8.1

> <Gold.Id.Protein>
6NUR|6NUR_protein|mol2

> <Gold.PLP.Fitness>
37.1447

> <Gold.PLP.PLP>
-31.6167

> <Gold.PLP.part.hbond>
-1.9112

> <Gold.PLP.part.metal>
0.0000

> <Gold.PLP.part.buried>
-5.3350

> <Gold.PLP.part.nonpolar>
-24.9549

> <Gold.PLP.part.repulsive>
0.3618

> <Gold.PLP.ligand.clash>
0.0000

> <Gold.PLP.ligand.torsion>
0.1862

> <Gold.PLP.Chemscore.Hbond>
1.9600

> <Gold.PLP.Chemscore.CHOScore>
0.0000

> <Gold.PLP.Chemscore.Metal>
0.0000

> <Gold.Chemscore.Hbonds>
donor molecule, donor type, donor heavy atom, donor atom, acceptor molecule, acceptor atom, score
      P1  H  7989  7998       L1    17  0.96
      P1  H 10752 10763       L1    14  1.00

> <Gold.PLP.Chemscore.Internal.Correction>
0.0205

> <Gold.Rescore>
     Score         DG    S(hbond)    S(metal)    S(lipo)     H(rot)  DE(clash)    DE(int)     intcor
     12.80     -15.76       1.97        0.00      73.26       1.90       0.04       2.93       ----

> <Gold.Chemscore.Fitness>
12.7950

> <Gold.Chemscore.DG>
-15.7621

> <Gold.Chemscore.ZeroCoef>
-5.4800

> <Gold.Chemscore.Hbond>
1.9707

> <Gold.Chemscore.Metal>
0.0000

> <Gold.Chemscore.Lipo>
73.2639

> <Gold.Chemscore.Internal_Hbond>
0.0000

> <Gold.Chemscore.DEClash>
0.0396

> <Gold.Chemscore.DEInternal>
2.9275

> <Gold.Chemscore.Rot>
1.9031

> <Gold.Chemscore.Internal.Correction>
   9.000000E+99

> <Gold.Chemscore.Hbonds>
donor molecule, donor type, donor heavy atom, donor atom, acceptor molecule, acceptor atom, score
      P1  H  7989  7998       L1    17  0.78
      P1  H 10752 10763       L1    14  0.94

> <Gold.Chemscore.Hbond.Weighted>
-6.5822

> <Gold.Chemscore.Metal.Weighted>
-0.0000

> <Gold.Chemscore.Lipo.Weighted>
-8.5719

> <Gold.Chemscore.Internal_Hbond.Weighted>
0.0000

> <Gold.Chemscore.DEClash.Weighted>
0.0396

> <Gold.Chemscore.DEInternal.Weighted>
2.9275

> <Gold.Chemscore.Rot.Weighted>
4.8720

> <Gold.Chemscore.Internal.Correction.Weighted>
   9.000000E+99

> <Gold.Protein.RotatedTorsions>
[ 6907 6896 6895 6894 ] final -174.09 input  -60.11 | X-H torsion
[ 7974 7965 7964 7962 ] final  -67.50 input  175.53 | X-H torsion
[ 8008 7997 7996 7995 ] final -102.76 input   59.86 | X-H torsion
[ 10167 10162 10161 10158 ] final   93.40 input  -65.29 | X-H torsion
[ 10718 10713 10712 10709 ] final -144.15 input   66.30 | X-H torsion
[ 10763 10752 10751 10750 ] final   52.24 input  -60.55 | X-H torsion
[ 11005 11000 10999 10996 ] final   79.69 input  -57.11 | X-H torsion

> <Gold.Protein.ActiveResidues>
 VAL166  LYS551  ARG553  GLY616  TRP617  ASP618  TYR619  PRO620  LYS621  CYS622 
 ASP623  PHE694  ASN695  SER759  ASP760  ASP761  ALA762  ILE779  LEU786  VAL792 
 PHE793  MET794  SER795  GLU796  ALA797  LYS798  CYS799  TRP800  GLU811  SER814 

> <Gold.Protein.RotatedAtoms>
  151.5668  133.3395  159.2981 H   0  0  0  0  0  0  0  0  0  0  0  0  # atno 6907 bound_to 6896
  150.8391  134.7678  159.6928 H   0  0  0  0  0  0  0  0  0  0  0  0  # atno 6908 bound_to 6896
  152.4462  134.5497  159.9915 H   0  0  0  0  0  0  0  0  0  0  0  0  # atno 6909 bound_to 6896
  145.7283  140.9008  143.0593 H   0  0  0  0  0  0  0  0  0  0  0  0  # atno 7974 bound_to 7965
  154.8613  140.0426  157.1667 H   0  0  0  0  0  0  0  0  0  0  0  0  # atno 8008 bound_to 7997
  154.8837  140.2976  155.5390 H   0  0  0  0  0  0  0  0  0  0  0  0  # atno 8009 bound_to 7997
  156.2998  140.2406  156.3843 H   0  0  0  0  0  0  0  0  0  0  0  0  # atno 8010 bound_to 7997
  139.8183  144.6742  150.9551 H   0  0  0  0  0  0  0  0  0  0  0  0  # atno 10167 bound_to 10162
  156.3666  130.7766  151.1941 H   0  0  0  0  0  0  0  0  0  0  0  0  # atno 10718 bound_to 10713
  152.9788  135.5819  154.4546 H   0  0  0  0  0  0  0  0  0  0  0  0  # atno 10763 bound_to 10752
  154.4130  135.2770  155.2026 H   0  0  0  0  0  0  0  0  0  0  0  0  # atno 10764 bound_to 10752
  154.3808  135.6147  153.5844 H   0  0  0  0  0  0  0  0  0  0  0  0  # atno 10765 bound_to 10752
  139.9163  134.7862  156.1812 H   0  0  0  0  0  0  0  0  0  0  0  0  # atno 11005 bound_to 11000
  144.6899  139.9297  143.7471 LP  0  0  0  0  0  0  0  0  0  0  0  0  # atno 17320 bound_to 7965
  146.0561  139.3558  143.0610 LP  0  0  0  0  0  0  0  0  0  0  0  0  # atno 17321 bound_to 7965
  140.7814  143.4116  151.0983 LP  0  0  0  0  0  0  0  0  0  0  0  0  # atno 17342 bound_to 10162
  139.7778  143.8399  152.3132 LP  0  0  0  0  0  0  0  0  0  0  0  0  # atno 17343 bound_to 10162
  157.7479  131.0384  150.4503 LP  0  0  0  0  0  0  0  0  0  0  0  0  # atno 17370 bound_to 10713
  156.4723  130.4055  149.6511 LP  0  0  0  0  0  0  0  0  0  0  0  0  # atno 17371 bound_to 10713
  141.0641  133.6827  156.2010 LP  0  0  0  0  0  0  0  0  0  0  0  0  # atno 17394 bound_to 11000
  140.6614  134.4964  157.5583 LP  0  0  0  0  0  0  0  0  0  0  0  0  # atno 17395 bound_to 11000

$$$$
