AV-unprocessed.smi:232|AV-procd|sdf|1773|dock8
  -GOLD-   2262020313D 1   1.00000     0.00000
 Structure written by MMmdl.
 52 55  0  0  0  0  0  0  0  0  1 V2000
  148.3041  137.1348  158.7817 C   0  0  0  0  0  0  0  0  0  0  0  0
  148.6307  136.6612  160.2032 C   0  0  0  0  0  0  0  0  0  0  0  0
  147.5743  135.6954  160.7785 C   0  0  2  0  0  0  0  0  0  0  0  0
  147.7367  135.4132  162.2787 C   0  0  0  0  0  0  0  0  0  0  0  0
  147.2375  133.9748  162.4628 C   0  0  0  0  0  0  0  0  0  0  0  0
  146.8569  133.5095  161.0514 C   0  0  2  0  0  0  0  0  0  0  0  0
  147.1153  132.0124  160.8102 C   0  0  0  0  0  0  0  0  0  0  0  0
  147.6152  134.3759  160.1578 N   0  0  0  0  0  0  0  0  0  0  0  0
  147.2467  134.3137  158.8566 C   0  0  0  0  0  0  0  0  0  0  0  0
  145.9750  134.6157  158.4815 N   0  0  0  0  0  0  0  0  0  0  0  0
  145.6268  134.5507  157.1924 C   0  0  0  0  0  0  0  0  0  0  0  0
  146.3768  134.2144  156.1401 N   0  0  0  0  0  0  0  0  0  0  0  0
  147.6513  133.9080  156.5184 C   0  0  0  0  0  0  0  0  0  0  0  0
  148.1640  133.9293  157.8448 C   0  0  0  0  0  0  0  0  0  0  0  0
  149.5016  133.5554  157.8482 N   0  0  0  0  0  0  0  0  0  0  0  0
  149.7667  133.3253  156.5908 C   0  0  0  0  0  0  0  0  0  0  0  0
  148.7141  133.5156  155.7243 N   0  0  0  0  0  0  0  0  0  0  0  0
  148.7352  133.3355  154.2837 C   0  0  0  0  0  0  0  0  0  0  0  0
  147.3925  133.7049  153.6232 C   0  0  1  0  0  0  0  0  0  0  0  0
  147.3463  135.1031  153.4107 O   0  0  0  0  0  0  0  0  0  0  0  0
  147.1889  132.9882  152.2752 C   0  0  2  0  0  0  0  0  0  0  0  0
  145.9071  133.3812  151.5380 C   0  0  0  0  0  0  0  0  0  0  0  0
  145.6746  132.1716  150.6628 C   0  0  0  0  0  0  0  0  0  0  0  0
  146.0861  131.0345  151.5919 C   0  0  0  0  0  0  0  0  0  0  0  0
  147.0662  131.5804  152.4715 O   0  0  0  0  0  0  0  0  0  0  0  0
  149.0898  137.7889  158.4031 H   0  0  0  0  0  0  0  0  0  0  0  0
  147.3680  137.6925  158.7512 H   0  0  0  0  0  0  0  0  0  0  0  0
  148.2151  136.2905  158.0974 H   0  0  0  0  0  0  0  0  0  0  0  0
  149.6046  136.1709  160.1827 H   0  0  0  0  0  0  0  0  0  0  0  0
  148.7401  137.5247  160.8606 H   0  0  0  0  0  0  0  0  0  0  0  0
  146.5822  136.1226  160.6217 H   0  0  0  0  0  0  0  0  0  0  0  0
  148.7849  135.4740  162.5749 H   0  0  0  0  0  0  0  0  0  0  0  0
  147.1794  136.1271  162.8859 H   0  0  0  0  0  0  0  0  0  0  0  0
  148.0383  133.3609  162.8773 H   0  0  0  0  0  0  0  0  0  0  0  0
  146.3884  133.9154  163.1443 H   0  0  0  0  0  0  0  0  0  0  0  0
  145.7941  133.7089  160.9026 H   0  0  0  0  0  0  0  0  0  0  0  0
  146.5655  131.4031  161.5276 H   0  0  0  0  0  0  0  0  0  0  0  0
  148.1743  131.7718  160.9102 H   0  0  0  0  0  0  0  0  0  0  0  0
  146.7977  131.7083  159.8125 H   0  0  0  0  0  0  0  0  0  0  0  0
  144.6004  134.8047  156.9723 H   0  0  0  0  0  0  0  0  0  0  0  0
  150.7440  133.0081  156.2574 H   0  0  0  0  0  0  0  0  0  0  0  0
  149.5459  133.9340  153.8660 H   0  0  0  0  0  0  0  0  0  0  0  0
  148.9833  132.2933  154.0791 H   0  0  0  0  0  0  0  0  0  0  0  0
  146.5760  133.4413  154.2968 H   0  0  0  0  0  0  0  0  0  0  0  0
  148.1569  135.3718  153.0057 H   0  0  0  0  0  0  0  0  0  0  0  0
  148.0459  133.1584  151.6208 H   0  0  0  0  0  0  0  0  0  0  0  0
  145.0789  133.4987  152.2385 H   0  0  0  0  0  0  0  0  0  0  0  0
  146.0088  134.3062  150.9697 H   0  0  0  0  0  0  0  0  0  0  0  0
  144.6465  132.0853  150.3106 H   0  0  0  0  0  0  0  0  0  0  0  0
  146.3337  132.2062  149.7942 H   0  0  0  0  0  0  0  0  0  0  0  0
  145.2356  130.7024  152.1881 H   0  0  0  0  0  0  0  0  0  0  0  0
  146.4747  130.1740  151.0470 H   0  0  0  0  0  0  0  0  0  0  0  0
  1  2  1  0  0  0  0
  1 26  1  0  0  0  0
  1 27  1  0  0  0  0
  1 28  1  0  0  0  0
  2  3  1  0  0  0  0
  2 29  1  0  0  0  0
  2 30  1  0  0  0  0
  3  8  1  0  0  0  0
  3  4  1  0  0  0  0
  3 31  1  0  0  0  0
  4  5  1  0  0  0  0
  4 32  1  0  0  0  0
  4 33  1  0  0  0  0
  5  6  1  0  0  0  0
  5 34  1  0  0  0  0
  5 35  1  0  0  0  0
  6  7  1  0  0  0  0
  6  8  1  0  0  0  0
  6 36  1  0  0  0  0
  7 37  1  0  0  0  0
  7 38  1  0  0  0  0
  7 39  1  0  0  0  0
  8  9  1  0  0  0  0
  9 14  1  0  0  0  0
  9 10  2  0  0  0  0
 10 11  1  0  0  0  0
 11 12  2  0  0  0  0
 11 40  1  0  0  0  0
 12 13  1  0  0  0  0
 13 17  1  0  0  0  0
 13 14  2  0  0  0  0
 14 15  1  0  0  0  0
 15 16  2  0  0  0  0
 16 17  1  0  0  0  0
 16 41  1  0  0  0  0
 17 18  1  0  0  0  0
 18 19  1  0  0  0  0
 18 42  1  0  0  0  0
 18 43  1  0  0  0  0
 19 20  1  0  0  0  0
 19 21  1  0  0  0  0
 19 44  1  0  0  0  0
 20 45  1  0  0  0  0
 21 25  1  0  0  0  0
 21 22  1  0  0  0  0
 21 46  1  0  0  0  0
 22 23  1  0  0  0  0
 22 47  1  0  0  0  0
 22 48  1  0  0  0  0
 23 24  1  0  0  0  0
 23 49  1  0  0  0  0
 23 50  1  0  0  0  0
 24 25  1  0  0  0  0
 24 51  1  0  0  0  0
 24 52  1  0  0  0  0
M  END
> <s_m_source_file>
AV-unprocessed.smi

> <i_m_source_file_index>
232

> <i_lp_mmshare_version>
43012

> <i_f3d_flags>
0

> <s_epik_input>
W0NIM11bQ0gyXVtDQEBIXTFbQ0gyXVtDSDJdW0NAQEhdKFtDSDNdKU4xYyhuW2NIXW4yKWMoYzIzKW5bY0hdbjNbQ0gyXVtDQEhdKFtPSF0pW0NAQEhdNFtDSDJdW0NIMl1bQ0gyXU80

> <s_epik_cmdline>
J2VwaWtfcHl0aG9uJywgJy1waCcsICc3LjAnLCAnLXRuJywgJzgnLCAnLW1hJywgJzIwMCcsICctbWV0YWxfYmluZGluZycsICctaW1hZScsICc8aW5maWxlLm1hZT4nLCAnLW9tYWUnLCAnPG91dGZpbGUubWFlPic=

> <r_lp_tautomer_probability>
1

> <r_epik_Ionization_Penalty>
0.00258048

> <r_epik_Ionization_Penalty_Charging>
0

> <r_epik_Ionization_Penalty_Neutral>
0.00258048

> <r_epik_State_Penalty>
0.00168551

> <r_epik_Charging_Adjusted_Penalty>
0.00168551

> <i_epik_Tot_Q>
0

> <i_epik_Tot_abs_Q>
0

> <r_epik_Metal_State_Penalty>
-0

> <b_epik_Metal_Only>
0

> <s_lp_Force_Field>
OPLS_2005

> <r_lp_Energy>
51.2688

> <b_lp_Chiralities_Consistent>
1

> <s_lp_Variant>
AV-unprocessed.smi:232-7

> <Gold.Version>
5.8.1

> <Gold.Id.Protein>
6NUR|6NUR_protein|mol2

> <Gold.PLP.Fitness>
39.5956

> <Gold.PLP.PLP>
-34.2741

> <Gold.PLP.part.hbond>
-2.0000

> <Gold.PLP.part.metal>
0.0000

> <Gold.PLP.part.buried>
-4.5178

> <Gold.PLP.part.nonpolar>
-28.5215

> <Gold.PLP.part.repulsive>
0.6004

> <Gold.PLP.ligand.clash>
0.0000

> <Gold.PLP.ligand.torsion>
0.3749

> <Gold.PLP.Chemscore.Hbond>
2.0000

> <Gold.PLP.Chemscore.CHOScore>
0.0000

> <Gold.PLP.Chemscore.Metal>
0.0000

> <Gold.Chemscore.Hbonds>
donor molecule, donor type, donor heavy atom, donor atom, acceptor molecule, acceptor atom, score
      L1  H    20    45       P1  7948  1.00
      P1  H  6896  6908       L1    15  1.00

> <Gold.PLP.Chemscore.Internal.Correction>
0.0712

> <Gold.Rescore>
     Score         DG    S(hbond)    S(metal)    S(lipo)     H(rot)  DE(clash)    DE(int)     intcor
     12.90     -15.80       1.99        0.00      84.43       2.43       0.37       2.52       ----

> <Gold.Chemscore.Fitness>
12.9020

> <Gold.Chemscore.DG>
-15.7957

> <Gold.Chemscore.ZeroCoef>
-5.4800

> <Gold.Chemscore.Hbond>
1.9906

> <Gold.Chemscore.Metal>
0.0000

> <Gold.Chemscore.Lipo>
84.4254

> <Gold.Chemscore.Internal_Hbond>
0.0000

> <Gold.Chemscore.DEClash>
0.3725

> <Gold.Chemscore.DEInternal>
2.5212

> <Gold.Chemscore.Rot>
2.4260

> <Gold.Chemscore.Internal.Correction>
   9.000000E+99

> <Gold.Chemscore.Hbonds>
donor molecule, donor type, donor heavy atom, donor atom, acceptor molecule, acceptor atom, score
      L1  H    20    45       P1  7948  0.94
      P1  H  6896  6908       L1    15  0.99

> <Gold.Chemscore.Hbond.Weighted>
-6.6486

> <Gold.Chemscore.Metal.Weighted>
-0.0000

> <Gold.Chemscore.Lipo.Weighted>
-9.8778

> <Gold.Chemscore.Internal_Hbond.Weighted>
0.0000

> <Gold.Chemscore.DEClash.Weighted>
0.3725

> <Gold.Chemscore.DEInternal.Weighted>
2.5212

> <Gold.Chemscore.Rot.Weighted>
6.2107

> <Gold.Chemscore.Internal.Correction.Weighted>
   9.000000E+99

> <Gold.Protein.RotatedTorsions>
[ 6907 6896 6895 6894 ] final  118.18 input  -60.11 | X-H torsion
[ 7974 7965 7964 7962 ] final -158.05 input  175.53 | X-H torsion
[ 8008 7997 7996 7995 ] final -105.02 input   59.86 | X-H torsion
[ 10167 10162 10161 10158 ] final   -3.48 input  -65.29 | X-H torsion
[ 10718 10713 10712 10709 ] final  -60.50 input   66.30 | X-H torsion
[ 10763 10752 10751 10750 ] final  142.50 input  -60.55 | X-H torsion
[ 11005 11000 10999 10996 ] final -142.29 input  -57.11 | X-H torsion

> <Gold.Protein.ActiveResidues>
 VAL166  LYS551  ARG553  GLY616  TRP617  ASP618  TYR619  PRO620  LYS621  CYS622 
 ASP623  PHE694  ASN695  SER759  ASP760  ASP761  ALA762  ILE779  LEU786  VAL792 
 PHE793  MET794  SER795  GLU796  ALA797  LYS798  CYS799  TRP800  GLU811  SER814 

> <Gold.Protein.RotatedAtoms>
  152.4561  133.7725  159.6806 H   0  0  0  0  0  0  0  0  0  0  0  0  # atno 6907 bound_to 6896
  150.8487  133.7810  159.3039 H   0  0  0  0  0  0  0  0  0  0  0  0  # atno 6908 bound_to 6896
  151.5412  135.1071  159.9978 H   0  0  0  0  0  0  0  0  0  0  0  0  # atno 6909 bound_to 6896
  144.7522  140.3882  143.6039 H   0  0  0  0  0  0  0  0  0  0  0  0  # atno 7974 bound_to 7965
  154.8938  140.0415  157.1854 H   0  0  0  0  0  0  0  0  0  0  0  0  # atno 8008 bound_to 7997
  154.8513  140.2929  155.5575 H   0  0  0  0  0  0  0  0  0  0  0  0  # atno 8009 bound_to 7997
  156.2996  140.2464  156.3472 H   0  0  0  0  0  0  0  0  0  0  0  0  # atno 8010 bound_to 7997
  140.6892  143.6534  150.8330 H   0  0  0  0  0  0  0  0  0  0  0  0  # atno 10167 bound_to 10162
  156.0986  130.4189  150.0862 H   0  0  0  0  0  0  0  0  0  0  0  0  # atno 10718 bound_to 10713
  153.9569  135.2964  155.3435 H   0  0  0  0  0  0  0  0  0  0  0  0  # atno 10763 bound_to 10752
  154.7396  135.5031  153.9103 H   0  0  0  0  0  0  0  0  0  0  0  0  # atno 10764 bound_to 10752
  153.0966  135.6723  153.9861 H   0  0  0  0  0  0  0  0  0  0  0  0  # atno 10765 bound_to 10752
  140.8239  134.2597  157.4888 H   0  0  0  0  0  0  0  0  0  0  0  0  # atno 11005 bound_to 11000
  145.6905  139.1638  143.2649 LP  0  0  0  0  0  0  0  0  0  0  0  0  # atno 17320 bound_to 7965
  146.1486  140.6957  142.9332 LP  0  0  0  0  0  0  0  0  0  0  0  0  # atno 17321 bound_to 7965
  140.0245  143.5507  152.2786 LP  0  0  0  0  0  0  0  0  0  0  0  0  # atno 17342 bound_to 10162
  139.6278  144.7640  151.2601 LP  0  0  0  0  0  0  0  0  0  0  0  0  # atno 17343 bound_to 10162
  156.8855  130.9571  151.3594 LP  0  0  0  0  0  0  0  0  0  0  0  0  # atno 17370 bound_to 10713
  157.6152  130.8613  149.9017 LP  0  0  0  0  0  0  0  0  0  0  0  0  # atno 17371 bound_to 10713
  139.8707  134.9550  156.4194 LP  0  0  0  0  0  0  0  0  0  0  0  0  # atno 17394 bound_to 11000
  140.9069  133.7739  155.9746 LP  0  0  0  0  0  0  0  0  0  0  0  0  # atno 17395 bound_to 11000

$$$$
