AV-unprocessed.smi:763|AV-procd|sdf|3640|dock3
  -GOLD-   22720 1 43D 1   1.00000     0.00000
 Structure written by MMmdl.
 43 44  0  0  0  0  0  0  0  0  2 V2000
  144.9573  143.1331  155.8252 C   0  0  0  0  0  0  0  0  0  0  0  0
  146.0216  142.2427  155.5287 O   0  0  0  0  0  0  0  0  0  0  0  0
  146.5761  142.4163  154.2317 C   0  0  0  0  0  0  0  0  0  0  0  0
  147.6487  141.3634  153.9173 C   0  0  0  0  0  0  0  0  0  0  0  0
  148.7133  141.5162  154.8506 O   0  0  0  0  0  0  0  0  0  0  0  0
  149.6687  140.5207  154.9465 C   0  0  0  0  0  0  0  0  0  0  0  0
  149.5312  139.4289  154.1514 N   0  0  0  0  0  0  0  0  0  0  0  0
  150.4557  138.4529  154.2326 C   0  0  0  0  0  0  0  0  0  0  0  0
  151.5574  138.5133  155.1013 C   0  0  0  0  0  0  0  0  0  0  0  0
  151.6959  139.6467  155.9225 C   0  0  0  0  0  0  0  0  0  0  0  0
  150.7387  140.6897  155.8620 C   0  0  0  0  0  0  0  0  0  0  0  0
  150.8130  141.7982  156.6187 N   0  5  0  0  0  0  0  0  0  0  0  0
  150.8183  141.8614  158.2357 S   0  0  0  0  0  0  0  0  0  0  0  0
  149.5263  142.3312  158.7590 O   0  0  0  0  0  0  0  0  0  0  0  0
  151.3472  140.6198  158.8192 O   0  0  0  0  0  0  0  0  0  0  0  0
  152.0698  143.2240  158.5273 C   0  0  2  0  0  0  0  0  0  0  0  0
  153.2743  142.7404  159.3724 C   0  0  0  0  0  0  0  0  0  0  0  0
  152.9778  142.6002  160.8813 C   0  0  0  0  0  0  0  0  0  0  0  0
  152.2992  143.8520  161.4629 C   0  0  0  0  0  0  0  0  0  0  0  0
  151.0750  144.2808  160.6369 C   0  0  0  0  0  0  0  0  0  0  0  0
  151.4785  144.5038  159.1705 C   0  0  2  0  0  0  0  0  0  0  0  0
  150.4032  145.0429  158.4306 O   0  0  0  0  0  0  0  0  0  0  0  0
  144.6274  142.9741  156.8517 H   0  0  0  0  0  0  0  0  0  0  0  0
  144.0987  142.9696  155.1740 H   0  0  0  0  0  0  0  0  0  0  0  0
  145.2743  144.1729  155.7341 H   0  0  0  0  0  0  0  0  0  0  0  0
  145.7962  142.4250  153.4686 H   0  0  0  0  0  0  0  0  0  0  0  0
  147.0382  143.4035  154.2115 H   0  0  0  0  0  0  0  0  0  0  0  0
  147.2160  140.3654  154.0022 H   0  0  0  0  0  0  0  0  0  0  0  0
  148.0212  141.4891  152.9000 H   0  0  0  0  0  0  0  0  0  0  0  0
  150.3130  137.5996  153.5863 H   0  0  0  0  0  0  0  0  0  0  0  0
  152.2793  137.7113  155.1386 H   0  0  0  0  0  0  0  0  0  0  0  0
  152.5407  139.6990  156.5929 H   0  0  0  0  0  0  0  0  0  0  0  0
  152.4350  143.4943  157.5358 H   0  0  0  0  0  0  0  0  0  0  0  0
  153.6567  141.7974  158.9814 H   0  0  0  0  0  0  0  0  0  0  0  0
  154.0851  143.4595  159.2513 H   0  0  0  0  0  0  0  0  0  0  0  0
  152.3593  141.7266  161.0749 H   0  0  0  0  0  0  0  0  0  0  0  0
  153.9097  142.4128  161.4154 H   0  0  0  0  0  0  0  0  0  0  0  0
  152.0062  143.6690  162.4971 H   0  0  0  0  0  0  0  0  0  0  0  0
  153.0190  144.6710  161.4882 H   0  0  0  0  0  0  0  0  0  0  0  0
  150.2877  143.5302  160.7098 H   0  0  0  0  0  0  0  0  0  0  0  0
  150.6630  145.2002  161.0547 H   0  0  0  0  0  0  0  0  0  0  0  0
  152.2520  145.2728  159.1543 H   0  0  0  0  0  0  0  0  0  0  0  0
  150.7219  145.2803  157.5717 H   0  0  0  0  0  0  0  0  0  0  0  0
  1  2  1  0  0  0  0
  1 23  1  0  0  0  0
  1 24  1  0  0  0  0
  1 25  1  0  0  0  0
  2  3  1  0  0  0  0
  3  4  1  0  0  0  0
  3 26  1  0  0  0  0
  3 27  1  0  0  0  0
  4  5  1  0  0  0  0
  4 28  1  0  0  0  0
  4 29  1  0  0  0  0
  5  6  1  0  0  0  0
  6 11  1  0  0  0  0
  6  7  2  0  0  0  0
  7  8  1  0  0  0  0
  8  9  2  0  0  0  0
  8 30  1  0  0  0  0
  9 10  1  0  0  0  0
  9 31  1  0  0  0  0
 10 11  2  0  0  0  0
 10 32  1  0  0  0  0
 11 12  1  0  0  0  0
 12 13  1  0  0  0  0
 13 14  2  0  0  0  0
 13 15  2  0  0  0  0
 13 16  1  0  0  0  0
 16 21  1  0  0  0  0
 16 17  1  0  0  0  0
 16 33  1  0  0  0  0
 17 18  1  0  0  0  0
 17 34  1  0  0  0  0
 17 35  1  0  0  0  0
 18 19  1  0  0  0  0
 18 36  1  0  0  0  0
 18 37  1  0  0  0  0
 19 20  1  0  0  0  0
 19 38  1  0  0  0  0
 19 39  1  0  0  0  0
 20 21  1  0  0  0  0
 20 40  1  0  0  0  0
 20 41  1  0  0  0  0
 21 22  1  0  0  0  0
 21 42  1  0  0  0  0
 22 43  1  0  0  0  0
M  CHG  1  12  -1
M  END
> <s_m_source_file>
AV-unprocessed.smi

> <i_m_source_file_index>
763

> <i_lp_mmshare_version>
43012

> <i_f3d_flags>
0

> <s_epik_input>
W0NIM11PW0NIMl1bQ0gyXU9jMW5bY0hdW2NIXVtjSF1jMVtOSF1TKD1PKSg9TylbQ0BASF0yW0NIMl1bQ0gyXVtDSDJdW0NIMl1bQ0BIXTJbT0hd

> <s_epik_cmdline>
J2VwaWtfcHl0aG9uJywgJy1waCcsICc3LjAnLCAnLXRuJywgJzgnLCAnLW1hJywgJzIwMCcsICctbWV0YWxfYmluZGluZycsICctaW1hZScsICc8aW5maWxlLm1hZT4nLCAnLW9tYWUnLCAnPG91dGZpbGUubWFlPic=

> <r_epik_Ionization_Penalty>
0.985866

> <r_epik_Ionization_Penalty_Charging>
0.984689

> <r_epik_Ionization_Penalty_Neutral>
0.00117669

> <r_epik_State_Penalty>
1.03185

> <r_epik_Charging_Adjusted_Penalty>
2.01654

> <i_epik_Tot_Q>
-1

> <i_epik_Tot_abs_Q>
1

> <r_epik_Metal_State_Penalty>
0.379327

> <b_epik_Metal_Only>
0

> <s_lp_Force_Field>
OPLS_2005

> <r_lp_Energy>
11.7701

> <b_lp_Chiralities_Consistent>
1

> <s_lp_Variant>
AV-unprocessed.smi:763-7

> <Gold.Version>
5.8.1

> <Gold.Id.Protein>
6NUR|6NUR_protein|mol2

> <Gold.PLP.Fitness>
52.6217

> <Gold.PLP.PLP>
-50.5538

> <Gold.PLP.part.hbond>
-1.9736

> <Gold.PLP.part.metal>
0.0000

> <Gold.PLP.part.buried>
-8.9306

> <Gold.PLP.part.nonpolar>
-41.4714

> <Gold.PLP.part.repulsive>
1.4600

> <Gold.PLP.ligand.clash>
0.0000

> <Gold.PLP.ligand.torsion>
1.2440

> <Gold.PLP.Chemscore.Hbond>
0.0000

> <Gold.PLP.Chemscore.CHOScore>
1.1030

> <Gold.PLP.Chemscore.Metal>
0.0000

> <Gold.Chemscore.Hbonds>
donor molecule, donor type, donor heavy atom, donor atom, acceptor molecule, acceptor atom, score
      L1  C     8    30       P1  7948  0.93
      L1  C     8    30       P1  7949  0.15

> <Gold.PLP.Chemscore.Internal.Correction>
1.2470

> <Gold.Rescore>
     Score         DG    S(hbond)    S(metal)    S(lipo)     H(rot)  DE(clash)    DE(int)     intcor
     12.10     -13.44       0.00        0.00     119.47       2.35       0.07       1.28       ----

> <Gold.Chemscore.Fitness>
12.0974

> <Gold.Chemscore.DG>
-13.4417

> <Gold.Chemscore.ZeroCoef>
-5.4800

> <Gold.Chemscore.Hbond>
0.0005

> <Gold.Chemscore.Metal>
0.0000

> <Gold.Chemscore.Lipo>
119.4726

> <Gold.Chemscore.Internal_Hbond>
0.0000

> <Gold.Chemscore.DEClash>
0.0654

> <Gold.Chemscore.DEInternal>
1.2790

> <Gold.Chemscore.Rot>
2.3509

> <Gold.Chemscore.Internal.Correction>
   9.000000E+99

> <Gold.Chemscore.Hbond.Weighted>
-0.0017

> <Gold.Chemscore.Metal.Weighted>
-0.0000

> <Gold.Chemscore.Lipo.Weighted>
-13.9783

> <Gold.Chemscore.Internal_Hbond.Weighted>
0.0000

> <Gold.Chemscore.DEClash.Weighted>
0.0654

> <Gold.Chemscore.DEInternal.Weighted>
1.2790

> <Gold.Chemscore.Rot.Weighted>
6.0182

> <Gold.Chemscore.Internal.Correction.Weighted>
   9.000000E+99

> <Gold.Protein.RotatedTorsions>
[ 6907 6896 6895 6894 ] final  179.26 input  -60.11 | X-H torsion
[ 7974 7965 7964 7962 ] final -124.52 input  175.53 | X-H torsion
[ 8008 7997 7996 7995 ] final -151.57 input   59.86 | X-H torsion
[ 10167 10162 10161 10158 ] final   72.25 input  -65.29 | X-H torsion
[ 10718 10713 10712 10709 ] final    0.57 input   66.30 | X-H torsion
[ 10763 10752 10751 10750 ] final  -82.15 input  -60.55 | X-H torsion
[ 11005 11000 10999 10996 ] final   92.65 input  -57.11 | X-H torsion

> <Gold.Protein.ActiveResidues>
 VAL166  LYS551  ARG553  GLY616  TRP617  ASP618  TYR619  PRO620  LYS621  CYS622 
 ASP623  PHE694  ASN695  SER759  ASP760  ASP761  ALA762  ILE779  LEU786  VAL792 
 PHE793  MET794  SER795  GLU796  ALA797  LYS798  CYS799  TRP800  GLU811  SER814 

> <Gold.Protein.RotatedAtoms>
  151.6745  133.3313  159.3204 H   0  0  0  0  0  0  0  0  0  0  0  0  # atno 6907 bound_to 6896
  150.7852  134.6834  159.6466 H   0  0  0  0  0  0  0  0  0  0  0  0  # atno 6908 bound_to 6896
  152.3919  134.6430  160.0156 H   0  0  0  0  0  0  0  0  0  0  0  0  # atno 6909 bound_to 6896
  145.0072  140.7873  143.4460 H   0  0  0  0  0  0  0  0  0  0  0  0  # atno 7974 bound_to 7965
  155.6415  140.0702  157.2617 H   0  0  0  0  0  0  0  0  0  0  0  0  # atno 8008 bound_to 7997
  154.4182  140.1749  156.1628 H   0  0  0  0  0  0  0  0  0  0  0  0  # atno 8009 bound_to 7997
  155.9851  140.3350  155.6703 H   0  0  0  0  0  0  0  0  0  0  0  0  # atno 8010 bound_to 7997
  140.0373  144.5417  150.7461 H   0  0  0  0  0  0  0  0  0  0  0  0  # atno 10167 bound_to 10162
  156.8353  130.5502  149.5683 H   0  0  0  0  0  0  0  0  0  0  0  0  # atno 10718 bound_to 10713
  154.5723  135.5601  153.7107 H   0  0  0  0  0  0  0  0  0  0  0  0  # atno 10763 bound_to 10752
  153.0053  135.6300  154.2097 H   0  0  0  0  0  0  0  0  0  0  0  0  # atno 10764 bound_to 10752
  154.2037  135.2877  155.2962 H   0  0  0  0  0  0  0  0  0  0  0  0  # atno 10765 bound_to 10752
  139.8820  134.8745  156.3604 H   0  0  0  0  0  0  0  0  0  0  0  0  # atno 11005 bound_to 11000
  145.2072  139.2222  143.5162 LP  0  0  0  0  0  0  0  0  0  0  0  0  # atno 17320 bound_to 7965
  146.3463  140.1903  142.8589 LP  0  0  0  0  0  0  0  0  0  0  0  0  # atno 17321 bound_to 7965
  140.7275  143.2652  151.4067 LP  0  0  0  0  0  0  0  0  0  0  0  0  # atno 17342 bound_to 10162
  139.6036  144.1243  152.2225 LP  0  0  0  0  0  0  0  0  0  0  0  0  # atno 17343 bound_to 10162
  156.0911  130.5896  150.9734 LP  0  0  0  0  0  0  0  0  0  0  0  0  # atno 17370 bound_to 10713
  157.6385  131.0913  150.8300 LP  0  0  0  0  0  0  0  0  0  0  0  0  # atno 17371 bound_to 10713
  140.9533  133.7436  156.0301 LP  0  0  0  0  0  0  0  0  0  0  0  0  # atno 17394 bound_to 11000
  140.8079  134.3433  157.5420 LP  0  0  0  0  0  0  0  0  0  0  0  0  # atno 17395 bound_to 11000

$$$$
