AV-unprocessed.smi:2703|AV-procd|sdf|10440|dock8
  -GOLD-   2272014483D 1   1.00000     0.00000
 Structure written by MMmdl.
 43 45  0  0  0  0  0  0  0  0  4 V2000
  152.1992  145.1697  160.2265 C   0  0  0  0  0  0  0  0  0  0  0  0
  151.8366  143.8526  159.5618 C   0  0  0  0  0  0  0  0  0  0  0  0
  151.0940  143.8854  158.3601 C   0  0  0  0  0  0  0  0  0  0  0  0
  150.7757  142.6645  157.7774 C   0  0  0  0  0  0  0  0  0  0  0  0
  150.0630  142.3652  156.6147 N   0  3  0  0  0  0  0  0  0  0  0  0
  150.0078  141.0147  156.4505 C   0  0  0  0  0  0  0  0  0  0  0  0
  150.6769  140.4465  157.4899 N   0  0  0  0  0  0  0  0  0  0  0  0
  150.9105  139.0258  157.7876 C   0  0  0  0  0  0  0  0  0  0  0  0
  149.6053  138.2102  157.8692 C   0  0  2  0  0  0  0  0  0  0  0  0
  148.5445  139.0394  158.3042 O   0  0  0  0  0  0  0  0  0  0  0  0
  149.7385  137.0122  158.8236 C   0  0  0  0  0  0  0  0  0  0  0  0
  148.3722  135.8293  158.6367 S   0  0  0  0  0  0  0  0  0  0  0  0
  147.9984  135.1562  160.2383 C   0  0  0  0  0  0  0  0  0  0  0  0
  148.0123  133.7664  160.4910 C   0  0  0  0  0  0  0  0  0  0  0  0
  147.7088  133.2890  161.7753 C   0  0  0  0  0  0  0  0  0  0  0  0
  147.3967  134.2114  162.7846 C   0  0  0  0  0  0  0  0  0  0  0  0
  147.3941  135.5877  162.4880 C   0  0  0  0  0  0  0  0  0  0  0  0
  147.6896  136.0528  161.2351 N   0  3  0  0  0  0  0  0  0  0  0  0
  147.6721  137.3212  161.0147 O   0  5  0  0  0  0  0  0  0  0  0  0
  151.1722  141.4379  158.3458 C   0  0  0  0  0  0  0  0  0  0  0  0
  151.9042  141.3885  159.5302 C   0  0  0  0  0  0  0  0  0  0  0  0
  152.2353  142.6198  160.1400 C   0  0  0  0  0  0  0  0  0  0  0  0
  153.0302  142.5959  161.4345 C   0  0  0  0  0  0  0  0  0  0  0  0
  151.8335  146.0212  159.6519 H   0  0  0  0  0  0  0  0  0  0  0  0
  153.2813  145.2692  160.3159 H   0  0  0  0  0  0  0  0  0  0  0  0
  151.7620  145.2279  161.2234 H   0  0  0  0  0  0  0  0  0  0  0  0
  150.7856  144.8203  157.9152 H   0  0  0  0  0  0  0  0  0  0  0  0
  149.5203  140.4892  155.6420 H   0  0  0  0  0  0  0  0  0  0  0  0
  151.5409  138.6339  156.9885 H   0  0  0  0  0  0  0  0  0  0  0  0
  151.4934  138.9380  158.7046 H   0  0  0  0  0  0  0  0  0  0  0  0
  149.3561  137.8448  156.8721 H   0  0  0  0  0  0  0  0  0  0  0  0
  148.7453  139.9332  158.0731 H   0  0  0  0  0  0  0  0  0  0  0  0
  150.6711  136.4850  158.6206 H   0  0  0  0  0  0  0  0  0  0  0  0
  149.7793  137.3547  159.8583 H   0  0  0  0  0  0  0  0  0  0  0  0
  148.2512  133.0577  159.7137 H   0  0  0  0  0  0  0  0  0  0  0  0
  147.7146  132.2288  161.9826 H   0  0  0  0  0  0  0  0  0  0  0  0
  147.1592  133.8696  163.7812 H   0  0  0  0  0  0  0  0  0  0  0  0
  147.1632  136.3555  163.2124 H   0  0  0  0  0  0  0  0  0  0  0  0
  152.2057  140.4518  159.9742 H   0  0  0  0  0  0  0  0  0  0  0  0
  153.2520  141.5754  161.7481 H   0  0  0  0  0  0  0  0  0  0  0  0
  152.4699  143.0761  162.2371 H   0  0  0  0  0  0  0  0  0  0  0  0
  153.9784  143.1198  161.3114 H   0  0  0  0  0  0  0  0  0  0  0  0
  149.6422  143.0310  155.9793 H   0  0  0  0  0  0  0  0  0  0  0  0
  1  2  1  0  0  0  0
  1 24  1  0  0  0  0
  1 25  1  0  0  0  0
  1 26  1  0  0  0  0
  2 22  1  0  0  0  0
  2  3  2  0  0  0  0
  3  4  1  0  0  0  0
  3 27  1  0  0  0  0
  4 20  2  0  0  0  0
  4  5  1  0  0  0  0
  5  6  2  0  0  0  0
  5 43  1  0  0  0  0
  6  7  1  0  0  0  0
  6 28  1  0  0  0  0
  7  8  1  0  0  0  0
  7 20  1  0  0  0  0
  8  9  1  0  0  0  0
  8 29  1  0  0  0  0
  8 30  1  0  0  0  0
  9 10  1  0  0  0  0
  9 11  1  0  0  0  0
  9 31  1  0  0  0  0
 10 32  1  0  0  0  0
 11 12  1  0  0  0  0
 11 33  1  0  0  0  0
 11 34  1  0  0  0  0
 12 13  1  0  0  0  0
 13 18  1  0  0  0  0
 13 14  2  0  0  0  0
 14 15  1  0  0  0  0
 14 35  1  0  0  0  0
 15 16  2  0  0  0  0
 15 36  1  0  0  0  0
 16 17  1  0  0  0  0
 16 37  1  0  0  0  0
 17 18  2  0  0  0  0
 17 38  1  0  0  0  0
 18 19  1  0  0  0  0
 20 21  1  0  0  0  0
 21 22  2  0  0  0  0
 21 39  1  0  0  0  0
 22 23  1  0  0  0  0
 23 40  1  0  0  0  0
 23 41  1  0  0  0  0
 23 42  1  0  0  0  0
M  CHG  1   5   1
M  CHG  1  18   1
M  CHG  1  19  -1
M  END
> <s_m_source_file>
AV-unprocessed.smi

> <i_m_source_file_index>
2703

> <i_lp_mmshare_version>
43012

> <i_f3d_flags>
0

> <s_epik_input>
W0NIM11jKFtjSF0xKWMoW0NIM10pW2NIXWMoYzEyKW4oW2NIXW4yKVtDSDJdW0NASF0oW09IXSlbQ0gyXVNjM1tjSF1bY0hdW2NIXVtjSF1bbitdM1tPLV0=

> <s_epik_cmdline>
J2VwaWtfcHl0aG9uJywgJy1waCcsICc3LjAnLCAnLXRuJywgJzgnLCAnLW1hJywgJzIwMCcsICctbWV0YWxfYmluZGluZycsICctaW1hZScsICc8aW5maWxlLm1hZT4nLCAnLW9tYWUnLCAnPG91dGZpbGUubWFlPic=

> <r_epik_Ionization_Penalty>
1.07182

> <r_epik_Ionization_Penalty_Charging>
1.07181

> <r_epik_Ionization_Penalty_Neutral>
2.88913e-06

> <r_epik_State_Penalty>
1.12646

> <r_epik_Charging_Adjusted_Penalty>
2.19828

> <i_epik_Tot_Q>
1

> <i_epik_Tot_abs_Q>
3

> <r_epik_Metal_State_Penalty>
5.12345

> <b_epik_Metal_Only>
0

> <s_lp_Force_Field>
OPLS_2005

> <r_lp_Energy>
22.2033

> <b_lp_Chiralities_Consistent>
1

> <s_lp_Variant>
AV-unprocessed.smi:2703-3

> <Gold.Version>
5.8.1

> <Gold.Id.Protein>
6NUR|6NUR_protein|mol2

> <Gold.PLP.Fitness>
61.8559

> <Gold.PLP.PLP>
-52.0902

> <Gold.PLP.part.hbond>
-3.9406

> <Gold.PLP.part.metal>
0.0000

> <Gold.PLP.part.buried>
-6.5687

> <Gold.PLP.part.nonpolar>
-41.9618

> <Gold.PLP.part.repulsive>
0.0521

> <Gold.PLP.ligand.clash>
0.0000

> <Gold.PLP.ligand.torsion>
0.7194

> <Gold.PLP.Chemscore.Hbond>
3.7280

> <Gold.PLP.Chemscore.CHOScore>
0.0000

> <Gold.PLP.Chemscore.Metal>
0.0000

> <Gold.Chemscore.Hbonds>
donor molecule, donor type, donor heavy atom, donor atom, acceptor molecule, acceptor atom, score
      L1  H     5    43       P1  8028  2.00
      P1  H  6931  6943       L1    19  0.83
      P1  H  6934  6947       L1    19  0.88

> <Gold.PLP.Chemscore.Internal.Correction>
0.0205

> <Gold.Rescore>
     Score         DG    S(hbond)    S(metal)    S(lipo)     H(rot)  DE(clash)    DE(int)     intcor
     22.57     -23.25       2.72        0.00     125.20       2.33       0.06       0.63       ----

> <Gold.Chemscore.Fitness>
22.5661

> <Gold.Chemscore.DG>
-23.2516

> <Gold.Chemscore.ZeroCoef>
-5.4800

> <Gold.Chemscore.Hbond>
2.7188

> <Gold.Chemscore.Metal>
0.0000

> <Gold.Chemscore.Lipo>
125.2047

> <Gold.Chemscore.Internal_Hbond>
0.0000

> <Gold.Chemscore.DEClash>
0.0570

> <Gold.Chemscore.DEInternal>
0.6285

> <Gold.Chemscore.Rot>
2.3274

> <Gold.Chemscore.Internal.Correction>
   9.000000E+99

> <Gold.Chemscore.Hbonds>
donor molecule, donor type, donor heavy atom, donor atom, acceptor molecule, acceptor atom, score
      L1  H     5    43       P1  8028  0.94
      P1  H  6931  6943       L1    19  0.72
      P1  H  6934  6947       L1    19  0.87

> <Gold.Chemscore.Hbond.Weighted>
-9.0809

> <Gold.Chemscore.Metal.Weighted>
-0.0000

> <Gold.Chemscore.Lipo.Weighted>
-14.6490

> <Gold.Chemscore.Internal_Hbond.Weighted>
0.0000

> <Gold.Chemscore.DEClash.Weighted>
0.0570

> <Gold.Chemscore.DEInternal.Weighted>
0.6285

> <Gold.Chemscore.Rot.Weighted>
5.9583

> <Gold.Chemscore.Internal.Correction.Weighted>
   9.000000E+99

> <Gold.Protein.RotatedTorsions>
[ 6907 6896 6895 6894 ] final  -56.07 input  -60.11 | X-H torsion
[ 7974 7965 7964 7962 ] final  106.04 input  175.53 | X-H torsion
[ 8008 7997 7996 7995 ] final -116.88 input   59.86 | X-H torsion
[ 10167 10162 10161 10158 ] final  128.18 input  -65.29 | X-H torsion
[ 10718 10713 10712 10709 ] final  124.07 input   66.30 | X-H torsion
[ 10763 10752 10751 10750 ] final  101.37 input  -60.55 | X-H torsion
[ 11005 11000 10999 10996 ] final   24.18 input  -57.11 | X-H torsion

> <Gold.Protein.ActiveResidues>
 VAL166  LYS551  ARG553  GLY616  TRP617  ASP618  TYR619  PRO620  LYS621  CYS622 
 ASP623  PHE694  ASN695  SER759  ASP760  ASP761  ALA762  ILE779  LEU786  VAL792 
 PHE793  MET794  SER795  GLU796  ALA797  LYS798  CYS799  TRP800  GLU811  SER814 

> <Gold.Protein.RotatedAtoms>
  150.8198  134.7400  159.6761 H   0  0  0  0  0  0  0  0  0  0  0  0  # atno 6907 bound_to 6896
  152.4314  134.5766  159.9946 H   0  0  0  0  0  0  0  0  0  0  0  0  # atno 6908 bound_to 6896
  151.5953  133.3324  159.3072 H   0  0  0  0  0  0  0  0  0  0  0  0  # atno 6909 bound_to 6896
  145.3118  139.2538  143.3759 H   0  0  0  0  0  0  0  0  0  0  0  0  # atno 7974 bound_to 7965
  155.0748  140.0394  157.2620 H   0  0  0  0  0  0  0  0  0  0  0  0  # atno 8008 bound_to 7997
  154.6954  140.2662  155.6747 H   0  0  0  0  0  0  0  0  0  0  0  0  # atno 8009 bound_to 7997
  156.2743  140.2751  156.1546 H   0  0  0  0  0  0  0  0  0  0  0  0  # atno 8010 bound_to 7997
  139.5540  144.6835  151.4238 H   0  0  0  0  0  0  0  0  0  0  0  0  # atno 10167 bound_to 10162
  157.5614  131.1089  150.8531 H   0  0  0  0  0  0  0  0  0  0  0  0  # atno 10718 bound_to 10713
  153.3258  135.4047  155.1455 H   0  0  0  0  0  0  0  0  0  0  0  0  # atno 10763 bound_to 10752
  154.8611  135.3598  154.5535 H   0  0  0  0  0  0  0  0  0  0  0  0  # atno 10764 bound_to 10752
  153.5971  135.7072  153.5458 H   0  0  0  0  0  0  0  0  0  0  0  0  # atno 10765 bound_to 10752
  140.3616  134.2120  155.7672 H   0  0  0  0  0  0  0  0  0  0  0  0  # atno 11005 bound_to 11000
  146.3115  140.3656  142.8669 LP  0  0  0  0  0  0  0  0  0  0  0  0  # atno 17320 bound_to 7965
  144.9009  140.7641  143.5867 LP  0  0  0  0  0  0  0  0  0  0  0  0  # atno 17321 bound_to 7965
  140.6809  143.8084  150.7120 LP  0  0  0  0  0  0  0  0  0  0  0  0  # atno 17342 bound_to 10162
  140.1537  143.4335  152.2114 LP  0  0  0  0  0  0  0  0  0  0  0  0  # atno 17343 bound_to 10162
  156.9028  130.5253  149.5282 LP  0  0  0  0  0  0  0  0  0  0  0  0  # atno 17370 bound_to 10713
  156.0666  130.5708  150.9301 LP  0  0  0  0  0  0  0  0  0  0  0  0  # atno 17371 bound_to 10713
  141.1982  133.8040  157.0591 LP  0  0  0  0  0  0  0  0  0  0  0  0  # atno 17394 bound_to 11000
  140.0622  134.9748  157.1325 LP  0  0  0  0  0  0  0  0  0  0  0  0  # atno 17395 bound_to 11000

$$$$
