AV-unprocessed.smi:2564|AV-procd|sdf|10062|dock9
  -GOLD-   2272014103D 1   1.00000     0.00000
 Structure written by MMmdl.
 29 30  0  0  0  0  0  0  0  0  2 V2000
  152.1741  144.1838  158.9692 C   0  0  0  0  0  0  0  0  0  0  0  0
  152.0377  143.1808  159.9463 C   0  0  0  0  0  0  0  0  0  0  0  0
  151.4323  141.9982  159.6957 N   0  0  0  0  0  0  0  0  0  0  0  0
  150.9342  141.7451  158.4802 N   0  0  0  0  0  0  0  0  0  0  0  0
  151.0310  142.6669  157.4891 C   0  0  0  0  0  0  0  0  0  0  0  0
  150.4962  142.3714  156.2282 N   0  0  0  0  0  0  0  0  0  0  0  0
  150.7200  141.0683  155.6180 C   0  0  0  0  0  0  0  0  0  0  0  0
  149.4486  140.5297  154.9482 C   0  0  2  0  0  0  0  0  0  0  0  0
  149.7160  139.2090  154.1992 C   0  0  0  0  0  0  0  0  0  0  0  0
  148.4962  138.7653  153.4963 N   0  3  0  0  0  0  0  0  0  0  0  0
  147.9743  139.8146  152.5994 C   0  0  0  0  0  0  0  0  0  0  0  0
  147.7683  141.1216  153.3829 C   0  0  0  0  0  0  0  0  0  0  0  0
  148.9914  141.4985  154.0066 O   0  0  0  0  0  0  0  0  0  0  0  0
  151.6508  143.9159  157.6924 C   0  0  0  0  0  0  0  0  0  0  0  0
  152.6612  145.1215  159.1919 H   0  0  0  0  0  0  0  0  0  0  0  0
  152.4192  143.3279  160.9456 H   0  0  0  0  0  0  0  0  0  0  0  0
  150.0726  143.1051  155.6787 H   0  0  0  0  0  0  0  0  0  0  0  0
  151.5307  141.1355  154.8911 H   0  0  0  0  0  0  0  0  0  0  0  0
  151.0413  140.3747  156.3962 H   0  0  0  0  0  0  0  0  0  0  0  0
  148.6834  140.3662  155.7098 H   0  0  0  0  0  0  0  0  0  0  0  0
  150.5202  139.3376  153.4734 H   0  0  0  0  0  0  0  0  0  0  0  0
  150.0311  138.4297  154.8936 H   0  0  0  0  0  0  0  0  0  0  0  0
  148.6997  137.9341  152.9596 H   0  0  0  0  0  0  0  0  0  0  0  0
  148.6799  139.9721  151.7826 H   0  0  0  0  0  0  0  0  0  0  0  0
  147.0366  139.4793  152.1557 H   0  0  0  0  0  0  0  0  0  0  0  0
  147.4527  141.9186  152.7093 H   0  0  0  0  0  0  0  0  0  0  0  0
  146.9837  141.0087  154.1328 H   0  0  0  0  0  0  0  0  0  0  0  0
  151.7233  144.6453  156.8990 H   0  0  0  0  0  0  0  0  0  0  0  0
  147.7893  138.5479  154.1845 H   0  0  0  0  0  0  0  0  0  0  0  0
  1 14  1  0  0  0  0
  1  2  2  0  0  0  0
  1 15  1  0  0  0  0
  2  3  1  0  0  0  0
  2 16  1  0  0  0  0
  3  4  2  0  0  0  0
  4  5  1  0  0  0  0
  5  6  1  0  0  0  0
  5 14  2  0  0  0  0
  6  7  1  0  0  0  0
  6 17  1  0  0  0  0
  7  8  1  0  0  0  0
  7 18  1  0  0  0  0
  7 19  1  0  0  0  0
  8 13  1  0  0  0  0
  8  9  1  0  0  0  0
  8 20  1  0  0  0  0
  9 10  1  0  0  0  0
  9 21  1  0  0  0  0
  9 22  1  0  0  0  0
 10 11  1  0  0  0  0
 10 23  1  0  0  0  0
 10 29  1  0  0  0  0
 11 12  1  0  0  0  0
 11 24  1  0  0  0  0
 11 25  1  0  0  0  0
 12 13  1  0  0  0  0
 12 26  1  0  0  0  0
 12 27  1  0  0  0  0
 14 28  1  0  0  0  0
M  CHG  1  10   1
M  END
> <s_m_source_file>
AV-unprocessed.smi

> <i_m_source_file_index>
2564

> <i_lp_mmshare_version>
43012

> <i_f3d_flags>
0

> <s_epik_input>
W2NIXTFbY0hdW2NIXW5uYzFbTkhdW0NIMl1bQ0BASF0yW0NIMl1bTkhdW0NIMl1bQ0gyXU8y

> <s_epik_cmdline>
J2VwaWtfcHl0aG9uJywgJy1waCcsICc3LjAnLCAnLXRuJywgJzgnLCAnLW1hJywgJzIwMCcsICctbWV0YWxfYmluZGluZycsICctaW1hZScsICc8aW5maWxlLm1hZT4nLCAnLW9tYWUnLCAnPG91dGZpbGUubWFlPic=

> <r_lp_tautomer_probability>
0.999978

> <r_epik_Ionization_Penalty>
0.0278973

> <r_epik_Ionization_Penalty_Charging>
0.00959556

> <r_epik_Ionization_Penalty_Neutral>
0.0183017

> <r_epik_State_Penalty>
0.0323017

> <r_epik_Charging_Adjusted_Penalty>
0.0418973

> <i_epik_Tot_Q>
1

> <i_epik_Tot_abs_Q>
1

> <r_epik_Metal_State_Penalty>
0.0301524

> <b_epik_Metal_Only>
0

> <s_lp_Force_Field>
OPLS_2005

> <r_lp_Energy>
19.9275

> <b_lp_Chiralities_Consistent>
1

> <s_lp_Variant>
AV-unprocessed.smi:2564-1

> <Gold.Version>
5.8.1

> <Gold.Id.Protein>
6NUR|6NUR_protein|mol2

> <Gold.PLP.Fitness>
39.0468

> <Gold.PLP.PLP>
-29.6697

> <Gold.PLP.part.hbond>
-4.1642

> <Gold.PLP.part.metal>
0.0000

> <Gold.PLP.part.buried>
3.0540

> <Gold.PLP.part.nonpolar>
-27.7839

> <Gold.PLP.part.repulsive>
0.3382

> <Gold.PLP.ligand.clash>
0.0000

> <Gold.PLP.ligand.torsion>
0.5001

> <Gold.PLP.Chemscore.Hbond>
3.4586

> <Gold.PLP.Chemscore.CHOScore>
0.0000

> <Gold.PLP.Chemscore.Metal>
0.0000

> <Gold.Chemscore.Hbonds>
donor molecule, donor type, donor heavy atom, donor atom, acceptor molecule, acceptor atom, score
      L1  H     6    17       P1  8028  0.94
      L1  H    10    23       P1  7948  2.00
      P1  H  8011  8017       L1    13  0.50

> <Gold.PLP.Chemscore.Internal.Correction>
0.0015

> <Gold.Rescore>
     Score         DG    S(hbond)    S(metal)    S(lipo)     H(rot)  DE(clash)    DE(int)     intcor
     15.94     -18.37       2.14        0.00      78.14       1.33       1.88       0.55       ----

> <Gold.Chemscore.Fitness>
15.9374

> <Gold.Chemscore.DG>
-18.3702

> <Gold.Chemscore.ZeroCoef>
-5.4800

> <Gold.Chemscore.Hbond>
2.1379

> <Gold.Chemscore.Metal>
0.0000

> <Gold.Chemscore.Lipo>
78.1375

> <Gold.Chemscore.Internal_Hbond>
0.0000

> <Gold.Chemscore.DEClash>
1.8840

> <Gold.Chemscore.DEInternal>
0.5489

> <Gold.Chemscore.Rot>
1.3251

> <Gold.Chemscore.Internal.Correction>
   9.000000E+99

> <Gold.Chemscore.Hbonds>
donor molecule, donor type, donor heavy atom, donor atom, acceptor molecule, acceptor atom, score
      L1  H     6    17       P1  8028  0.89
      L1  H    10    23       P1  7948  0.94
      P1  H  8011  8017       L1    13  0.07

> <Gold.Chemscore.Hbond.Weighted>
-7.1405

> <Gold.Chemscore.Metal.Weighted>
-0.0000

> <Gold.Chemscore.Lipo.Weighted>
-9.1421

> <Gold.Chemscore.Internal_Hbond.Weighted>
0.0000

> <Gold.Chemscore.DEClash.Weighted>
1.8840

> <Gold.Chemscore.DEInternal.Weighted>
0.5489

> <Gold.Chemscore.Rot.Weighted>
3.3924

> <Gold.Chemscore.Internal.Correction.Weighted>
   9.000000E+99

> <Gold.Protein.RotatedTorsions>
[ 6907 6896 6895 6894 ] final  -27.78 input  -60.11 | X-H torsion
[ 7974 7965 7964 7962 ] final   -9.08 input  175.53 | X-H torsion
[ 8008 7997 7996 7995 ] final  -36.21 input   59.86 | X-H torsion
[ 10167 10162 10161 10158 ] final  159.29 input  -65.29 | X-H torsion
[ 10718 10713 10712 10709 ] final -162.47 input   66.30 | X-H torsion
[ 10763 10752 10751 10750 ] final  117.20 input  -60.55 | X-H torsion
[ 11005 11000 10999 10996 ] final  121.61 input  -57.11 | X-H torsion

> <Gold.Protein.ActiveResidues>
 VAL166  LYS551  ARG553  GLY616  TRP617  ASP618  TYR619  PRO620  LYS621  CYS622 
 ASP623  PHE694  ASN695  SER759  ASP760  ASP761  ALA762  ILE779  LEU786  VAL792 
 PHE793  MET794  SER795  GLU796  ALA797  LYS798  CYS799  TRP800  GLU811  SER814 

> <Gold.Protein.RotatedAtoms>
  151.1422  135.0185  159.8630 H   0  0  0  0  0  0  0  0  0  0  0  0  # atno 6907 bound_to 6896
  152.5452  134.1486  159.8519 H   0  0  0  0  0  0  0  0  0  0  0  0  # atno 6908 bound_to 6896
  151.1563  133.4829  159.2627 H   0  0  0  0  0  0  0  0  0  0  0  0  # atno 6909 bound_to 6896
  146.2262  140.2563  142.8349 H   0  0  0  0  0  0  0  0  0  0  0  0  # atno 7974 bound_to 7965
  154.4078  140.1637  156.2336 H   0  0  0  0  0  0  0  0  0  0  0  0  # atno 8008 bound_to 7997
  155.9261  140.3418  155.6189 H   0  0  0  0  0  0  0  0  0  0  0  0  # atno 8009 bound_to 7997
  155.7163  140.0763  157.2340 H   0  0  0  0  0  0  0  0  0  0  0  0  # atno 8010 bound_to 7997
  139.4831  144.4744  151.8532 H   0  0  0  0  0  0  0  0  0  0  0  0  # atno 10167 bound_to 10162
  156.6109  130.8850  151.2936 H   0  0  0  0  0  0  0  0  0  0  0  0  # atno 10718 bound_to 10713
  153.5488  135.3544  155.2750 H   0  0  0  0  0  0  0  0  0  0  0  0  # atno 10763 bound_to 10752
  154.8709  135.4109  154.2961 H   0  0  0  0  0  0  0  0  0  0  0  0  # atno 10764 bound_to 10752
  153.3682  135.7063  153.6727 H   0  0  0  0  0  0  0  0  0  0  0  0  # atno 10765 bound_to 10752
  139.9233  134.9639  156.7984 H   0  0  0  0  0  0  0  0  0  0  0  0  # atno 11005 bound_to 11000
  144.9373  140.8041  143.5652 LP  0  0  0  0  0  0  0  0  0  0  0  0  # atno 17320 bound_to 7965
  145.2511  139.2031  143.4941 LP  0  0  0  0  0  0  0  0  0  0  0  0  # atno 17321 bound_to 7965
  140.4215  144.2237  150.5887 LP  0  0  0  0  0  0  0  0  0  0  0  0  # atno 17342 bound_to 10162
  140.4869  143.2360  151.8875 LP  0  0  0  0  0  0  0  0  0  0  0  0  # atno 17343 bound_to 10162
  157.7254  130.9616  150.1615 LP  0  0  0  0  0  0  0  0  0  0  0  0  # atno 17370 bound_to 10713
  156.2391  130.3689  149.8357 LP  0  0  0  0  0  0  0  0  0  0  0  0  # atno 17371 bound_to 10713
  140.6410  133.9818  155.7707 LP  0  0  0  0  0  0  0  0  0  0  0  0  # atno 17394 bound_to 11000
  141.0771  134.0118  157.3441 LP  0  0  0  0  0  0  0  0  0  0  0  0  # atno 17395 bound_to 11000

$$$$
