#       Name:                AV-unprocessed.smi:962
#       Creating user name   scv26
#       Creation time:       Fri Mar 27 02:18:28 2020


#       File generated by GOLD software.
#

@<TRIPOS>MOLECULE
AV-unprocessed.smi:962
    45    46     1
SMALL
NO_CHARGES


@<TRIPOS>ATOM
      1 ****        -1.9902   3.0927   1.9717 C.3            1 S1                 0.0000
      2 ****        -1.5386   1.7017   2.4655 C.3            1 S1                 0.0000
      3 ****        -0.0512   1.7962   2.8594 C.3            1 S1                 0.0000
      4 ****        -2.3877   1.3355   3.6986 C.3            1 S1                 0.0000
      5 ****        -1.7146   0.6542   1.3851 C.2            1 S1                 0.0000
      6 ****        -2.1759   0.8288   0.1001 C.2            1 S1                 0.0000
      7 ****        -2.1671  -0.6535  -0.8134 S.3            1 S1                 0.0000
      8 ****        -1.5374  -1.4838   0.6028 C.2            1 S1                 0.0000
      9 ****        -1.1460  -2.9267   0.6033 C.3            1 S1                 0.0000
     10 ****         0.3669  -3.1642   0.4230 C.3            1 S1                 0.0000
     11 ****         0.9109  -2.4319  -0.7191 N.am           1 S1                 0.0000
     12 ****         1.5833  -1.2681  -0.6538 C.2            1 S1                 0.0000
     13 ****         1.9069  -0.7370   0.4093 O.2            1 S1                 0.0000
     14 ****         1.8656  -0.7271  -1.8584 N.am           1 S1                 0.0000
     15 ****         1.4263  -1.2260  -3.1650 C.3            1 S1                 0.0000
     16 ****         1.7297  -0.1057  -4.1603 C.3            1 S1                 0.0000
     17 ****         2.8667   0.6708  -3.5118 C.3            1 S1                 0.0000
     18 ****         2.6130   0.5195  -2.0122 C.3            1 S1                 0.0000
     19 ****        -1.3675  -0.6768   1.6514 N.2            1 S1                 0.0000
     20 ****        -1.8682   3.8484   2.7485 H              1 S1                 0.0000
     21 ****        -3.0420   3.0933   1.6826 H              1 S1                 0.0000
     22 ****        -1.4078   3.4201   1.1094 H              1 S1                 0.0000
     23 ****         0.5695   2.0496   1.9988 H              1 S1                 0.0000
     24 ****         0.3197   0.8531   3.2624 H              1 S1                 0.0000
     25 ****         0.1122   2.5599   3.6204 H              1 S1                 0.0000
     26 ****        -2.2898   2.0849   4.4849 H              1 S1                 0.0000
     27 ****        -2.0856   0.3786   4.1257 H              1 S1                 0.0000
     28 ****        -3.4455   1.2619   3.4433 H              1 S1                 0.0000
     29 ****        -2.5090   1.7401  -0.3735 H              1 S1                 0.0000
     30 ****        -1.4866  -3.3848   1.5324 H              1 S1                 0.0000
     31 ****        -1.6894  -3.4241  -0.2006 H              1 S1                 0.0000
     32 ****         0.8909  -2.8839   1.3383 H              1 S1                 0.0000
     33 ****         0.5591  -4.2275   0.2804 H              1 S1                 0.0000
     34 ****         0.7037  -2.8019  -1.6354 H              1 S1                 0.0000
     35 ****         1.9955  -2.1233  -3.4127 H              1 S1                 0.0000
     36 ****         0.3648  -1.4791  -3.1774 H              1 S1                 0.0000
     37 ****         1.9824  -0.4776  -5.1536 H              1 S1                 0.0000
     38 ****         0.8570   0.5414  -4.2586 H              1 S1                 0.0000
     39 ****         3.8193   0.2062  -3.7702 H              1 S1                 0.0000
     40 ****         2.9054   1.7126  -3.8316 H              1 S1                 0.0000
     41 ****         2.0039   1.3456  -1.6417 H              1 S1                 0.0000
     42 ****         3.5477   0.5083  -1.4495 H              1 S1                 0.0000
     43 ****         1.6700  -1.1720   1.2781 LP             1 S1                 0.0000
     44 ****         2.4065   0.1292   0.4038 LP             1 S1                 0.0000
     45 ****        -1.0269  -0.9902   2.5379 LP             1 S1                 0.0000
@<TRIPOS>BOND
    1    1    2 1     
    2    1   20 1     
    3    1   21 1     
    4    1   22 1     
    5    2    3 1     
    6    2    4 1     
    7    2    5 1     
    8    3   23 1     
    9    3   24 1     
   10    3   25 1     
   11    4   26 1     
   12    4   27 1     
   13    4   28 1     
   14    5   19 1     
   15    5    6 2     
   16    6    7 1     
   17    6   29 1     
   18    7    8 1     
   19    8    9 1     
   20    8   19 2     
   21    9   10 1     
   22    9   30 1     
   23    9   31 1     
   24   10   11 1     
   25   10   32 1     
   26   10   33 1     
   27   11   12 am    
   28   11   34 1     
   29   12   13 2     
   30   12   14 am    
   31   14   18 1     
   32   14   15 1     
   33   15   16 1     
   34   15   35 1     
   35   15   36 1     
   36   16   17 1     
   37   16   37 1     
   38   16   38 1     
   39   17   18 1     
   40   17   39 1     
   41   17   40 1     
   42   18   41 1     
   43   18   42 1     
   44   13   43 1     
   45   13   44 1     
   46   19   45 1     
@<TRIPOS>SUBSTRUCTURE
      1 S1             1
@<TRIPOS>SET
LONE_PAIRS      STATIC     ATOMS    <user>   **** ""
3 43 44 45
DONOR_HYDROGENS      STATIC     ATOMS    <user>   **** ""
1 34
ATOM$BLUE        STATIC     ATOMS    COLORGROUP SYSTEM
3 43 44 45
ATOM$RED        STATIC     ATOMS    COLORGROUP SYSTEM
1 34
