#       Name:                AV-unprocessed.smi:3352
#       Creating user name   scv26
#       Creation time:       Fri Mar 27 19:38:54 2020


#       File generated by GOLD software.
#

@<TRIPOS>MOLECULE
AV-unprocessed.smi:3352
    43    44     1
SMALL
NO_CHARGES


@<TRIPOS>ATOM
      1 ****        -3.0215   0.7763  -0.8083 C.3            1 S1                 0.0000
      2 ****        -2.5612  -0.1844  -1.9137 C.3            1 S1                 0.0000
      3 ****        -3.7386  -0.8322  -2.6568 C.3            1 S1                 0.0000
      4 ****        -1.5963  -1.2034  -1.3925 C.2            1 S1                 0.0000
      5 ****        -0.2986  -1.2113  -1.7085 N.2            1 S1                 0.0000
      6 ****         0.4123  -2.2293  -1.0632 C.2            1 S1                 0.0000
      7 ****         1.8952  -2.3552  -1.2661 C.3            1 S1                 0.0000
      8 ****         2.6226  -1.4851  -0.2403 C.2            1 S1                 0.0000
      9 ****         3.1834  -2.0033   0.7250 O.2            1 S1                 0.0000
     10 ****         2.5716  -0.1600  -0.4451 N.am           1 S1                 0.0000
     11 ****         3.0179   0.8549   0.5003 C.3            1 S1                 0.0000
     12 ****         2.0021   1.0416   1.6418 C.3            1 S1                 0.0000
     13 ****         0.5806   1.3804   1.1882 C.3            1 S1                 0.0000
     14 ****        -0.0029   2.1376   2.3709 C.3            1 S1                 0.0000
     15 ****         1.2118   2.4630   3.2459 C.3            1 S1                 0.0000
     16 ****         2.3437   2.1612   2.4415 O.3            1 S1                 0.0000
     17 ****        -0.3786  -3.0139  -0.2608 C.2            1 S1                 0.0000
     18 ****        -2.0379  -2.4843  -0.2658 S.3            1 S1                 0.0000
     19 ****        -2.1708   1.2783  -0.3464 H              1 S1                 0.0000
     20 ****        -3.5637   0.2487  -0.0232 H              1 S1                 0.0000
     21 ****        -3.6812   1.5470  -1.2075 H              1 S1                 0.0000
     22 ****        -2.0218   0.4171  -2.6472 H              1 S1                 0.0000
     23 ****        -3.3874  -1.4589  -3.4773 H              1 S1                 0.0000
     24 ****        -4.3986  -0.0747  -3.0801 H              1 S1                 0.0000
     25 ****        -4.3362  -1.4565  -1.9919 H              1 S1                 0.0000
     26 ****         2.2136  -3.3925  -1.1549 H              1 S1                 0.0000
     27 ****         2.1816  -2.0478  -2.2729 H              1 S1                 0.0000
     28 ****         2.0940   0.1697  -1.2717 H              1 S1                 0.0000
     29 ****         4.0007   0.5993   0.8993 H              1 S1                 0.0000
     30 ****         3.1378   1.7909  -0.0458 H              1 S1                 0.0000
     31 ****         1.9827   0.1545   2.2779 H              1 S1                 0.0000
     32 ****         0.6075   2.0330   0.3145 H              1 S1                 0.0000
     33 ****         0.0024   0.4933   0.9262 H              1 S1                 0.0000
     34 ****        -0.5120   3.0423   2.0371 H              1 S1                 0.0000
     35 ****        -0.7231   1.5308   2.9206 H              1 S1                 0.0000
     36 ****         1.2267   3.5032   3.5721 H              1 S1                 0.0000
     37 ****         1.2251   1.8285   4.1333 H              1 S1                 0.0000
     38 ****        -0.0822  -3.8576   0.3447 H              1 S1                 0.0000
     39 ****         0.1207  -0.5587  -2.3396 LP             1 S1                 0.0000
     40 ****         3.1643  -2.9965   0.8405 LP             1 S1                 0.0000
     41 ****         3.6581  -1.4312   1.3939 LP             1 S1                 0.0000
     42 ****         2.5685   2.9425   1.8593 LP             1 S1                 0.0000
     43 ****         3.1278   1.9414   3.0219 LP             1 S1                 0.0000
@<TRIPOS>BOND
    1    1    2 1     
    2    1   19 1     
    3    1   20 1     
    4    1   21 1     
    5    2    3 1     
    6    2    4 1     
    7    2   22 1     
    8    3   23 1     
    9    3   24 1     
   10    3   25 1     
   11    4   18 1     
   12    4    5 2     
   13    5    6 1     
   14    6    7 1     
   15    6   17 2     
   16    7    8 1     
   17    7   26 1     
   18    7   27 1     
   19    8    9 2     
   20    8   10 am    
   21   10   11 1     
   22   10   28 1     
   23   11   12 1     
   24   11   29 1     
   25   11   30 1     
   26   12   16 1     
   27   12   13 1     
   28   12   31 1     
   29   13   14 1     
   30   13   32 1     
   31   13   33 1     
   32   14   15 1     
   33   14   34 1     
   34   14   35 1     
   35   15   16 1     
   36   15   36 1     
   37   15   37 1     
   38   17   18 1     
   39   17   38 1     
   40    5   39 1     
   41    9   40 1     
   42    9   41 1     
   43   16   42 1     
   44   16   43 1     
@<TRIPOS>SUBSTRUCTURE
      1 S1             1
@<TRIPOS>SET
LONE_PAIRS      STATIC     ATOMS    <user>   **** ""
5 39 40 41 42 43
DONOR_HYDROGENS      STATIC     ATOMS    <user>   **** ""
1 28
ATOM$BLUE        STATIC     ATOMS    COLORGROUP SYSTEM
5 39 40 41 42 43
ATOM$RED        STATIC     ATOMS    COLORGROUP SYSTEM
1 28
