AV-unprocessed.smi:1830|AV-procd|sdf|7435|dock8
  -GOLD-   22720 9123D 1   1.00000     0.00000
 Structure written by MMmdl.
 53 56  0  0  0  0  0  0  0  0  2 V2000
  149.2269  135.2785  156.3080 O   0  0  0  0  0  0  0  0  0  0  0  0
  149.1638  135.4439  155.0896 C   0  0  0  0  0  0  0  0  0  0  0  0
  148.5550  134.5849  154.2605 N   0  0  0  0  0  0  0  0  0  0  0  0
  147.8806  133.3602  154.6779 C   0  0  0  0  0  0  0  0  0  0  0  0
  146.6105  133.0897  153.8515 C   0  0  1  0  0  0  0  0  0  0  0  0
  145.5154  134.1317  154.1275 C   0  0  0  0  0  0  0  0  0  0  0  0
  144.3095  133.8823  153.2979 N   0  3  1  0  0  0  0  0  0  0  0  0
  143.3623  135.0188  153.3296 C   0  0  0  0  0  0  0  0  0  0  0  0
  143.6271  135.8497  152.0604 C   0  0  0  0  0  0  0  0  0  0  0  0
  144.6897  135.0760  151.2718 C   0  0  0  0  0  0  0  0  0  0  0  0
  144.6243  133.6700  151.8681 C   0  0  1  0  0  0  0  0  0  0  0  0
  145.8626  132.7785  151.6409 C   0  0  0  0  0  0  0  0  0  0  0  0
  146.9442  133.1754  152.4717 O   0  0  0  0  0  0  0  0  0  0  0  0
  149.6688  136.4936  154.4204 N   0  0  0  0  0  0  0  0  0  0  0  0
  150.3634  137.6222  154.9419 C   0  0  0  0  0  0  0  0  0  0  0  0
  151.4428  138.2193  154.2454 C   0  0  0  0  0  0  0  0  0  0  0  0
  152.1071  139.3198  154.8128 C   0  0  0  0  0  0  0  0  0  0  0  0
  151.6668  139.7898  156.0608 C   0  0  0  0  0  0  0  0  0  0  0  0
  150.6290  139.2467  156.7273 N   0  0  0  0  0  0  0  0  0  0  0  0
  149.9673  138.1944  156.1855 C   0  0  0  0  0  0  0  0  0  0  0  0
  148.8728  137.6833  156.9202 N   0  0  0  0  0  0  0  0  0  0  0  0
  147.5468  138.2297  156.6470 C   0  0  0  0  0  0  0  0  0  0  0  0
  146.8151  138.2876  157.9923 C   0  0  0  0  0  0  0  0  0  0  0  0
  147.5666  137.2790  158.8553 C   0  0  0  0  0  0  0  0  0  0  0  0
  148.9995  137.4212  158.3503 C   0  0  0  0  0  0  0  0  0  0  0  0
  148.5463  134.7975  153.2735 H   0  0  0  0  0  0  0  0  0  0  0  0
  148.5735  132.5213  154.5935 H   0  0  0  0  0  0  0  0  0  0  0  0
  147.6296  133.4474  155.7355 H   0  0  0  0  0  0  0  0  0  0  0  0
  146.2295  132.0936  154.0846 H   0  0  0  0  0  0  0  0  0  0  0  0
  145.2306  134.1116  155.1802 H   0  0  0  0  0  0  0  0  0  0  0  0
  145.9055  135.1306  153.9243 H   0  0  0  0  0  0  0  0  0  0  0  0
  142.3478  134.6195  153.2998 H   0  0  0  0  0  0  0  0  0  0  0  0
  143.4490  135.6105  154.2422 H   0  0  0  0  0  0  0  0  0  0  0  0
  142.7099  135.9493  151.4789 H   0  0  0  0  0  0  0  0  0  0  0  0
  143.9741  136.8550  152.3006 H   0  0  0  0  0  0  0  0  0  0  0  0
  144.5064  135.0860  150.1969 H   0  0  0  0  0  0  0  0  0  0  0  0
  145.6727  135.5157  151.4462 H   0  0  0  0  0  0  0  0  0  0  0  0
  143.7627  133.1693  151.4229 H   0  0  0  0  0  0  0  0  0  0  0  0
  145.6185  131.7346  151.8448 H   0  0  0  0  0  0  0  0  0  0  0  0
  146.1757  132.8247  150.5977 H   0  0  0  0  0  0  0  0  0  0  0  0
  149.4483  136.5411  153.4365 H   0  0  0  0  0  0  0  0  0  0  0  0
  151.7682  137.8573  153.2823 H   0  0  0  0  0  0  0  0  0  0  0  0
  152.9358  139.7900  154.3045 H   0  0  0  0  0  0  0  0  0  0  0  0
  152.1545  140.6293  156.5335 H   0  0  0  0  0  0  0  0  0  0  0  0
  147.5949  139.2135  156.1775 H   0  0  0  0  0  0  0  0  0  0  0  0
  147.0230  137.5551  155.9698 H   0  0  0  0  0  0  0  0  0  0  0  0
  146.9172  139.2846  158.4226 H   0  0  0  0  0  0  0  0  0  0  0  0
  145.7511  138.0662  157.9059 H   0  0  0  0  0  0  0  0  0  0  0  0
  147.4716  137.4741  159.9238 H   0  0  0  0  0  0  0  0  0  0  0  0
  147.1982  136.2715  158.6580 H   0  0  0  0  0  0  0  0  0  0  0  0
  149.5867  136.5224  158.5393 H   0  0  0  0  0  0  0  0  0  0  0  0
  149.4804  138.2579  158.8588 H   0  0  0  0  0  0  0  0  0  0  0  0
  143.8583  133.0542  153.6605 H   0  0  0  0  0  0  0  0  0  0  0  0
  1  2  2  0  0  0  0
  2  3  1  0  0  0  0
  2 14  1  0  0  0  0
  3  4  1  0  0  0  0
  3 26  1  0  0  0  0
  4  5  1  0  0  0  0
  4 27  1  0  0  0  0
  4 28  1  0  0  0  0
  5 13  1  0  0  0  0
  5  6  1  0  0  0  0
  5 29  1  0  0  0  0
  6  7  1  0  0  0  0
  6 30  1  0  0  0  0
  6 31  1  0  0  0  0
  7 11  1  0  0  0  0
  7  8  1  0  0  0  0
  7 53  1  0  0  0  0
  8  9  1  0  0  0  0
  8 32  1  0  0  0  0
  8 33  1  0  0  0  0
  9 10  1  0  0  0  0
  9 34  1  0  0  0  0
  9 35  1  0  0  0  0
 10 11  1  0  0  0  0
 10 36  1  0  0  0  0
 10 37  1  0  0  0  0
 11 12  1  0  0  0  0
 11 38  1  0  0  0  0
 12 13  1  0  0  0  0
 12 39  1  0  0  0  0
 12 40  1  0  0  0  0
 14 15  1  0  0  0  0
 14 41  1  0  0  0  0
 15 20  1  0  0  0  0
 15 16  2  0  0  0  0
 16 17  1  0  0  0  0
 16 42  1  0  0  0  0
 17 18  2  0  0  0  0
 17 43  1  0  0  0  0
 18 19  1  0  0  0  0
 18 44  1  0  0  0  0
 19 20  2  0  0  0  0
 20 21  1  0  0  0  0
 21 25  1  0  0  0  0
 21 22  1  0  0  0  0
 22 23  1  0  0  0  0
 22 45  1  0  0  0  0
 22 46  1  0  0  0  0
 23 24  1  0  0  0  0
 23 47  1  0  0  0  0
 23 48  1  0  0  0  0
 24 25  1  0  0  0  0
 24 49  1  0  0  0  0
 24 50  1  0  0  0  0
 25 51  1  0  0  0  0
 25 52  1  0  0  0  0
M  CHG  1   7   1
M  END
> <s_m_source_file>
AV-unprocessed.smi

> <i_m_source_file_index>
1830

> <i_lp_mmshare_version>
43012

> <i_f3d_flags>
0

> <s_epik_input>
W0NIMl0xW0NIMl1bQ0gyXVtDQEhdKE4xMilbQ0gyXU9bQ0BASF0oW0NIMl0yKVtDSDJdW05IXUMoPU8pW05IXWMzW2NIXVtjSF1bY0hdbmMzTjRbQ0gyXVtDSDJdW0NIMl1bQ0gyXTQ=

> <s_epik_cmdline>
J2VwaWtfcHl0aG9uJywgJy1waCcsICc3LjAnLCAnLXRuJywgJzgnLCAnLW1hJywgJzIwMCcsICctbWV0YWxfYmluZGluZycsICctaW1hZScsICc8aW5maWxlLm1hZT4nLCAnLW9tYWUnLCAnPG91dGZpbGUubWFlPic=

> <r_lp_tautomer_probability>
1

> <r_epik_Ionization_Penalty>
0.193547

> <r_epik_Ionization_Penalty_Charging>
0.10673

> <r_epik_Ionization_Penalty_Neutral>
0.0868166

> <r_epik_State_Penalty>
0.173595

> <r_epik_Charging_Adjusted_Penalty>
0.280326

> <i_epik_Tot_Q>
1

> <i_epik_Tot_abs_Q>
1

> <r_epik_Metal_State_Penalty>
0.164683

> <b_epik_Metal_Only>
0

> <s_lp_Force_Field>
OPLS_2005

> <r_lp_Energy>
64.3317

> <b_lp_Chiralities_Consistent>
1

> <s_lp_Variant>
AV-unprocessed.smi:1830-4

> <Gold.Version>
5.8.1

> <Gold.Id.Protein>
6NUR|6NUR_protein|mol2

> <Gold.PLP.Fitness>
40.1438

> <Gold.PLP.PLP>
-30.1308

> <Gold.PLP.part.hbond>
-3.2740

> <Gold.PLP.part.metal>
0.0000

> <Gold.PLP.part.buried>
-5.1741

> <Gold.PLP.part.nonpolar>
-22.6990

> <Gold.PLP.part.repulsive>
0.1944

> <Gold.PLP.ligand.clash>
0.0000

> <Gold.PLP.ligand.torsion>
0.9846

> <Gold.PLP.Chemscore.Hbond>
3.8865

> <Gold.PLP.Chemscore.CHOScore>
0.0000

> <Gold.PLP.Chemscore.Metal>
0.0000

> <Gold.Chemscore.Hbonds>
donor molecule, donor type, donor heavy atom, donor atom, acceptor molecule, acceptor atom, score
      L1  H     3    26       P1  7948  0.91
      L1  H     7    53       P1 10957  1.76
      L1  H    14    41       P1  7948  1.00

> <Gold.PLP.Chemscore.Internal.Correction>
0.3227

> <Gold.Rescore>
     Score         DG    S(hbond)    S(metal)    S(lipo)     H(rot)  DE(clash)    DE(int)     intcor
     13.65     -18.68       2.73        0.00      65.65       1.41       0.03       4.99       ----

> <Gold.Chemscore.Fitness>
13.6518

> <Gold.Chemscore.DG>
-18.6752

> <Gold.Chemscore.ZeroCoef>
-5.4800

> <Gold.Chemscore.Hbond>
2.7291

> <Gold.Chemscore.Metal>
0.0000

> <Gold.Chemscore.Lipo>
65.6501

> <Gold.Chemscore.Internal_Hbond>
0.0000

> <Gold.Chemscore.DEClash>
0.0310

> <Gold.Chemscore.DEInternal>
4.9924

> <Gold.Chemscore.Rot>
1.4067

> <Gold.Chemscore.Internal.Correction>
   9.000000E+99

> <Gold.Chemscore.Hbonds>
donor molecule, donor type, donor heavy atom, donor atom, acceptor molecule, acceptor atom, score
      L1  H     3    26       P1  7948  0.47
      L1  H     7    53       P1 10957  0.79
      L1  H    14    41       P1  7948  0.78

> <Gold.Chemscore.Hbond.Weighted>
-9.1152

> <Gold.Chemscore.Metal.Weighted>
-0.0000

> <Gold.Chemscore.Lipo.Weighted>
-7.6811

> <Gold.Chemscore.Internal_Hbond.Weighted>
0.0000

> <Gold.Chemscore.DEClash.Weighted>
0.0310

> <Gold.Chemscore.DEInternal.Weighted>
4.9924

> <Gold.Chemscore.Rot.Weighted>
3.6011

> <Gold.Chemscore.Internal.Correction.Weighted>
   9.000000E+99

> <Gold.Protein.RotatedTorsions>
[ 6907 6896 6895 6894 ] final  166.20 input  -60.11 | X-H torsion
[ 7974 7965 7964 7962 ] final   38.14 input  175.53 | X-H torsion
[ 8008 7997 7996 7995 ] final   56.44 input   59.86 | X-H torsion
[ 10167 10162 10161 10158 ] final  -94.14 input  -65.29 | X-H torsion
[ 10718 10713 10712 10709 ] final  123.23 input   66.30 | X-H torsion
[ 10763 10752 10751 10750 ] final -169.80 input  -60.55 | X-H torsion
[ 11005 11000 10999 10996 ] final -118.35 input  -57.11 | X-H torsion

> <Gold.Protein.ActiveResidues>
 VAL166  LYS551  ARG553  GLY616  TRP617  ASP618  TYR619  PRO620  LYS621  CYS622 
 ASP623  PHE694  ASN695  SER759  ASP760  ASP761  ALA762  ILE779  LEU786  VAL792 
 PHE793  MET794  SER795  GLU796  ALA797  LYS798  CYS799  TRP800  GLU811  SER814 

> <Gold.Protein.RotatedAtoms>
  151.8826  133.3498  159.3771 H   0  0  0  0  0  0  0  0  0  0  0  0  # atno 6907 bound_to 6896
  150.7123  134.5004  159.5568 H   0  0  0  0  0  0  0  0  0  0  0  0  # atno 6908 bound_to 6896
  152.2558  134.8086  160.0489 H   0  0  0  0  0  0  0  0  0  0  0  0  # atno 6909 bound_to 6896
  146.1084  139.5808  142.9368 H   0  0  0  0  0  0  0  0  0  0  0  0  # atno 7974 bound_to 7965
  155.5175  140.3479  155.4400 H   0  0  0  0  0  0  0  0  0  0  0  0  # atno 8008 bound_to 7997
  156.0807  140.1386  156.9743 H   0  0  0  0  0  0  0  0  0  0  0  0  # atno 8009 bound_to 7997
  154.4578  140.0946  156.6784 H   0  0  0  0  0  0  0  0  0  0  0  0  # atno 8010 bound_to 7997
  140.3175  143.3068  152.0082 H   0  0  0  0  0  0  0  0  0  0  0  0  # atno 10167 bound_to 10162
  157.5681  131.1085  150.8418 H   0  0  0  0  0  0  0  0  0  0  0  0  # atno 10718 bound_to 10713
  154.6484  135.2908  155.0017 H   0  0  0  0  0  0  0  0  0  0  0  0  # atno 10763 bound_to 10752
  154.1119  135.6561  153.4890 H   0  0  0  0  0  0  0  0  0  0  0  0  # atno 10764 bound_to 10752
  153.0363  135.5267  154.7381 H   0  0  0  0  0  0  0  0  0  0  0  0  # atno 10765 bound_to 10752
  141.0292  134.0008  157.3169 H   0  0  0  0  0  0  0  0  0  0  0  0  # atno 11005 bound_to 11000
  145.5713  141.0394  143.2172 LP  0  0  0  0  0  0  0  0  0  0  0  0  # atno 17320 bound_to 7965
  144.7491  139.7242  143.7280 LP  0  0  0  0  0  0  0  0  0  0  0  0  # atno 17321 bound_to 7965
  139.4881  144.6337  151.7019 LP  0  0  0  0  0  0  0  0  0  0  0  0  # atno 17342 bound_to 10162
  140.5513  144.0420  150.6128 LP  0  0  0  0  0  0  0  0  0  0  0  0  # atno 17343 bound_to 10162
  156.8897  130.5208  149.5287 LP  0  0  0  0  0  0  0  0  0  0  0  0  # atno 17370 bound_to 10713
  156.0727  130.5756  150.9415 LP  0  0  0  0  0  0  0  0  0  0  0  0  # atno 17371 bound_to 10713
  139.9196  135.0199  156.8014 LP  0  0  0  0  0  0  0  0  0  0  0  0  # atno 17394 bound_to 11000
  140.6437  133.9794  155.7720 LP  0  0  0  0  0  0  0  0  0  0  0  0  # atno 17395 bound_to 11000

$$$$
