AV-unprocessed.smi:2106|AV-procd|sdf|8599|dock5
  -GOLD-   2272011333D 1   1.00000     0.00000
 Structure written by MMmdl.
 48 49  0  0  0  0  0  0  0  0  2 V2000
  145.8615  131.8049  149.6767 C   0  0  0  0  0  0  0  0  0  0  0  0
  145.2822  132.9763  150.4149 C   0  0  0  0  0  0  0  0  0  0  0  0
  144.0456  133.0469  151.1143 C   0  0  0  0  0  0  0  0  0  0  0  0
  143.9999  134.3255  151.5942 C   0  0  0  0  0  0  0  0  0  0  0  0
  142.9498  135.0056  152.4099 C   0  0  0  0  0  0  0  0  0  0  0  0
  145.1623  134.9525  151.1789 N   0  0  0  0  0  0  0  0  0  0  0  0
  145.6022  136.3233  151.3981 C   0  0  0  0  0  0  0  0  0  0  0  0
  145.6838  136.6397  152.8927 C   0  0  0  0  0  0  0  0  0  0  0  0
  144.6665  136.9343  153.5187 O   0  0  0  0  0  0  0  0  0  0  0  0
  146.8962  136.5455  153.4599 N   0  0  0  0  0  0  0  0  0  0  0  0
  147.1675  136.6927  154.8862 C   0  0  0  0  0  0  0  0  0  0  0  0
  148.6436  137.0277  155.1788 C   0  0  0  0  0  0  0  0  0  0  0  0
  149.2685  137.7916  154.0643 N   0  3  1  0  0  0  0  0  0  0  0  0
  148.7034  139.1464  153.8597 C   0  0  0  0  0  0  0  0  0  0  0  0
  149.2583  140.1455  154.8961 C   0  0  2  0  0  0  0  0  0  0  0  0
  148.7650  141.5735  154.6401 C   0  0  0  0  0  0  0  0  0  0  0  0
  150.6804  140.1476  154.8215 O   0  0  0  0  0  0  0  0  0  0  0  0
  151.2501  138.8804  155.1321 C   0  0  2  0  0  0  0  0  0  0  0  0
  152.7761  139.0179  155.1043 C   0  0  0  0  0  0  0  0  0  0  0  0
  150.7498  137.8390  154.1114 C   0  0  0  0  0  0  0  0  0  0  0  0
  145.9458  134.1198  150.4583 N   0  0  0  0  0  0  0  0  0  0  0  0
  145.9594  130.9407  150.3340 H   0  0  0  0  0  0  0  0  0  0  0  0
  146.8501  132.0280  149.2743 H   0  0  0  0  0  0  0  0  0  0  0  0
  145.2218  131.5163  148.8428 H   0  0  0  0  0  0  0  0  0  0  0  0
  143.3036  132.2731  151.2444 H   0  0  0  0  0  0  0  0  0  0  0  0
  142.1126  134.3345  152.6015 H   0  0  0  0  0  0  0  0  0  0  0  0
  142.5604  135.8838  151.8959 H   0  0  0  0  0  0  0  0  0  0  0  0
  143.3504  135.3233  153.3725 H   0  0  0  0  0  0  0  0  0  0  0  0
  146.5737  136.4771  150.9273 H   0  0  0  0  0  0  0  0  0  0  0  0
  144.9025  137.0041  150.9105 H   0  0  0  0  0  0  0  0  0  0  0  0
  147.6792  136.3152  152.8653 H   0  0  0  0  0  0  0  0  0  0  0  0
  146.5314  137.4946  155.2622 H   0  0  0  0  0  0  0  0  0  0  0  0
  146.8702  135.7882  155.4196 H   0  0  0  0  0  0  0  0  0  0  0  0
  148.6983  137.5906  156.1113 H   0  0  0  0  0  0  0  0  0  0  0  0
  149.1954  136.1055  155.3653 H   0  0  0  0  0  0  0  0  0  0  0  0
  148.9713  139.4771  152.8552 H   0  0  0  0  0  0  0  0  0  0  0  0
  147.6137  139.1098  153.8904 H   0  0  0  0  0  0  0  0  0  0  0  0
  148.9523  139.8518  155.9016 H   0  0  0  0  0  0  0  0  0  0  0  0
  147.6777  141.6293  154.6962 H   0  0  0  0  0  0  0  0  0  0  0  0
  149.0682  141.9262  153.6539 H   0  0  0  0  0  0  0  0  0  0  0  0
  149.1710  142.2641  155.3796 H   0  0  0  0  0  0  0  0  0  0  0  0
  150.9506  138.5920  156.1408 H   0  0  0  0  0  0  0  0  0  0  0  0
  153.2594  138.0693  155.3407 H   0  0  0  0  0  0  0  0  0  0  0  0
  153.1150  139.7544  155.8331 H   0  0  0  0  0  0  0  0  0  0  0  0
  153.1263  139.3357  154.1219 H   0  0  0  0  0  0  0  0  0  0  0  0
  151.1526  136.8540  154.3432 H   0  0  0  0  0  0  0  0  0  0  0  0
  151.1146  138.0954  153.1158 H   0  0  0  0  0  0  0  0  0  0  0  0
  149.0349  137.2669  153.2337 H   0  0  0  0  0  0  0  0  0  0  0  0
  1  2  1  0  0  0  0
  1 22  1  0  0  0  0
  1 23  1  0  0  0  0
  1 24  1  0  0  0  0
  2 21  2  0  0  0  0
  2  3  1  0  0  0  0
  3  4  2  0  0  0  0
  3 25  1  0  0  0  0
  4  5  1  0  0  0  0
  4  6  1  0  0  0  0
  5 26  1  0  0  0  0
  5 27  1  0  0  0  0
  5 28  1  0  0  0  0
  6  7  1  0  0  0  0
  6 21  1  0  0  0  0
  7  8  1  0  0  0  0
  7 29  1  0  0  0  0
  7 30  1  0  0  0  0
  8  9  2  0  0  0  0
  8 10  1  0  0  0  0
 10 11  1  0  0  0  0
 10 31  1  0  0  0  0
 11 12  1  0  0  0  0
 11 32  1  0  0  0  0
 11 33  1  0  0  0  0
 12 13  1  0  0  0  0
 12 34  1  0  0  0  0
 12 35  1  0  0  0  0
 13 20  1  0  0  0  0
 13 14  1  0  0  0  0
 13 48  1  0  0  0  0
 14 15  1  0  0  0  0
 14 36  1  0  0  0  0
 14 37  1  0  0  0  0
 15 16  1  0  0  0  0
 15 17  1  0  0  0  0
 15 38  1  0  0  0  0
 16 39  1  0  0  0  0
 16 40  1  0  0  0  0
 16 41  1  0  0  0  0
 17 18  1  0  0  0  0
 18 19  1  0  0  0  0
 18 20  1  0  0  0  0
 18 42  1  0  0  0  0
 19 43  1  0  0  0  0
 19 44  1  0  0  0  0
 19 45  1  0  0  0  0
 20 46  1  0  0  0  0
 20 47  1  0  0  0  0
M  CHG  1  13   1
M  END
> <s_m_source_file>
AV-unprocessed.smi

> <i_m_source_file_index>
2106

> <i_lp_mmshare_version>
43012

> <i_f3d_flags>
0

> <s_epik_input>
W0NIM11jMVtjSF1jKFtDSDNdKW4objEpW0NIMl1DKD1PKVtOSF1bQ0gyXVtDSDJdTjJbQ0gyXVtDQEBIXShbQ0gzXSlPW0NAQEhdKFtDSDNdKVtDSDJdMg==

> <s_epik_cmdline>
J2VwaWtfcHl0aG9uJywgJy1waCcsICc3LjAnLCAnLXRuJywgJzgnLCAnLW1hJywgJzIwMCcsICctbWV0YWxfYmluZGluZycsICctaW1hZScsICc8aW5maWxlLm1hZT4nLCAnLW9tYWUnLCAnPG91dGZpbGUubWFlPic=

> <r_lp_tautomer_probability>
1

> <r_epik_Ionization_Penalty>
0.748586

> <r_epik_Ionization_Penalty_Charging>
0.748396

> <r_epik_Ionization_Penalty_Neutral>
0.000189656

> <r_epik_State_Penalty>
0.775162

> <r_epik_Charging_Adjusted_Penalty>
1.52356

> <i_epik_Tot_Q>
1

> <i_epik_Tot_abs_Q>
1

> <r_epik_Metal_State_Penalty>
0.775295

> <b_epik_Metal_Only>
0

> <s_lp_Force_Field>
OPLS_2005

> <r_lp_Energy>
21.363

> <b_lp_Chiralities_Consistent>
1

> <s_lp_Variant>
AV-unprocessed.smi:2106-7

> <Gold.Version>
5.8.1

> <Gold.Id.Protein>
6NUR|6NUR_protein|mol2

> <Gold.PLP.Fitness>
48.5586

> <Gold.PLP.PLP>
-37.9214

> <Gold.PLP.part.hbond>
-3.0000

> <Gold.PLP.part.metal>
0.0000

> <Gold.PLP.part.buried>
-3.4072

> <Gold.PLP.part.nonpolar>
-32.8408

> <Gold.PLP.part.repulsive>
1.4804

> <Gold.PLP.ligand.clash>
0.0000

> <Gold.PLP.ligand.torsion>
0.7112

> <Gold.PLP.Chemscore.Hbond>
4.0000

> <Gold.PLP.Chemscore.CHOScore>
0.0000

> <Gold.PLP.Chemscore.Metal>
0.0000

> <Gold.Chemscore.Hbonds>
donor molecule, donor type, donor heavy atom, donor atom, acceptor molecule, acceptor atom, score
      L1  H    10    31       P1  7948  1.00
      L1  H    13    48       P1  7948  2.00
      P1  H  7989  7998       L1    17  1.00

> <Gold.PLP.Chemscore.Internal.Correction>
0.0596

> <Gold.Rescore>
     Score         DG    S(hbond)    S(metal)    S(lipo)     H(rot)  DE(clash)    DE(int)     intcor
     19.03     -21.45       2.92        0.00      91.04       1.73       0.44       1.99       ----

> <Gold.Chemscore.Fitness>
19.0262

> <Gold.Chemscore.DG>
-21.4511

> <Gold.Chemscore.ZeroCoef>
-5.4800

> <Gold.Chemscore.Hbond>
2.9198

> <Gold.Chemscore.Metal>
0.0000

> <Gold.Chemscore.Lipo>
91.0431

> <Gold.Chemscore.Internal_Hbond>
0.0000

> <Gold.Chemscore.DEClash>
0.4377

> <Gold.Chemscore.DEInternal>
1.9872

> <Gold.Chemscore.Rot>
1.7316

> <Gold.Chemscore.Internal.Correction>
   9.000000E+99

> <Gold.Chemscore.Hbonds>
donor molecule, donor type, donor heavy atom, donor atom, acceptor molecule, acceptor atom, score
      L1  H    10    31       P1  7948  0.99
      L1  H    13    48       P1  7948  1.00
      P1  H  7989  7998       L1    17  0.65

> <Gold.Chemscore.Hbond.Weighted>
-9.7520

> <Gold.Chemscore.Metal.Weighted>
-0.0000

> <Gold.Chemscore.Lipo.Weighted>
-10.6520

> <Gold.Chemscore.Internal_Hbond.Weighted>
0.0000

> <Gold.Chemscore.DEClash.Weighted>
0.4377

> <Gold.Chemscore.DEInternal.Weighted>
1.9872

> <Gold.Chemscore.Rot.Weighted>
4.4330

> <Gold.Chemscore.Internal.Correction.Weighted>
   9.000000E+99

> <Gold.Protein.RotatedTorsions>
[ 6907 6896 6895 6894 ] final  -50.85 input  -60.11 | X-H torsion
[ 7974 7965 7964 7962 ] final -123.94 input  175.53 | X-H torsion
[ 8008 7997 7996 7995 ] final   -2.24 input   59.86 | X-H torsion
[ 10167 10162 10161 10158 ] final  -27.26 input  -65.29 | X-H torsion
[ 10718 10713 10712 10709 ] final  -21.17 input   66.30 | X-H torsion
[ 10763 10752 10751 10750 ] final -146.85 input  -60.55 | X-H torsion
[ 11005 11000 10999 10996 ] final  -58.62 input  -57.11 | X-H torsion

> <Gold.Protein.ActiveResidues>
 VAL166  LYS551  ARG553  GLY616  TRP617  ASP618  TYR619  PRO620  LYS621  CYS622 
 ASP623  PHE694  ASN695  SER759  ASP760  ASP761  ALA762  ILE779  LEU786  VAL792 
 PHE793  MET794  SER795  GLU796  ALA797  LYS798  CYS799  TRP800  GLU811  SER814 

> <Gold.Protein.RotatedAtoms>
  150.8668  134.8033  159.7124 H   0  0  0  0  0  0  0  0  0  0  0  0  # atno 6907 bound_to 6896
  152.4686  134.5011  159.9735 H   0  0  0  0  0  0  0  0  0  0  0  0  # atno 6908 bound_to 6896
  151.5106  133.3447  159.2920 H   0  0  0  0  0  0  0  0  0  0  0  0  # atno 6909 bound_to 6896
  145.0133  140.7925  143.4425 H   0  0  0  0  0  0  0  0  0  0  0  0  # atno 7974 bound_to 7965
  154.6380  140.2539  155.7356 H   0  0  0  0  0  0  0  0  0  0  0  0  # atno 8008 bound_to 7997
  156.2514  140.2893  156.0681 H   0  0  0  0  0  0  0  0  0  0  0  0  # atno 8009 bound_to 7997
  155.1641  140.0385  157.2839 H   0  0  0  0  0  0  0  0  0  0  0  0  # atno 8010 bound_to 7997
  140.7278  143.4108  151.1109 H   0  0  0  0  0  0  0  0  0  0  0  0  # atno 10167 bound_to 10162
  156.5218  130.4634  149.6593 H   0  0  0  0  0  0  0  0  0  0  0  0  # atno 10718 bound_to 10713
  154.8315  135.3375  154.6726 H   0  0  0  0  0  0  0  0  0  0  0  0  # atno 10763 bound_to 10752
  153.7346  135.6950  153.4986 H   0  0  0  0  0  0  0  0  0  0  0  0  # atno 10764 bound_to 10752
  153.2288  135.4423  155.0523 H   0  0  0  0  0  0  0  0  0  0  0  0  # atno 10765 bound_to 10752
  141.1215  133.6613  156.4948 H   0  0  0  0  0  0  0  0  0  0  0  0  # atno 11005 bound_to 11000
  145.1993  139.2260  143.5201 LP  0  0  0  0  0  0  0  0  0  0  0  0  # atno 17320 bound_to 7965
  146.3473  140.1807  142.8589 LP  0  0  0  0  0  0  0  0  0  0  0  0  # atno 17321 bound_to 7965
  139.7741  143.8451  152.3126 LP  0  0  0  0  0  0  0  0  0  0  0  0  # atno 17342 bound_to 10162
  139.8379  144.7223  150.9367 LP  0  0  0  0  0  0  0  0  0  0  0  0  # atno 17343 bound_to 10162
  156.3142  130.7245  151.2144 LP  0  0  0  0  0  0  0  0  0  0  0  0  # atno 17370 bound_to 10713
  157.7435  131.0473  150.4937 LP  0  0  0  0  0  0  0  0  0  0  0  0  # atno 17371 bound_to 10713
  140.4494  134.6943  157.5032 LP  0  0  0  0  0  0  0  0  0  0  0  0  # atno 17394 bound_to 11000
  140.0176  134.6596  155.9287 LP  0  0  0  0  0  0  0  0  0  0  0  0  # atno 17395 bound_to 11000

$$$$
