AV-unprocessed.smi:523|AV-procd|sdf|2803|dock9
  -GOLD-   2262023283D 1   1.00000     0.00000
 Structure written by MMmdl.
 41 43  0  0  0  0  0  0  0  0  1 V2000
  152.7803  138.8726  159.4131 C   0  0  0  0  0  0  0  0  0  0  0  0
  152.8368  138.0740  158.2452 O   0  0  0  0  0  0  0  0  0  0  0  0
  151.8476  138.4300  157.2929 C   0  0  0  0  0  0  0  0  0  0  0  0
  152.2251  139.7576  156.6216 C   0  0  0  0  0  0  0  0  0  0  0  0
  151.0456  140.4819  156.1507 N   0  0  0  0  0  0  0  0  0  0  0  0
  150.5292  141.6528  156.6155 C   0  0  0  0  0  0  0  0  0  0  0  0
  151.1306  142.3751  157.6465 N   0  0  0  0  0  0  0  0  0  0  0  0
  151.0528  143.8161  157.8689 C   0  0  0  0  0  0  0  0  0  0  0  0
  152.4487  144.4025  158.1458 C   0  0  0  0  0  0  0  0  0  0  0  0
  153.0008  143.7689  159.2944 O   0  0  0  0  0  0  0  0  0  0  0  0
  153.1047  142.3595  159.1246 C   0  0  0  0  0  0  0  0  0  0  0  0
  151.7104  141.7710  158.8410 C   0  0  0  0  0  0  0  0  0  0  0  0
  149.3804  142.0211  156.0425 N   0  0  0  0  0  0  0  0  0  0  0  0
  149.1557  141.0168  155.1142 C   0  0  0  0  0  0  0  0  0  0  0  0
  150.1374  140.0806  155.1672 C   0  0  0  0  0  0  0  0  0  0  0  0
  150.1218  138.8785  154.3201 C   0  0  0  0  0  0  0  0  0  0  0  0
  150.9877  138.0073  154.3565 O   0  0  0  0  0  0  0  0  0  0  0  0
  149.0481  138.8221  153.4955 N   0  0  0  0  0  0  0  0  0  0  0  0
  148.0314  139.7305  153.3900 C   0  0  0  0  0  0  0  0  0  0  0  0
  147.1138  139.5371  152.5927 O   0  0  0  0  0  0  0  0  0  0  0  0
  148.0809  140.8381  154.1970 N   0  0  0  0  0  0  0  0  0  0  0  0
  147.0154  141.8400  154.1305 C   0  0  0  0  0  0  0  0  0  0  0  0
  148.9892  138.0141  152.8930 H   0  0  0  0  0  0  0  0  0  0  0  0
  153.5590  138.5591  160.1082 H   0  0  0  0  0  0  0  0  0  0  0  0
  151.8180  138.7680  159.9158 H   0  0  0  0  0  0  0  0  0  0  0  0
  152.9414  139.9255  159.1787 H   0  0  0  0  0  0  0  0  0  0  0  0
  151.7593  137.6463  156.5390 H   0  0  0  0  0  0  0  0  0  0  0  0
  150.8760  138.5247  157.7793 H   0  0  0  0  0  0  0  0  0  0  0  0
  152.7922  140.3730  157.3136 H   0  0  0  0  0  0  0  0  0  0  0  0
  152.9042  139.5812  155.7906 H   0  0  0  0  0  0  0  0  0  0  0  0
  150.5810  144.3125  157.0221 H   0  0  0  0  0  0  0  0  0  0  0  0
  150.3993  144.0055  158.7216 H   0  0  0  0  0  0  0  0  0  0  0  0
  153.1098  144.2698  157.2882 H   0  0  0  0  0  0  0  0  0  0  0  0
  152.3780  145.4739  158.3332 H   0  0  0  0  0  0  0  0  0  0  0  0
  153.7965  142.1299  158.3125 H   0  0  0  0  0  0  0  0  0  0  0  0
  153.5209  141.9228  160.0324 H   0  0  0  0  0  0  0  0  0  0  0  0
  151.0467  141.9335  159.6913 H   0  0  0  0  0  0  0  0  0  0  0  0
  151.7893  140.6920  158.7047 H   0  0  0  0  0  0  0  0  0  0  0  0
  146.8746  142.1891  153.1064 H   0  0  0  0  0  0  0  0  0  0  0  0
  147.2256  142.7167  154.7425 H   0  0  0  0  0  0  0  0  0  0  0  0
  146.0732  141.4136  154.4775 H   0  0  0  0  0  0  0  0  0  0  0  0
  1  2  1  0  0  0  0
  1 24  1  0  0  0  0
  1 25  1  0  0  0  0
  1 26  1  0  0  0  0
  2  3  1  0  0  0  0
  3  4  1  0  0  0  0
  3 27  1  0  0  0  0
  3 28  1  0  0  0  0
  4  5  1  0  0  0  0
  4 29  1  0  0  0  0
  4 30  1  0  0  0  0
  5 15  1  0  0  0  0
  5  6  1  0  0  0  0
  6  7  1  0  0  0  0
  6 13  2  0  0  0  0
  7 12  1  0  0  0  0
  7  8  1  0  0  0  0
  8  9  1  0  0  0  0
  8 31  1  0  0  0  0
  8 32  1  0  0  0  0
  9 10  1  0  0  0  0
  9 33  1  0  0  0  0
  9 34  1  0  0  0  0
 10 11  1  0  0  0  0
 11 12  1  0  0  0  0
 11 35  1  0  0  0  0
 11 36  1  0  0  0  0
 12 37  1  0  0  0  0
 12 38  1  0  0  0  0
 13 14  1  0  0  0  0
 14 21  1  0  0  0  0
 14 15  2  0  0  0  0
 15 16  1  0  0  0  0
 16 17  2  0  0  0  0
 16 18  1  0  0  0  0
 18 23  1  0  0  0  0
 18 19  1  0  0  0  0
 19 20  2  0  0  0  0
 19 21  1  0  0  0  0
 21 22  1  0  0  0  0
 22 39  1  0  0  0  0
 22 40  1  0  0  0  0
 22 41  1  0  0  0  0
M  END
> <s_m_source_file>
AV-unprocessed.smi

> <i_m_source_file_index>
523

> <i_lp_mmshare_version>
43012

> <i_f3d_flags>
0

> <s_epik_input>
W0NIM11uMWMoPU8pW25IXWMoPU8pYyhjMTIpbihbQ0gyXVtDSDJdT1tDSDNdKWMobjIpTjNbQ0gyXVtDSDJdT1tDSDJdW0NIMl0z

> <s_epik_cmdline>
J2VwaWtfcHl0aG9uJywgJy1waCcsICc3LjAnLCAnLXRuJywgJzgnLCAnLW1hJywgJzIwMCcsICctbWV0YWxfYmluZGluZycsICctaW1hZScsICc8aW5maWxlLm1hZT4nLCAnLW9tYWUnLCAnPG91dGZpbGUubWFlPic=

> <r_lp_tautomer_probability>
1

> <r_epik_Ionization_Penalty>
0.000208431

> <r_epik_Ionization_Penalty_Charging>
0.000208146

> <r_epik_Ionization_Penalty_Neutral>
2.85359e-07

> <r_epik_State_Penalty>
-0

> <r_epik_Charging_Adjusted_Penalty>
0.000208146

> <i_epik_Tot_Q>
0

> <i_epik_Tot_abs_Q>
0

> <r_epik_Metal_State_Penalty>
0.136977

> <b_epik_Metal_Only>
0

> <s_lp_Force_Field>
OPLS_2005

> <r_lp_Energy>
38.6509

> <b_lp_Chiralities_Consistent>
1

> <s_lp_Variant>
AV-unprocessed.smi:523-1

> <Gold.Version>
5.8.1

> <Gold.Id.Protein>
6NUR|6NUR_protein|mol2

> <Gold.PLP.Fitness>
40.8930

> <Gold.PLP.PLP>
-38.9563

> <Gold.PLP.part.hbond>
-1.9848

> <Gold.PLP.part.metal>
0.0000

> <Gold.PLP.part.buried>
-4.0062

> <Gold.PLP.part.nonpolar>
-37.6333

> <Gold.PLP.part.repulsive>
4.3959

> <Gold.PLP.ligand.clash>
0.0000

> <Gold.PLP.ligand.torsion>
0.7609

> <Gold.PLP.Chemscore.Hbond>
1.0000

> <Gold.PLP.Chemscore.CHOScore>
0.0000

> <Gold.PLP.Chemscore.Metal>
0.0000

> <Gold.Chemscore.Hbonds>
donor molecule, donor type, donor heavy atom, donor atom, acceptor molecule, acceptor atom, score
      L1  H    18    23       P1  7948  1.00

> <Gold.PLP.Chemscore.Internal.Correction>
0.4584

> <Gold.Rescore>
     Score         DG    S(hbond)    S(metal)    S(lipo)     H(rot)  DE(clash)    DE(int)     intcor
     11.40     -13.06       0.99        0.00      69.99       1.53       0.05       1.61       ----

> <Gold.Chemscore.Fitness>
11.4009

> <Gold.Chemscore.DG>
-13.0590

> <Gold.Chemscore.ZeroCoef>
-5.4800

> <Gold.Chemscore.Hbond>
0.9937

> <Gold.Chemscore.Metal>
0.0000

> <Gold.Chemscore.Lipo>
69.9902

> <Gold.Chemscore.Internal_Hbond>
0.0000

> <Gold.Chemscore.DEClash>
0.0474

> <Gold.Chemscore.DEInternal>
1.6107

> <Gold.Chemscore.Rot>
1.5348

> <Gold.Chemscore.Internal.Correction>
   9.000000E+99

> <Gold.Chemscore.Hbonds>
donor molecule, donor type, donor heavy atom, donor atom, acceptor molecule, acceptor atom, score
      L1  H    18    23       P1  7948  0.93

> <Gold.Chemscore.Hbond.Weighted>
-3.3191

> <Gold.Chemscore.Metal.Weighted>
-0.0000

> <Gold.Chemscore.Lipo.Weighted>
-8.1888

> <Gold.Chemscore.Internal_Hbond.Weighted>
0.0000

> <Gold.Chemscore.DEClash.Weighted>
0.0474

> <Gold.Chemscore.DEInternal.Weighted>
1.6107

> <Gold.Chemscore.Rot.Weighted>
3.9290

> <Gold.Chemscore.Internal.Correction.Weighted>
   9.000000E+99

> <Gold.Protein.RotatedTorsions>
[ 6907 6896 6895 6894 ] final    6.33 input  -60.11 | X-H torsion
[ 7974 7965 7964 7962 ] final  -85.42 input  175.53 | X-H torsion
[ 8008 7997 7996 7995 ] final    8.79 input   59.86 | X-H torsion
[ 10167 10162 10161 10158 ] final -176.63 input  -65.29 | X-H torsion
[ 10718 10713 10712 10709 ] final   98.69 input   66.30 | X-H torsion
[ 10763 10752 10751 10750 ] final  -48.68 input  -60.55 | X-H torsion
[ 11005 11000 10999 10996 ] final  152.91 input  -57.11 | X-H torsion

> <Gold.Protein.ActiveResidues>
 VAL166  LYS551  ARG553  GLY616  TRP617  ASP618  TYR619  PRO620  LYS621  CYS622 
 ASP623  PHE694  ASN695  SER759  ASP760  ASP761  ALA762  ILE779  LEU786  VAL792 
 PHE793  MET794  SER795  GLU796  ALA797  LYS798  CYS799  TRP800  GLU811  SER814 

> <Gold.Protein.RotatedAtoms>
  151.6720  135.0974  160.0199 H   0  0  0  0  0  0  0  0  0  0  0  0  # atno 6907 bound_to 6896
  152.3886  133.6642  159.6227 H   0  0  0  0  0  0  0  0  0  0  0  0  # atno 6908 bound_to 6896
  150.7806  133.8910  159.3354 H   0  0  0  0  0  0  0  0  0  0  0  0  # atno 6909 bound_to 6896
  145.4936  140.9551  143.1798 H   0  0  0  0  0  0  0  0  0  0  0  0  # atno 7974 bound_to 7965
  154.7714  140.2802  155.6135 H   0  0  0  0  0  0  0  0  0  0  0  0  # atno 8008 bound_to 7997
  156.2934  140.2640  156.2445 H   0  0  0  0  0  0  0  0  0  0  0  0  # atno 8009 bound_to 7997
  154.9895  140.0374  157.2303 H   0  0  0  0  0  0  0  0  0  0  0  0  # atno 8010 bound_to 7997
  139.5520  144.2086  152.1093 H   0  0  0  0  0  0  0  0  0  0  0  0  # atno 10167 bound_to 10162
  157.6891  131.0647  150.4835 H   0  0  0  0  0  0  0  0  0  0  0  0  # atno 10718 bound_to 10713
  154.0817  135.6590  153.4839 H   0  0  0  0  0  0  0  0  0  0  0  0  # atno 10763 bound_to 10752
  153.0353  135.5181  154.7467 H   0  0  0  0  0  0  0  0  0  0  0  0  # atno 10764 bound_to 10752
  154.6564  135.3008  154.9890 H   0  0  0  0  0  0  0  0  0  0  0  0  # atno 10765 bound_to 10752
  140.1350  134.8777  157.2254 H   0  0  0  0  0  0  0  0  0  0  0  0  # atno 11005 bound_to 11000
  144.7820  139.6506  143.7150 LP  0  0  0  0  0  0  0  0  0  0  0  0  # atno 17320 bound_to 7965
  146.2269  139.5740  142.9581 LP  0  0  0  0  0  0  0  0  0  0  0  0  # atno 17321 bound_to 7965
  140.1583  144.5050  150.6647 LP  0  0  0  0  0  0  0  0  0  0  0  0  # atno 17342 bound_to 10162
  140.6784  143.2315  151.5447 LP  0  0  0  0  0  0  0  0  0  0  0  0  # atno 17343 bound_to 10162
  156.5165  130.4152  149.6273 LP  0  0  0  0  0  0  0  0  0  0  0  0  # atno 17370 bound_to 10713
  156.3193  130.7271  151.2180 LP  0  0  0  0  0  0  0  0  0  0  0  0  # atno 17371 bound_to 10713
  140.2794  134.3367  155.7348 LP  0  0  0  0  0  0  0  0  0  0  0  0  # atno 17394 bound_to 11000
  141.2177  133.7469  156.9341 LP  0  0  0  0  0  0  0  0  0  0  0  0  # atno 17395 bound_to 11000

$$$$
