#       Name:                AV-unprocessed.smi:313
#       Creating user name   scv26
#       Creation time:       Thu Mar 26 22:20:51 2020


#       File generated by GOLD software.
#

@<TRIPOS>MOLECULE
AV-unprocessed.smi:313
    58    59     1
SMALL
NO_CHARGES


@<TRIPOS>ATOM
      1 ****        -3.5064   2.9961  -5.6904 C.3            1 S1                 0.0000
      2 ****        -3.9015   3.5593  -4.3173 C.3            1 S1                 0.0000
      3 ****        -3.6300   2.5917  -3.1501 C.3            1 S1                 0.0000
      4 ****        -4.1345   3.1603  -1.8144 C.3            1 S1                 0.0000
      5 ****        -2.2016   2.2985  -3.0611 N.am           1 S1                 0.0000
      6 ****        -1.6659   1.1579  -2.6000 C.2            1 S1                 0.0000
      7 ****        -2.3398   0.2098  -2.1933 O.2            1 S1                 0.0000
      8 ****        -0.1309   1.0771  -2.6224 C.3            1 S1                 0.0000
      9 ****         0.2865   0.3020  -3.8829 C.3            1 S1                 0.0000
     10 ****         0.3686   0.3480  -1.4577 N.am           1 S1                 0.0000
     11 ****         0.5421   0.8694  -0.2314 C.2            1 S1                 0.0000
     12 ****         0.2792   2.0380   0.0536 O.2            1 S1                 0.0000
     13 ****         1.0259  -0.0889   0.8180 C.ar           1 S1                 0.0000
     14 ****         1.8854  -1.1640   0.5034 C.ar           1 S1                 0.0000
     15 ****         2.3281  -2.0129   1.5357 C.ar           1 S1                 0.0000
     16 ****         1.9088  -1.7638   2.8639 C.ar           1 S1                 0.0000
     17 ****         2.3453  -2.5995   3.9149 N.3            1 S1                 0.0000
     18 ****         3.7908  -2.7896   4.0100 C.3            1 S1                 0.0000
     19 ****         4.1188  -3.9368   4.9812 C.3            1 S1                 0.0000
     20 ****         3.5095  -3.6890   6.2437 O.3            1 S1                 0.0000
     21 ****         2.0912  -3.6214   6.1425 C.3            1 S1                 0.0000
     22 ****         1.6937  -2.4600   5.2160 C.3            1 S1                 0.0000
     23 ****         1.0851  -0.7295   3.1637 N.ar           1 S1                 0.0000
     24 ****         0.6651   0.0836   2.1713 C.ar           1 S1                 0.0000
     25 ****        -3.7626   3.6980  -6.4841 H              1 S1                 0.0000
     26 ****        -4.0263   2.0599  -5.8951 H              1 S1                 0.0000
     27 ****        -2.4348   2.8054  -5.7539 H              1 S1                 0.0000
     28 ****        -3.3752   4.4998  -4.1489 H              1 S1                 0.0000
     29 ****        -4.9637   3.8067  -4.3364 H              1 S1                 0.0000
     30 ****        -4.1732   1.6666  -3.3523 H              1 S1                 0.0000
     31 ****        -5.2036   3.3697  -1.8560 H              1 S1                 0.0000
     32 ****        -3.6235   4.0894  -1.5598 H              1 S1                 0.0000
     33 ****        -3.9714   2.4562  -0.9978 H              1 S1                 0.0000
     34 ****        -1.5707   3.0203  -3.3780 H              1 S1                 0.0000
     35 ****         0.3012   2.0795  -2.6483 H              1 S1                 0.0000
     36 ****        -0.0532   0.8061  -4.7888 H              1 S1                 0.0000
     37 ****        -0.1213  -0.7101  -3.8921 H              1 S1                 0.0000
     38 ****         1.3720   0.2197  -3.9463 H              1 S1                 0.0000
     39 ****         0.5784  -0.6304  -1.5910 H              1 S1                 0.0000
     40 ****         2.2094  -1.3449  -0.5112 H              1 S1                 0.0000
     41 ****         2.9715  -2.8461   1.2959 H              1 S1                 0.0000
     42 ****         4.2343  -3.0105   3.0404 H              1 S1                 0.0000
     43 ****         4.2442  -1.8621   4.3621 H              1 S1                 0.0000
     44 ****         3.7780  -4.8934   4.5819 H              1 S1                 0.0000
     45 ****         5.1973  -4.0154   5.1175 H              1 S1                 0.0000
     46 ****         1.6963  -4.5684   5.7712 H              1 S1                 0.0000
     47 ****         1.6711  -3.4691   7.1366 H              1 S1                 0.0000
     48 ****         1.9836  -1.5092   5.6653 H              1 S1                 0.0000
     49 ****         0.6096  -2.4484   5.0964 H              1 S1                 0.0000
     50 ****         0.0173   0.8933   2.4741 H              1 S1                 0.0000
     51 ****        -3.3381   0.2681  -2.1965 LP             1 S1                 0.0000
     52 ****        -1.8884  -0.6179  -1.8600 LP             1 S1                 0.0000
     53 ****        -0.0840   2.6537  -0.6457 LP             1 S1                 0.0000
     54 ****         0.4290   2.3715   0.9844 LP             1 S1                 0.0000
     55 ****         1.9791  -3.4698   3.5857 LP             1 S1                 0.0000
     56 ****         3.8502  -2.8199   6.6024 LP             1 S1                 0.0000
     57 ****         3.7543  -4.4277   6.8718 LP             1 S1                 0.0000
     58 ****         0.7928  -0.5711   4.1068 LP             1 S1                 0.0000
@<TRIPOS>BOND
    1    1    2 1     
    2    1   25 1     
    3    1   26 1     
    4    1   27 1     
    5    2    3 1     
    6    2   28 1     
    7    2   29 1     
    8    3    4 1     
    9    3    5 1     
   10    3   30 1     
   11    4   31 1     
   12    4   32 1     
   13    4   33 1     
   14    5    6 am    
   15    5   34 1     
   16    6    7 2     
   17    6    8 1     
   18    8    9 1     
   19    8   10 1     
   20    8   35 1     
   21    9   36 1     
   22    9   37 1     
   23    9   38 1     
   24   10   11 am    
   25   10   39 1     
   26   11   12 2     
   27   11   13 1     
   28   13   24 ar    
   29   13   14 ar    
   30   14   15 ar    
   31   14   40 1     
   32   15   16 ar    
   33   15   41 1     
   34   16   17 1     
   35   16   23 ar    
   36   17   22 1     
   37   17   18 1     
   38   18   19 1     
   39   18   42 1     
   40   18   43 1     
   41   19   20 1     
   42   19   44 1     
   43   19   45 1     
   44   20   21 1     
   45   21   22 1     
   46   21   46 1     
   47   21   47 1     
   48   22   48 1     
   49   22   49 1     
   50   23   24 ar    
   51   24   50 1     
   52    7   51 1     
   53    7   52 1     
   54   12   53 1     
   55   12   54 1     
   56   17   55 1     
   57   20   56 1     
   58   20   57 1     
   59   23   58 1     
@<TRIPOS>SUBSTRUCTURE
      1 S1             1
@<TRIPOS>SET
LONE_PAIRS      STATIC     ATOMS    <user>   **** ""
8 51 52 53 54 55 56 57 58
DONOR_HYDROGENS      STATIC     ATOMS    <user>   **** ""
2 34 39
ATOM$BLUE        STATIC     ATOMS    COLORGROUP SYSTEM
8 51 52 53 54 55 56 57 58
ATOM$RED        STATIC     ATOMS    COLORGROUP SYSTEM
2 34 39
