AV-unprocessed.smi:2144|AV-procd|sdf|8731|dock6
  -GOLD-   2272011503D 1   1.00000     0.00000
 Structure written by MMmdl.
 40 42  0  0  0  0  0  0  0  0  1 V2000
  151.9345  137.3641  154.0766 O   0  0  0  0  0  0  0  0  0  0  0  0
  152.0597  138.4080  155.0214 C   0  0  0  0  0  0  0  0  0  0  0  0
  150.8474  139.2905  155.1227 C   0  0  0  0  0  0  0  0  0  0  0  0
  150.4233  140.0649  154.1209 N   0  0  0  0  0  0  0  0  0  0  0  0
  149.3006  140.6675  154.6528 C   0  0  0  0  0  0  0  0  0  0  0  0
  148.4021  141.5992  154.0848 C   0  0  0  0  0  0  0  0  0  0  0  0
  147.3069  142.0812  154.8313 C   0  0  0  0  0  0  0  0  0  0  0  0
  147.0951  141.6397  156.1534 C   0  0  0  0  0  0  0  0  0  0  0  0
  147.9781  140.7115  156.7380 C   0  0  0  0  0  0  0  0  0  0  0  0
  149.0698  140.2331  155.9884 C   0  0  0  0  0  0  0  0  0  0  0  0
  150.1019  139.3380  156.2555 N   0  0  0  0  0  0  0  0  0  0  0  0
  150.3138  138.6097  157.4998 C   0  0  0  0  0  0  0  0  0  0  0  0
  151.3907  139.2549  158.3970 C   0  0  1  0  0  0  0  0  0  0  0  0
  152.6515  138.6680  158.1419 O   0  0  0  0  0  0  0  0  0  0  0  0
  151.5083  140.7699  158.1761 C   0  0  0  0  0  0  0  0  0  0  0  0
  152.2334  141.3385  159.2583 O   0  0  0  0  0  0  0  0  0  0  0  0
  152.0342  142.6709  159.5518 C   0  0  0  0  0  0  0  0  0  0  0  0
  151.6808  143.6527  158.5911 C   0  0  0  0  0  0  0  0  0  0  0  0
  151.5003  144.9954  158.9761 C   0  0  0  0  0  0  0  0  0  0  0  0
  151.6694  145.3741  160.3205 C   0  0  0  0  0  0  0  0  0  0  0  0
  152.0184  144.4069  161.2809 C   0  0  0  0  0  0  0  0  0  0  0  0
  152.1991  143.0638  160.8972 C   0  0  0  0  0  0  0  0  0  0  0  0
  152.5338  142.1419  161.8316 F   0  0  0  0  0  0  0  0  0  0  0  0
  151.2637  137.6005  153.4548 H   0  0  0  0  0  0  0  0  0  0  0  0
  152.2615  137.9676  155.9981 H   0  0  0  0  0  0  0  0  0  0  0  0
  152.9252  139.0115  154.7497 H   0  0  0  0  0  0  0  0  0  0  0  0
  148.5558  141.9435  153.0730 H   0  0  0  0  0  0  0  0  0  0  0  0
  146.6264  142.7931  154.3875 H   0  0  0  0  0  0  0  0  0  0  0  0
  146.2544  142.0144  156.7186 H   0  0  0  0  0  0  0  0  0  0  0  0
  147.8186  140.3727  157.7507 H   0  0  0  0  0  0  0  0  0  0  0  0
  149.3642  138.5518  158.0329 H   0  0  0  0  0  0  0  0  0  0  0  0
  150.5836  137.5807  157.2612 H   0  0  0  0  0  0  0  0  0  0  0  0
  151.1555  139.0713  159.4454 H   0  0  0  0  0  0  0  0  0  0  0  0
  152.6132  138.2228  157.3094 H   0  0  0  0  0  0  0  0  0  0  0  0
  152.0403  140.9620  157.2426 H   0  0  0  0  0  0  0  0  0  0  0  0
  150.5155  141.2167  158.0991 H   0  0  0  0  0  0  0  0  0  0  0  0
  151.5432  143.4022  157.5502 H   0  0  0  0  0  0  0  0  0  0  0  0
  151.2324  145.7362  158.2373 H   0  0  0  0  0  0  0  0  0  0  0  0
  151.5320  146.4042  160.6142 H   0  0  0  0  0  0  0  0  0  0  0  0
  152.1482  144.6954  162.3135 H   0  0  0  0  0  0  0  0  0  0  0  0
  1  2  1  0  0  0  0
  1 24  1  0  0  0  0
  2  3  1  0  0  0  0
  2 25  1  0  0  0  0
  2 26  1  0  0  0  0
  3 11  1  0  0  0  0
  3  4  2  0  0  0  0
  4  5  1  0  0  0  0
  5 10  2  0  0  0  0
  5  6  1  0  0  0  0
  6  7  2  0  0  0  0
  6 27  1  0  0  0  0
  7  8  1  0  0  0  0
  7 28  1  0  0  0  0
  8  9  2  0  0  0  0
  8 29  1  0  0  0  0
  9 10  1  0  0  0  0
  9 30  1  0  0  0  0
 10 11  1  0  0  0  0
 11 12  1  0  0  0  0
 12 13  1  0  0  0  0
 12 31  1  0  0  0  0
 12 32  1  0  0  0  0
 13 14  1  0  0  0  0
 13 15  1  0  0  0  0
 13 33  1  0  0  0  0
 14 34  1  0  0  0  0
 15 16  1  0  0  0  0
 15 35  1  0  0  0  0
 15 36  1  0  0  0  0
 16 17  1  0  0  0  0
 17 22  1  0  0  0  0
 17 18  2  0  0  0  0
 18 19  1  0  0  0  0
 18 37  1  0  0  0  0
 19 20  2  0  0  0  0
 19 38  1  0  0  0  0
 20 21  1  0  0  0  0
 20 39  1  0  0  0  0
 21 22  2  0  0  0  0
 21 40  1  0  0  0  0
 22 23  1  0  0  0  0
M  END
> <s_m_source_file>
AV-unprocessed.smi

> <i_m_source_file_index>
2144

> <i_lp_mmshare_version>
43012

> <i_f3d_flags>
0

> <s_epik_input>
W2NIXTFbY0hdW2NIXVtjSF1jKGMxMiluKGMobjIpW0NIMl1bT0hdKVtDSDJdW0NASF0oW09IXSlbQ0gyXU9jM1tjSF1bY0hdW2NIXVtjSF1jM0Y=

> <s_epik_cmdline>
J2VwaWtfcHl0aG9uJywgJy1waCcsICc3LjAnLCAnLXRuJywgJzgnLCAnLW1hJywgJzIwMCcsICctbWV0YWxfYmluZGluZycsICctaW1hZScsICc8aW5maWxlLm1hZT4nLCAnLW9tYWUnLCAnPG91dGZpbGUubWFlPic=

> <r_lp_tautomer_probability>
1

> <r_epik_Ionization_Penalty>
0.0547315

> <r_epik_Ionization_Penalty_Charging>
0

> <r_epik_Ionization_Penalty_Neutral>
0.0547315

> <r_epik_State_Penalty>
0.047032

> <r_epik_Charging_Adjusted_Penalty>
0.047032

> <i_epik_Tot_Q>
0

> <i_epik_Tot_abs_Q>
0

> <r_epik_Metal_State_Penalty>
4.89471e-05

> <b_epik_Metal_Only>
0

> <s_lp_Force_Field>
OPLS_2005

> <r_lp_Energy>
15.6378

> <b_lp_Chiralities_Consistent>
1

> <s_lp_Variant>
AV-unprocessed.smi:2144-2

> <Gold.Version>
5.8.1

> <Gold.Id.Protein>
6NUR|6NUR_protein|mol2

> <Gold.PLP.Fitness>
55.3795

> <Gold.PLP.PLP>
-52.0343

> <Gold.PLP.part.hbond>
-3.0000

> <Gold.PLP.part.metal>
0.0000

> <Gold.PLP.part.buried>
-7.7218

> <Gold.PLP.part.nonpolar>
-42.6533

> <Gold.PLP.part.repulsive>
0.7358

> <Gold.PLP.ligand.clash>
0.0000

> <Gold.PLP.ligand.torsion>
1.3553

> <Gold.PLP.Chemscore.Hbond>
2.0000

> <Gold.PLP.Chemscore.CHOScore>
0.0000

> <Gold.PLP.Chemscore.Metal>
0.0000

> <Gold.Chemscore.Hbonds>
donor molecule, donor type, donor heavy atom, donor atom, acceptor molecule, acceptor atom, score
      P1  H  7989  7998       L1     4  1.00
      P1  H 10752 10765       L1     1  1.00

> <Gold.PLP.Chemscore.Internal.Correction>
0.0557

> <Gold.Rescore>
     Score         DG    S(hbond)    S(metal)    S(lipo)     H(rot)  DE(clash)    DE(int)     intcor
     15.34     -17.03       1.76        0.00     118.92       3.22       0.47       1.23       ----

> <Gold.Chemscore.Fitness>
15.3365

> <Gold.Chemscore.DG>
-17.0328

> <Gold.Chemscore.ZeroCoef>
-5.4800

> <Gold.Chemscore.Hbond>
1.7609

> <Gold.Chemscore.Metal>
0.0000

> <Gold.Chemscore.Lipo>
118.9202

> <Gold.Chemscore.Internal_Hbond>
0.0000

> <Gold.Chemscore.DEClash>
0.4707

> <Gold.Chemscore.DEInternal>
1.2257

> <Gold.Chemscore.Rot>
3.2196

> <Gold.Chemscore.Internal.Correction>
   9.000000E+99

> <Gold.Chemscore.Hbonds>
donor molecule, donor type, donor heavy atom, donor atom, acceptor molecule, acceptor atom, score
      P1  H  7989  7998       L1     4  0.74
      P1  H 10752 10765       L1     1  0.92

> <Gold.Chemscore.Hbond.Weighted>
-5.8814

> <Gold.Chemscore.Metal.Weighted>
-0.0000

> <Gold.Chemscore.Lipo.Weighted>
-13.9137

> <Gold.Chemscore.Internal_Hbond.Weighted>
0.0000

> <Gold.Chemscore.DEClash.Weighted>
0.4707

> <Gold.Chemscore.DEInternal.Weighted>
1.2257

> <Gold.Chemscore.Rot.Weighted>
8.2422

> <Gold.Chemscore.Internal.Correction.Weighted>
   9.000000E+99

> <Gold.Protein.RotatedTorsions>
[ 6907 6896 6895 6894 ] final  -93.23 input  -60.11 | X-H torsion
[ 7974 7965 7964 7962 ] final    6.07 input  175.53 | X-H torsion
[ 8008 7997 7996 7995 ] final   82.39 input   59.86 | X-H torsion
[ 10167 10162 10161 10158 ] final -137.09 input  -65.29 | X-H torsion
[ 10718 10713 10712 10709 ] final  -37.23 input   66.30 | X-H torsion
[ 10763 10752 10751 10750 ] final  155.27 input  -60.55 | X-H torsion
[ 11005 11000 10999 10996 ] final  -75.53 input  -57.11 | X-H torsion

> <Gold.Protein.ActiveResidues>
 VAL166  LYS551  ARG553  GLY616  TRP617  ASP618  TYR619  PRO620  LYS621  CYS622 
 ASP623  PHE694  ASN695  SER759  ASP760  ASP761  ALA762  ILE779  LEU786  VAL792 
 PHE793  MET794  SER795  GLU796  ALA797  LYS798  CYS799  TRP800  GLU811  SER814 

> <Gold.Protein.RotatedAtoms>
  150.6919  134.2000  159.4317 H   0  0  0  0  0  0  0  0  0  0  0  0  # atno 6907 bound_to 6896
  151.9966  134.9948  160.0573 H   0  0  0  0  0  0  0  0  0  0  0  0  # atno 6908 bound_to 6896
  152.1617  133.4551  159.4901 H   0  0  0  0  0  0  0  0  0  0  0  0  # atno 6909 bound_to 6896
  146.2437  140.0288  142.8391 H   0  0  0  0  0  0  0  0  0  0  0  0  # atno 7974 bound_to 7965
  155.9099  140.3428  155.6091 H   0  0  0  0  0  0  0  0  0  0  0  0  # atno 8008 bound_to 7997
  155.7400  140.0806  157.2269 H   0  0  0  0  0  0  0  0  0  0  0  0  # atno 8009 bound_to 7997
  154.4054  140.1572  156.2592 H   0  0  0  0  0  0  0  0  0  0  0  0  # atno 8010 bound_to 7997
  139.8613  143.7074  152.2650 H   0  0  0  0  0  0  0  0  0  0  0  0  # atno 10167 bound_to 10162
  156.3176  130.4261  149.7990 H   0  0  0  0  0  0  0  0  0  0  0  0  # atno 10718 bound_to 10713
  154.1658  135.2807  155.3095 H   0  0  0  0  0  0  0  0  0  0  0  0  # atno 10763 bound_to 10752
  154.6113  135.5498  153.7479 H   0  0  0  0  0  0  0  0  0  0  0  0  # atno 10764 bound_to 10752
  153.0179  135.6416  154.1799 H   0  0  0  0  0  0  0  0  0  0  0  0  # atno 10765 bound_to 10752
  141.1646  133.6950  156.7531 H   0  0  0  0  0  0  0  0  0  0  0  0  # atno 11005 bound_to 11000
  145.1174  140.9442  143.4621 LP  0  0  0  0  0  0  0  0  0  0  0  0  # atno 17320 bound_to 7965
  145.0515  139.3177  143.5926 LP  0  0  0  0  0  0  0  0  0  0  0  0  # atno 17321 bound_to 7965
  139.7371  144.7568  151.0710 LP  0  0  0  0  0  0  0  0  0  0  0  0  # atno 17342 bound_to 10162
  140.7774  143.5017  150.9763 LP  0  0  0  0  0  0  0  0  0  0  0  0  # atno 17343 bound_to 10162
  156.5310  130.8257  151.3237 LP  0  0  0  0  0  0  0  0  0  0  0  0  # atno 17370 bound_to 10713
  157.7405  130.9851  150.2382 LP  0  0  0  0  0  0  0  0  0  0  0  0  # atno 17371 bound_to 10713
  140.2589  134.8482  157.3739 LP  0  0  0  0  0  0  0  0  0  0  0  0  # atno 17394 bound_to 11000
  140.1630  134.4704  155.7882 LP  0  0  0  0  0  0  0  0  0  0  0  0  # atno 17395 bound_to 11000

$$$$
