#       Name:                AV-unprocessed.smi:1897
#       Creating user name   scv26
#       Creation time:       Fri Mar 27 09:43:01 2020


#       File generated by GOLD software.
#

@<TRIPOS>MOLECULE
AV-unprocessed.smi:1897
    43    45     1
SMALL
NO_CHARGES


@<TRIPOS>ATOM
      1 ****         0.5558   8.0941   1.6134 C.3            1 S1                 0.0000
      2 ****         0.8008   6.7194   1.0917 C.2            1 S1                 0.0000
      3 ****         2.0278   6.2411   0.8517 N.2            1 S1                 0.0000
      4 ****         1.9994   4.9410   0.3693 N.2            1 S1                 0.0000
      5 ****         0.7486   4.4665   0.2739 C.2            1 S1                 0.0000
      6 ****         0.4165   3.1680  -0.2102 N.am           1 S1                 0.0000
      7 ****         1.1925   2.0972  -0.4801 C.2            1 S1                 0.0000
      8 ****         2.4112   2.1353  -0.3209 O.2            1 S1                 0.0000
      9 ****         0.5555   1.0043  -0.9316 N.am           1 S1                 0.0000
     10 ****         1.1909  -0.2724  -1.2396 C.3            1 S1                 0.0000
     11 ****         0.3210  -1.1873  -2.0920 C.3            1 S1                 0.0000
     12 ****         0.9471  -2.5673  -1.8667 C.3            1 S1                 0.0000
     13 ****         1.5996  -2.5310  -0.5345 N.4            1 S1                 1.0000
     14 ****         1.1410  -3.5995   0.3934 C.3            1 S1                 0.0000
     15 ****         1.5349  -3.2759   1.8421 C.3            1 S1                 0.0000
     16 ****         0.8724  -1.9729   2.3286 C.3            1 S1                 0.0000
     17 ****         0.5004  -1.0313   1.1674 C.3            1 S1                 0.0000
     18 ****         1.5056  -1.1401  -0.0062 C.3            1 S1                 0.0000
     19 ****        -0.5094   5.5994   0.7396 S.3            1 S1                 0.0000
     20 ****         1.4985   8.6131   1.7904 H              1 S1                 0.0000
     21 ****         0.0037   8.0432   2.5517 H              1 S1                 0.0000
     22 ****        -0.0282   8.6673   0.8931 H              1 S1                 0.0000
     23 ****        -0.5572   3.0523  -0.4522 H              1 S1                 0.0000
     24 ****        -0.4477   1.0553  -1.0406 H              1 S1                 0.0000
     25 ****         2.1174  -0.0885  -1.7879 H              1 S1                 0.0000
     26 ****        -0.7066  -1.1833  -1.7250 H              1 S1                 0.0000
     27 ****         0.3034  -0.8987  -3.1435 H              1 S1                 0.0000
     28 ****         0.2074  -3.3632  -1.9627 H              1 S1                 0.0000
     29 ****         1.7208  -2.7525  -2.6125 H              1 S1                 0.0000
     30 ****         0.0567  -3.7104   0.3345 H              1 S1                 0.0000
     31 ****         1.5728  -4.5507   0.0806 H              1 S1                 0.0000
     32 ****         1.2684  -4.0996   2.5051 H              1 S1                 0.0000
     33 ****         2.6198  -3.1774   1.9006 H              1 S1                 0.0000
     34 ****        -0.0279  -2.2003   2.9004 H              1 S1                 0.0000
     35 ****         1.5491  -1.4672   3.0184 H              1 S1                 0.0000
     36 ****        -0.5001  -1.2777   0.8089 H              1 S1                 0.0000
     37 ****         0.4420  -0.0104   1.5455 H              1 S1                 0.0000
     38 ****         2.4876  -0.8594   0.3776 H              1 S1                 0.0000
     39 ****         2.5830  -2.6945  -0.6978 H              1 S1                 0.0000
     40 ****         2.8683   6.7613   1.0028 LP             1 S1                 0.0000
     41 ****         2.8156   4.4189   0.1217 LP             1 S1                 0.0000
     42 ****         2.8457   2.9711   0.0146 LP             1 S1                 0.0000
     43 ****         2.9678   1.3304  -0.5270 LP             1 S1                 0.0000
@<TRIPOS>BOND
    1    1    2 1     
    2    1   20 1     
    3    1   21 1     
    4    1   22 1     
    5    2   19 1     
    6    2    3 2     
    7    3    4 1     
    8    4    5 2     
    9    5    6 1     
   10    5   19 1     
   11    6    7 am    
   12    6   23 1     
   13    7    8 2     
   14    7    9 am    
   15    9   10 1     
   16    9   24 1     
   17   10   18 1     
   18   10   11 1     
   19   10   25 1     
   20   11   12 1     
   21   11   26 1     
   22   11   27 1     
   23   12   13 1     
   24   12   28 1     
   25   12   29 1     
   26   13   18 1     
   27   13   14 1     
   28   13   39 1     
   29   14   15 1     
   30   14   30 1     
   31   14   31 1     
   32   15   16 1     
   33   15   32 1     
   34   15   33 1     
   35   16   17 1     
   36   16   34 1     
   37   16   35 1     
   38   17   18 1     
   39   17   36 1     
   40   17   37 1     
   41   18   38 1     
   42    3   40 1     
   43    4   41 1     
   44    8   42 1     
   45    8   43 1     
@<TRIPOS>SUBSTRUCTURE
      1 S1             1
@<TRIPOS>SET
LONE_PAIRS      STATIC     ATOMS    <user>   **** ""
4 40 41 42 43
DONOR_HYDROGENS      STATIC     ATOMS    <user>   **** ""
3 23 24 39
ATOM$BLUE        STATIC     ATOMS    COLORGROUP SYSTEM
4 40 41 42 43
ATOM$RED        STATIC     ATOMS    COLORGROUP SYSTEM
3 23 24 39
