AV-unprocessed.smi:1691|AV-procd|sdf|6776|dock1
  -GOLD-   22720 7533D 1   1.00000     0.00000
 Structure written by MMmdl.
 43 44  0  0  0  0  0  0  0  0  1 V2000
  148.4024  139.8271  156.5540 C   0  0  0  0  0  0  0  0  0  0  0  0
  148.5955  140.4694  155.1678 C   0  0  0  0  0  0  0  0  0  0  0  0
  147.6967  141.7086  154.9912 C   0  0  0  0  0  0  0  0  0  0  0  0
  148.5211  139.4469  153.9745 C   0  0  2  0  0  0  0  0  0  0  0  0
  147.1028  138.8044  153.8541 C   0  0  0  0  0  0  0  0  0  0  0  0
  147.0578  137.6679  152.9432 N   0  0  0  0  0  0  0  0  0  0  0  0
  145.9390  137.0847  152.4937 C   0  0  0  0  0  0  0  0  0  0  0  0
  144.8060  137.4374  152.8220 O   0  0  0  0  0  0  0  0  0  0  0  0
  146.2216  136.0804  151.6482 N   0  0  0  0  0  0  0  0  0  0  0  0
  145.3021  135.2513  150.9579 C   0  0  0  0  0  0  0  0  0  0  0  0
  145.5190  133.8797  150.6542 C   0  0  0  0  0  0  0  0  0  0  0  0
  144.4904  133.3608  149.9993 N   0  0  0  0  0  0  0  0  0  0  0  0
  143.6192  134.3883  149.8813 N   0  0  0  0  0  0  0  0  0  0  0  0
  144.0711  135.5588  150.4500 C   0  0  0  0  0  0  0  0  0  0  0  0
  149.6250  138.4484  154.0116 N   0  0  0  0  0  0  0  0  0  0  0  0
  150.9220  139.0137  154.4067 C   0  0  0  0  0  0  0  0  0  0  0  0
  152.0459  137.9638  154.4551 C   0  0  0  0  0  0  0  0  0  0  0  0
  151.6887  136.9170  155.3457 O   0  0  0  0  0  0  0  0  0  0  0  0
  150.4741  136.2874  154.9643 C   0  0  0  0  0  0  0  0  0  0  0  0
  149.3429  137.3290  154.9254 C   0  0  0  0  0  0  0  0  0  0  0  0
  142.7302  134.2766  149.4147 H   0  0  0  0  0  0  0  0  0  0  0  0
  147.3798  139.4842  156.7108 H   0  0  0  0  0  0  0  0  0  0  0  0
  148.6274  140.5408  157.3469 H   0  0  0  0  0  0  0  0  0  0  0  0
  149.0671  138.9730  156.6856 H   0  0  0  0  0  0  0  0  0  0  0  0
  149.5897  140.9003  155.2103 H   0  0  0  0  0  0  0  0  0  0  0  0
  146.6396  141.4921  155.1318 H   0  0  0  0  0  0  0  0  0  0  0  0
  147.8229  142.1501  154.0027 H   0  0  0  0  0  0  0  0  0  0  0  0
  147.9561  142.4755  155.7215 H   0  0  0  0  0  0  0  0  0  0  0  0
  148.6585  140.0226  153.0578 H   0  0  0  0  0  0  0  0  0  0  0  0
  146.7774  138.3943  154.8094 H   0  0  0  0  0  0  0  0  0  0  0  0
  146.3679  139.5606  153.5724 H   0  0  0  0  0  0  0  0  0  0  0  0
  147.9445  137.3104  152.6198 H   0  0  0  0  0  0  0  0  0  0  0  0
  147.1982  135.8925  151.4749 H   0  0  0  0  0  0  0  0  0  0  0  0
  146.3709  133.2562  150.8829 H   0  0  0  0  0  0  0  0  0  0  0  0
  143.4912  136.4696  150.4376 H   0  0  0  0  0  0  0  0  0  0  0  0
  151.2414  139.7719  153.6935 H   0  0  0  0  0  0  0  0  0  0  0  0
  150.8351  139.5009  155.3790 H   0  0  0  0  0  0  0  0  0  0  0  0
  152.2369  137.5569  153.4609 H   0  0  0  0  0  0  0  0  0  0  0  0
  152.9752  138.4197  154.7972 H   0  0  0  0  0  0  0  0  0  0  0  0
  150.5910  135.8058  153.9920 H   0  0  0  0  0  0  0  0  0  0  0  0
  150.2411  135.5024  155.6838 H   0  0  0  0  0  0  0  0  0  0  0  0
  149.1778  137.7121  155.9336 H   0  0  0  0  0  0  0  0  0  0  0  0
  148.4388  136.7939  154.6514 H   0  0  0  0  0  0  0  0  0  0  0  0
  1  2  1  0  0  0  0
  1 22  1  0  0  0  0
  1 23  1  0  0  0  0
  1 24  1  0  0  0  0
  2  3  1  0  0  0  0
  2  4  1  0  0  0  0
  2 25  1  0  0  0  0
  3 26  1  0  0  0  0
  3 27  1  0  0  0  0
  3 28  1  0  0  0  0
  4  5  1  0  0  0  0
  4 15  1  0  0  0  0
  4 29  1  0  0  0  0
  5  6  1  0  0  0  0
  5 30  1  0  0  0  0
  5 31  1  0  0  0  0
  6  7  1  0  0  0  0
  6 32  1  0  0  0  0
  7  8  2  0  0  0  0
  7  9  1  0  0  0  0
  9 10  1  0  0  0  0
  9 33  1  0  0  0  0
 10 14  2  0  0  0  0
 10 11  1  0  0  0  0
 11 12  2  0  0  0  0
 11 34  1  0  0  0  0
 12 13  1  0  0  0  0
 13 21  1  0  0  0  0
 13 14  1  0  0  0  0
 14 35  1  0  0  0  0
 15 20  1  0  0  0  0
 15 16  1  0  0  0  0
 16 17  1  0  0  0  0
 16 36  1  0  0  0  0
 16 37  1  0  0  0  0
 17 18  1  0  0  0  0
 17 38  1  0  0  0  0
 17 39  1  0  0  0  0
 18 19  1  0  0  0  0
 19 20  1  0  0  0  0
 19 40  1  0  0  0  0
 19 41  1  0  0  0  0
 20 42  1  0  0  0  0
 20 43  1  0  0  0  0
M  END
> <s_m_source_file>
AV-unprocessed.smi

> <i_m_source_file_index>
1691

> <i_lp_mmshare_version>
43012

> <i_f3d_flags>
0

> <s_epik_input>
W0NIMl0xW0NIMl1PW0NIMl1bQ0gyXU4xW0NASF0oW0NIXShbQ0gzXSlbQ0gzXSlbQ0gyXVtOSF1DKD1PKVtOSF1jMltjSF1uW25IXVtjSF0y

> <s_epik_cmdline>
J2VwaWtfcHl0aG9uJywgJy1waCcsICc3LjAnLCAnLXRuJywgJzgnLCAnLW1hJywgJzIwMCcsICctbWV0YWxfYmluZGluZycsICctaW1hZScsICc8aW5maWxlLm1hZT4nLCAnLW9tYWUnLCAnPG91dGZpbGUubWFlPic=

> <r_lp_tautomer_probability>
0.5

> <r_epik_Ionization_Penalty>
0.462189

> <r_epik_Ionization_Penalty_Charging>
0

> <r_epik_Ionization_Penalty_Neutral>
0.462189

> <r_epik_State_Penalty>
0.465733

> <r_epik_Charging_Adjusted_Penalty>
0.465733

> <i_epik_Tot_Q>
0

> <i_epik_Tot_abs_Q>
0

> <r_epik_Metal_State_Penalty>
0.465732

> <b_epik_Metal_Only>
0

> <s_lp_Force_Field>
OPLS_2005

> <r_lp_Energy>
39.5342

> <b_lp_Chiralities_Consistent>
1

> <s_lp_Variant>
AV-unprocessed.smi:1691-3

> <Gold.Version>
5.8.1

> <Gold.Id.Protein>
6NUR|6NUR_protein|mol2

> <Gold.PLP.Fitness>
42.0656

> <Gold.PLP.PLP>
-28.2331

> <Gold.PLP.part.hbond>
-4.0000

> <Gold.PLP.part.metal>
0.0000

> <Gold.PLP.part.buried>
-4.0165

> <Gold.PLP.part.nonpolar>
-21.7380

> <Gold.PLP.part.repulsive>
0.8034

> <Gold.PLP.ligand.clash>
0.0000

> <Gold.PLP.ligand.torsion>
0.7803

> <Gold.PLP.Chemscore.Hbond>
3.9760

> <Gold.PLP.Chemscore.CHOScore>
1.0000

> <Gold.PLP.Chemscore.Metal>
0.0000

> <Gold.Chemscore.Hbonds>
donor molecule, donor type, donor heavy atom, donor atom, acceptor molecule, acceptor atom, score
      L1  H     6    32       P1  7948  1.00
      L1  H     9    33       P1  7948  1.00
      L1  H    13    21       P1 10186  0.93
      P1  H 10752 10765       L1    18  1.00
      L1  C    14    35       P1 10171  1.00

> <Gold.PLP.Chemscore.Internal.Correction>
0.4651

> <Gold.Rescore>
     Score         DG    S(hbond)    S(metal)    S(lipo)     H(rot)  DE(clash)    DE(int)     intcor
     17.45     -18.29       2.92        0.00      65.15       1.79       0.12       0.72       ----

> <Gold.Chemscore.Fitness>
17.4461

> <Gold.Chemscore.DG>
-18.2894

> <Gold.Chemscore.ZeroCoef>
-5.4800

> <Gold.Chemscore.Hbond>
2.9244

> <Gold.Chemscore.Metal>
0.0000

> <Gold.Chemscore.Lipo>
65.1476

> <Gold.Chemscore.Internal_Hbond>
0.0000

> <Gold.Chemscore.DEClash>
0.1246

> <Gold.Chemscore.DEInternal>
0.7187

> <Gold.Chemscore.Rot>
1.7893

> <Gold.Chemscore.Internal.Correction>
   9.000000E+99

> <Gold.Chemscore.Hbonds>
donor molecule, donor type, donor heavy atom, donor atom, acceptor molecule, acceptor atom, score
      L1  H     6    32       P1  7948  0.98
      L1  H     9    33       P1  7948  0.95
      L1  H    13    21       P1 10186  0.90
      P1  H 10752 10765       L1    18  0.11

> <Gold.Chemscore.Hbond.Weighted>
-9.7676

> <Gold.Chemscore.Metal.Weighted>
-0.0000

> <Gold.Chemscore.Lipo.Weighted>
-7.6223

> <Gold.Chemscore.Internal_Hbond.Weighted>
0.0000

> <Gold.Chemscore.DEClash.Weighted>
0.1246

> <Gold.Chemscore.DEInternal.Weighted>
0.7187

> <Gold.Chemscore.Rot.Weighted>
4.5805

> <Gold.Chemscore.Internal.Correction.Weighted>
   9.000000E+99

> <Gold.Protein.RotatedTorsions>
[ 6907 6896 6895 6894 ] final  151.36 input  -60.11 | X-H torsion
[ 7974 7965 7964 7962 ] final -106.23 input  175.53 | X-H torsion
[ 8008 7997 7996 7995 ] final  -85.31 input   59.86 | X-H torsion
[ 10167 10162 10161 10158 ] final  176.97 input  -65.29 | X-H torsion
[ 10718 10713 10712 10709 ] final  -20.57 input   66.30 | X-H torsion
[ 10763 10752 10751 10750 ] final -159.37 input  -60.55 | X-H torsion
[ 11005 11000 10999 10996 ] final   36.41 input  -57.11 | X-H torsion

> <Gold.Protein.ActiveResidues>
 VAL166  LYS551  ARG553  GLY616  TRP617  ASP618  TYR619  PRO620  LYS621  CYS622 
 ASP623  PHE694  ASN695  SER759  ASP760  ASP761  ALA762  ILE779  LEU786  VAL792 
 PHE793  MET794  SER795  GLU796  ALA797  LYS798  CYS799  TRP800  GLU811  SER814 

> <Gold.Protein.RotatedAtoms>
  152.1017  133.4253  159.4589 H   0  0  0  0  0  0  0  0  0  0  0  0  # atno 6907 bound_to 6896
  150.6864  134.2752  159.4614 H   0  0  0  0  0  0  0  0  0  0  0  0  # atno 6908 bound_to 6896
  152.0613  134.9592  160.0625 H   0  0  0  0  0  0  0  0  0  0  0  0  # atno 6909 bound_to 6896
  145.2204  140.9132  143.3262 H   0  0  0  0  0  0  0  0  0  0  0  0  # atno 7974 bound_to 7965
  154.6393  140.0593  156.9827 H   0  0  0  0  0  0  0  0  0  0  0  0  # atno 8008 bound_to 7997
  155.1542  140.3277  155.4406 H   0  0  0  0  0  0  0  0  0  0  0  0  # atno 8009 bound_to 7997
  156.2523  140.1942  156.6652 H   0  0  0  0  0  0  0  0  0  0  0  0  # atno 8010 bound_to 7997
  139.5235  144.2853  152.0511 H   0  0  0  0  0  0  0  0  0  0  0  0  # atno 10167 bound_to 10162
  156.5301  130.4653  149.6551 H   0  0  0  0  0  0  0  0  0  0  0  0  # atno 10718 bound_to 10713
  154.7480  135.3085  154.8610 H   0  0  0  0  0  0  0  0  0  0  0  0  # atno 10763 bound_to 10752
  153.9405  135.6775  153.4748 H   0  0  0  0  0  0  0  0  0  0  0  0  # atno 10764 bound_to 10752
  153.1076  135.4882  154.8906 H   0  0  0  0  0  0  0  0  0  0  0  0  # atno 10765 bound_to 10752
  140.2328  134.3507  155.7957 H   0  0  0  0  0  0  0  0  0  0  0  0  # atno 11005 bound_to 11000
  144.9770  139.3821  143.6280 LP  0  0  0  0  0  0  0  0  0  0  0  0  # atno 17320 bound_to 7965
  146.3377  139.8894  142.8811 LP  0  0  0  0  0  0  0  0  0  0  0  0  # atno 17321 bound_to 7965
  140.2307  144.4372  150.6301 LP  0  0  0  0  0  0  0  0  0  0  0  0  # atno 17342 bound_to 10162
  140.6357  143.2194  151.6399 LP  0  0  0  0  0  0  0  0  0  0  0  0  # atno 17343 bound_to 10162
  156.3068  130.7207  151.2091 LP  0  0  0  0  0  0  0  0  0  0  0  0  # atno 17370 bound_to 10713
  157.7423  131.0492  150.5034 LP  0  0  0  0  0  0  0  0  0  0  0  0  # atno 17371 bound_to 10713
  141.2216  133.7255  156.8760 LP  0  0  0  0  0  0  0  0  0  0  0  0  # atno 17394 bound_to 11000
  140.1733  134.9085  157.2859 LP  0  0  0  0  0  0  0  0  0  0  0  0  # atno 17395 bound_to 11000

$$$$
