AV-unprocessed.smi:284|AV-procd|sdf|2161|dock9
  -GOLD-   2262021513D 1   1.00000     0.00000
 Structure written by MMmdl.
 60 62  0  0  0  0  0  0  0  0  1 V2000
  147.3131  131.9759  160.5208 C   0  0  0  0  0  0  0  0  0  0  0  0
  147.4181  133.4767  160.2982 C   0  0  0  0  0  0  0  0  0  0  0  0
  146.6240  134.3583  160.9482 C   0  0  0  0  0  0  0  0  0  0  0  0
  146.6924  135.7300  160.7743 N   0  0  0  0  0  0  0  0  0  0  0  0
  145.7165  136.6707  161.4560 C   0  0  2  0  0  0  0  0  0  0  0  0
  144.8223  136.0042  162.5119 C   0  0  0  0  0  0  0  0  0  0  0  0
  143.4741  135.9620  161.8141 C   0  0  1  0  0  0  0  0  0  0  0  0
  142.4210  136.0322  162.7541 O   0  0  0  0  0  0  0  0  0  0  0  0
  143.5362  137.1979  160.9122 C   0  0  2  0  0  0  0  0  0  0  0  0
  142.5958  137.1206  159.6999 C   0  0  0  0  0  0  0  0  0  0  0  0
  141.2512  137.1975  160.1222 O   0  0  0  0  0  0  0  0  0  0  0  0
  144.8906  137.2112  160.4710 O   0  0  0  0  0  0  0  0  0  0  0  0
  147.5603  136.2541  159.7916 C   0  0  0  0  0  0  0  0  0  0  0  0
  147.5700  137.4592  159.5304 O   0  0  0  0  0  0  0  0  0  0  0  0
  148.4222  135.3631  159.1127 N   0  0  0  0  0  0  0  0  0  0  0  0
  149.3593  135.9122  158.1066 C   0  0  0  0  0  0  0  0  0  0  0  0
  150.1347  137.1489  158.5887 C   0  0  0  0  0  0  0  0  0  0  0  0
  150.9331  137.0629  159.5226 O   0  0  0  0  0  0  0  0  0  0  0  0
  149.8430  138.2897  157.9374 N   0  0  0  0  0  0  0  0  0  0  0  0
  150.3899  139.5880  158.1248 C   0  0  0  0  0  0  0  0  0  0  0  0
  151.6021  139.8388  158.8081 C   0  0  0  0  0  0  0  0  0  0  0  0
  152.0925  141.1534  158.9314 C   0  0  0  0  0  0  0  0  0  0  0  0
  151.3914  142.2490  158.3696 C   0  0  0  0  0  0  0  0  0  0  0  0
  151.8985  143.6997  158.4817 C   0  0  0  0  0  0  0  0  0  0  0  0
  150.8267  144.5687  159.1713 C   0  0  0  0  0  0  0  0  0  0  0  0
  152.2085  144.3382  157.1089 C   0  0  0  0  0  0  0  0  0  0  0  0
  153.1963  143.7345  159.3159 C   0  0  0  0  0  0  0  0  0  0  0  0
  150.1881  141.9828  157.6750 C   0  0  0  0  0  0  0  0  0  0  0  0
  149.6961  140.6701  157.5502 C   0  0  0  0  0  0  0  0  0  0  0  0
  148.4012  133.9642  159.3295 C   0  0  0  0  0  0  0  0  0  0  0  0
  149.1662  133.2205  158.7124 O   0  0  0  0  0  0  0  0  0  0  0  0
  146.5573  131.7267  161.2662 H   0  0  0  0  0  0  0  0  0  0  0  0
  148.2661  131.5740  160.8665 H   0  0  0  0  0  0  0  0  0  0  0  0
  147.0445  131.4710  159.5923 H   0  0  0  0  0  0  0  0  0  0  0  0
  145.8940  133.9516  161.6287 H   0  0  0  0  0  0  0  0  0  0  0  0
  146.3163  137.4534  161.9220 H   0  0  0  0  0  0  0  0  0  0  0  0
  145.1954  135.0378  162.8508 H   0  0  0  0  0  0  0  0  0  0  0  0
  144.7833  136.6684  163.3769 H   0  0  0  0  0  0  0  0  0  0  0  0
  143.3774  135.0558  161.2161 H   0  0  0  0  0  0  0  0  0  0  0  0
  142.0900  135.1595  162.9027 H   0  0  0  0  0  0  0  0  0  0  0  0
  143.3476  138.0944  161.5068 H   0  0  0  0  0  0  0  0  0  0  0  0
  142.8148  137.9077  158.9775 H   0  0  0  0  0  0  0  0  0  0  0  0
  142.7205  136.1668  159.1869 H   0  0  0  0  0  0  0  0  0  0  0  0
  140.8559  136.3446  160.0251 H   0  0  0  0  0  0  0  0  0  0  0  0
  150.0771  135.1522  157.7934 H   0  0  0  0  0  0  0  0  0  0  0  0
  148.8379  136.1729  157.1842 H   0  0  0  0  0  0  0  0  0  0  0  0
  149.0975  138.2294  157.2595 H   0  0  0  0  0  0  0  0  0  0  0  0
  152.1846  139.0368  159.2340 H   0  0  0  0  0  0  0  0  0  0  0  0
  153.0213  141.2888  159.4627 H   0  0  0  0  0  0  0  0  0  0  0  0
  151.1487  145.6077  159.2506 H   0  0  0  0  0  0  0  0  0  0  0  0
  150.6071  144.2247  160.1821 H   0  0  0  0  0  0  0  0  0  0  0  0
  149.8910  144.5582  158.6110 H   0  0  0  0  0  0  0  0  0  0  0  0
  151.3221  144.3846  156.4750 H   0  0  0  0  0  0  0  0  0  0  0  0
  152.9808  143.7858  156.5722 H   0  0  0  0  0  0  0  0  0  0  0  0
  152.5699  145.3610  157.2221 H   0  0  0  0  0  0  0  0  0  0  0  0
  153.5908  144.7481  159.3934 H   0  0  0  0  0  0  0  0  0  0  0  0
  153.9723  143.1155  158.8641 H   0  0  0  0  0  0  0  0  0  0  0  0
  153.0419  143.3758  160.3334 H   0  0  0  0  0  0  0  0  0  0  0  0
  149.6276  142.7885  157.2252 H   0  0  0  0  0  0  0  0  0  0  0  0
  148.7756  140.4986  157.0115 H   0  0  0  0  0  0  0  0  0  0  0  0
  1  2  1  0  0  0  0
  1 32  1  0  0  0  0
  1 33  1  0  0  0  0
  1 34  1  0  0  0  0
  2 30  1  0  0  0  0
  2  3  2  0  0  0  0
  3  4  1  0  0  0  0
  3 35  1  0  0  0  0
  4  5  1  0  0  0  0
  4 13  1  0  0  0  0
  5 12  1  0  0  0  0
  5  6  1  0  0  0  0
  5 36  1  0  0  0  0
  6  7  1  0  0  0  0
  6 37  1  0  0  0  0
  6 38  1  0  0  0  0
  7  8  1  0  0  0  0
  7  9  1  0  0  0  0
  7 39  1  0  0  0  0
  8 40  1  0  0  0  0
  9 10  1  0  0  0  0
  9 12  1  0  0  0  0
  9 41  1  0  0  0  0
 10 11  1  0  0  0  0
 10 42  1  0  0  0  0
 10 43  1  0  0  0  0
 11 44  1  0  0  0  0
 13 14  2  0  0  0  0
 13 15  1  0  0  0  0
 15 16  1  0  0  0  0
 15 30  1  0  0  0  0
 16 17  1  0  0  0  0
 16 45  1  0  0  0  0
 16 46  1  0  0  0  0
 17 18  2  0  0  0  0
 17 19  1  0  0  0  0
 19 20  1  0  0  0  0
 19 47  1  0  0  0  0
 20 29  1  0  0  0  0
 20 21  2  0  0  0  0
 21 22  1  0  0  0  0
 21 48  1  0  0  0  0
 22 23  2  0  0  0  0
 22 49  1  0  0  0  0
 23 24  1  0  0  0  0
 23 28  1  0  0  0  0
 24 25  1  0  0  0  0
 24 26  1  0  0  0  0
 24 27  1  0  0  0  0
 25 50  1  0  0  0  0
 25 51  1  0  0  0  0
 25 52  1  0  0  0  0
 26 53  1  0  0  0  0
 26 54  1  0  0  0  0
 26 55  1  0  0  0  0
 27 56  1  0  0  0  0
 27 57  1  0  0  0  0
 27 58  1  0  0  0  0
 28 29  2  0  0  0  0
 28 59  1  0  0  0  0
 29 60  1  0  0  0  0
 30 31  2  0  0  0  0
M  END
> <s_m_source_file>
AV-unprocessed.smi

> <i_m_source_file_index>
284

> <i_lp_mmshare_version>
43012

> <i_f3d_flags>
0

> <s_epik_input>
W09IXVtDSDJdW0NAQEhdKE8xKVtDQEhdKFtPSF0pW0NIMl1bQ0BIXTFuKFtjSF1jMltDSDNdKWMoPU8pbihjMj1PKVtDSDJdQyg9TylbTkhdYzNbY0hdW2NIXWMoQyhbQ0gzXSkoW0NIM10pW0NIM10pW2NIXVtjSF0z

> <s_epik_cmdline>
J2VwaWtfcHl0aG9uJywgJy1waCcsICc3LjAnLCAnLXRuJywgJzgnLCAnLW1hJywgJzIwMCcsICctbWV0YWxfYmluZGluZycsICctaW1hZScsICc8aW5maWxlLm1hZT4nLCAnLW9tYWUnLCAnPG91dGZpbGUubWFlPic=

> <r_lp_tautomer_probability>
1

> <r_epik_Ionization_Penalty>
4.92358e-06

> <r_epik_Ionization_Penalty_Charging>
1.29777e-07

> <r_epik_Ionization_Penalty_Neutral>
4.79381e-06

> <r_epik_State_Penalty>
-0

> <r_epik_Charging_Adjusted_Penalty>
1.29777e-07

> <i_epik_Tot_Q>
0

> <i_epik_Tot_abs_Q>
0

> <r_epik_Metal_State_Penalty>
-0

> <b_epik_Metal_Only>
0

> <s_epik_Chemistry_Notes>
This compound contains an acetal/aminal-like group ( X-CH(R)-Y where X, Y are N, S, or O) that may be acid/base labile, releasing an aldehyde.

> <s_lp_Force_Field>
OPLS_2005

> <r_lp_Energy>
40.5501

> <b_lp_Chiralities_Consistent>
1

> <s_lp_Variant>
AV-unprocessed.smi:284-5

> <Gold.Version>
5.8.1

> <Gold.Id.Protein>
6NUR|6NUR_protein|mol2

> <Gold.PLP.Fitness>
52.4874

> <Gold.PLP.PLP>
-44.5399

> <Gold.PLP.part.hbond>
-4.0000

> <Gold.PLP.part.metal>
0.0000

> <Gold.PLP.part.buried>
-8.6126

> <Gold.PLP.part.nonpolar>
-31.9764

> <Gold.PLP.part.repulsive>
0.1127

> <Gold.PLP.ligand.clash>
0.0143

> <Gold.PLP.ligand.torsion>
0.3674

> <Gold.PLP.Chemscore.Hbond>
2.8480

> <Gold.PLP.Chemscore.CHOScore>
0.0000

> <Gold.PLP.Chemscore.Metal>
0.0000

> <Gold.Chemscore.Hbonds>
donor molecule, donor type, donor heavy atom, donor atom, acceptor molecule, acceptor atom, score
      P1  H  6896  6907       L1    31  1.00
      P1  H  6896  6908       L1    18  1.00
      P1  H  6934  6947       L1    14  0.57

> <Gold.PLP.Chemscore.Internal.Correction>
0.1526

> <Gold.Rescore>
     Score         DG    S(hbond)    S(metal)    S(lipo)     H(rot)  DE(clash)    DE(int)     intcor
     12.70     -17.06       2.08        0.00     111.11       3.27       0.21       4.15       ----

> <Gold.Chemscore.Fitness>
12.6970

> <Gold.Chemscore.DG>
-17.0569

> <Gold.Chemscore.ZeroCoef>
-5.4800

> <Gold.Chemscore.Hbond>
2.0830

> <Gold.Chemscore.Metal>
0.0000

> <Gold.Chemscore.Lipo>
111.1097

> <Gold.Chemscore.Internal_Hbond>
0.0000

> <Gold.Chemscore.DEClash>
0.2129

> <Gold.Chemscore.DEInternal>
4.1470

> <Gold.Chemscore.Rot>
3.2735

> <Gold.Chemscore.Internal.Correction>
   9.000000E+99

> <Gold.Chemscore.Hbonds>
donor molecule, donor type, donor heavy atom, donor atom, acceptor molecule, acceptor atom, score
      P1  H  6896  6907       L1    31  0.53
      P1  H  6896  6908       L1    18  0.82
      P1  H  6934  6947       L1    14  0.57

> <Gold.Chemscore.Hbond.Weighted>
-6.9571

> <Gold.Chemscore.Metal.Weighted>
-0.0000

> <Gold.Chemscore.Lipo.Weighted>
-12.9998

> <Gold.Chemscore.Internal_Hbond.Weighted>
0.0000

> <Gold.Chemscore.DEClash.Weighted>
0.2129

> <Gold.Chemscore.DEInternal.Weighted>
4.1470

> <Gold.Chemscore.Rot.Weighted>
8.3801

> <Gold.Chemscore.Internal.Correction.Weighted>
   9.000000E+99

> <Gold.Protein.RotatedTorsions>
[ 6907 6896 6895 6894 ] final -128.64 input  -60.11 | X-H torsion
[ 7974 7965 7964 7962 ] final  -19.51 input  175.53 | X-H torsion
[ 8008 7997 7996 7995 ] final -128.46 input   59.86 | X-H torsion
[ 10167 10162 10161 10158 ] final   70.50 input  -65.29 | X-H torsion
[ 10718 10713 10712 10709 ] final  127.13 input   66.30 | X-H torsion
[ 10763 10752 10751 10750 ] final   79.20 input  -60.55 | X-H torsion
[ 11005 11000 10999 10996 ] final  173.52 input  -57.11 | X-H torsion

> <Gold.Protein.ActiveResidues>
 VAL166  LYS551  ARG553  GLY616  TRP617  ASP618  TYR619  PRO620  LYS621  CYS622 
 ASP623  PHE694  ASN695  SER759  ASP760  ASP761  ALA762  ILE779  LEU786  VAL792 
 PHE793  MET794  SER795  GLU796  ALA797  LYS798  CYS799  TRP800  GLU811  SER814 

> <Gold.Protein.RotatedAtoms>
  150.9200  133.6892  159.2834 H   0  0  0  0  0  0  0  0  0  0  0  0  # atno 6907 bound_to 6896
  151.4349  135.1012  159.9663 H   0  0  0  0  0  0  0  0  0  0  0  0  # atno 6908 bound_to 6896
  152.4975  133.8622  159.7311 H   0  0  0  0  0  0  0  0  0  0  0  0  # atno 6909 bound_to 6896
  146.1837  140.4072  142.8484 H   0  0  0  0  0  0  0  0  0  0  0  0  # atno 7974 bound_to 7965
  155.2630  140.0437  157.2999 H   0  0  0  0  0  0  0  0  0  0  0  0  # atno 8008 bound_to 7997
  154.5699  140.2371  155.8176 H   0  0  0  0  0  0  0  0  0  0  0  0  # atno 8009 bound_to 7997
  156.2114  140.2997  155.9749 H   0  0  0  0  0  0  0  0  0  0  0  0  # atno 8010 bound_to 7997
  140.0562  144.5271  150.7327 H   0  0  0  0  0  0  0  0  0  0  0  0  # atno 10167 bound_to 10162
  157.5359  131.1097  150.8935 H   0  0  0  0  0  0  0  0  0  0  0  0  # atno 10718 bound_to 10713
  153.0934  135.4848  154.8732 H   0  0  0  0  0  0  0  0  0  0  0  0  # atno 10763 bound_to 10752
  154.7296  135.3057  154.8916 H   0  0  0  0  0  0  0  0  0  0  0  0  # atno 10764 bound_to 10752
  153.9556  135.6818  153.4798 H   0  0  0  0  0  0  0  0  0  0  0  0  # atno 10765 bound_to 10752
  140.3414  134.7273  157.4205 H   0  0  0  0  0  0  0  0  0  0  0  0  # atno 11005 bound_to 11000
  144.8360  140.6782  143.6260 LP  0  0  0  0  0  0  0  0  0  0  0  0  # atno 17320 bound_to 7965
  145.4001  139.1599  143.4182 LP  0  0  0  0  0  0  0  0  0  0  0  0  # atno 17321 bound_to 7965
  140.7193  143.2574  151.4330 LP  0  0  0  0  0  0  0  0  0  0  0  0  # atno 17342 bound_to 10162
  139.5922  144.1474  152.2101 LP  0  0  0  0  0  0  0  0  0  0  0  0  # atno 17343 bound_to 10162
  156.9502  130.5417  149.5282 LP  0  0  0  0  0  0  0  0  0  0  0  0  # atno 17370 bound_to 10713
  156.0458  130.5535  150.8878 LP  0  0  0  0  0  0  0  0  0  0  0  0  # atno 17371 bound_to 10713
  140.0778  134.5773  155.8573 LP  0  0  0  0  0  0  0  0  0  0  0  0  # atno 17394 bound_to 11000
  141.2037  133.6634  156.6080 LP  0  0  0  0  0  0  0  0  0  0  0  0  # atno 17395 bound_to 11000

$$$$
