AV-unprocessed.smi:1|AV-procd|sdf|2|dock3
  -GOLD-   2262015 83D 1   1.00000     0.00000
 Structure written by MMmdl.
 57 62  0  0  0  0  0  0  0  0  1 V2000
  153.2350  142.2368  162.3626 O   0  0  0  0  0  0  0  0  0  0  0  0
  153.3357  142.2638  161.1356 C   0  0  0  0  0  0  0  0  0  0  0  0
  154.1544  141.3122  160.4053 N   0  0  0  0  0  0  0  0  0  0  0  0
  154.8486  140.2578  160.8941 C   0  0  0  0  0  0  0  0  0  0  0  0
  155.0283  140.0568  162.2264 N   0  0  0  0  0  0  0  0  0  0  0  0
  155.7249  139.0021  162.6595 C   0  0  0  0  0  0  0  0  0  0  0  0
  156.3136  138.0416  161.9441 N   0  0  0  0  0  0  0  0  0  0  0  0
  156.1332  138.2329  160.6060 C   0  0  0  0  0  0  0  0  0  0  0  0
  155.4183  139.3073  160.0073 C   0  0  0  0  0  0  0  0  0  0  0  0
  155.4432  139.1756  158.6247 N   0  0  0  0  0  0  0  0  0  0  0  0
  156.1340  138.0853  158.4232 C   0  0  0  0  0  0  0  0  0  0  0  0
  156.5852  137.4545  159.5610 N   0  0  0  0  0  0  0  0  0  0  0  0
  157.3886  136.2016  159.6509 C   0  0  1  0  0  0  0  0  0  0  0  0
  156.7161  135.1737  159.0011 O   0  0  0  0  0  0  0  0  0  0  0  0
  157.6690  134.2143  158.5445 C   0  0  1  0  0  0  0  0  0  0  0  0
  157.2831  133.7522  157.1313 C   0  0  0  0  0  0  0  0  0  0  0  0
  158.0650  134.4397  156.1671 O   0  0  0  0  0  0  0  0  0  0  0  0
  157.4769  135.2215  155.2430 C   0  0  0  0  0  0  0  0  0  0  0  0
  156.4187  135.8252  155.4305 O   0  0  0  0  0  0  0  0  0  0  0  0
  158.2520  135.2898  153.9711 C   0  0  0  0  0  0  0  0  0  0  0  0
  157.6805  135.9223  152.8430 C   0  0  0  0  0  0  0  0  0  0  0  0
  158.3966  136.0155  151.6338 C   0  0  0  0  0  0  0  0  0  0  0  0
  159.6920  135.4743  151.5375 C   0  0  0  0  0  0  0  0  0  0  0  0
  160.2693  134.8367  152.6509 C   0  0  0  0  0  0  0  0  0  0  0  0
  159.5539  134.7418  153.8602 C   0  0  0  0  0  0  0  0  0  0  0  0
  159.0532  134.8807  158.6416 C   0  0  2  0  0  0  0  0  0  0  0  0
  159.7740  134.3493  159.7411 O   0  0  0  0  0  0  0  0  0  0  0  0
  160.4930  135.6102  160.5694 S   0  0  0  0  0  0  0  0  0  0  0  0
  160.0390  135.5595  161.9675 O   0  0  0  0  0  0  0  0  0  0  0  0
  161.9155  135.6547  160.1987 O   0  0  0  0  0  0  0  0  0  0  0  0
  159.7162  136.8800  159.8114 O   0  0  0  0  0  0  0  0  0  0  0  0
  158.7320  136.3484  158.9436 C   0  0  2  0  0  0  0  0  0  0  0  0
  152.6861  143.3393  160.3144 C   0  0  0  0  0  0  0  0  0  0  0  0
  152.0054  144.4008  160.9520 C   0  0  0  0  0  0  0  0  0  0  0  0
  151.3805  145.4071  160.1897 C   0  0  0  0  0  0  0  0  0  0  0  0
  151.4242  145.3563  158.7837 C   0  0  0  0  0  0  0  0  0  0  0  0
  152.0897  144.2958  158.1403 C   0  0  0  0  0  0  0  0  0  0  0  0
  152.7154  143.2891  158.9014 C   0  0  0  0  0  0  0  0  0  0  0  0
  154.2082  141.4523  159.4069 H   0  0  0  0  0  0  0  0  0  0  0  0
  155.8230  138.9152  163.7317 H   0  0  0  0  0  0  0  0  0  0  0  0
  156.3313  137.7061  157.4310 H   0  0  0  0  0  0  0  0  0  0  0  0
  157.4738  135.9789  160.7157 H   0  0  0  0  0  0  0  0  0  0  0  0
  157.6252  133.3557  159.2158 H   0  0  0  0  0  0  0  0  0  0  0  0
  157.4571  132.6805  157.0286 H   0  0  0  0  0  0  0  0  0  0  0  0
  156.2203  133.9295  156.9611 H   0  0  0  0  0  0  0  0  0  0  0  0
  156.6893  136.3494  152.8949 H   0  0  0  0  0  0  0  0  0  0  0  0
  157.9518  136.5043  150.7796 H   0  0  0  0  0  0  0  0  0  0  0  0
  160.2414  135.5475  150.6106 H   0  0  0  0  0  0  0  0  0  0  0  0
  161.2629  134.4198  152.5788 H   0  0  0  0  0  0  0  0  0  0  0  0
  160.0269  134.2474  154.6957 H   0  0  0  0  0  0  0  0  0  0  0  0
  159.6553  134.7683  157.7389 H   0  0  0  0  0  0  0  0  0  0  0  0
  158.6237  136.9299  158.0280 H   0  0  0  0  0  0  0  0  0  0  0  0
  151.9625  144.4539  162.0303 H   0  0  0  0  0  0  0  0  0  0  0  0
  150.8664  146.2178  160.6846 H   0  0  0  0  0  0  0  0  0  0  0  0
  150.9447  146.1278  158.1996 H   0  0  0  0  0  0  0  0  0  0  0  0
  152.1180  144.2530  157.0615 H   0  0  0  0  0  0  0  0  0  0  0  0
  153.2127  142.4793  158.3874 H   0  0  0  0  0  0  0  0  0  0  0  0
  1  2  2  0  0  0  0
  2  3  1  0  0  0  0
  2 33  1  0  0  0  0
  3  4  1  0  0  0  0
  3 39  1  0  0  0  0
  4  9  1  0  0  0  0
  4  5  2  0  0  0  0
  5  6  1  0  0  0  0
  6  7  2  0  0  0  0
  6 40  1  0  0  0  0
  7  8  1  0  0  0  0
  8 12  1  0  0  0  0
  8  9  2  0  0  0  0
  9 10  1  0  0  0  0
 10 11  2  0  0  0  0
 11 12  1  0  0  0  0
 11 41  1  0  0  0  0
 12 13  1  0  0  0  0
 13 32  1  0  0  0  0
 13 14  1  0  0  0  0
 13 42  1  0  0  0  0
 14 15  1  0  0  0  0
 15 16  1  0  0  0  0
 15 26  1  0  0  0  0
 15 43  1  0  0  0  0
 16 17  1  0  0  0  0
 16 44  1  0  0  0  0
 16 45  1  0  0  0  0
 17 18  1  0  0  0  0
 18 19  2  0  0  0  0
 18 20  1  0  0  0  0
 20 25  1  0  0  0  0
 20 21  2  0  0  0  0
 21 22  1  0  0  0  0
 21 46  1  0  0  0  0
 22 23  2  0  0  0  0
 22 47  1  0  0  0  0
 23 24  1  0  0  0  0
 23 48  1  0  0  0  0
 24 25  2  0  0  0  0
 24 49  1  0  0  0  0
 25 50  1  0  0  0  0
 26 32  1  0  0  0  0
 26 27  1  0  0  0  0
 26 51  1  0  0  0  0
 27 28  1  0  0  0  0
 28 29  2  0  0  0  0
 28 30  2  0  0  0  0
 28 31  1  0  0  0  0
 31 32  1  0  0  0  0
 32 52  1  0  0  0  0
 33 38  1  0  0  0  0
 33 34  2  0  0  0  0
 34 35  1  0  0  0  0
 34 53  1  0  0  0  0
 35 36  2  0  0  0  0
 35 54  1  0  0  0  0
 36 37  1  0  0  0  0
 36 55  1  0  0  0  0
 37 38  2  0  0  0  0
 37 56  1  0  0  0  0
 38 57  1  0  0  0  0
M  END
> <s_m_source_file>
AV-unprocessed.smi

> <i_m_source_file_index>
1

> <i_lp_mmshare_version>
43012

> <i_f3d_flags>
0

> <s_epik_input>
W2NIXTFbY0hdW2NIXVtjSF1bY0hdYzFDKD1PKVtOSF1jKG5bY0hdbjIpYyhjMjMpbltjSF1uM1tDQEBIXShbQ0BIXShbQ0BIXTQ1KU9TKE81KSg9Tyk9TylPW0NASF00W0NIMl1PQyg9TyljNltjSF1bY0hdW2NIXVtjSF1bY0hdNg==

> <s_epik_cmdline>
J2VwaWtfcHl0aG9uJywgJy1waCcsICc3LjAnLCAnLXRuJywgJzgnLCAnLW1hJywgJzIwMCcsICctbWV0YWxfYmluZGluZycsICctaW1hZScsICc8aW5maWxlLm1hZT4nLCAnLW9tYWUnLCAnPG91dGZpbGUubWFlPic=

> <r_lp_tautomer_probability>
1

> <r_epik_Ionization_Penalty>
0.00195722

> <r_epik_Ionization_Penalty_Charging>
0

> <r_epik_Ionization_Penalty_Neutral>
0.00195722

> <r_epik_State_Penalty>
0.00633741

> <r_epik_Charging_Adjusted_Penalty>
0.00633741

> <i_epik_Tot_Q>
0

> <i_epik_Tot_abs_Q>
0

> <r_epik_Metal_State_Penalty>
0.341185

> <b_epik_Metal_Only>
0

> <s_epik_Chemistry_Notes>
This compound has an ester and may undergo hydrolysis at high or low pH. This compound contains an acetal/aminal-like group ( X-CH(R)-Y where X, Y are N, S, or O) that may be acid/base labile, releasing an aldehyde.

> <s_lp_Force_Field>
OPLS_2005

> <r_lp_Energy>
43.8604

> <b_lp_Chiralities_Consistent>
1

> <s_lp_Variant>
AV-unprocessed.smi:1-2

> <Gold.Version>
5.8.1

> <Gold.Id.Protein>
6NUR|6NUR_protein|mol2

> <Gold.PLP.Fitness>
57.3216

> <Gold.PLP.PLP>
-54.0084

> <Gold.PLP.part.hbond>
-1.9893

> <Gold.PLP.part.metal>
0.0000

> <Gold.PLP.part.buried>
-6.8795

> <Gold.PLP.part.nonpolar>
-45.0635

> <Gold.PLP.part.repulsive>
0.8035

> <Gold.PLP.ligand.clash>
0.0000

> <Gold.PLP.ligand.torsion>
1.3992

> <Gold.PLP.Chemscore.Hbond>
2.0000

> <Gold.PLP.Chemscore.CHOScore>
0.0000

> <Gold.PLP.Chemscore.Metal>
0.0000

> <Gold.Chemscore.Hbonds>
donor molecule, donor type, donor heavy atom, donor atom, acceptor molecule, acceptor atom, score
      P1  H  7997  8009       L1    10  1.00
      P1  H 10752 10765       L1    19  1.00

> <Gold.PLP.Chemscore.Internal.Correction>
0.1116

> <Gold.Rescore>
     Score         DG    S(hbond)    S(metal)    S(lipo)     H(rot)  DE(clash)    DE(int)     intcor
     20.90     -23.65       1.95        0.00     146.40       2.13       0.11       2.64       ----

> <Gold.Chemscore.Fitness>
20.9029

> <Gold.Chemscore.DG>
-23.6541

> <Gold.Chemscore.ZeroCoef>
-5.4800

> <Gold.Chemscore.Hbond>
1.9482

> <Gold.Chemscore.Metal>
0.0000

> <Gold.Chemscore.Lipo>
146.3964

> <Gold.Chemscore.Internal_Hbond>
0.0000

> <Gold.Chemscore.DEClash>
0.1077

> <Gold.Chemscore.DEInternal>
2.6436

> <Gold.Chemscore.Rot>
2.1333

> <Gold.Chemscore.Internal.Correction>
   9.000000E+99

> <Gold.Chemscore.Hbonds>
donor molecule, donor type, donor heavy atom, donor atom, acceptor molecule, acceptor atom, score
      P1  H  7997  8009       L1    10  0.52
      P1  H 10752 10765       L1    19  0.97

> <Gold.Chemscore.Hbond.Weighted>
-6.5071

> <Gold.Chemscore.Metal.Weighted>
-0.0000

> <Gold.Chemscore.Lipo.Weighted>
-17.1284

> <Gold.Chemscore.Internal_Hbond.Weighted>
0.0000

> <Gold.Chemscore.DEClash.Weighted>
0.1077

> <Gold.Chemscore.DEInternal.Weighted>
2.6436

> <Gold.Chemscore.Rot.Weighted>
5.4614

> <Gold.Chemscore.Internal.Correction.Weighted>
   9.000000E+99

> <Gold.Protein.RotatedTorsions>
[ 6907 6896 6895 6894 ] final -148.02 input  -60.11 | X-H torsion
[ 7974 7965 7964 7962 ] final   10.28 input  175.53 | X-H torsion
[ 8008 7997 7996 7995 ] final   91.75 input   59.86 | X-H torsion
[ 10167 10162 10161 10158 ] final  -23.54 input  -65.29 | X-H torsion
[ 10718 10713 10712 10709 ] final   42.60 input   66.30 | X-H torsion
[ 10763 10752 10751 10750 ] final  -48.72 input  -60.55 | X-H torsion
[ 11005 11000 10999 10996 ] final   -8.13 input  -57.11 | X-H torsion

> <Gold.Protein.ActiveResidues>
 VAL166  LYS551  ARG553  GLY616  TRP617  ASP618  TYR619  PRO620  LYS621  CYS622 
 ASP623  PHE694  ASN695  SER759  ASP760  ASP761  ALA762  ILE779  LEU786  VAL792 
 PHE793  MET794  SER795  GLU796  ALA797  LYS798  CYS799  TRP800  GLU811  SER814 

> <Gold.Protein.RotatedAtoms>
  151.1639  133.4827  159.2593 H   0  0  0  0  0  0  0  0  0  0  0  0  # atno 6907 bound_to 6896
  151.1426  135.0187  159.8642 H   0  0  0  0  0  0  0  0  0  0  0  0  # atno 6908 bound_to 6896
  152.5462  134.1531  159.8580 H   0  0  0  0  0  0  0  0  0  0  0  0  # atno 6909 bound_to 6896
  146.2391  139.9657  142.8453 H   0  0  0  0  0  0  0  0  0  0  0  0  # atno 7974 bound_to 7965
  156.0273  140.3334  155.7102 H   0  0  0  0  0  0  0  0  0  0  0  0  # atno 8008 bound_to 7997
  155.5935  140.0648  157.2770 H   0  0  0  0  0  0  0  0  0  0  0  0  # atno 8009 bound_to 7997
  154.4339  140.1823  156.1087 H   0  0  0  0  0  0  0  0  0  0  0  0  # atno 8010 bound_to 7997
  140.7288  143.4434  151.0623 H   0  0  0  0  0  0  0  0  0  0  0  0  # atno 10167 bound_to 10162
  157.4066  130.7890  149.7394 H   0  0  0  0  0  0  0  0  0  0  0  0  # atno 10718 bound_to 10713
  154.0824  135.6589  153.4840 H   0  0  0  0  0  0  0  0  0  0  0  0  # atno 10763 bound_to 10752
  153.0351  135.5183  154.7461 H   0  0  0  0  0  0  0  0  0  0  0  0  # atno 10764 bound_to 10752
  154.6560  135.3008  154.9895 H   0  0  0  0  0  0  0  0  0  0  0  0  # atno 10765 bound_to 10752
  140.7202  133.8835  155.8815 H   0  0  0  0  0  0  0  0  0  0  0  0  # atno 11005 bound_to 11000
  145.1728  140.9729  143.4311 LP  0  0  0  0  0  0  0  0  0  0  0  0  # atno 17320 bound_to 7965
  145.0012  139.3596  143.6166 LP  0  0  0  0  0  0  0  0  0  0  0  0  # atno 17321 bound_to 7965
  139.8103  143.7960  152.3170 LP  0  0  0  0  0  0  0  0  0  0  0  0  # atno 17342 bound_to 10162
  139.8007  144.7375  150.9829 LP  0  0  0  0  0  0  0  0  0  0  0  0  # atno 17343 bound_to 10162
  155.9838  130.3997  150.3343 LP  0  0  0  0  0  0  0  0  0  0  0  0  # atno 17370 bound_to 10713
  157.1477  131.0313  151.2899 LP  0  0  0  0  0  0  0  0  0  0  0  0  # atno 17371 bound_to 10713
  141.0010  134.1150  157.4317 LP  0  0  0  0  0  0  0  0  0  0  0  0  # atno 17394 bound_to 11000
  139.8850  135.0068  156.6406 LP  0  0  0  0  0  0  0  0  0  0  0  0  # atno 17395 bound_to 11000

$$$$
