AV-unprocessed.smi:467|AV-procd|sdf|2650|dock3
  -GOLD-   2262023 63D 1   1.00000     0.00000
 Structure written by MMmdl.
 46 48  0  0  0  0  0  0  0  0  3 V2000
  152.8292  143.2914  160.5354 C   0  0  0  0  0  0  0  0  0  0  0  0
  152.3750  142.5065  159.3164 C   0  0  0  0  0  0  0  0  0  0  0  0
  151.4302  143.0975  158.4475 C   0  0  0  0  0  0  0  0  0  0  0  0
  151.0368  142.3567  157.3395 C   0  0  0  0  0  0  0  0  0  0  0  0
  150.1402  142.6570  156.3121 N   0  3  0  0  0  0  0  0  0  0  0  0
  150.0825  141.6132  155.4400 C   0  0  0  0  0  0  0  0  0  0  0  0
  150.9293  140.6494  155.8944 N   0  0  0  0  0  0  0  0  0  0  0  0
  151.2385  139.3304  155.3222 C   0  0  0  0  0  0  0  0  0  0  0  0
  149.9920  138.6146  154.7657 C   0  0  1  0  0  0  0  0  0  0  0  0
  150.1225  138.4511  153.3661 O   0  0  0  0  0  0  0  0  0  0  0  0
  149.7907  137.2283  155.4097 C   0  0  0  0  0  0  0  0  0  0  0  0
  148.7651  136.4158  154.7059 N   0  3  0  0  0  0  0  0  0  0  0  0
  148.7060  135.0205  155.2032 C   0  0  0  0  0  0  0  0  0  0  0  0
  147.6700  134.2070  154.4085 C   0  0  0  0  0  0  0  0  0  0  0  0
  146.3994  134.8404  154.4911 O   0  0  0  0  0  0  0  0  0  0  0  0
  146.4205  136.1485  153.9341 C   0  0  0  0  0  0  0  0  0  0  0  0
  147.4121  137.0262  154.7167 C   0  0  0  0  0  0  0  0  0  0  0  0
  151.5464  141.0691  157.0800 C   0  0  0  0  0  0  0  0  0  0  0  0
  152.4764  140.4717  157.9282 C   0  0  0  0  0  0  0  0  0  0  0  0
  152.8904  141.2096  159.0605 C   0  0  0  0  0  0  0  0  0  0  0  0
  153.9054  140.5833  160.0017 C   0  0  0  0  0  0  0  0  0  0  0  0
  152.3805  144.2849  160.5602 H   0  0  0  0  0  0  0  0  0  0  0  0
  153.9122  143.4163  160.5312 H   0  0  0  0  0  0  0  0  0  0  0  0
  152.5429  142.7738  161.4512 H   0  0  0  0  0  0  0  0  0  0  0  0
  151.0328  144.0841  158.6366 H   0  0  0  0  0  0  0  0  0  0  0  0
  149.4750  141.5609  154.5479 H   0  0  0  0  0  0  0  0  0  0  0  0
  152.0124  139.4353  154.5615 H   0  0  0  0  0  0  0  0  0  0  0  0
  151.6791  138.7340  156.1224 H   0  0  0  0  0  0  0  0  0  0  0  0
  149.1244  139.2473  154.9504 H   0  0  0  0  0  0  0  0  0  0  0  0
  149.8740  137.5678  153.1393 H   0  0  0  0  0  0  0  0  0  0  0  0
  150.7467  136.7018  155.4054 H   0  0  0  0  0  0  0  0  0  0  0  0
  149.5075  137.3297  156.4586 H   0  0  0  0  0  0  0  0  0  0  0  0
  149.6865  134.5519  155.1098 H   0  0  0  0  0  0  0  0  0  0  0  0
  148.4489  135.0201  156.2639 H   0  0  0  0  0  0  0  0  0  0  0  0
  147.9717  134.1040  153.3647 H   0  0  0  0  0  0  0  0  0  0  0  0
  147.5891  133.1995  154.8171 H   0  0  0  0  0  0  0  0  0  0  0  0
  146.6888  136.1041  152.8772 H   0  0  0  0  0  0  0  0  0  0  0  0
  145.4177  136.5723  153.9906 H   0  0  0  0  0  0  0  0  0  0  0  0
  147.0701  137.1427  155.7464 H   0  0  0  0  0  0  0  0  0  0  0  0
  147.4362  138.0217  154.2749 H   0  0  0  0  0  0  0  0  0  0  0  0
  152.8737  139.4865  157.7362 H   0  0  0  0  0  0  0  0  0  0  0  0
  154.1525  139.5643  159.7020 H   0  0  0  0  0  0  0  0  0  0  0  0
  153.5142  140.5441  161.0187 H   0  0  0  0  0  0  0  0  0  0  0  0
  154.8290  141.1631  160.0073 H   0  0  0  0  0  0  0  0  0  0  0  0
  149.0583  136.3591  153.7406 H   0  0  0  0  0  0  0  0  0  0  0  0
  149.6063  143.5110  156.2114 H   0  0  0  0  0  0  0  0  0  0  0  0
  1  2  1  0  0  0  0
  1 22  1  0  0  0  0
  1 23  1  0  0  0  0
  1 24  1  0  0  0  0
  2 20  1  0  0  0  0
  2  3  2  0  0  0  0
  3  4  1  0  0  0  0
  3 25  1  0  0  0  0
  4 18  2  0  0  0  0
  4  5  1  0  0  0  0
  5  6  2  0  0  0  0
  5 46  1  0  0  0  0
  6  7  1  0  0  0  0
  6 26  1  0  0  0  0
  7  8  1  0  0  0  0
  7 18  1  0  0  0  0
  8  9  1  0  0  0  0
  8 27  1  0  0  0  0
  8 28  1  0  0  0  0
  9 10  1  0  0  0  0
  9 11  1  0  0  0  0
  9 29  1  0  0  0  0
 10 30  1  0  0  0  0
 11 12  1  0  0  0  0
 11 31  1  0  0  0  0
 11 32  1  0  0  0  0
 12 17  1  0  0  0  0
 12 13  1  0  0  0  0
 12 45  1  0  0  0  0
 13 14  1  0  0  0  0
 13 33  1  0  0  0  0
 13 34  1  0  0  0  0
 14 15  1  0  0  0  0
 14 35  1  0  0  0  0
 14 36  1  0  0  0  0
 15 16  1  0  0  0  0
 16 17  1  0  0  0  0
 16 37  1  0  0  0  0
 16 38  1  0  0  0  0
 17 39  1  0  0  0  0
 17 40  1  0  0  0  0
 18 19  1  0  0  0  0
 19 20  2  0  0  0  0
 19 41  1  0  0  0  0
 20 21  1  0  0  0  0
 21 42  1  0  0  0  0
 21 43  1  0  0  0  0
 21 44  1  0  0  0  0
M  CHG  1   5   1
M  CHG  1  12   1
M  END
> <s_m_source_file>
AV-unprocessed.smi

> <i_m_source_file_index>
467

> <i_lp_mmshare_version>
43012

> <i_f3d_flags>
0

> <s_epik_input>
W0NIM11jKFtjSF0xKWMoW0NIM10pW2NIXWMoYzEyKW4oW2NIXW4yKVtDSDJdW0NASF0oW09IXSlbQ0gyXU4zW0NIMl1bQ0gyXU9bQ0gyXVtDSDJdMw==

> <s_epik_cmdline>
J2VwaWtfcHl0aG9uJywgJy1waCcsICc3LjAnLCAnLXRuJywgJzgnLCAnLW1hJywgJzIwMCcsICctbWV0YWxfYmluZGluZycsICctaW1hZScsICc8aW5maWxlLm1hZT4nLCAnLW9tYWUnLCAnPG91dGZpbGUubWFlPic=

> <r_epik_Ionization_Penalty>
1.88533

> <r_epik_Ionization_Penalty_Charging>
1.88531

> <r_epik_Ionization_Penalty_Neutral>
1.42224e-05

> <r_epik_State_Penalty>
1.94609

> <r_epik_Charging_Adjusted_Penalty>
3.8314

> <i_epik_Tot_Q>
2

> <i_epik_Tot_abs_Q>
2

> <r_epik_Metal_State_Penalty>
5.95915

> <b_epik_Metal_Only>
0

> <s_lp_Force_Field>
OPLS_2005

> <r_lp_Energy>
30.7546

> <b_lp_Chiralities_Consistent>
1

> <s_lp_Variant>
AV-unprocessed.smi:467-8

> <Gold.Version>
5.8.1

> <Gold.Id.Protein>
6NUR|6NUR_protein|mol2

> <Gold.PLP.Fitness>
50.5416

> <Gold.PLP.PLP>
-37.7675

> <Gold.PLP.part.hbond>
-4.3254

> <Gold.PLP.part.metal>
0.0000

> <Gold.PLP.part.buried>
-2.4972

> <Gold.PLP.part.nonpolar>
-30.1635

> <Gold.PLP.part.repulsive>
0.1464

> <Gold.PLP.ligand.clash>
0.0000

> <Gold.PLP.ligand.torsion>
1.1037

> <Gold.PLP.Chemscore.Hbond>
4.9833

> <Gold.PLP.Chemscore.CHOScore>
0.0000

> <Gold.PLP.Chemscore.Metal>
0.0000

> <Gold.Chemscore.Hbonds>
donor molecule, donor type, donor heavy atom, donor atom, acceptor molecule, acceptor atom, score
      L1  H     5    46       P1  8028  1.89
      L1  H    10    30       P1  7948  1.00
      L1  H    12    45       P1  7948  2.00

> <Gold.PLP.Chemscore.Internal.Correction>
0.0316

> <Gold.Rescore>
     Score         DG    S(hbond)    S(metal)    S(lipo)     H(rot)  DE(clash)    DE(int)     intcor
     19.49     -20.88       2.89        0.00      96.37       2.16       0.23       1.16       ----

> <Gold.Chemscore.Fitness>
19.4886

> <Gold.Chemscore.DG>
-20.8781

> <Gold.Chemscore.ZeroCoef>
-5.4800

> <Gold.Chemscore.Hbond>
2.8894

> <Gold.Chemscore.Metal>
0.0000

> <Gold.Chemscore.Lipo>
96.3686

> <Gold.Chemscore.Internal_Hbond>
0.0000

> <Gold.Chemscore.DEClash>
0.2275

> <Gold.Chemscore.DEInternal>
1.1620

> <Gold.Chemscore.Rot>
2.1592

> <Gold.Chemscore.Internal.Correction>
   9.000000E+99

> <Gold.Chemscore.Hbonds>
donor molecule, donor type, donor heavy atom, donor atom, acceptor molecule, acceptor atom, score
      L1  H     5    46       P1  8028  0.90
      L1  H    10    30       P1  7948  0.40
      L1  H    12    45       P1  7948  0.98

> <Gold.Chemscore.Hbond.Weighted>
-9.6505

> <Gold.Chemscore.Metal.Weighted>
-0.0000

> <Gold.Chemscore.Lipo.Weighted>
-11.2751

> <Gold.Chemscore.Internal_Hbond.Weighted>
0.0000

> <Gold.Chemscore.DEClash.Weighted>
0.2275

> <Gold.Chemscore.DEInternal.Weighted>
1.1620

> <Gold.Chemscore.Rot.Weighted>
5.5275

> <Gold.Chemscore.Internal.Correction.Weighted>
   9.000000E+99

> <Gold.Protein.RotatedTorsions>
[ 6907 6896 6895 6894 ] final  -54.04 input  -60.11 | X-H torsion
[ 7974 7965 7964 7962 ] final   90.09 input  175.53 | X-H torsion
[ 8008 7997 7996 7995 ] final   71.87 input   59.86 | X-H torsion
[ 10167 10162 10161 10158 ] final   -9.17 input  -65.29 | X-H torsion
[ 10718 10713 10712 10709 ] final   -3.49 input   66.30 | X-H torsion
[ 10763 10752 10751 10750 ] final   17.16 input  -60.55 | X-H torsion
[ 11005 11000 10999 10996 ] final  111.83 input  -57.11 | X-H torsion

> <Gold.Protein.ActiveResidues>
 VAL166  LYS551  ARG553  GLY616  TRP617  ASP618  TYR619  PRO620  LYS621  CYS622 
 ASP623  PHE694  ASN695  SER759  ASP760  ASP761  ALA762  ILE779  LEU786  VAL792 
 PHE793  MET794  SER795  GLU796  ALA797  LYS798  CYS799  TRP800  GLU811  SER814 

> <Gold.Protein.RotatedAtoms>
  150.8373  134.7652  159.6903 H   0  0  0  0  0  0  0  0  0  0  0  0  # atno 6907 bound_to 6896
  152.4468  134.5475  159.9867 H   0  0  0  0  0  0  0  0  0  0  0  0  # atno 6908 bound_to 6896
  151.5623  133.3364  159.3009 H   0  0  0  0  0  0  0  0  0  0  0  0  # atno 6909 bound_to 6896
  145.5236  139.2280  143.2658 H   0  0  0  0  0  0  0  0  0  0  0  0  # atno 7974 bound_to 7965
  155.7604  140.3486  155.5195 H   0  0  0  0  0  0  0  0  0  0  0  0  # atno 8008 bound_to 7997
  155.8919  140.1019  157.1433 H   0  0  0  0  0  0  0  0  0  0  0  0  # atno 8009 bound_to 7997
  154.4034  140.1302  156.4314 H   0  0  0  0  0  0  0  0  0  0  0  0  # atno 8010 bound_to 7997
  140.7080  143.5887  150.8916 H   0  0  0  0  0  0  0  0  0  0  0  0  # atno 10167 bound_to 10162
  156.7753  130.5313  149.5760 H   0  0  0  0  0  0  0  0  0  0  0  0  # atno 10718 bound_to 10713
  153.1364  135.6751  153.9096 H   0  0  0  0  0  0  0  0  0  0  0  0  # atno 10763 bound_to 10752
  153.8566  135.3086  155.3437 H   0  0  0  0  0  0  0  0  0  0  0  0  # atno 10764 bound_to 10752
  154.7751  135.4918  153.9811 H   0  0  0  0  0  0  0  0  0  0  0  0  # atno 10765 bound_to 10752
  139.8913  134.9516  156.6492 H   0  0  0  0  0  0  0  0  0  0  0  0  # atno 11005 bound_to 11000
  146.2090  140.6049  142.9068 LP  0  0  0  0  0  0  0  0  0  0  0  0  # atno 17320 bound_to 7965
  144.7663  140.5537  143.6701 LP  0  0  0  0  0  0  0  0  0  0  0  0  # atno 17321 bound_to 7965
  139.9613  143.6161  152.3001 LP  0  0  0  0  0  0  0  0  0  0  0  0  # atno 17342 bound_to 10162
  139.6714  144.7660  151.1776 LP  0  0  0  0  0  0  0  0  0  0  0  0  # atno 17343 bound_to 10162
  156.1252  130.6139  151.0253 LP  0  0  0  0  0  0  0  0  0  0  0  0  # atno 17370 bound_to 10713
  157.6672  131.0869  150.7700 LP  0  0  0  0  0  0  0  0  0  0  0  0  # atno 17371 bound_to 10713
  140.7534  133.8878  155.8364 LP  0  0  0  0  0  0  0  0  0  0  0  0  # atno 17394 bound_to 11000
  140.9982  134.1186  157.4343 LP  0  0  0  0  0  0  0  0  0  0  0  0  # atno 17395 bound_to 11000

$$$$
