#       Name:                AV-unprocessed.smi:1605
#       Creating user name   scv26
#       Creation time:       Fri Mar 27 07:11:38 2020


#       File generated by GOLD software.
#

@<TRIPOS>MOLECULE
AV-unprocessed.smi:1605
    56    58     1
SMALL
NO_CHARGES


@<TRIPOS>ATOM
      1 ****        -6.3178   2.5807   0.3039 C.3            1 S1                 0.0000
      2 ****        -4.9810   2.4400  -0.1502 O.3            1 S1                 0.0000
      3 ****        -4.5054   1.0999  -0.1621 C.3            1 S1                 0.0000
      4 ****        -4.1242   0.6207   1.2527 C.3            1 S1                 0.0000
      5 ****        -3.4141  -0.7435   1.1938 C.3            1 S1                 0.0000
      6 ****        -2.2186  -0.7214   0.3481 N.3            1 S1                 0.0000
      7 ****        -1.5176  -2.0080   0.3860 C.3            1 S1                 0.0000
      8 ****         0.0213  -1.9360   0.2688 C.3            1 S1                 0.0000
      9 ****         0.5168  -3.2231   0.5843 O.3            1 S1                 0.0000
     10 ****         0.5657  -1.5149  -1.1128 C.3            1 S1                 0.0000
     11 ****         2.0135  -1.5987  -1.1951 N.pl3          1 S1                 0.0000
     12 ****         2.7443  -2.5440  -1.8171 C.2            1 S1                 0.0000
     13 ****         4.0677  -2.4186  -1.7707 N.2            1 S1                 0.0000
     14 ****         4.2118  -1.2549  -1.0342 C.ar           1 S1                 0.0000
     15 ****         5.3746  -0.5645  -0.6274 C.ar           1 S1                 0.0000
     16 ****         5.2837   0.6257   0.1292 C.ar           1 S1                 0.0000
     17 ****         6.5600   1.3372   0.5426 C.3            1 S1                 0.0000
     18 ****         4.0135   1.1433   0.4897 C.ar           1 S1                 0.0000
     19 ****         3.8903   2.4211   1.3008 C.3            1 S1                 0.0000
     20 ****         2.8420   0.4658   0.0921 C.ar           1 S1                 0.0000
     21 ****         2.9458  -0.7173  -0.6602 C.ar           1 S1                 0.0000
     22 ****        -2.6138  -0.3436  -1.0133 C.3            1 S1                 0.0000
     23 ****        -3.2649   1.0478  -1.0679 C.3            1 S1                 0.0000
     24 ****        -6.6093   3.6295   0.2492 H              1 S1                 0.0000
     25 ****        -6.4312   2.2600   1.3393 H              1 S1                 0.0000
     26 ****        -7.0083   2.0100  -0.3184 H              1 S1                 0.0000
     27 ****        -5.2652   0.4389  -0.5835 H              1 S1                 0.0000
     28 ****        -3.4664   1.3520   1.7245 H              1 S1                 0.0000
     29 ****        -5.0078   0.5419   1.8856 H              1 S1                 0.0000
     30 ****        -3.1402  -1.0316   2.2095 H              1 S1                 0.0000
     31 ****        -4.1094  -1.5040   0.8347 H              1 S1                 0.0000
     32 ****        -1.7235  -2.4848   1.3461 H              1 S1                 0.0000
     33 ****        -1.9299  -2.6877  -0.3614 H              1 S1                 0.0000
     34 ****         0.4013  -1.2514   1.0282 H              1 S1                 0.0000
     35 ****         0.1910  -3.8360  -0.0566 H              1 S1                 0.0000
     36 ****         0.1322  -2.1301  -1.9026 H              1 S1                 0.0000
     37 ****         0.2989  -0.4808  -1.3251 H              1 S1                 0.0000
     38 ****         2.2785  -3.3715  -2.3320 H              1 S1                 0.0000
     39 ****         6.3415  -0.9580  -0.9042 H              1 S1                 0.0000
     40 ****         6.6177   2.3184   0.0708 H              1 S1                 0.0000
     41 ****         7.4443   0.7711   0.2482 H              1 S1                 0.0000
     42 ****         6.5938   1.4691   1.6243 H              1 S1                 0.0000
     43 ****         2.8463   2.7033   1.4415 H              1 S1                 0.0000
     44 ****         4.3942   3.2457   0.7958 H              1 S1                 0.0000
     45 ****         4.3383   2.2914   2.2864 H              1 S1                 0.0000
     46 ****         1.8676   0.8473   0.3601 H              1 S1                 0.0000
     47 ****        -1.7597  -0.3482  -1.6839 H              1 S1                 0.0000
     48 ****        -3.3095  -1.0827  -1.4137 H              1 S1                 0.0000
     49 ****        -3.5405   1.2922  -2.0941 H              1 S1                 0.0000
     50 ****        -2.5407   1.8001  -0.7517 H              1 S1                 0.0000
     51 ****        -4.3882   2.9775   0.4496 LP             1 S1                 0.0000
     52 ****        -4.9270   2.7999  -1.0816 LP             1 S1                 0.0000
     53 ****        -1.5704  -0.0433   0.6946 LP             1 S1                 0.0000
     54 ****         0.2044  -3.4905   1.4959 LP             1 S1                 0.0000
     55 ****         1.5166  -3.2137   0.5641 LP             1 S1                 0.0000
     56 ****         4.7726  -3.0089  -2.1639 LP             1 S1                 0.0000
@<TRIPOS>BOND
    1    1    2 1     
    2    1   24 1     
    3    1   25 1     
    4    1   26 1     
    5    2    3 1     
    6    3   23 1     
    7    3    4 1     
    8    3   27 1     
    9    4    5 1     
   10    4   28 1     
   11    4   29 1     
   12    5    6 1     
   13    5   30 1     
   14    5   31 1     
   15    6    7 1     
   16    6   22 1     
   17    7    8 1     
   18    7   32 1     
   19    7   33 1     
   20    8    9 1     
   21    8   10 1     
   22    8   34 1     
   23    9   35 1     
   24   10   11 1     
   25   10   36 1     
   26   10   37 1     
   27   11   21 1     
   28   11   12 1     
   29   12   13 2     
   30   12   38 1     
   31   13   14 1     
   32   14   21 ar    
   33   14   15 ar    
   34   15   16 ar    
   35   15   39 1     
   36   16   17 1     
   37   16   18 ar    
   38   17   40 1     
   39   17   41 1     
   40   17   42 1     
   41   18   19 1     
   42   18   20 ar    
   43   19   43 1     
   44   19   44 1     
   45   19   45 1     
   46   20   21 ar    
   47   20   46 1     
   48   22   23 1     
   49   22   47 1     
   50   22   48 1     
   51   23   49 1     
   52   23   50 1     
   53    2   51 1     
   54    2   52 1     
   55    6   53 1     
   56    9   54 1     
   57    9   55 1     
   58   13   56 1     
@<TRIPOS>SUBSTRUCTURE
      1 S1             1
@<TRIPOS>SET
LONE_PAIRS      STATIC     ATOMS    <user>   **** ""
6 51 52 53 54 55 56
DONOR_HYDROGENS      STATIC     ATOMS    <user>   **** ""
1 35
ATOM$BLUE        STATIC     ATOMS    COLORGROUP SYSTEM
6 51 52 53 54 55 56
ATOM$RED        STATIC     ATOMS    COLORGROUP SYSTEM
1 35
