AV-unprocessed.smi:648|AV-procd|sdf|3175|dock7
  -GOLD-   22720 0103D 1   1.00000     0.00000
 Structure written by MMmdl.
 45 46  0  0  0  0  0  0  0  0  1 V2000
  147.8572  140.2985  153.5369 C   0  0  0  0  0  0  0  0  0  0  0  0
  148.7040  140.1120  154.8047 C   0  0  1  0  0  0  0  0  0  0  0  0
  149.7671  139.0154  154.6022 C   0  0  0  0  0  0  0  0  0  0  0  0
  150.6466  138.7627  155.8492 C   0  0  0  0  0  0  0  0  0  0  0  0
  149.8743  137.9378  156.9049 C   0  0  0  0  0  0  0  0  0  0  0  0
  151.8552  137.8994  155.4244 C   0  0  0  0  0  0  0  0  0  0  0  0
  151.1976  140.1112  156.4081 C   0  0  0  0  0  0  0  0  0  0  0  0
  150.2144  141.3197  156.5236 C   0  0  1  0  0  0  0  0  0  0  0  0
  149.2976  141.1656  157.7683 C   0  0  0  0  0  0  0  0  0  0  0  0
  148.4473  142.2828  157.9479 O   0  0  0  0  0  0  0  0  0  0  0  0
  150.9904  142.5566  156.7723 N   0  0  0  0  0  0  0  0  0  0  0  0
  151.9385  142.6117  157.8917 C   0  0  0  0  0  0  0  0  0  0  0  0
  151.3169  143.3502  159.0845 C   0  0  0  0  0  0  0  0  0  0  0  0
  152.0178  143.0589  160.3194 N   0  0  0  0  0  0  0  0  0  0  0  0
  153.0411  142.2384  160.5631 C   0  0  0  0  0  0  0  0  0  0  0  0
  153.4293  142.2285  161.8309 N   0  0  0  0  0  0  0  0  0  0  0  0
  152.5407  143.1290  162.3479 C   0  0  0  0  0  0  0  0  0  0  0  0
  151.6739  143.6575  161.4838 N   0  0  0  0  0  0  0  0  0  0  0  0
  149.3867  141.4300  155.2116 C   0  0  0  0  0  0  0  0  0  0  0  0
  148.4709  140.6100  152.6911 H   0  0  0  0  0  0  0  0  0  0  0  0
  147.0880  141.0565  153.6866 H   0  0  0  0  0  0  0  0  0  0  0  0
  147.3549  139.3712  153.2600 H   0  0  0  0  0  0  0  0  0  0  0  0
  148.0194  139.8076  155.5951 H   0  0  0  0  0  0  0  0  0  0  0  0
  149.2866  138.0850  154.2960 H   0  0  0  0  0  0  0  0  0  0  0  0
  150.4044  139.3079  153.7662 H   0  0  0  0  0  0  0  0  0  0  0  0
  150.3949  137.9258  157.8630 H   0  0  0  0  0  0  0  0  0  0  0  0
  149.7654  136.9004  156.5862 H   0  0  0  0  0  0  0  0  0  0  0  0
  148.8617  138.2917  157.0753 H   0  0  0  0  0  0  0  0  0  0  0  0
  152.5047  137.6818  156.2732 H   0  0  0  0  0  0  0  0  0  0  0  0
  152.4635  138.3967  154.6679 H   0  0  0  0  0  0  0  0  0  0  0  0
  151.5377  136.9454  155.0018 H   0  0  0  0  0  0  0  0  0  0  0  0
  151.6859  139.9410  157.3687 H   0  0  0  0  0  0  0  0  0  0  0  0
  152.0056  140.3981  155.7385 H   0  0  0  0  0  0  0  0  0  0  0  0
  148.6469  140.3023  157.7027 H   0  0  0  0  0  0  0  0  0  0  0  0
  149.8938  141.0334  158.6722 H   0  0  0  0  0  0  0  0  0  0  0  0
  148.9625  143.0695  157.8535 H   0  0  0  0  0  0  0  0  0  0  0  0
  151.4589  142.8334  155.9150 H   0  0  0  0  0  0  0  0  0  0  0  0
  152.2402  141.6156  158.2100 H   0  0  0  0  0  0  0  0  0  0  0  0
  152.8435  143.1428  157.5991 H   0  0  0  0  0  0  0  0  0  0  0  0
  151.3425  144.4285  158.9202 H   0  0  0  0  0  0  0  0  0  0  0  0
  150.2692  143.0709  159.2053 H   0  0  0  0  0  0  0  0  0  0  0  0
  153.5106  141.6363  159.7988 H   0  0  0  0  0  0  0  0  0  0  0  0
  152.5334  143.4039  163.3924 H   0  0  0  0  0  0  0  0  0  0  0  0
  150.0325  141.7121  154.3807 H   0  0  0  0  0  0  0  0  0  0  0  0
  148.6463  142.2266  155.2917 H   0  0  0  0  0  0  0  0  0  0  0  0
  1  2  1  0  0  0  0
  1 20  1  0  0  0  0
  1 21  1  0  0  0  0
  1 22  1  0  0  0  0
  2 19  1  0  0  0  0
  2  3  1  0  0  0  0
  2 23  1  0  0  0  0
  3  4  1  0  0  0  0
  3 24  1  0  0  0  0
  3 25  1  0  0  0  0
  4  5  1  0  0  0  0
  4  6  1  0  0  0  0
  4  7  1  0  0  0  0
  5 26  1  0  0  0  0
  5 27  1  0  0  0  0
  5 28  1  0  0  0  0
  6 29  1  0  0  0  0
  6 30  1  0  0  0  0
  6 31  1  0  0  0  0
  7  8  1  0  0  0  0
  7 32  1  0  0  0  0
  7 33  1  0  0  0  0
  8  9  1  0  0  0  0
  8 11  1  0  0  0  0
  8 19  1  0  0  0  0
  9 10  1  0  0  0  0
  9 34  1  0  0  0  0
  9 35  1  0  0  0  0
 10 36  1  0  0  0  0
 11 12  1  0  0  0  0
 11 37  1  0  0  0  0
 12 13  1  0  0  0  0
 12 38  1  0  0  0  0
 12 39  1  0  0  0  0
 13 14  1  0  0  0  0
 13 40  1  0  0  0  0
 13 41  1  0  0  0  0
 14 18  1  0  0  0  0
 14 15  1  0  0  0  0
 15 16  2  0  0  0  0
 15 42  1  0  0  0  0
 16 17  1  0  0  0  0
 17 18  2  0  0  0  0
 17 43  1  0  0  0  0
 19 44  1  0  0  0  0
 19 45  1  0  0  0  0
M  END
> <s_m_source_file>
AV-unprocessed.smi

> <i_m_source_file_index>
648

> <i_lp_mmshare_version>
43012

> <i_f3d_flags>
0

> <s_epik_input>
W0NIM11DMShbQ0gzXSlbQ0gyXVtDQEBIXShbQ0gzXSlbQ0gyXVtDQF0oW0NIMl0xKShbQ0gyXVtPSF0pW05IXVtDSDJdW0NIMl1uMltjSF1uW2NIXW4y

> <s_epik_cmdline>
J2VwaWtfcHl0aG9uJywgJy1waCcsICc3LjAnLCAnLXRuJywgJzgnLCAnLW1hJywgJzIwMCcsICctbWV0YWxfYmluZGluZycsICctaW1hZScsICc8aW5maWxlLm1hZT4nLCAnLW9tYWUnLCAnPG91dGZpbGUubWFlPic=

> <r_lp_tautomer_probability>
1

> <r_epik_Ionization_Penalty>
2.45849

> <r_epik_Ionization_Penalty_Charging>
0

> <r_epik_Ionization_Penalty_Neutral>
2.45849

> <r_epik_State_Penalty>
2.62037

> <r_epik_Charging_Adjusted_Penalty>
2.62037

> <i_epik_Tot_Q>
0

> <i_epik_Tot_abs_Q>
0

> <r_epik_Metal_State_Penalty>
2.62024

> <b_epik_Metal_Only>
0

> <s_lp_Force_Field>
OPLS_2005

> <r_lp_Energy>
36.0578

> <b_lp_Chiralities_Consistent>
1

> <s_lp_Variant>
AV-unprocessed.smi:648-6

> <Gold.Version>
5.8.1

> <Gold.Id.Protein>
6NUR|6NUR_protein|mol2

> <Gold.PLP.Fitness>
39.6499

> <Gold.PLP.PLP>
-39.8224

> <Gold.PLP.part.hbond>
-2.3532

> <Gold.PLP.part.metal>
0.0000

> <Gold.PLP.part.buried>
-2.7296

> <Gold.PLP.part.nonpolar>
-34.1784

> <Gold.PLP.part.repulsive>
0.1363

> <Gold.PLP.ligand.clash>
0.0000

> <Gold.PLP.ligand.torsion>
0.4062

> <Gold.PLP.Chemscore.Hbond>
0.2025

> <Gold.PLP.Chemscore.CHOScore>
0.0000

> <Gold.PLP.Chemscore.Metal>
0.0000

> <Gold.PLP.Chemscore.Internal.Correction>
0.0323

> <Gold.Rescore>
     Score         DG    S(hbond)    S(metal)    S(lipo)     H(rot)  DE(clash)    DE(int)     intcor
      6.29      -6.82       0.00        0.00      79.69       3.12       0.04       0.49       ----

> <Gold.Chemscore.Fitness>
6.2925

> <Gold.Chemscore.DG>
-6.8203

> <Gold.Chemscore.ZeroCoef>
-5.4800

> <Gold.Chemscore.Hbond>
0.0000

> <Gold.Chemscore.Metal>
0.0000

> <Gold.Chemscore.Lipo>
79.6858

> <Gold.Chemscore.Internal_Hbond>
0.0000

> <Gold.Chemscore.DEClash>
0.0354

> <Gold.Chemscore.DEInternal>
0.4925

> <Gold.Chemscore.Rot>
3.1183

> <Gold.Chemscore.Internal.Correction>
   9.000000E+99

> <Gold.Chemscore.Hbond.Weighted>
-0.0000

> <Gold.Chemscore.Metal.Weighted>
-0.0000

> <Gold.Chemscore.Lipo.Weighted>
-9.3232

> <Gold.Chemscore.Internal_Hbond.Weighted>
0.0000

> <Gold.Chemscore.DEClash.Weighted>
0.0354

> <Gold.Chemscore.DEInternal.Weighted>
0.4925

> <Gold.Chemscore.Rot.Weighted>
7.9829

> <Gold.Chemscore.Internal.Correction.Weighted>
   9.000000E+99

> <Gold.Protein.RotatedTorsions>
[ 6907 6896 6895 6894 ] final   17.42 input  -60.11 | X-H torsion
[ 7974 7965 7964 7962 ] final   46.24 input  175.53 | X-H torsion
[ 8008 7997 7996 7995 ] final -107.41 input   59.86 | X-H torsion
[ 10167 10162 10161 10158 ] final  118.93 input  -65.29 | X-H torsion
[ 10718 10713 10712 10709 ] final -156.57 input   66.30 | X-H torsion
[ 10763 10752 10751 10750 ] final -127.72 input  -60.55 | X-H torsion
[ 11005 11000 10999 10996 ] final   68.37 input  -57.11 | X-H torsion

> <Gold.Protein.ActiveResidues>
 VAL166  LYS551  ARG553  GLY616  TRP617  ASP618  TYR619  PRO620  LYS621  CYS622 
 ASP623  PHE694  ASN695  SER759  ASP760  ASP761  ALA762  ILE779  LEU786  VAL792 
 PHE793  MET794  SER795  GLU796  ALA797  LYS798  CYS799  TRP800  GLU811  SER814 

> <Gold.Protein.RotatedAtoms>
  151.8493  135.0563  160.0456 H   0  0  0  0  0  0  0  0  0  0  0  0  # atno 6907 bound_to 6896
  152.2749  133.5412  159.5470 H   0  0  0  0  0  0  0  0  0  0  0  0  # atno 6908 bound_to 6896
  150.7166  134.0562  159.3858 H   0  0  0  0  0  0  0  0  0  0  0  0  # atno 6909 bound_to 6896
  146.0407  139.4877  142.9780 H   0  0  0  0  0  0  0  0  0  0  0  0  # atno 7974 bound_to 7965
  154.9289  140.0405  157.2037 H   0  0  0  0  0  0  0  0  0  0  0  0  # atno 8008 bound_to 7997
  154.8180  140.2879  155.5785 H   0  0  0  0  0  0  0  0  0  0  0  0  # atno 8009 bound_to 7997
  156.2977  140.2524  156.3082 H   0  0  0  0  0  0  0  0  0  0  0  0  # atno 8010 bound_to 7997
  139.6079  144.7074  151.2910 H   0  0  0  0  0  0  0  0  0  0  0  0  # atno 10167 bound_to 10162
  156.5283  130.8509  151.2707 H   0  0  0  0  0  0  0  0  0  0  0  0  # atno 10718 bound_to 10713
  154.8753  135.3952  154.3639 H   0  0  0  0  0  0  0  0  0  0  0  0  # atno 10763 bound_to 10752
  153.4408  135.7027  153.6175 H   0  0  0  0  0  0  0  0  0  0  0  0  # atno 10764 bound_to 10752
  153.4757  135.3780  155.2384 H   0  0  0  0  0  0  0  0  0  0  0  0  # atno 10765 bound_to 10752
  139.9716  134.6891  156.0436 H   0  0  0  0  0  0  0  0  0  0  0  0  # atno 11005 bound_to 11000
  145.6889  141.0170  143.1566 LP  0  0  0  0  0  0  0  0  0  0  0  0  # atno 17320 bound_to 7965
  144.7073  139.8509  143.7426 LP  0  0  0  0  0  0  0  0  0  0  0  0  # atno 17321 bound_to 7965
  140.7298  143.6897  150.7932 LP  0  0  0  0  0  0  0  0  0  0  0  0  # atno 17342 bound_to 10162
  140.0486  143.5273  152.2684 LP  0  0  0  0  0  0  0  0  0  0  0  0  # atno 17343 bound_to 10162
  157.7426  130.9893  150.2527 LP  0  0  0  0  0  0  0  0  0  0  0  0  # atno 17370 bound_to 10713
  156.3084  130.3768  149.7685 LP  0  0  0  0  0  0  0  0  0  0  0  0  # atno 17371 bound_to 10713
  141.1395  133.6568  156.3688 LP  0  0  0  0  0  0  0  0  0  0  0  0  # atno 17394 bound_to 11000
  140.5282  134.6238  157.5341 LP  0  0  0  0  0  0  0  0  0  0  0  0  # atno 17395 bound_to 11000

$$$$
