#       Name:                AV-unprocessed.smi:958
#       Creating user name   scv26
#       Creation time:       Fri Mar 27 02:17:45 2020


#       File generated by GOLD software.
#

@<TRIPOS>MOLECULE
AV-unprocessed.smi:958
    33    35     1
SMALL
NO_CHARGES


@<TRIPOS>ATOM
      1 ****        -3.2439   0.3193  -0.2675 C.2            1 S1                 0.0000
      2 ****        -3.3586  -0.9837  -0.5179 N.2            1 S1                 0.0000
      3 ****        -2.0594  -1.4451  -0.5524 N.2            1 S1                 0.0000
      4 ****        -1.2867  -0.3751  -0.3232 C.2            1 S1                 0.0000
      5 ****         0.2152  -0.4329  -0.3026 C.3            1 S1                 0.0000
      6 ****         0.7946  -0.8720  -1.6612 C.3            1 S1                 0.0000
      7 ****         2.3280  -0.9426  -1.5967 C.3            1 S1                 0.0000
      8 ****         2.7879  -1.8429  -0.4382 C.3            1 S1                 0.0000
      9 ****         2.2169  -1.3756   0.8435 N.4            1 S1                 1.0000
     10 ****         0.7379  -1.3340   0.8353 C.3            1 S1                 0.0000
     11 ****        -1.9859   0.7608  -0.1099 N.pl3          1 S1                 0.0000
     12 ****        -1.5284   2.1187   0.1343 C.3            1 S1                 0.0000
     13 ****        -0.8770   2.3266   1.4825 C.3            1 S1                 0.0000
     14 ****        -2.2713   2.8545   1.2272 C.3            1 S1                 0.0000
     15 ****        -4.1036   0.9692  -0.1947 H              1 S1                 0.0000
     16 ****         0.5913   0.5723  -0.1131 H              1 S1                 0.0000
     17 ****         0.3997  -1.8505  -1.9383 H              1 S1                 0.0000
     18 ****         0.4864  -0.1786  -2.4446 H              1 S1                 0.0000
     19 ****         2.7240  -1.3179  -2.5408 H              1 S1                 0.0000
     20 ****         2.7361   0.0607  -1.4666 H              1 S1                 0.0000
     21 ****         2.4809  -2.8750  -0.6135 H              1 S1                 0.0000
     22 ****         3.8757  -1.8415  -0.3655 H              1 S1                 0.0000
     23 ****         2.5234  -1.9919   1.5829 H              1 S1                 0.0000
     24 ****         0.3916  -0.9651   1.8011 H              1 S1                 0.0000
     25 ****         0.3571  -2.3507   0.7274 H              1 S1                 0.0000
     26 ****        -1.1693   2.6339  -0.7543 H              1 S1                 0.0000
     27 ****        -0.7788   1.4685   2.1449 H              1 S1                 0.0000
     28 ****        -0.0705   3.0546   1.5417 H              1 S1                 0.0000
     29 ****        -2.3859   3.9307   1.1163 H              1 S1                 0.0000
     30 ****        -3.0926   2.3513   1.7341 H              1 S1                 0.0000
     31 ****         2.5642  -0.4457   1.0299 H              1 S1                 0.0000
     32 ****        -4.1986  -1.5097  -0.6511 LP             1 S1                 0.0000
     33 ****        -1.7567  -2.3843  -0.7149 LP             1 S1                 0.0000
@<TRIPOS>BOND
    1    1   11 1     
    2    1    2 2     
    3    1   15 1     
    4    2    3 1     
    5    3    4 2     
    6    4    5 1     
    7    4   11 1     
    8    5   10 1     
    9    5    6 1     
   10    5   16 1     
   11    6    7 1     
   12    6   17 1     
   13    6   18 1     
   14    7    8 1     
   15    7   19 1     
   16    7   20 1     
   17    8    9 1     
   18    8   21 1     
   19    8   22 1     
   20    9   10 1     
   21    9   23 1     
   22    9   31 1     
   23   10   24 1     
   24   10   25 1     
   25   11   12 1     
   26   12   14 1     
   27   12   13 1     
   28   12   26 1     
   29   13   14 1     
   30   13   27 1     
   31   13   28 1     
   32   14   29 1     
   33   14   30 1     
   34    2   32 1     
   35    3   33 1     
@<TRIPOS>SUBSTRUCTURE
      1 S1             1
@<TRIPOS>SET
LONE_PAIRS      STATIC     ATOMS    <user>   **** ""
2 32 33
DONOR_HYDROGENS      STATIC     ATOMS    <user>   **** ""
2 23 31
ATOM$BLUE        STATIC     ATOMS    COLORGROUP SYSTEM
2 32 33
ATOM$RED        STATIC     ATOMS    COLORGROUP SYSTEM
2 23 31
