AV-unprocessed.smi:72|AV-procd|sdf|744|dock7
  -GOLD-   2262017 73D 1   1.00000     0.00000
 Structure written by MMmdl.
 29 30  0  0  0  0  0  0  0  0  1 V2000
  150.7134  130.8499  154.7113 N   0  0  0  0  0  0  0  0  0  0  0  0
  149.5019  131.2912  154.2221 C   0  0  0  0  0  0  0  0  0  0  0  0
  149.4402  132.6366  153.8342 N   0  0  0  0  0  0  0  0  0  0  0  0
  148.3038  133.0575  153.3765 C   0  0  0  0  0  0  0  0  0  0  0  0
  147.1563  132.1711  153.2753 N   0  0  0  0  0  0  0  0  0  0  0  0
  145.8118  132.6355  152.7426 C   0  0  1  0  0  0  0  0  0  0  0  0
  145.8349  134.0183  152.5266 O   0  0  0  0  0  0  0  0  0  0  0  0
  145.8315  134.2994  151.1292 C   0  0  2  0  0  0  0  0  0  0  0  0
  145.2573  135.7026  150.8819 C   0  0  0  0  0  0  0  0  0  0  0  0
  145.2856  136.0018  149.5027 O   0  0  0  0  0  0  0  0  0  0  0  0
  144.9529  133.1717  150.5897 C   0  0  1  0  0  0  0  0  0  0  0  0
  145.0753  132.9913  149.1912 O   0  0  0  0  0  0  0  0  0  0  0  0
  145.4190  131.9678  151.4029 C   0  0  1  0  0  0  0  0  0  0  0  0
  146.4897  131.2801  150.7724 O   0  0  0  0  0  0  0  0  0  0  0  0
  147.2935  130.8152  153.6815 C   0  0  0  0  0  0  0  0  0  0  0  0
  146.3385  130.0437  153.5882 O   0  0  0  0  0  0  0  0  0  0  0  0
  148.5418  130.4132  154.1707 N   0  0  0  0  0  0  0  0  0  0  0  0
  145.0963  132.4453  153.5444 H   0  0  0  0  0  0  0  0  0  0  0  0
  146.8401  134.2059  150.7220 H   0  0  0  0  0  0  0  0  0  0  0  0
  143.9085  133.3787  150.8287 H   0  0  0  0  0  0  0  0  0  0  0  0
  144.6067  131.2603  151.5715 H   0  0  0  0  0  0  0  0  0  0  0  0
  150.8744  129.9022  155.0197 H   0  0  0  0  0  0  0  0  0  0  0  0
  151.5283  131.4400  154.7955 H   0  0  0  0  0  0  0  0  0  0  0  0
  148.1444  134.0834  153.0449 H   0  0  0  0  0  0  0  0  0  0  0  0
  144.2161  135.7442  151.2032 H   0  0  0  0  0  0  0  0  0  0  0  0
  145.8015  136.4600  151.4467 H   0  0  0  0  0  0  0  0  0  0  0  0
  144.7572  136.7705  149.3510 H   0  0  0  0  0  0  0  0  0  0  0  0
  145.4990  133.7535  148.8274 H   0  0  0  0  0  0  0  0  0  0  0  0
  147.2625  131.8222  150.8188 H   0  0  0  0  0  0  0  0  0  0  0  0
  1  2  1  0  0  0  0
  1 22  1  0  0  0  0
  1 23  1  0  0  0  0
  2 17  2  0  0  0  0
  2  3  1  0  0  0  0
  3  4  2  0  0  0  0
  4  5  1  0  0  0  0
  4 24  1  0  0  0  0
  5  6  1  0  0  0  0
  5 15  1  0  0  0  0
  6 18  1  0  0  0  0
  6 13  1  0  0  0  0
  6  7  1  0  0  0  0
  7  8  1  0  0  0  0
  8 19  1  0  0  0  0
  8  9  1  0  0  0  0
  8 11  1  0  0  0  0
  9 10  1  0  0  0  0
  9 25  1  0  0  0  0
  9 26  1  0  0  0  0
 10 27  1  0  0  0  0
 11 20  1  0  0  0  0
 11 12  1  0  0  0  0
 11 13  1  0  0  0  0
 12 28  1  0  0  0  0
 13 21  1  0  0  0  0
 13 14  1  0  0  0  0
 14 29  1  0  0  0  0
 15 16  2  0  0  0  0
 15 17  1  0  0  0  0
M  END
> <s_m_source_file>
AV-unprocessed.smi

> <i_m_source_file_index>
72

> <i_lp_mmshare_version>
43012

> <i_f3d_flags>
0

> <s_epik_input>
W05IMl1jMW5bY0hdbihjKD1PKW4xKVtDQEBIXTJPW0NASF0oW0NIMl1bT0hdKVtDQEBIXShbT0hdKVtDQEhdMltPSF0=

> <s_epik_cmdline>
J2VwaWtfcHl0aG9uJywgJy1waCcsICc3LjAnLCAnLXRuJywgJzgnLCAnLW1hJywgJzIwMCcsICctbWV0YWxfYmluZGluZycsICctaW1hZScsICc8aW5maWxlLm1hZT4nLCAnLW9tYWUnLCAnPG91dGZpbGUubWFlPic=

> <r_lp_tautomer_probability>
4.77166e-05

> <r_epik_Ionization_Penalty>
1.3546

> <r_epik_Ionization_Penalty_Charging>
1.46833e-10

> <r_epik_Ionization_Penalty_Neutral>
1.3546

> <r_epik_State_Penalty>
3.51908

> <r_epik_Charging_Adjusted_Penalty>
3.51908

> <i_epik_Tot_Q>
0

> <i_epik_Tot_abs_Q>
0

> <r_epik_Metal_State_Penalty>
3.44088

> <b_epik_Metal_Only>
1

> <s_epik_Chemistry_Notes>
This compound contains an acetal/aminal-like group ( X-CH(R)-Y where X, Y are N, S, or O) that may be acid/base labile, releasing an aldehyde.

> <s_lp_Force_Field>
OPLS_2005

> <r_lp_Energy>
34.5765

> <b_lp_Chiralities_Consistent>
1

> <s_lp_Variant>
AV-unprocessed.smi:72-82

> <Gold.Version>
5.8.1

> <Gold.Id.Protein>
6NUR|6NUR_protein|mol2

> <Gold.PLP.Fitness>
35.1355

> <Gold.PLP.PLP>
-25.4691

> <Gold.PLP.part.hbond>
-3.4428

> <Gold.PLP.part.metal>
0.0000

> <Gold.PLP.part.buried>
-4.3036

> <Gold.PLP.part.nonpolar>
-16.9833

> <Gold.PLP.part.repulsive>
0.4688

> <Gold.PLP.ligand.clash>
0.0000

> <Gold.PLP.ligand.torsion>
0.0933

> <Gold.PLP.Chemscore.Hbond>
2.2808

> <Gold.PLP.Chemscore.CHOScore>
0.9828

> <Gold.PLP.Chemscore.Metal>
0.0000

> <Gold.Chemscore.Hbonds>
donor molecule, donor type, donor heavy atom, donor atom, acceptor molecule, acceptor atom, score
      L1  H    10    27       P1 10171  0.98
      L1  H    12    28       P1  7921  1.00
      L1  H    14    29       P1 10747  0.27
      L1  C     4    24       P1  7948  0.98

> <Gold.PLP.Chemscore.Internal.Correction>
0.0623

> <Gold.Rescore>
     Score         DG    S(hbond)    S(metal)    S(lipo)     H(rot)  DE(clash)    DE(int)     intcor
      4.76      -5.08       2.08        0.00      25.89       4.06       0.10       0.22       ----

> <Gold.Chemscore.Fitness>
4.7581

> <Gold.Chemscore.DG>
-5.0786

> <Gold.Chemscore.ZeroCoef>
-5.4800

> <Gold.Chemscore.Hbond>
2.0848

> <Gold.Chemscore.Metal>
0.0000

> <Gold.Chemscore.Lipo>
25.8896

> <Gold.Chemscore.Internal_Hbond>
0.0000

> <Gold.Chemscore.DEClash>
0.0959

> <Gold.Chemscore.DEInternal>
0.2246

> <Gold.Chemscore.Rot>
4.0600

> <Gold.Chemscore.Internal.Correction>
   9.000000E+99

> <Gold.Chemscore.Hbonds>
donor molecule, donor type, donor heavy atom, donor atom, acceptor molecule, acceptor atom, score
      L1  H    10    27       P1 10171  0.92
      L1  H    12    28       P1  7921  0.50
      L1  H    14    29       P1 10747  0.26

> <Gold.Chemscore.Hbond.Weighted>
-6.9631

> <Gold.Chemscore.Metal.Weighted>
-0.0000

> <Gold.Chemscore.Lipo.Weighted>
-3.0291

> <Gold.Chemscore.Internal_Hbond.Weighted>
0.0000

> <Gold.Chemscore.DEClash.Weighted>
0.0959

> <Gold.Chemscore.DEInternal.Weighted>
0.2246

> <Gold.Chemscore.Rot.Weighted>
10.3936

> <Gold.Chemscore.Internal.Correction.Weighted>
   9.000000E+99

> <Gold.Protein.RotatedTorsions>
[ 6907 6896 6895 6894 ] final  -31.20 input  -60.11 | X-H torsion
[ 7974 7965 7964 7962 ] final  142.25 input  175.53 | X-H torsion
[ 8008 7997 7996 7995 ] final   64.35 input   59.86 | X-H torsion
[ 10167 10162 10161 10158 ] final  -70.19 input  -65.29 | X-H torsion
[ 10718 10713 10712 10709 ] final   99.84 input   66.30 | X-H torsion
[ 10763 10752 10751 10750 ] final  169.02 input  -60.55 | X-H torsion
[ 11005 11000 10999 10996 ] final -102.03 input  -57.11 | X-H torsion

> <Gold.Protein.ActiveResidues>
 VAL166  LYS551  ARG553  GLY616  TRP617  ASP618  TYR619  PRO620  LYS621  CYS622 
 ASP623  PHE694  ASN695  SER759  ASP760  ASP761  ALA762  ILE779  LEU786  VAL792 
 PHE793  MET794  SER795  GLU796  ALA797  LYS798  CYS799  TRP800  GLU811  SER814 

> <Gold.Protein.RotatedAtoms>
  151.0953  134.9940  159.8422 H   0  0  0  0  0  0  0  0  0  0  0  0  # atno 6907 bound_to 6896
  152.5432  134.2016  159.8724 H   0  0  0  0  0  0  0  0  0  0  0  0  # atno 6908 bound_to 6896
  151.2055  133.4542  159.2630 H   0  0  0  0  0  0  0  0  0  0  0  0  # atno 6909 bound_to 6896
  144.9025  139.5404  143.5747 H   0  0  0  0  0  0  0  0  0  0  0  0  # atno 7974 bound_to 7965
  155.6446  140.3497  155.4727 H   0  0  0  0  0  0  0  0  0  0  0  0  # atno 8008 bound_to 7997
  155.9898  140.1191  157.0672 H   0  0  0  0  0  0  0  0  0  0  0  0  # atno 8009 bound_to 7997
  154.4215  140.1122  156.5535 H   0  0  0  0  0  0  0  0  0  0  0  0  # atno 8010 bound_to 7997
  140.5372  143.2317  151.7156 H   0  0  0  0  0  0  0  0  0  0  0  0  # atno 10167 bound_to 10162
  157.6867  131.0681  150.5010 H   0  0  0  0  0  0  0  0  0  0  0  0  # atno 10718 bound_to 10713
  154.3771  135.2753  155.2233 H   0  0  0  0  0  0  0  0  0  0  0  0  # atno 10763 bound_to 10752
  154.4355  135.5967  153.6099 H   0  0  0  0  0  0  0  0  0  0  0  0  # atno 10764 bound_to 10752
  152.9836  135.6006  154.4009 H   0  0  0  0  0  0  0  0  0  0  0  0  # atno 10765 bound_to 10752
  141.1206  133.8526  157.1308 H   0  0  0  0  0  0  0  0  0  0  0  0  # atno 11005 bound_to 11000
  146.3116  139.7766  142.9015 LP  0  0  0  0  0  0  0  0  0  0  0  0  # atno 17320 bound_to 7965
  145.3593  141.0322  143.3294 LP  0  0  0  0  0  0  0  0  0  0  0  0  # atno 17321 bound_to 7965
  139.4975  144.4025  152.0166 LP  0  0  0  0  0  0  0  0  0  0  0  0  # atno 17342 bound_to 10162
  140.3131  144.3515  150.6028 LP  0  0  0  0  0  0  0  0  0  0  0  0  # atno 17343 bound_to 10162
  156.5332  130.4190  149.6191 LP  0  0  0  0  0  0  0  0  0  0  0  0  # atno 17370 bound_to 10713
  156.3051  130.7198  151.2078 LP  0  0  0  0  0  0  0  0  0  0  0  0  # atno 17371 bound_to 10713
  140.0161  134.9967  157.0495 LP  0  0  0  0  0  0  0  0  0  0  0  0  # atno 17394 bound_to 11000
  140.4518  134.1574  155.7182 LP  0  0  0  0  0  0  0  0  0  0  0  0  # atno 17395 bound_to 11000

$$$$
