AV-unprocessed.smi:2883|AV-procd|sdf|11079|dock7
  -GOLD-   2272015553D 1   1.00000     0.00000
 Structure written by MMmdl.
 39 41  0  0  0  0  0  0  0  0  1 V2000
  150.0147  143.8683  158.9723 C   0  0  0  0  0  0  0  0  0  0  0  0
  151.5503  144.0372  159.0501 C   0  0  0  0  0  0  0  0  0  0  0  0
  152.0119  144.4241  157.6247 C   0  0  0  0  0  0  0  0  0  0  0  0
  151.8950  145.1730  160.0305 C   0  0  0  0  0  0  0  0  0  0  0  0
  152.2281  142.7368  159.5142 C   0  0  0  0  0  0  0  0  0  0  0  0
  152.9739  142.7951  160.6256 N   0  0  0  0  0  0  0  0  0  0  0  0
  153.6725  141.6917  160.9668 C   0  0  0  0  0  0  0  0  0  0  0  0
  153.6540  140.5275  160.1745 C   0  0  0  0  0  0  0  0  0  0  0  0
  152.8729  140.5787  159.0032 C   0  0  0  0  0  0  0  0  0  0  0  0
  152.8190  139.4604  158.1599 N   0  0  0  0  0  0  0  0  0  0  0  0
  151.7360  139.2993  157.1956 C   0  0  2  0  0  0  0  0  0  0  0  0
  151.9007  138.0604  156.3059 C   0  0  0  0  0  0  0  0  0  0  0  0
  151.8477  138.6704  154.8999 C   0  0  1  0  0  0  0  0  0  0  0  0
  150.4529  139.2061  154.5492 C   0  0  0  0  0  0  0  0  0  0  0  0
  150.3781  140.4687  155.4075 C   0  0  0  0  0  0  0  0  0  0  0  0
  151.7210  140.4267  156.1495 C   0  0  2  0  0  0  0  0  0  0  0  0
  152.5445  139.8820  155.1305 O   0  0  0  0  0  0  0  0  0  0  0  0
  152.1801  141.6938  158.6754 N   0  0  0  0  0  0  0  0  0  0  0  0
  149.5338  144.7734  158.5994 H   0  0  0  0  0  0  0  0  0  0  0  0
  149.5763  143.6599  159.9488 H   0  0  0  0  0  0  0  0  0  0  0  0
  149.7381  143.0518  158.3042 H   0  0  0  0  0  0  0  0  0  0  0  0
  151.8081  143.6251  156.9107 H   0  0  0  0  0  0  0  0  0  0  0  0
  153.0808  144.6379  157.5841 H   0  0  0  0  0  0  0  0  0  0  0  0
  151.4986  145.3189  157.2707 H   0  0  0  0  0  0  0  0  0  0  0  0
  151.4328  146.1136  159.7290 H   0  0  0  0  0  0  0  0  0  0  0  0
  152.9719  145.3377  160.0826 H   0  0  0  0  0  0  0  0  0  0  0  0
  151.5491  144.9441  161.0390 H   0  0  0  0  0  0  0  0  0  0  0  0
  154.2553  141.7402  161.8745 H   0  0  0  0  0  0  0  0  0  0  0  0
  154.2161  139.6478  160.4510 H   0  0  0  0  0  0  0  0  0  0  0  0
  153.4370  138.6794  158.3268 H   0  0  0  0  0  0  0  0  0  0  0  0
  150.7847  139.2823  157.7295 H   0  0  0  0  0  0  0  0  0  0  0  0
  152.8644  137.5744  156.4664 H   0  0  0  0  0  0  0  0  0  0  0  0
  151.1180  137.3189  156.4696 H   0  0  0  0  0  0  0  0  0  0  0  0
  152.2879  138.0385  154.1281 H   0  0  0  0  0  0  0  0  0  0  0  0
  150.3866  139.4589  153.4904 H   0  0  0  0  0  0  0  0  0  0  0  0
  149.6650  138.4884  154.7806 H   0  0  0  0  0  0  0  0  0  0  0  0
  150.3139  141.3556  154.7761 H   0  0  0  0  0  0  0  0  0  0  0  0
  149.5247  140.4708  156.0863 H   0  0  0  0  0  0  0  0  0  0  0  0
  152.0417  141.3993  156.5246 H   0  0  0  0  0  0  0  0  0  0  0  0
  1  2  1  0  0  0  0
  1 19  1  0  0  0  0
  1 20  1  0  0  0  0
  1 21  1  0  0  0  0
  2  3  1  0  0  0  0
  2  4  1  0  0  0  0
  2  5  1  0  0  0  0
  3 22  1  0  0  0  0
  3 23  1  0  0  0  0
  3 24  1  0  0  0  0
  4 25  1  0  0  0  0
  4 26  1  0  0  0  0
  4 27  1  0  0  0  0
  5 18  1  0  0  0  0
  5  6  2  0  0  0  0
  6  7  1  0  0  0  0
  7  8  2  0  0  0  0
  7 28  1  0  0  0  0
  8  9  1  0  0  0  0
  8 29  1  0  0  0  0
  9 10  1  0  0  0  0
  9 18  2  0  0  0  0
 10 11  1  0  0  0  0
 10 30  1  0  0  0  0
 11 16  1  0  0  0  0
 11 12  1  0  0  0  0
 11 31  1  0  0  0  0
 12 13  1  0  0  0  0
 12 32  1  0  0  0  0
 12 33  1  0  0  0  0
 13 17  1  0  0  0  0
 13 14  1  0  0  0  0
 13 34  1  0  0  0  0
 14 15  1  0  0  0  0
 14 35  1  0  0  0  0
 14 36  1  0  0  0  0
 15 16  1  0  0  0  0
 15 37  1  0  0  0  0
 15 38  1  0  0  0  0
 16 17  1  0  0  0  0
 16 39  1  0  0  0  0
M  END
> <s_m_source_file>
AV-unprocessed.smi

> <i_m_source_file_index>
2883

> <i_lp_mmshare_version>
43012

> <i_f3d_flags>
0

> <s_epik_input>
W0NIM11DKFtDSDNdKShbQ0gzXSljMW5bY0hdW2NIXWMobjEpW05IXVtDQEhdKFtDSDJdW0NAQEhdMjMpW0NAQEhdKE8zKVtDSDJdW0NIMl0y

> <s_epik_cmdline>
J2VwaWtfcHl0aG9uJywgJy1waCcsICc3LjAnLCAnLXRuJywgJzgnLCAnLW1hJywgJzIwMCcsICctbWV0YWxfYmluZGluZycsICctaW1hZScsICc8aW5maWxlLm1hZT4nLCAnLW9tYWUnLCAnPG91dGZpbGUubWFlPic=

> <r_lp_tautomer_probability>
1

> <r_epik_Ionization_Penalty>
0.453006

> <r_epik_Ionization_Penalty_Charging>
0

> <r_epik_Ionization_Penalty_Neutral>
0.453006

> <r_epik_State_Penalty>
0.455155

> <r_epik_Charging_Adjusted_Penalty>
0.455155

> <i_epik_Tot_Q>
0

> <i_epik_Tot_abs_Q>
0

> <r_epik_Metal_State_Penalty>
0.255592

> <b_epik_Metal_Only>
0

> <s_lp_Force_Field>
OPLS_2005

> <r_lp_Energy>
33.3258

> <b_lp_Chiralities_Consistent>
1

> <s_lp_Variant>
AV-unprocessed.smi:2883-5

> <Gold.Version>
5.8.1

> <Gold.Id.Protein>
6NUR|6NUR_protein|mol2

> <Gold.PLP.Fitness>
46.2853

> <Gold.PLP.PLP>
-42.6698

> <Gold.PLP.part.hbond>
-1.9637

> <Gold.PLP.part.metal>
0.0000

> <Gold.PLP.part.buried>
-5.1960

> <Gold.PLP.part.nonpolar>
-35.9064

> <Gold.PLP.part.repulsive>
0.1211

> <Gold.PLP.ligand.clash>
0.0000

> <Gold.PLP.ligand.torsion>
0.2087

> <Gold.PLP.Chemscore.Hbond>
1.2934

> <Gold.PLP.Chemscore.CHOScore>
0.0000

> <Gold.PLP.Chemscore.Metal>
0.0000

> <Gold.Chemscore.Hbonds>
donor molecule, donor type, donor heavy atom, donor atom, acceptor molecule, acceptor atom, score
      P1  H  7989  7998       L1    17  0.32
      P1  H  7997  8010       L1    17  0.91

> <Gold.PLP.Chemscore.Internal.Correction>
0.1526

> <Gold.Rescore>
     Score         DG    S(hbond)    S(metal)    S(lipo)     H(rot)  DE(clash)    DE(int)     intcor
     15.42     -17.03       0.91        0.00      97.89       1.15       0.08       1.54       ----

> <Gold.Chemscore.Fitness>
15.4154

> <Gold.Chemscore.DG>
-17.0321

> <Gold.Chemscore.ZeroCoef>
-5.4800

> <Gold.Chemscore.Hbond>
0.9097

> <Gold.Chemscore.Metal>
0.0000

> <Gold.Chemscore.Lipo>
97.8897

> <Gold.Chemscore.Internal_Hbond>
0.0000

> <Gold.Chemscore.DEClash>
0.0811

> <Gold.Chemscore.DEInternal>
1.5357

> <Gold.Chemscore.Rot>
1.1482

> <Gold.Chemscore.Internal.Correction>
   9.000000E+99

> <Gold.Chemscore.Hbonds>
donor molecule, donor type, donor heavy atom, donor atom, acceptor molecule, acceptor atom, score
      P1  H  7989  7998       L1    17  0.01
      P1  H  7997  8010       L1    17  0.22

> <Gold.Chemscore.Hbond.Weighted>
-3.0383

> <Gold.Chemscore.Metal.Weighted>
-0.0000

> <Gold.Chemscore.Lipo.Weighted>
-11.4531

> <Gold.Chemscore.Internal_Hbond.Weighted>
0.0000

> <Gold.Chemscore.DEClash.Weighted>
0.0811

> <Gold.Chemscore.DEInternal.Weighted>
1.5357

> <Gold.Chemscore.Rot.Weighted>
2.9393

> <Gold.Chemscore.Internal.Correction.Weighted>
   9.000000E+99

> <Gold.Protein.RotatedTorsions>
[ 6907 6896 6895 6894 ] final  143.57 input  -60.11 | X-H torsion
[ 7974 7965 7964 7962 ] final   -3.58 input  175.53 | X-H torsion
[ 8008 7997 7996 7995 ] final   99.35 input   59.86 | X-H torsion
[ 10167 10162 10161 10158 ] final  -77.98 input  -65.29 | X-H torsion
[ 10718 10713 10712 10709 ] final  154.44 input   66.30 | X-H torsion
[ 10763 10752 10751 10750 ] final   58.33 input  -60.55 | X-H torsion
[ 11005 11000 10999 10996 ] final   -5.42 input  -57.11 | X-H torsion

> <Gold.Protein.ActiveResidues>
 VAL166  LYS551  ARG553  GLY616  TRP617  ASP618  TYR619  PRO620  LYS621  CYS622 
 ASP623  PHE694  ASN695  SER759  ASP760  ASP761  ALA762  ILE779  LEU786  VAL792 
 PHE793  MET794  SER795  GLU796  ALA797  LYS798  CYS799  TRP800  GLU811  SER814 

> <Gold.Protein.RotatedAtoms>
  152.2047  133.4866  159.5077 H   0  0  0  0  0  0  0  0  0  0  0  0  # atno 6907 bound_to 6896
  150.6977  134.1545  159.4162 H   0  0  0  0  0  0  0  0  0  0  0  0  # atno 6908 bound_to 6896
  151.9463  135.0189  160.0590 H   0  0  0  0  0  0  0  0  0  0  0  0  # atno 6909 bound_to 6896
  146.2387  140.1743  142.8332 H   0  0  0  0  0  0  0  0  0  0  0  0  # atno 7974 bound_to 7965
  156.1096  140.3230  155.8054 H   0  0  0  0  0  0  0  0  0  0  0  0  # atno 8008 bound_to 7997
  155.4695  140.0545  157.2998 H   0  0  0  0  0  0  0  0  0  0  0  0  # atno 8009 bound_to 7997
  154.4751  140.2028  155.9912 H   0  0  0  0  0  0  0  0  0  0  0  0  # atno 8010 bound_to 7997
  140.4722  143.2423  151.8187 H   0  0  0  0  0  0  0  0  0  0  0  0  # atno 10167 bound_to 10162
  157.2315  131.0740  151.1850 H   0  0  0  0  0  0  0  0  0  0  0  0  # atno 10718 bound_to 10713
  152.9868  135.5610  154.5535 H   0  0  0  0  0  0  0  0  0  0  0  0  # atno 10763 bound_to 10752
  154.4967  135.2795  155.1455 H   0  0  0  0  0  0  0  0  0  0  0  0  # atno 10764 bound_to 10752
  154.2902  135.6327  153.5435 H   0  0  0  0  0  0  0  0  0  0  0  0  # atno 10765 bound_to 10752
  140.6909  133.9072  155.8617 H   0  0  0  0  0  0  0  0  0  0  0  0  # atno 11005 bound_to 11000
  144.9986  140.8611  143.5295 LP  0  0  0  0  0  0  0  0  0  0  0  0  # atno 17320 bound_to 7965
  145.1759  139.2378  143.5318 LP  0  0  0  0  0  0  0  0  0  0  0  0  # atno 17321 bound_to 7965
  139.4820  144.4877  151.9225 LP  0  0  0  0  0  0  0  0  0  0  0  0  # atno 17342 bound_to 10162
  140.3962  144.2551  150.5896 LP  0  0  0  0  0  0  0  0  0  0  0  0  # atno 17343 bound_to 10162
  157.3473  130.7064  149.6418 LP  0  0  0  0  0  0  0  0  0  0  0  0  # atno 17370 bound_to 10713
  155.9675  130.4262  150.4691 LP  0  0  0  0  0  0  0  0  0  0  0  0  # atno 17371 bound_to 10713
  141.0242  134.0847  157.4087 LP  0  0  0  0  0  0  0  0  0  0  0  0  # atno 17394 bound_to 11000
  139.8924  135.0124  156.6842 LP  0  0  0  0  0  0  0  0  0  0  0  0  # atno 17395 bound_to 11000

$$$$
