#       Name:                AV-unprocessed.smi:3025
#       Creating user name   scv26
#       Creation time:       Fri Mar 27 16:44:35 2020


#       File generated by GOLD software.
#

@<TRIPOS>MOLECULE
AV-unprocessed.smi:3025
    44    45     1
SMALL
NO_CHARGES


@<TRIPOS>ATOM
      1 ****        -1.2520  -5.4757  -1.5671 C.3            1 S1                 0.0000
      2 ****        -1.6640  -4.0073  -1.4157 C.3            1 S1                 0.0000
      3 ****        -1.1299  -3.3787  -0.1175 C.3            1 S1                 0.0000
      4 ****        -1.6055  -1.9318   0.1286 C.3            1 S1                 0.0000
      5 ****        -1.0265  -0.9334  -0.8970 C.3            1 S1                 0.0000
      6 ****        -1.4885   0.5073  -0.6172 C.3            1 S1                 0.0000
      7 ****        -1.1488   0.9647   0.8172 C.3            1 S1                 0.0000
      8 ****         0.3072   1.1472   1.0219 N.4            1 S1                 1.0000
      9 ****         0.8919   2.3525   0.3985 C.3            1 S1                 0.0000
     10 ****         2.3801   2.4819   0.7486 C.3            1 S1                 0.0000
     11 ****         2.9959   3.6973   0.1389 C.2            1 S1                 0.0000
     12 ****         3.5158   3.6649  -1.0892 N.2            1 S1                 0.0000
     13 ****         3.9147   4.9440  -1.2605 N.pl3          1 S1                 0.0000
     14 ****         3.6046   5.6399  -0.1676 C.2            1 S1                 0.0000
     15 ****         3.0056   4.9128   0.7666 N.2            1 S1                 0.0000
     16 ****        -1.7113  -0.0384   1.8413 C.3            1 S1                 0.0000
     17 ****        -1.2519  -1.4800   1.5599 C.3            1 S1                 0.0000
     18 ****        -1.6455  -5.8964  -2.4928 H              1 S1                 0.0000
     19 ****        -1.6306  -6.0788  -0.7415 H              1 S1                 0.0000
     20 ****        -0.1669  -5.5801  -1.5893 H              1 S1                 0.0000
     21 ****        -1.3012  -3.4526  -2.2805 H              1 S1                 0.0000
     22 ****        -2.7521  -3.9379  -1.4363 H              1 S1                 0.0000
     23 ****        -1.4536  -4.0005   0.7183 H              1 S1                 0.0000
     24 ****        -0.0396  -3.4146  -0.1131 H              1 S1                 0.0000
     25 ****        -2.6930  -1.9177   0.0393 H              1 S1                 0.0000
     26 ****         0.0632  -0.9795  -0.8858 H              1 S1                 0.0000
     27 ****        -1.3331  -1.2061  -1.9065 H              1 S1                 0.0000
     28 ****        -1.0680   1.1858  -1.3590 H              1 S1                 0.0000
     29 ****        -2.5693   0.5590  -0.7552 H              1 S1                 0.0000
     30 ****        -1.6269   1.9278   1.0017 H              1 S1                 0.0000
     31 ****         0.4670   1.2186   2.0166 H              1 S1                 0.0000
     32 ****         0.7747   2.3051  -0.6839 H              1 S1                 0.0000
     33 ****         0.3528   3.2355   0.7447 H              1 S1                 0.0000
     34 ****         2.5072   2.5278   1.8312 H              1 S1                 0.0000
     35 ****         2.9242   1.5986   0.4103 H              1 S1                 0.0000
     36 ****         3.8154   6.6933  -0.0552 H              1 S1                 0.0000
     37 ****        -1.4268   0.2540   2.8527 H              1 S1                 0.0000
     38 ****        -2.8013  -0.0037   1.8135 H              1 S1                 0.0000
     39 ****        -1.7143  -2.1505   2.2853 H              1 S1                 0.0000
     40 ****        -0.1755  -1.5600   1.7164 H              1 S1                 0.0000
     41 ****         0.7884   0.3277   0.6797 H              1 S1                 0.0000
     42 ****         4.3663   5.2780  -2.1004 H              1 S1                 0.0000
     43 ****         3.5909   2.8928  -1.7202 LP             1 S1                 0.0000
     44 ****         2.6613   5.1766   1.6676 LP             1 S1                 0.0000
@<TRIPOS>BOND
    1    1    2 1     
    2    1   18 1     
    3    1   19 1     
    4    1   20 1     
    5    2    3 1     
    6    2   21 1     
    7    2   22 1     
    8    3    4 1     
    9    3   23 1     
   10    3   24 1     
   11    4   17 1     
   12    4    5 1     
   13    4   25 1     
   14    5    6 1     
   15    5   26 1     
   16    5   27 1     
   17    6    7 1     
   18    6   28 1     
   19    6   29 1     
   20    7    8 1     
   21    7   16 1     
   22    7   30 1     
   23    8    9 1     
   24    8   31 1     
   25    8   41 1     
   26    9   10 1     
   27    9   32 1     
   28    9   33 1     
   29   10   34 1     
   30   10   35 1     
   31   10   11 1     
   32   11   15 1     
   33   11   12 2     
   34   12   13 1     
   35   13   14 1     
   36   13   42 1     
   37   14   15 2     
   38   14   36 1     
   39   16   17 1     
   40   16   37 1     
   41   16   38 1     
   42   17   39 1     
   43   17   40 1     
   44   12   43 1     
   45   15   44 1     
@<TRIPOS>SUBSTRUCTURE
      1 S1             1
@<TRIPOS>SET
LONE_PAIRS      STATIC     ATOMS    <user>   **** ""
2 43 44
DONOR_HYDROGENS      STATIC     ATOMS    <user>   **** ""
3 31 41 42
ATOM$BLUE        STATIC     ATOMS    COLORGROUP SYSTEM
2 43 44
ATOM$RED        STATIC     ATOMS    COLORGROUP SYSTEM
3 31 41 42
