#       Name:                AV-unprocessed.smi:2342
#       Creating user name   scv26
#       Creation time:       Fri Mar 27 12:57:35 2020


#       File generated by GOLD software.
#

@<TRIPOS>MOLECULE
AV-unprocessed.smi:2342
    45    45     1
SMALL
NO_CHARGES


@<TRIPOS>ATOM
      1 ****        -4.4639  -0.3902  -1.1471 C.3            1 S1                 0.0000
      2 ****        -2.9335  -0.4013  -1.2935 C.3            1 S1                 0.0000
      3 ****        -2.3898  -1.8360  -1.5139 C.3            1 S1                 0.0000
      4 ****        -0.9312  -1.8980  -1.5048 N.am           1 S1                 0.0000
      5 ****        -0.1387  -1.6103  -2.5484 C.2            1 S1                 0.0000
      6 ****        -0.5587  -1.4074  -3.6876 O.2            1 S1                 0.0000
      7 ****         1.3569  -1.5010  -2.2505 C.3            1 S1                 0.0000
      8 ****         1.6162  -0.2587  -1.4476 C.2            1 S1                 0.0000
      9 ****         1.7935   1.0127  -1.9317 C.2            1 S1                 0.0000
     10 ****         2.0070   2.1699  -0.6493 S.3            1 S1                 0.0000
     11 ****         1.8600   0.8619   0.5300 C.2            1 S1                 0.0000
     12 ****         1.9242   1.0359   2.0283 C.3            1 S1                 0.0000
     13 ****         0.5836   0.6163   2.6619 C.3            1 S1                 0.0000
     14 ****         2.1792   2.5097   2.4115 C.3            1 S1                 0.0000
     15 ****         3.0838   0.1990   2.6025 C.3            1 S1                 0.0000
     16 ****         1.6725  -0.3281  -0.0521 N.2            1 S1                 0.0000
     17 ****        -2.2864   0.2854  -0.0770 C.2            1 S1                 0.0000
     18 ****        -2.3905  -0.2862   1.0311 O.co2          1 S1                 0.0000
     19 ****        -1.6940   1.3683  -0.2790 O.co2          1 S1                -1.0000
     20 ****        -4.8414   0.6212  -0.9912 H              1 S1                 0.0000
     21 ****        -4.7902  -1.0017  -0.3049 H              1 S1                 0.0000
     22 ****        -4.9417  -0.7826  -2.0449 H              1 S1                 0.0000
     23 ****        -2.6794   0.1911  -2.1741 H              1 S1                 0.0000
     24 ****        -2.7521  -2.4955  -0.7247 H              1 S1                 0.0000
     25 ****        -2.7759  -2.2453  -2.4488 H              1 S1                 0.0000
     26 ****        -0.4924  -2.0461  -0.6071 H              1 S1                 0.0000
     27 ****         1.6853  -2.3925  -1.7144 H              1 S1                 0.0000
     28 ****         1.9149  -1.4769  -3.1873 H              1 S1                 0.0000
     29 ****         1.7894   1.3400  -2.9606 H              1 S1                 0.0000
     30 ****         0.6012   0.7323   3.7460 H              1 S1                 0.0000
     31 ****         0.3483  -0.4273   2.4505 H              1 S1                 0.0000
     32 ****        -0.2401   1.2209   2.2804 H              1 S1                 0.0000
     33 ****         1.3840   3.1625   2.0490 H              1 S1                 0.0000
     34 ****         3.1227   2.8744   2.0034 H              1 S1                 0.0000
     35 ****         2.2272   2.6345   3.4937 H              1 S1                 0.0000
     36 ****         3.1643   0.3186   3.6833 H              1 S1                 0.0000
     37 ****         4.0389   0.4934   2.1658 H              1 S1                 0.0000
     38 ****         2.9455  -0.8645   2.4040 H              1 S1                 0.0000
     39 ****        -1.5400  -1.4531  -3.8742 LP             1 S1                 0.0000
     40 ****         0.0815  -1.1968  -4.4264 LP             1 S1                 0.0000
     41 ****         1.5817  -1.1822   0.4599 LP             1 S1                 0.0000
     42 ****        -1.9805   0.1240   1.8457 LP             1 S1                 0.0000
     43 ****        -2.8837  -1.1532   1.1021 LP             1 S1                 0.0000
     44 ****        -1.2549   1.8475   0.4810 LP             1 S1                 0.0000
     45 ****        -1.6594   1.7550  -1.2006 LP             1 S1                 0.0000
@<TRIPOS>BOND
    1    1    2 1     
    2    1   20 1     
    3    1   21 1     
    4    1   22 1     
    5    2    3 1     
    6    2   17 1     
    7    2   23 1     
    8    3    4 1     
    9    3   24 1     
   10    3   25 1     
   11    4    5 am    
   12    4   26 1     
   13    5    6 2     
   14    5    7 1     
   15    7    8 1     
   16    7   27 1     
   17    7   28 1     
   18    8   16 1     
   19    8    9 2     
   20    9   10 1     
   21    9   29 1     
   22   10   11 1     
   23   11   12 1     
   24   11   16 2     
   25   12   13 1     
   26   12   14 1     
   27   12   15 1     
   28   13   30 1     
   29   13   31 1     
   30   13   32 1     
   31   14   33 1     
   32   14   34 1     
   33   14   35 1     
   34   15   36 1     
   35   15   37 1     
   36   15   38 1     
   37   17   18 ar    
   38   17   19 ar    
   39    6   39 1     
   40    6   40 1     
   41   16   41 1     
   42   18   42 1     
   43   18   43 1     
   44   19   44 1     
   45   19   45 1     
@<TRIPOS>SUBSTRUCTURE
      1 S1             1
@<TRIPOS>SET
LONE_PAIRS      STATIC     ATOMS    <user>   **** ""
7 39 40 41 42 43 44 45
DONOR_HYDROGENS      STATIC     ATOMS    <user>   **** ""
1 26
ATOM$BLUE        STATIC     ATOMS    COLORGROUP SYSTEM
7 39 40 41 42 43 44 45
ATOM$RED        STATIC     ATOMS    COLORGROUP SYSTEM
1 26
