AV-unprocessed.smi:2658|AV-procd|sdf|10311|dock5
  -GOLD-   2272014333D 1   1.00000     0.00000
 Structure written by MMmdl.
 47 49  0  0  0  0  0  0  0  0  2 V2000
  152.1387  144.2014  160.8825 C   0  0  0  0  0  0  0  0  0  0  0  0
  152.0314  143.1500  159.7910 C   0  0  0  0  0  0  0  0  0  0  0  0
  151.2142  143.4216  158.6705 C   0  0  0  0  0  0  0  0  0  0  0  0
  151.1369  142.4408  157.6890 C   0  0  0  0  0  0  0  0  0  0  0  0
  150.4327  142.4077  156.4835 N   0  3  0  0  0  0  0  0  0  0  0  0
  150.6686  141.2247  155.8518 C   0  0  0  0  0  0  0  0  0  0  0  0
  151.5122  140.5009  156.6364 N   0  0  0  0  0  0  0  0  0  0  0  0
  152.0709  139.1579  156.4218 C   0  0  0  0  0  0  0  0  0  0  0  0
  151.2954  138.3435  155.3670 C   0  0  1  0  0  0  0  0  0  0  0  0
  152.1662  137.4050  154.7663 O   0  0  0  0  0  0  0  0  0  0  0  0
  150.1159  137.5824  155.9918 C   0  0  0  0  0  0  0  0  0  0  0  0
  150.6237  136.5262  156.8021 O   0  0  0  0  0  0  0  0  0  0  0  0
  150.4053  135.2255  156.3967 C   0  0  0  0  0  0  0  0  0  0  0  0
  149.9200  134.9904  155.0965 C   0  0  0  0  0  0  0  0  0  0  0  0
  149.7006  133.6552  154.7091 C   0  0  0  0  0  0  0  0  0  0  0  0
  149.1770  133.3249  153.3242 C   0  0  0  0  0  0  0  0  0  0  0  0
  149.9871  132.6526  155.6627 C   0  0  0  0  0  0  0  0  0  0  0  0
  149.7882  131.1799  155.3565 C   0  0  0  0  0  0  0  0  0  0  0  0
  150.4550  132.9416  156.8995 N   0  0  0  0  0  0  0  0  0  0  0  0
  150.6617  134.2113  157.2630 N   0  0  0  0  0  0  0  0  0  0  0  0
  151.8342  141.2213  157.7932 C   0  0  0  0  0  0  0  0  0  0  0  0
  152.6449  140.9389  158.8902 C   0  0  0  0  0  0  0  0  0  0  0  0
  152.7389  141.9248  159.8984 C   0  0  0  0  0  0  0  0  0  0  0  0
  153.6188  141.6450  161.1050 C   0  0  0  0  0  0  0  0  0  0  0  0
  151.5524  145.0886  160.6415 H   0  0  0  0  0  0  0  0  0  0  0  0
  153.1750  144.5133  161.0142 H   0  0  0  0  0  0  0  0  0  0  0  0
  151.7719  143.8070  161.8305 H   0  0  0  0  0  0  0  0  0  0  0  0
  150.6738  144.3526  158.5809 H   0  0  0  0  0  0  0  0  0  0  0  0
  150.2590  140.9152  154.9010 H   0  0  0  0  0  0  0  0  0  0  0  0
  153.1263  139.2419  156.1617 H   0  0  0  0  0  0  0  0  0  0  0  0
  152.0359  138.6439  157.3831 H   0  0  0  0  0  0  0  0  0  0  0  0
  150.9260  139.0238  154.5984 H   0  0  0  0  0  0  0  0  0  0  0  0
  152.5220  137.7893  153.9793 H   0  0  0  0  0  0  0  0  0  0  0  0
  149.4740  138.2572  156.5615 H   0  0  0  0  0  0  0  0  0  0  0  0
  149.5100  137.1445  155.1963 H   0  0  0  0  0  0  0  0  0  0  0  0
  149.7224  135.8115  154.4230 H   0  0  0  0  0  0  0  0  0  0  0  0
  148.2122  132.8220  153.3922 H   0  0  0  0  0  0  0  0  0  0  0  0
  149.8730  132.6703  152.7993 H   0  0  0  0  0  0  0  0  0  0  0  0
  149.0462  134.2271  152.7261 H   0  0  0  0  0  0  0  0  0  0  0  0
  150.4490  130.8689  154.5473 H   0  0  0  0  0  0  0  0  0  0  0  0
  148.7583  130.9882  155.0552 H   0  0  0  0  0  0  0  0  0  0  0  0
  150.0044  130.5584  156.2266 H   0  0  0  0  0  0  0  0  0  0  0  0
  153.1889  140.0095  158.9701 H   0  0  0  0  0  0  0  0  0  0  0  0
  154.0867  140.6623  161.0385 H   0  0  0  0  0  0  0  0  0  0  0  0
  153.0312  141.6724  162.0230 H   0  0  0  0  0  0  0  0  0  0  0  0
  154.4136  142.3873  161.1789 H   0  0  0  0  0  0  0  0  0  0  0  0
  149.8347  143.1371  156.1168 H   0  0  0  0  0  0  0  0  0  0  0  0
  1  2  1  0  0  0  0
  1 25  1  0  0  0  0
  1 26  1  0  0  0  0
  1 27  1  0  0  0  0
  2 23  1  0  0  0  0
  2  3  2  0  0  0  0
  3  4  1  0  0  0  0
  3 28  1  0  0  0  0
  4 21  2  0  0  0  0
  4  5  1  0  0  0  0
  5  6  2  0  0  0  0
  5 47  1  0  0  0  0
  6  7  1  0  0  0  0
  6 29  1  0  0  0  0
  7  8  1  0  0  0  0
  7 21  1  0  0  0  0
  8  9  1  0  0  0  0
  8 30  1  0  0  0  0
  8 31  1  0  0  0  0
  9 10  1  0  0  0  0
  9 11  1  0  0  0  0
  9 32  1  0  0  0  0
 10 33  1  0  0  0  0
 11 12  1  0  0  0  0
 11 34  1  0  0  0  0
 11 35  1  0  0  0  0
 12 13  1  0  0  0  0
 13 20  1  0  0  0  0
 13 14  2  0  0  0  0
 14 15  1  0  0  0  0
 14 36  1  0  0  0  0
 15 16  1  0  0  0  0
 15 17  2  0  0  0  0
 16 37  1  0  0  0  0
 16 38  1  0  0  0  0
 16 39  1  0  0  0  0
 17 18  1  0  0  0  0
 17 19  1  0  0  0  0
 18 40  1  0  0  0  0
 18 41  1  0  0  0  0
 18 42  1  0  0  0  0
 19 20  2  0  0  0  0
 21 22  1  0  0  0  0
 22 23  2  0  0  0  0
 22 43  1  0  0  0  0
 23 24  1  0  0  0  0
 24 44  1  0  0  0  0
 24 45  1  0  0  0  0
 24 46  1  0  0  0  0
M  CHG  1   5   1
M  END
> <s_m_source_file>
AV-unprocessed.smi

> <i_m_source_file_index>
2658

> <i_lp_mmshare_version>
43012

> <i_f3d_flags>
0

> <s_epik_input>
W0NIM11jKFtjSF0xKWMoW0NIM10pW2NIXWMoYzEyKW4oW2NIXW4yKVtDSDJdW0NASF0oW09IXSlbQ0gyXU9jM1tjSF1jKFtDSDNdKWMoW0NIM10pbm4z

> <s_epik_cmdline>
J2VwaWtfcHl0aG9uJywgJy1waCcsICc3LjAnLCAnLXRuJywgJzgnLCAnLW1hJywgJzIwMCcsICctbWV0YWxfYmluZGluZycsICctaW1hZScsICc8aW5maWxlLm1hZT4nLCAnLW9tYWUnLCAnPG91dGZpbGUubWFlPic=

> <r_lp_tautomer_probability>
1

> <r_epik_Ionization_Penalty>
1.0494

> <r_epik_Ionization_Penalty_Charging>
1.04926

> <r_epik_Ionization_Penalty_Neutral>
0.000140304

> <r_epik_State_Penalty>
1.10197

> <r_epik_Charging_Adjusted_Penalty>
2.15123

> <i_epik_Tot_Q>
1

> <i_epik_Tot_abs_Q>
1

> <r_epik_Metal_State_Penalty>
1.19636

> <b_epik_Metal_Only>
0

> <s_lp_Force_Field>
OPLS_2005

> <r_lp_Energy>
21.0246

> <b_lp_Chiralities_Consistent>
1

> <s_lp_Variant>
AV-unprocessed.smi:2658-4

> <Gold.Version>
5.8.1

> <Gold.Id.Protein>
6NUR|6NUR_protein|mol2

> <Gold.PLP.Fitness>
56.4394

> <Gold.PLP.PLP>
-48.8194

> <Gold.PLP.part.hbond>
-3.0000

> <Gold.PLP.part.metal>
0.0000

> <Gold.PLP.part.buried>
-7.0233

> <Gold.PLP.part.nonpolar>
-39.6831

> <Gold.PLP.part.repulsive>
0.0713

> <Gold.PLP.ligand.clash>
0.0275

> <Gold.PLP.ligand.torsion>
1.0979

> <Gold.PLP.Chemscore.Hbond>
3.2640

> <Gold.PLP.Chemscore.CHOScore>
0.0000

> <Gold.PLP.Chemscore.Metal>
0.0000

> <Gold.Chemscore.Hbonds>
donor molecule, donor type, donor heavy atom, donor atom, acceptor molecule, acceptor atom, score
      L1  H     5    47       P1  8028  2.00
      P1  H  6896  6909       L1    20  0.52
      P1  H 10752 10765       L1    10  0.71

> <Gold.PLP.Chemscore.Internal.Correction>
0.0512

> <Gold.Rescore>
     Score         DG    S(hbond)    S(metal)    S(lipo)     H(rot)  DE(clash)    DE(int)     intcor
     17.12     -18.28       1.43        0.00     122.57       2.47       0.01       1.14       ----

> <Gold.Chemscore.Fitness>
17.1205

> <Gold.Chemscore.DG>
-18.2787

> <Gold.Chemscore.ZeroCoef>
-5.4800

> <Gold.Chemscore.Hbond>
1.4304

> <Gold.Chemscore.Metal>
0.0000

> <Gold.Chemscore.Lipo>
122.5686

> <Gold.Chemscore.Internal_Hbond>
0.0000

> <Gold.Chemscore.DEClash>
0.0149

> <Gold.Chemscore.DEInternal>
1.1433

> <Gold.Chemscore.Rot>
2.4685

> <Gold.Chemscore.Internal.Correction>
   9.000000E+99

> <Gold.Chemscore.Hbonds>
donor molecule, donor type, donor heavy atom, donor atom, acceptor molecule, acceptor atom, score
      L1  H     5    47       P1  8028  1.00
      P1  H  6896  6909       L1    20  0.13
      P1  H 10752 10765       L1    10  0.16

> <Gold.Chemscore.Hbond.Weighted>
-4.7776

> <Gold.Chemscore.Metal.Weighted>
-0.0000

> <Gold.Chemscore.Lipo.Weighted>
-14.3405

> <Gold.Chemscore.Internal_Hbond.Weighted>
0.0000

> <Gold.Chemscore.DEClash.Weighted>
0.0149

> <Gold.Chemscore.DEInternal.Weighted>
1.1433

> <Gold.Chemscore.Rot.Weighted>
6.3194

> <Gold.Chemscore.Internal.Correction.Weighted>
   9.000000E+99

> <Gold.Protein.RotatedTorsions>
[ 6907 6896 6895 6894 ] final   12.88 input  -60.11 | X-H torsion
[ 7974 7965 7964 7962 ] final -102.37 input  175.53 | X-H torsion
[ 8008 7997 7996 7995 ] final  -78.56 input   59.86 | X-H torsion
[ 10167 10162 10161 10158 ] final -170.01 input  -65.29 | X-H torsion
[ 10718 10713 10712 10709 ] final -110.56 input   66.30 | X-H torsion
[ 10763 10752 10751 10750 ] final -178.25 input  -60.55 | X-H torsion
[ 11005 11000 10999 10996 ] final -123.40 input  -57.11 | X-H torsion

> <Gold.Protein.ActiveResidues>
 VAL166  LYS551  ARG553  GLY616  TRP617  ASP618  TYR619  PRO620  LYS621  CYS622 
 ASP623  PHE694  ASN695  SER759  ASP760  ASP761  ALA762  ILE779  LEU786  VAL792 
 PHE793  MET794  SER795  GLU796  ALA797  LYS798  CYS799  TRP800  GLU811  SER814 

> <Gold.Protein.RotatedAtoms>
  151.7774  135.0770  160.0368 H   0  0  0  0  0  0  0  0  0  0  0  0  # atno 6907 bound_to 6896
  152.3246  133.5887  159.5776 H   0  0  0  0  0  0  0  0  0  0  0  0  # atno 6908 bound_to 6896
  150.7388  133.9875  159.3638 H   0  0  0  0  0  0  0  0  0  0  0  0  # atno 6909 bound_to 6896
  145.2695  140.9294  143.2994 H   0  0  0  0  0  0  0  0  0  0  0  0  # atno 7974 bound_to 7965
  154.5701  140.0692  156.8951 H   0  0  0  0  0  0  0  0  0  0  0  0  # atno 8008 bound_to 7997
  155.2650  140.3361  155.4251 H   0  0  0  0  0  0  0  0  0  0  0  0  # atno 8009 bound_to 7997
  156.2111  140.1759  156.7677 H   0  0  0  0  0  0  0  0  0  0  0  0  # atno 8010 bound_to 7997
  139.5888  144.1259  152.1608 H   0  0  0  0  0  0  0  0  0  0  0  0  # atno 10167 bound_to 10162
  156.0598  130.5822  150.8254 H   0  0  0  0  0  0  0  0  0  0  0  0  # atno 10718 bound_to 10713
  154.5500  135.2812  155.1017 H   0  0  0  0  0  0  0  0  0  0  0  0  # atno 10763 bound_to 10752
  154.2466  135.6347  153.5229 H   0  0  0  0  0  0  0  0  0  0  0  0  # atno 10764 bound_to 10752
  153.0000  135.5572  154.6064 H   0  0  0  0  0  0  0  0  0  0  0  0  # atno 10765 bound_to 10752
  140.9922  134.0523  157.3641 H   0  0  0  0  0  0  0  0  0  0  0  0  # atno 11005 bound_to 11000
  144.9347  139.4257  143.6478 LP  0  0  0  0  0  0  0  0  0  0  0  0  # atno 17320 bound_to 7965
  146.3251  139.8276  142.8914 LP  0  0  0  0  0  0  0  0  0  0  0  0  # atno 17321 bound_to 7965
  140.0829  144.5685  150.7109 LP  0  0  0  0  0  0  0  0  0  0  0  0  # atno 17342 bound_to 10162
  140.7155  143.2541  151.4448 LP  0  0  0  0  0  0  0  0  0  0  0  0  # atno 17343 bound_to 10162
  157.5597  131.0945  150.9577 LP  0  0  0  0  0  0  0  0  0  0  0  0  # atno 17370 bound_to 10713
  156.9818  130.5529  149.5297 LP  0  0  0  0  0  0  0  0  0  0  0  0  # atno 17371 bound_to 10713
  139.8997  135.0160  156.7210 LP  0  0  0  0  0  0  0  0  0  0  0  0  # atno 17394 bound_to 11000
  140.7022  133.9296  155.8031 LP  0  0  0  0  0  0  0  0  0  0  0  0  # atno 17395 bound_to 11000

$$$$
