AV-unprocessed.smi:3238|AV-procd|sdf|12378|dock3
  -GOLD-   2272018243D 1   1.00000     0.00000
 Structure written by MMmdl.
 37 39  0  0  0  0  0  0  0  0  1 V2000
  146.7557  138.7995  151.9633 C   0  0  0  0  0  0  0  0  0  0  0  0
  147.9039  138.4038  152.7636 N   0  0  0  0  0  0  0  0  0  0  0  0
  148.4508  139.1595  153.7283 C   0  0  0  0  0  0  0  0  0  0  0  0
  148.0156  140.2660  154.0466 O   0  0  0  0  0  0  0  0  0  0  0  0
  149.6688  138.5789  154.4521 C   0  0  0  0  0  0  0  0  0  0  0  0
  150.3079  139.6099  155.3269 C   0  0  0  0  0  0  0  0  0  0  0  0
  151.4590  140.1838  154.9959 N   0  0  0  0  0  0  0  0  0  0  0  0
  151.7220  141.0318  156.0815 O   0  0  0  0  0  0  0  0  0  0  0  0
  150.6773  140.8807  156.9303 C   0  0  0  0  0  0  0  0  0  0  0  0
  150.7039  141.5925  158.2423 C   0  0  0  0  0  0  0  0  0  0  0  0
  151.0131  143.0975  158.1055 C   0  0  1  0  0  0  0  0  0  0  0  0
  150.1686  144.0148  159.0149 C   0  0  0  0  0  0  0  0  0  0  0  0
  151.2301  144.9199  159.6699 C   0  0  1  0  0  0  0  0  0  0  0  0
  151.9991  144.1094  160.7285 C   0  0  0  0  0  0  0  0  0  0  0  0
  152.8639  143.1688  159.8696 C   0  0  0  0  0  0  0  0  0  0  0  0
  152.4592  143.5478  158.4294 C   0  0  2  0  0  0  0  0  0  0  0  0
  152.2710  145.0555  158.5634 C   0  0  0  0  0  0  0  0  0  0  0  0
  149.7652  140.0079  156.5108 N   0  0  0  0  0  0  0  0  0  0  0  0
  146.5167  138.0160  151.2445 H   0  0  0  0  0  0  0  0  0  0  0  0
  146.9655  139.7163  151.4109 H   0  0  0  0  0  0  0  0  0  0  0  0
  145.8808  138.9641  152.5936 H   0  0  0  0  0  0  0  0  0  0  0  0
  148.3208  137.5060  152.5621 H   0  0  0  0  0  0  0  0  0  0  0  0
  149.3700  137.7190  155.0534 H   0  0  0  0  0  0  0  0  0  0  0  0
  150.3920  138.2183  153.7195 H   0  0  0  0  0  0  0  0  0  0  0  0
  149.7387  141.4572  158.7314 H   0  0  0  0  0  0  0  0  0  0  0  0
  151.4377  141.1054  158.8849 H   0  0  0  0  0  0  0  0  0  0  0  0
  150.8163  143.3726  157.0677 H   0  0  0  0  0  0  0  0  0  0  0  0
  149.4676  144.6015  158.4199 H   0  0  0  0  0  0  0  0  0  0  0  0
  149.5902  143.4638  159.7578 H   0  0  0  0  0  0  0  0  0  0  0  0
  150.8301  145.8615  160.0472 H   0  0  0  0  0  0  0  0  0  0  0  0
  152.6287  144.7603  161.3366 H   0  0  0  0  0  0  0  0  0  0  0  0
  151.3330  143.5661  161.3998 H   0  0  0  0  0  0  0  0  0  0  0  0
  153.9227  143.3738  160.0335 H   0  0  0  0  0  0  0  0  0  0  0  0
  152.6988  142.1180  160.1038 H   0  0  0  0  0  0  0  0  0  0  0  0
  153.1904  143.2485  157.6776 H   0  0  0  0  0  0  0  0  0  0  0  0
  151.8831  145.5290  157.6596 H   0  0  0  0  0  0  0  0  0  0  0  0
  153.1748  145.5791  158.8805 H   0  0  0  0  0  0  0  0  0  0  0  0
  1  2  1  0  0  0  0
  1 19  1  0  0  0  0
  1 20  1  0  0  0  0
  1 21  1  0  0  0  0
  2  3  1  0  0  0  0
  2 22  1  0  0  0  0
  3  4  2  0  0  0  0
  3  5  1  0  0  0  0
  5  6  1  0  0  0  0
  5 23  1  0  0  0  0
  5 24  1  0  0  0  0
  6 18  1  0  0  0  0
  6  7  2  0  0  0  0
  7  8  1  0  0  0  0
  8  9  1  0  0  0  0
  9 10  1  0  0  0  0
  9 18  2  0  0  0  0
 10 11  1  0  0  0  0
 10 25  1  0  0  0  0
 10 26  1  0  0  0  0
 11 16  1  0  0  0  0
 11 12  1  0  0  0  0
 11 27  1  0  0  0  0
 12 13  1  0  0  0  0
 12 28  1  0  0  0  0
 12 29  1  0  0  0  0
 13 17  1  0  0  0  0
 13 14  1  0  0  0  0
 13 30  1  0  0  0  0
 14 15  1  0  0  0  0
 14 31  1  0  0  0  0
 14 32  1  0  0  0  0
 15 16  1  0  0  0  0
 15 33  1  0  0  0  0
 15 34  1  0  0  0  0
 16 17  1  0  0  0  0
 16 35  1  0  0  0  0
 17 36  1  0  0  0  0
 17 37  1  0  0  0  0
M  END
> <s_m_source_file>
AV-unprocessed.smi

> <i_m_source_file_index>
3238

> <i_lp_mmshare_version>
43012

> <i_f3d_flags>
0

> <s_epik_input>
W0NIM11bTkhdQyg9TylbQ0gyXWMxbm9jKG4xKVtDSDJdW0NASF0oW0NIMl1bQ0BIXTIzKVtDQEhdKFtDSDJdMylbQ0gyXVtDSDJdMg==

> <s_epik_cmdline>
J2VwaWtfcHl0aG9uJywgJy1waCcsICc3LjAnLCAnLXRuJywgJzgnLCAnLW1hJywgJzIwMCcsICctbWV0YWxfYmluZGluZycsICctaW1hZScsICc8aW5maWxlLm1hZT4nLCAnLW9tYWUnLCAnPG91dGZpbGUubWFlPic=

> <r_lp_tautomer_probability>
1

> <r_epik_Ionization_Penalty>
1.02915e-07

> <r_epik_Ionization_Penalty_Charging>
0

> <r_epik_Ionization_Penalty_Neutral>
1.02915e-07

> <r_epik_State_Penalty>
-0

> <r_epik_Charging_Adjusted_Penalty>
0

> <i_epik_Tot_Q>
0

> <i_epik_Tot_abs_Q>
0

> <r_epik_Metal_State_Penalty>
-0

> <b_epik_Metal_Only>
0

> <s_lp_Force_Field>
OPLS_2005

> <r_lp_Energy>
47.2904

> <b_lp_Chiralities_Consistent>
1

> <s_lp_Variant>
AV-unprocessed.smi:3238-4

> <Gold.Version>
5.8.1

> <Gold.Id.Protein>
6NUR|6NUR_protein|mol2

> <Gold.PLP.Fitness>
44.1931

> <Gold.PLP.PLP>
-40.1272

> <Gold.PLP.part.hbond>
-3.1752

> <Gold.PLP.part.metal>
0.0000

> <Gold.PLP.part.buried>
-1.0665

> <Gold.PLP.part.nonpolar>
-35.6738

> <Gold.PLP.part.repulsive>
0.2720

> <Gold.PLP.ligand.clash>
0.0000

> <Gold.PLP.ligand.torsion>
0.9757

> <Gold.PLP.Chemscore.Hbond>
2.0000

> <Gold.PLP.Chemscore.CHOScore>
0.0000

> <Gold.PLP.Chemscore.Metal>
0.0000

> <Gold.Chemscore.Hbonds>
donor molecule, donor type, donor heavy atom, donor atom, acceptor molecule, acceptor atom, score
      L1  H     2    22       P1  7948  1.00
      P1  H  7989  7998       L1     7  1.00

> <Gold.PLP.Chemscore.Internal.Correction>
0.0173

> <Gold.Rescore>
     Score         DG    S(hbond)    S(metal)    S(lipo)     H(rot)  DE(clash)    DE(int)     intcor
     17.05     -19.00       1.88        0.00     102.27       1.85       0.36       1.60       ----

> <Gold.Chemscore.Fitness>
17.0465

> <Gold.Chemscore.DG>
-19.0042

> <Gold.Chemscore.ZeroCoef>
-5.4800

> <Gold.Chemscore.Hbond>
1.8841

> <Gold.Chemscore.Metal>
0.0000

> <Gold.Chemscore.Lipo>
102.2669

> <Gold.Chemscore.Internal_Hbond>
0.0000

> <Gold.Chemscore.DEClash>
0.3552

> <Gold.Chemscore.DEInternal>
1.6025

> <Gold.Chemscore.Rot>
1.8492

> <Gold.Chemscore.Internal.Correction>
   9.000000E+99

> <Gold.Chemscore.Hbonds>
donor molecule, donor type, donor heavy atom, donor atom, acceptor molecule, acceptor atom, score
      L1  H     2    22       P1  7948  0.97
      P1  H  7989  7998       L1     7  0.86

> <Gold.Chemscore.Hbond.Weighted>
-6.2929

> <Gold.Chemscore.Metal.Weighted>
-0.0000

> <Gold.Chemscore.Lipo.Weighted>
-11.9652

> <Gold.Chemscore.Internal_Hbond.Weighted>
0.0000

> <Gold.Chemscore.DEClash.Weighted>
0.3552

> <Gold.Chemscore.DEInternal.Weighted>
1.6025

> <Gold.Chemscore.Rot.Weighted>
4.7340

> <Gold.Chemscore.Internal.Correction.Weighted>
   9.000000E+99

> <Gold.Protein.RotatedTorsions>
[ 6907 6896 6895 6894 ] final -105.88 input  -60.11 | X-H torsion
[ 7974 7965 7964 7962 ] final  173.11 input  175.53 | X-H torsion
[ 8008 7997 7996 7995 ] final  145.62 input   59.86 | X-H torsion
[ 10167 10162 10161 10158 ] final   18.39 input  -65.29 | X-H torsion
[ 10718 10713 10712 10709 ] final -175.16 input   66.30 | X-H torsion
[ 10763 10752 10751 10750 ] final  -10.44 input  -60.55 | X-H torsion
[ 11005 11000 10999 10996 ] final -170.17 input  -57.11 | X-H torsion

> <Gold.Protein.ActiveResidues>
 VAL166  LYS551  ARG553  GLY616  TRP617  ASP618  TYR619  PRO620  LYS621  CYS622 
 ASP623  PHE694  ASN695  SER759  ASP760  ASP761  ALA762  ILE779  LEU786  VAL792 
 PHE793  MET794  SER795  GLU796  ALA797  LYS798  CYS799  TRP800  GLU811  SER814 

> <Gold.Protein.RotatedAtoms>
  150.7359  134.0060  159.3653 H   0  0  0  0  0  0  0  0  0  0  0  0  # atno 6907 bound_to 6896
  151.8017  135.0704  160.0410 H   0  0  0  0  0  0  0  0  0  0  0  0  # atno 6908 bound_to 6896
  152.3136  133.5742  159.5733 H   0  0  0  0  0  0  0  0  0  0  0  0  # atno 6909 bound_to 6896
  144.7251  139.9599  143.6434 H   0  0  0  0  0  0  0  0  0  0  0  0  # atno 7974 bound_to 7965
  156.2878  140.2204  156.5245 H   0  0  0  0  0  0  0  0  0  0  0  0  # atno 8008 bound_to 7997
  154.7500  140.0481  157.0907 H   0  0  0  0  0  0  0  0  0  0  0  0  # atno 8009 bound_to 7997
  155.0121  140.3114  155.4829 H   0  0  0  0  0  0  0  0  0  0  0  0  # atno 8010 bound_to 7997
  140.5657  143.9255  150.6675 H   0  0  0  0  0  0  0  0  0  0  0  0  # atno 10167 bound_to 10162
  156.7958  130.9534  151.3119 H   0  0  0  0  0  0  0  0  0  0  0  0  # atno 10718 bound_to 10713
  153.4692  135.7016  153.6003 H   0  0  0  0  0  0  0  0  0  0  0  0  # atno 10763 bound_to 10752
  153.4264  135.3813  155.2144 H   0  0  0  0  0  0  0  0  0  0  0  0  # atno 10764 bound_to 10752
  154.8725  135.3940  154.4128 H   0  0  0  0  0  0  0  0  0  0  0  0  # atno 10765 bound_to 10752
  140.5225  134.5695  157.5052 H   0  0  0  0  0  0  0  0  0  0  0  0  # atno 11005 bound_to 11000
  146.0645  139.3637  143.0561 LP  0  0  0  0  0  0  0  0  0  0  0  0  # atno 17320 bound_to 7965
  145.8049  140.9753  143.0979 LP  0  0  0  0  0  0  0  0  0  0  0  0  # atno 17321 bound_to 7965
  140.2718  143.3451  152.1231 LP  0  0  0  0  0  0  0  0  0  0  0  0  # atno 17342 bound_to 10162
  139.5092  144.6862  151.5880 LP  0  0  0  0  0  0  0  0  0  0  0  0  # atno 17343 bound_to 10162
  157.6578  130.8940  149.9766 LP  0  0  0  0  0  0  0  0  0  0  0  0  # atno 17370 bound_to 10713
  156.1131  130.3649  150.0014 LP  0  0  0  0  0  0  0  0  0  0  0  0  # atno 17371 bound_to 10713
  139.9598  134.7472  156.0262 LP  0  0  0  0  0  0  0  0  0  0  0  0  # atno 17394 bound_to 11000
  141.1326  133.6583  156.3506 LP  0  0  0  0  0  0  0  0  0  0  0  0  # atno 17395 bound_to 11000

$$$$
