AV-unprocessed.smi:2213|AV-procd|sdf|8956|dock1
  -GOLD-   2272012173D 1   1.00000     0.00000
 Structure written by MMmdl.
 38 39  0  0  0  0  0  0  0  0  1 V2000
  148.1903  134.2276  154.9992 C   0  0  0  0  0  0  0  0  0  0  0  0
  149.0094  135.4985  154.8595 C   0  0  0  0  0  0  0  0  0  0  0  0
  148.2760  136.6695  154.6473 N   0  0  0  0  0  0  0  0  0  0  0  0
  148.8898  137.7988  154.5091 C   0  0  0  0  0  0  0  0  0  0  0  0
  150.2901  137.8892  154.5671 N   0  0  0  0  0  0  0  0  0  0  0  0
  150.8646  139.2330  154.3875 C   0  0  0  0  0  0  0  0  0  0  0  0
  149.8942  140.3507  154.8318 C   0  0  2  0  0  0  0  0  0  0  0  0
  149.3839  141.0391  153.7075 O   0  0  0  0  0  0  0  0  0  0  0  0
  150.5549  141.3883  155.7555 C   0  0  0  0  0  0  0  0  0  0  0  0
  151.2817  140.7247  156.7824 O   0  0  0  0  0  0  0  0  0  0  0  0
  151.6961  141.4552  157.8763 C   0  0  0  0  0  0  0  0  0  0  0  0
  151.4563  142.8437  158.0377 C   0  0  0  0  0  0  0  0  0  0  0  0
  151.9152  143.5202  159.1850 C   0  0  0  0  0  0  0  0  0  0  0  0
  151.6165  145.2098  159.3662 Cl  0  0  0  0  0  0  0  0  0  0  0  0
  152.6170  142.8204  160.1838 C   0  0  0  0  0  0  0  0  0  0  0  0
  152.8586  141.4428  160.0341 C   0  0  0  0  0  0  0  0  0  0  0  0
  152.4004  140.7643  158.8878 C   0  0  0  0  0  0  0  0  0  0  0  0
  152.7083  139.0718  158.7295 Cl  0  0  0  0  0  0  0  0  0  0  0  0
  151.0805  136.7987  154.7854 C   0  0  0  0  0  0  0  0  0  0  0  0
  152.3075  136.8929  154.8548 O   0  0  0  0  0  0  0  0  0  0  0  0
  150.3684  135.5189  154.9323 C   0  0  0  0  0  0  0  0  0  0  0  0
  151.2195  134.2760  155.1608 C   0  0  0  0  0  0  0  0  0  0  0  0
  148.4443  133.5216  154.2083 H   0  0  0  0  0  0  0  0  0  0  0  0
  147.1214  134.4345  154.9312 H   0  0  0  0  0  0  0  0  0  0  0  0
  148.3778  133.7552  155.9637 H   0  0  0  0  0  0  0  0  0  0  0  0
  148.3640  138.7409  154.3445 H   0  0  0  0  0  0  0  0  0  0  0  0
  151.7797  139.2963  154.9796 H   0  0  0  0  0  0  0  0  0  0  0  0
  151.1986  139.4034  153.3616 H   0  0  0  0  0  0  0  0  0  0  0  0
  149.0433  139.9256  155.3653 H   0  0  0  0  0  0  0  0  0  0  0  0
  149.1764  140.4075  153.0359 H   0  0  0  0  0  0  0  0  0  0  0  0
  151.2007  142.0542  155.1803 H   0  0  0  0  0  0  0  0  0  0  0  0
  149.7734  141.9975  156.2127 H   0  0  0  0  0  0  0  0  0  0  0  0
  150.9207  143.4132  157.2936 H   0  0  0  0  0  0  0  0  0  0  0  0
  152.9697  143.3376  161.0640 H   0  0  0  0  0  0  0  0  0  0  0  0
  153.3966  140.9056  160.8013 H   0  0  0  0  0  0  0  0  0  0  0  0
  151.7975  134.3804  156.0794 H   0  0  0  0  0  0  0  0  0  0  0  0
  151.9179  134.1407  154.3344 H   0  0  0  0  0  0  0  0  0  0  0  0
  150.6328  133.3629  155.2456 H   0  0  0  0  0  0  0  0  0  0  0  0
  1  2  1  0  0  0  0
  1 23  1  0  0  0  0
  1 24  1  0  0  0  0
  1 25  1  0  0  0  0
  2 21  2  0  0  0  0
  2  3  1  0  0  0  0
  3  4  2  0  0  0  0
  4  5  1  0  0  0  0
  4 26  1  0  0  0  0
  5  6  1  0  0  0  0
  5 19  1  0  0  0  0
  6  7  1  0  0  0  0
  6 27  1  0  0  0  0
  6 28  1  0  0  0  0
  7  8  1  0  0  0  0
  7  9  1  0  0  0  0
  7 29  1  0  0  0  0
  8 30  1  0  0  0  0
  9 10  1  0  0  0  0
  9 31  1  0  0  0  0
  9 32  1  0  0  0  0
 10 11  1  0  0  0  0
 11 17  1  0  0  0  0
 11 12  2  0  0  0  0
 12 13  1  0  0  0  0
 12 33  1  0  0  0  0
 13 14  1  0  0  0  0
 13 15  2  0  0  0  0
 15 16  1  0  0  0  0
 15 34  1  0  0  0  0
 16 17  2  0  0  0  0
 16 35  1  0  0  0  0
 17 18  1  0  0  0  0
 19 20  2  0  0  0  0
 19 21  1  0  0  0  0
 21 22  1  0  0  0  0
 22 36  1  0  0  0  0
 22 37  1  0  0  0  0
 22 38  1  0  0  0  0
M  END
> <s_m_source_file>
AV-unprocessed.smi

> <i_m_source_file_index>
2213

> <i_lp_mmshare_version>
43012

> <i_f3d_flags>
0

> <s_epik_input>
W0NIM11jMW5bY0hdbihjKD1PKWMxW0NIM10pW0NIMl1bQ0BIXShbT0hdKVtDSDJdT2MyW2NIXWMoQ2wpW2NIXVtjSF1jMkNs

> <s_epik_cmdline>
J2VwaWtfcHl0aG9uJywgJy1waCcsICc3LjAnLCAnLXRuJywgJzgnLCAnLW1hJywgJzIwMCcsICctbWV0YWxfYmluZGluZycsICctaW1hZScsICc8aW5maWxlLm1hZT4nLCAnLW9tYWUnLCAnPG91dGZpbGUubWFlPic=

> <r_lp_tautomer_probability>
1

> <r_epik_Ionization_Penalty>
3.50205e-05

> <r_epik_Ionization_Penalty_Charging>
7.87908e-08

> <r_epik_Ionization_Penalty_Neutral>
3.49418e-05

> <r_epik_State_Penalty>
-0

> <r_epik_Charging_Adjusted_Penalty>
7.87908e-08

> <i_epik_Tot_Q>
0

> <i_epik_Tot_abs_Q>
0

> <r_epik_Metal_State_Penalty>
-0

> <b_epik_Metal_Only>
0

> <s_lp_Force_Field>
OPLS_2005

> <r_lp_Energy>
24.8727

> <b_lp_Chiralities_Consistent>
1

> <s_lp_Variant>
AV-unprocessed.smi:2213-1

> <Gold.Version>
5.8.1

> <Gold.Id.Protein>
6NUR|6NUR_protein|mol2

> <Gold.PLP.Fitness>
50.0100

> <Gold.PLP.PLP>
-44.9023

> <Gold.PLP.part.hbond>
-4.0000

> <Gold.PLP.part.metal>
0.0000

> <Gold.PLP.part.buried>
-4.7097

> <Gold.PLP.part.nonpolar>
-36.1313

> <Gold.PLP.part.repulsive>
0.2039

> <Gold.PLP.ligand.clash>
0.0000

> <Gold.PLP.ligand.torsion>
1.1625

> <Gold.PLP.Chemscore.Hbond>
2.4380

> <Gold.PLP.Chemscore.CHOScore>
0.0000

> <Gold.PLP.Chemscore.Metal>
0.0000

> <Gold.Chemscore.Hbonds>
donor molecule, donor type, donor heavy atom, donor atom, acceptor molecule, acceptor atom, score
      L1  H     8    30       P1  7957  0.78
      P1  H  8011  8017       L1     8  0.55
      P1  H 10752 10763       L1    20  0.68

> <Gold.PLP.Chemscore.Internal.Correction>
0.1188

> <Gold.Rescore>
     Score         DG    S(hbond)    S(metal)    S(lipo)     H(rot)  DE(clash)    DE(int)     intcor
     17.89     -19.52       1.96        0.00     116.11       2.38       0.41       1.22       ----

> <Gold.Chemscore.Fitness>
17.8938

> <Gold.Chemscore.DG>
-19.5224

> <Gold.Chemscore.ZeroCoef>
-5.4800

> <Gold.Chemscore.Hbond>
1.9631

> <Gold.Chemscore.Metal>
0.0000

> <Gold.Chemscore.Lipo>
116.1141

> <Gold.Chemscore.Internal_Hbond>
0.0000

> <Gold.Chemscore.DEClash>
0.4105

> <Gold.Chemscore.DEInternal>
1.2181

> <Gold.Chemscore.Rot>
2.3826

> <Gold.Chemscore.Internal.Correction>
   9.000000E+99

> <Gold.Chemscore.Hbonds>
donor molecule, donor type, donor heavy atom, donor atom, acceptor molecule, acceptor atom, score
      L1  H     8    30       P1  7957  0.77
      P1  H  8011  8017       L1     8  0.03
      P1  H 10752 10763       L1    20  0.52

> <Gold.Chemscore.Hbond.Weighted>
-6.5567

> <Gold.Chemscore.Metal.Weighted>
-0.0000

> <Gold.Chemscore.Lipo.Weighted>
-13.5853

> <Gold.Chemscore.Internal_Hbond.Weighted>
0.0000

> <Gold.Chemscore.DEClash.Weighted>
0.4105

> <Gold.Chemscore.DEInternal.Weighted>
1.2181

> <Gold.Chemscore.Rot.Weighted>
6.0996

> <Gold.Chemscore.Internal.Correction.Weighted>
   9.000000E+99

> <Gold.Protein.RotatedTorsions>
[ 6907 6896 6895 6894 ] final -174.59 input  -60.11 | X-H torsion
[ 7974 7965 7964 7962 ] final   41.49 input  175.53 | X-H torsion
[ 8008 7997 7996 7995 ] final  -13.67 input   59.86 | X-H torsion
[ 10167 10162 10161 10158 ] final   32.86 input  -65.29 | X-H torsion
[ 10718 10713 10712 10709 ] final  131.39 input   66.30 | X-H torsion
[ 10763 10752 10751 10750 ] final   56.03 input  -60.55 | X-H torsion
[ 11005 11000 10999 10996 ] final   97.31 input  -57.11 | X-H torsion

> <Gold.Protein.ActiveResidues>
 VAL166  LYS551  ARG553  GLY616  TRP617  ASP618  TYR619  PRO620  LYS621  CYS622 
 ASP623  PHE694  ASN695  SER759  ASP760  ASP761  ALA762  ILE779  LEU786  VAL792 
 PHE793  MET794  SER795  GLU796  ALA797  LYS798  CYS799  TRP800  GLU811  SER814 

> <Gold.Protein.RotatedAtoms>
  151.5748  133.3385  159.2996 H   0  0  0  0  0  0  0  0  0  0  0  0  # atno 6907 bound_to 6896
  150.8347  134.7618  159.6894 H   0  0  0  0  0  0  0  0  0  0  0  0  # atno 6908 bound_to 6896
  152.4425  134.5568  159.9934 H   0  0  0  0  0  0  0  0  0  0  0  0  # atno 6909 bound_to 6896
  146.0819  139.5410  142.9531 H   0  0  0  0  0  0  0  0  0  0  0  0  # atno 7974 bound_to 7965
  154.5273  140.2243  155.8867 H   0  0  0  0  0  0  0  0  0  0  0  0  # atno 8008 bound_to 7997
  156.1726  140.3118  155.8966 H   0  0  0  0  0  0  0  0  0  0  0  0  # atno 8009 bound_to 7997
  155.3525  140.0456  157.3037 H   0  0  0  0  0  0  0  0  0  0  0  0  # atno 8010 bound_to 7997
  140.4460  144.1119  150.6182 H   0  0  0  0  0  0  0  0  0  0  0  0  # atno 10167 bound_to 10162
  157.4972  131.1093  150.9477 H   0  0  0  0  0  0  0  0  0  0  0  0  # atno 10718 bound_to 10713
  152.9825  135.5690  154.5163 H   0  0  0  0  0  0  0  0  0  0  0  0  # atno 10763 bound_to 10752
  154.4659  135.2783  155.1681 H   0  0  0  0  0  0  0  0  0  0  0  0  # atno 10764 bound_to 10752
  154.3249  135.6261  153.5578 H   0  0  0  0  0  0  0  0  0  0  0  0  # atno 10765 bound_to 10752
  139.8776  134.8995  156.4289 H   0  0  0  0  0  0  0  0  0  0  0  0  # atno 11005 bound_to 11000
  145.6202  141.0324  143.1919 LP  0  0  0  0  0  0  0  0  0  0  0  0  # atno 17320 bound_to 7965
  144.7299  139.7758  143.7351 LP  0  0  0  0  0  0  0  0  0  0  0  0  # atno 17321 bound_to 7965
  140.4263  143.2588  151.9651 LP  0  0  0  0  0  0  0  0  0  0  0  0  # atno 17342 bound_to 10162
  139.4793  144.5785  151.7972 LP  0  0  0  0  0  0  0  0  0  0  0  0  # atno 17343 bound_to 10162
  157.0160  130.5655  149.5326 LP  0  0  0  0  0  0  0  0  0  0  0  0  # atno 17370 bound_to 10713
  156.0207  130.5302  150.8267 LP  0  0  0  0  0  0  0  0  0  0  0  0  # atno 17371 bound_to 10713
  140.9081  133.7731  155.9759 LP  0  0  0  0  0  0  0  0  0  0  0  0  # atno 17394 bound_to 11000
  140.8577  134.2878  157.5248 LP  0  0  0  0  0  0  0  0  0  0  0  0  # atno 17395 bound_to 11000

$$$$
