AV-unprocessed.smi:3179|AV-procd|sdf|12133|dock8
  -GOLD-   2272017573D 1   1.00000     0.00000
 Structure written by MMmdl.
 34 34  0  0  0  0  0  0  0  0  2 V2000
  141.9241  137.9214  153.3029 C   0  0  0  0  0  0  0  0  0  0  0  0
  142.9999  136.8763  152.9961 C   0  0  0  0  0  0  0  0  0  0  0  0
  144.2679  137.5138  152.6173 N   0  3  0  0  0  0  0  0  0  0  0  0
  145.4328  136.8745  152.3943 C   0  0  0  0  0  0  0  0  0  0  0  0
  146.5315  137.5754  152.0519 N   0  0  0  0  0  0  0  0  0  0  0  0
  146.6009  139.0333  151.8882 C   0  0  0  0  0  0  0  0  0  0  0  0
  147.1492  139.7067  153.1492 C   0  0  0  0  0  0  0  0  0  0  0  0
  145.4991  135.5341  152.5133 N   0  0  0  0  0  0  0  0  0  0  0  0
  146.6985  134.7134  152.2993 C   0  0  0  0  0  0  0  0  0  0  0  0
  146.3548  133.2193  152.2872 C   0  0  0  0  0  0  0  0  0  0  0  0
  145.3539  132.8760  151.2356 C   0  0  0  0  0  0  0  0  0  0  0  0
  145.6852  132.4257  150.0223 N   0  0  0  0  0  0  0  0  0  0  0  0
  144.5672  132.1499  149.2311 C   0  0  0  0  0  0  0  0  0  0  0  0
  143.3751  132.3822  149.8686 C   0  0  0  0  0  0  0  0  0  0  0  0
  143.6146  132.9590  151.4952 S   0  0  0  0  0  0  0  0  0  0  0  0
  140.9718  137.4414  153.5294 H   0  0  0  0  0  0  0  0  0  0  0  0
  141.7665  138.5869  152.4537 H   0  0  0  0  0  0  0  0  0  0  0  0
  142.2014  138.5318  154.1628 H   0  0  0  0  0  0  0  0  0  0  0  0
  143.1640  136.2374  153.8639 H   0  0  0  0  0  0  0  0  0  0  0  0
  142.6700  136.2349  152.1786 H   0  0  0  0  0  0  0  0  0  0  0  0
  147.3890  137.0659  151.8929 H   0  0  0  0  0  0  0  0  0  0  0  0
  147.2401  139.2636  151.0356 H   0  0  0  0  0  0  0  0  0  0  0  0
  145.6058  139.4156  151.6604 H   0  0  0  0  0  0  0  0  0  0  0  0
  147.2278  140.7848  153.0086 H   0  0  0  0  0  0  0  0  0  0  0  0
  148.1424  139.3309  153.3971 H   0  0  0  0  0  0  0  0  0  0  0  0
  146.4983  139.5299  154.0060 H   0  0  0  0  0  0  0  0  0  0  0  0
  144.6580  135.0390  152.7731 H   0  0  0  0  0  0  0  0  0  0  0  0
  147.1589  135.0000  151.3531 H   0  0  0  0  0  0  0  0  0  0  0  0
  147.4189  134.9276  153.0892 H   0  0  0  0  0  0  0  0  0  0  0  0
  147.2548  132.6279  152.1152 H   0  0  0  0  0  0  0  0  0  0  0  0
  145.9615  132.9155  153.2582 H   0  0  0  0  0  0  0  0  0  0  0  0
  144.7122  131.7882  148.2239 H   0  0  0  0  0  0  0  0  0  0  0  0
  142.3755  132.2476  149.4824 H   0  0  0  0  0  0  0  0  0  0  0  0
  144.2541  138.5199  152.5291 H   0  0  0  0  0  0  0  0  0  0  0  0
  1  2  1  0  0  0  0
  1 16  1  0  0  0  0
  1 17  1  0  0  0  0
  1 18  1  0  0  0  0
  2  3  1  0  0  0  0
  2 19  1  0  0  0  0
  2 20  1  0  0  0  0
  3  4  2  0  0  0  0
  3 34  1  0  0  0  0
  4  5  1  0  0  0  0
  4  8  1  0  0  0  0
  5  6  1  0  0  0  0
  5 21  1  0  0  0  0
  6  7  1  0  0  0  0
  6 22  1  0  0  0  0
  6 23  1  0  0  0  0
  7 24  1  0  0  0  0
  7 25  1  0  0  0  0
  7 26  1  0  0  0  0
  8  9  1  0  0  0  0
  8 27  1  0  0  0  0
  9 10  1  0  0  0  0
  9 28  1  0  0  0  0
  9 29  1  0  0  0  0
 10 11  1  0  0  0  0
 10 30  1  0  0  0  0
 10 31  1  0  0  0  0
 11 15  1  0  0  0  0
 11 12  2  0  0  0  0
 12 13  1  0  0  0  0
 13 14  2  0  0  0  0
 13 32  1  0  0  0  0
 14 15  1  0  0  0  0
 14 33  1  0  0  0  0
M  CHG  1   3   1
M  END
> <s_m_source_file>
AV-unprocessed.smi

> <i_m_source_file_index>
3179

> <i_lp_mmshare_version>
43012

> <i_f3d_flags>
0

> <s_epik_input>
W0NIM11bQ0gyXS9OPUMoXFtOSF1bQ0gyXVtDSDNdKVtOSF1bQ0gyXVtDSDJdYzFuW2NIXVtjSF1zMQ==

> <s_epik_cmdline>
J2VwaWtfcHl0aG9uJywgJy1waCcsICc3LjAnLCAnLXRuJywgJzgnLCAnLW1hJywgJzIwMCcsICctbWV0YWxfYmluZGluZycsICctaW1hZScsICc8aW5maWxlLm1hZT4nLCAnLW9tYWUnLCAnPG91dGZpbGUubWFlPic=

> <r_lp_tautomer_probability>
1

> <r_epik_Ionization_Penalty>
3.28801e-05

> <r_epik_Ionization_Penalty_Charging>
8.99277e-08

> <r_epik_Ionization_Penalty_Neutral>
3.27902e-05

> <r_epik_State_Penalty>
-0

> <r_epik_Charging_Adjusted_Penalty>
8.99277e-08

> <i_epik_Tot_Q>
1

> <i_epik_Tot_abs_Q>
1

> <r_epik_Metal_State_Penalty>
-0

> <b_epik_Metal_Only>
0

> <s_epik_Chemistry_Notes>
This compound has an imine and may undergo hydrolysis.

> <s_lp_Force_Field>
OPLS_2005

> <r_lp_Energy>
0.365327

> <b_lp_Chiralities_Consistent>
1

> <s_lp_Variant>
AV-unprocessed.smi:3179-2

> <Gold.Version>
5.8.1

> <Gold.Id.Protein>
6NUR|6NUR_protein|mol2

> <Gold.PLP.Fitness>
42.9924

> <Gold.PLP.PLP>
-27.2878

> <Gold.PLP.part.hbond>
-3.0000

> <Gold.PLP.part.metal>
0.0000

> <Gold.PLP.part.buried>
1.2016

> <Gold.PLP.part.nonpolar>
-27.0564

> <Gold.PLP.part.repulsive>
0.2494

> <Gold.PLP.ligand.clash>
0.0000

> <Gold.PLP.ligand.torsion>
0.5786

> <Gold.PLP.Chemscore.Hbond>
4.0000

> <Gold.PLP.Chemscore.CHOScore>
1.6160

> <Gold.PLP.Chemscore.Metal>
0.0000

> <Gold.Chemscore.Hbonds>
donor molecule, donor type, donor heavy atom, donor atom, acceptor molecule, acceptor atom, score
      L1  H     3    34       P1 10175  2.00
      L1  H     5    21       P1  7948  2.00
      L1  C    14    33       P1 10186  0.62
      L1  C    14    33       P1 10952  1.00

> <Gold.PLP.Chemscore.Internal.Correction>
0.0139

> <Gold.Rescore>
     Score         DG    S(hbond)    S(metal)    S(lipo)     H(rot)  DE(clash)    DE(int)     intcor
     14.73     -16.62       1.98        0.00      76.21       1.72       1.50       0.39       ----

> <Gold.Chemscore.Fitness>
14.7258

> <Gold.Chemscore.DG>
-16.6186

> <Gold.Chemscore.ZeroCoef>
-5.4800

> <Gold.Chemscore.Hbond>
1.9825

> <Gold.Chemscore.Metal>
0.0000

> <Gold.Chemscore.Lipo>
76.2118

> <Gold.Chemscore.Internal_Hbond>
0.0000

> <Gold.Chemscore.DEClash>
1.4985

> <Gold.Chemscore.DEInternal>
0.3944

> <Gold.Chemscore.Rot>
1.7187

> <Gold.Chemscore.Internal.Correction>
   9.000000E+99

> <Gold.Chemscore.Hbonds>
donor molecule, donor type, donor heavy atom, donor atom, acceptor molecule, acceptor atom, score
      L1  H     3    34       P1 10175  0.95
      L1  H     5    21       P1  7948  1.00

> <Gold.Chemscore.Hbond.Weighted>
-6.6216

> <Gold.Chemscore.Metal.Weighted>
-0.0000

> <Gold.Chemscore.Lipo.Weighted>
-8.9168

> <Gold.Chemscore.Internal_Hbond.Weighted>
0.0000

> <Gold.Chemscore.DEClash.Weighted>
1.4985

> <Gold.Chemscore.DEInternal.Weighted>
0.3944

> <Gold.Chemscore.Rot.Weighted>
4.3998

> <Gold.Chemscore.Internal.Correction.Weighted>
   9.000000E+99

> <Gold.Protein.RotatedTorsions>
[ 6907 6896 6895 6894 ] final -148.00 input  -60.11 | X-H torsion
[ 7974 7965 7964 7962 ] final  -80.46 input  175.53 | X-H torsion
[ 8008 7997 7996 7995 ] final  -58.77 input   59.86 | X-H torsion
[ 10167 10162 10161 10158 ] final  138.75 input  -65.29 | X-H torsion
[ 10718 10713 10712 10709 ] final    2.73 input   66.30 | X-H torsion
[ 10763 10752 10751 10750 ] final  -31.13 input  -60.55 | X-H torsion
[ 11005 11000 10999 10996 ] final  134.46 input  -57.11 | X-H torsion

> <Gold.Protein.ActiveResidues>
 VAL166  LYS551  ARG553  GLY616  TRP617  ASP618  TYR619  PRO620  LYS621  CYS622 
 ASP623  PHE694  ASN695  SER759  ASP760  ASP761  ALA762  ILE779  LEU786  VAL792 
 PHE793  MET794  SER795  GLU796  ALA797  LYS798  CYS799  TRP800  GLU811  SER814 

> <Gold.Protein.RotatedAtoms>
  151.1637  133.4829  159.2593 H   0  0  0  0  0  0  0  0  0  0  0  0  # atno 6907 bound_to 6896
  151.1428  135.0188  159.8643 H   0  0  0  0  0  0  0  0  0  0  0  0  # atno 6908 bound_to 6896
  152.5462  134.1529  159.8579 H   0  0  0  0  0  0  0  0  0  0  0  0  # atno 6909 bound_to 6896
  145.5597  140.9484  143.1454 H   0  0  0  0  0  0  0  0  0  0  0  0  # atno 7974 bound_to 7965
  154.4323  140.1077  156.6009 H   0  0  0  0  0  0  0  0  0  0  0  0  # atno 8008 bound_to 7997
  155.5912  140.3492  155.4548 H   0  0  0  0  0  0  0  0  0  0  0  0  # atno 8009 bound_to 7997
  156.0245  140.1247  157.0312 H   0  0  0  0  0  0  0  0  0  0  0  0  # atno 8010 bound_to 7997
  139.5101  144.6335  151.5756 H   0  0  0  0  0  0  0  0  0  0  0  0  # atno 10167 bound_to 10162
  156.8674  130.5608  149.5659 H   0  0  0  0  0  0  0  0  0  0  0  0  # atno 10718 bound_to 10713
  153.7924  135.6897  153.4869 H   0  0  0  0  0  0  0  0  0  0  0  0  # atno 10763 bound_to 10752
  153.1741  135.4531  154.9940 H   0  0  0  0  0  0  0  0  0  0  0  0  # atno 10764 bound_to 10752
  154.8039  135.3349  154.7419 H   0  0  0  0  0  0  0  0  0  0  0  0  # atno 10765 bound_to 10752
  139.9916  134.9513  156.9869 H   0  0  0  0  0  0  0  0  0  0  0  0  # atno 11005 bound_to 11000
  144.7489  139.7246  143.7281 LP  0  0  0  0  0  0  0  0  0  0  0  0  # atno 17320 bound_to 7965
  146.1860  139.5075  142.9836 LP  0  0  0  0  0  0  0  0  0  0  0  0  # atno 17321 bound_to 7965
  140.6076  143.9496  150.6430 LP  0  0  0  0  0  0  0  0  0  0  0  0  # atno 17342 bound_to 10162
  140.2728  143.3444  152.1223 LP  0  0  0  0  0  0  0  0  0  0  0  0  # atno 17343 bound_to 10162
  156.0744  130.5770  150.9446 LP  0  0  0  0  0  0  0  0  0  0  0  0  # atno 17370 bound_to 10713
  157.6215  131.0929  150.8613 LP  0  0  0  0  0  0  0  0  0  0  0  0  # atno 17371 bound_to 10713
  140.4897  134.1206  155.7230 LP  0  0  0  0  0  0  0  0  0  0  0  0  # atno 17394 bound_to 11000
  141.1571  133.8863  157.1949 LP  0  0  0  0  0  0  0  0  0  0  0  0  # atno 17395 bound_to 11000

$$$$
