AV-unprocessed.smi:1399|AV-procd|sdf|5684|dock10
  -GOLD-   22720 5313D 1   1.00000     0.00000
 Structure written by MMmdl.
 37 38  0  0  0  0  0  0  0  0  3 V2000
  148.0572  142.9032  154.1095 N   0  5  0  0  0  0  0  0  0  0  0  0
  146.7958  142.4336  154.1520 C   0  0  0  0  0  0  0  0  0  0  0  0
  145.7726  142.9778  153.7419 O   0  0  0  0  0  0  0  0  0  0  0  0
  146.7107  141.0386  154.7804 C   0  0  0  0  0  0  0  0  0  0  0  0
  146.3312  140.0372  153.7529 N   0  3  2  0  0  0  0  0  0  0  0  0
  146.1924  138.6717  154.3200 C   0  0  0  0  0  0  0  0  0  0  0  0
  145.6601  137.6836  153.2682 C   0  0  0  0  0  0  0  0  0  0  0  0
  146.5606  137.6597  152.0228 C   0  0  1  0  0  0  0  0  0  0  0  0
  145.9876  136.7784  151.0095 N   0  0  0  0  0  0  0  0  0  0  0  0
  145.4573  135.5704  151.2503 C   0  0  0  0  0  0  0  0  0  0  0  0
  145.3887  135.0696  152.3727 O   0  0  0  0  0  0  0  0  0  0  0  0
  145.0259  134.9911  150.1183 N   0  0  0  0  0  0  0  0  0  0  0  0
  144.4100  133.7210  149.9872 C   0  0  0  0  0  0  0  0  0  0  0  0
  144.1190  132.9763  148.8063 C   0  0  0  0  0  0  0  0  0  0  0  0
  143.5365  131.8221  149.0988 N   0  0  0  0  0  0  0  0  0  0  0  0
  143.4537  131.8220  150.4482 N   0  0  0  0  0  0  0  0  0  0  0  0
  143.9748  132.9573  151.0287 C   0  0  0  0  0  0  0  0  0  0  0  0
  146.7191  139.0898  151.4762 C   0  0  0  0  0  0  0  0  0  0  0  0
  147.2277  140.0482  152.5654 C   0  0  0  0  0  0  0  0  0  0  0  0
  143.0430  131.0487  150.9521 H   0  0  0  0  0  0  0  0  0  0  0  0
  148.6688  142.7473  154.9199 H   0  0  0  0  0  0  0  0  0  0  0  0
  147.6348  140.7422  155.2816 H   0  0  0  0  0  0  0  0  0  0  0  0
  145.9429  141.0892  155.5535 H   0  0  0  0  0  0  0  0  0  0  0  0
  147.1583  138.3354  154.7003 H   0  0  0  0  0  0  0  0  0  0  0  0
  145.5068  138.6932  155.1678 H   0  0  0  0  0  0  0  0  0  0  0  0
  145.5948  136.6851  153.7019 H   0  0  0  0  0  0  0  0  0  0  0  0
  144.6441  137.9670  152.9883 H   0  0  0  0  0  0  0  0  0  0  0  0
  147.5409  137.2796  152.3175 H   0  0  0  0  0  0  0  0  0  0  0  0
  146.0015  137.1097  150.0559 H   0  0  0  0  0  0  0  0  0  0  0  0
  145.1563  135.5077  149.2609 H   0  0  0  0  0  0  0  0  0  0  0  0
  144.3029  133.2183  147.7703 H   0  0  0  0  0  0  0  0  0  0  0  0
  143.9874  133.1159  152.0969 H   0  0  0  0  0  0  0  0  0  0  0  0
  147.4101  139.0972  150.6323 H   0  0  0  0  0  0  0  0  0  0  0  0
  145.7626  139.4508  151.0951 H   0  0  0  0  0  0  0  0  0  0  0  0
  147.2920  141.0541  152.1499 H   0  0  0  0  0  0  0  0  0  0  0  0
  148.2379  139.7685  152.8683 H   0  0  0  0  0  0  0  0  0  0  0  0
  145.4127  140.3090  153.4322 H   0  0  0  0  0  0  0  0  0  0  0  0
  1  2  1  0  0  0  0
  1 21  1  0  0  0  0
  2  3  2  0  0  0  0
  2  4  1  0  0  0  0
  4  5  1  0  0  0  0
  4 22  1  0  0  0  0
  4 23  1  0  0  0  0
  5 19  1  0  0  0  0
  5  6  1  0  0  0  0
  5 37  1  0  0  0  0
  6  7  1  0  0  0  0
  6 24  1  0  0  0  0
  6 25  1  0  0  0  0
  7  8  1  0  0  0  0
  7 26  1  0  0  0  0
  7 27  1  0  0  0  0
  8  9  1  0  0  0  0
  8 18  1  0  0  0  0
  8 28  1  0  0  0  0
  9 10  1  0  0  0  0
  9 29  1  0  0  0  0
 10 11  2  0  0  0  0
 10 12  1  0  0  0  0
 12 13  1  0  0  0  0
 12 30  1  0  0  0  0
 13 17  2  0  0  0  0
 13 14  1  0  0  0  0
 14 15  2  0  0  0  0
 14 31  1  0  0  0  0
 15 16  1  0  0  0  0
 16 20  1  0  0  0  0
 16 17  1  0  0  0  0
 17 32  1  0  0  0  0
 18 19  1  0  0  0  0
 18 33  1  0  0  0  0
 18 34  1  0  0  0  0
 19 35  1  0  0  0  0
 19 36  1  0  0  0  0
M  CHG  1   1  -1
M  CHG  1   5   1
M  END
> <s_m_source_file>
AV-unprocessed.smi

> <i_m_source_file_index>
1399

> <i_lp_mmshare_version>
43012

> <i_f3d_flags>
0

> <s_epik_input>
W05IMl1DKD1PKVtDSDJdTjFbQ0gyXVtDSDJdW0NIXShbQ0gyXVtDSDJdMSlbTkhdQyg9TylbTkhdYzJbY0hdbltuSF1bY0hdMg==

> <s_epik_cmdline>
J2VwaWtfcHl0aG9uJywgJy1waCcsICc3LjAnLCAnLXRuJywgJzgnLCAnLW1hJywgJzIwMCcsICctbWV0YWxfYmluZGluZycsICctaW1hZScsICc8aW5maWxlLm1hZT4nLCAnLW9tYWUnLCAnPG91dGZpbGUubWFlPic=

> <r_lp_tautomer_probability>
0.5

> <r_epik_Ionization_Penalty>
5.72885

> <r_epik_Ionization_Penalty_Charging>
5.7288

> <r_epik_Ionization_Penalty_Neutral>
4.21226e-05

> <r_epik_State_Penalty>
6.54882

> <r_epik_Charging_Adjusted_Penalty>
12.2776

> <i_epik_Tot_Q>
0

> <i_epik_Tot_abs_Q>
2

> <r_epik_Metal_State_Penalty>
2.51297

> <b_epik_Metal_Only>
1

> <s_lp_Force_Field>
OPLS_2005

> <r_lp_Energy>
11.0753

> <b_lp_Chiralities_Consistent>
1

> <s_lp_Variant>
AV-unprocessed.smi:1399-4

> <Gold.Version>
5.8.1

> <Gold.Id.Protein>
6NUR|6NUR_protein|mol2

> <Gold.PLP.Fitness>
47.5919

> <Gold.PLP.PLP>
-33.1980

> <Gold.PLP.part.hbond>
-8.3053

> <Gold.PLP.part.metal>
0.0000

> <Gold.PLP.part.buried>
2.9670

> <Gold.PLP.part.nonpolar>
-28.4092

> <Gold.PLP.part.repulsive>
1.0339

> <Gold.PLP.ligand.clash>
0.0000

> <Gold.PLP.ligand.torsion>
0.2993

> <Gold.PLP.Chemscore.Hbond>
4.3840

> <Gold.PLP.Chemscore.CHOScore>
0.6076

> <Gold.PLP.Chemscore.Metal>
0.0000

> <Gold.Chemscore.Hbonds>
donor molecule, donor type, donor heavy atom, donor atom, acceptor molecule, acceptor atom, score
      L1  H     5    37       P1 10175  2.00
      L1  H    12    30       P1  7921  0.51
      P1  H  8022  8030       L1     1  0.93
      P1  H 10785 10796       L1    15  0.90
      L1  C    14    31       P1  7921  0.61

> <Gold.PLP.Chemscore.Internal.Correction>
0.0177

> <Gold.Rescore>
     Score         DG    S(hbond)    S(metal)    S(lipo)     H(rot)  DE(clash)    DE(int)     intcor
     11.44     -17.45       2.90        0.00      64.67       2.06       2.96       3.05       ----

> <Gold.Chemscore.Fitness>
11.4367

> <Gold.Chemscore.DG>
-17.4491

> <Gold.Chemscore.ZeroCoef>
-5.4800

> <Gold.Chemscore.Hbond>
2.8957

> <Gold.Chemscore.Metal>
0.0000

> <Gold.Chemscore.Lipo>
64.6746

> <Gold.Chemscore.Internal_Hbond>
0.0000

> <Gold.Chemscore.DEClash>
2.9650

> <Gold.Chemscore.DEInternal>
3.0474

> <Gold.Chemscore.Rot>
2.0584

> <Gold.Chemscore.Internal.Correction>
   9.000000E+99

> <Gold.Chemscore.Hbonds>
donor molecule, donor type, donor heavy atom, donor atom, acceptor molecule, acceptor atom, score
      L1  H     1    21       P1  8028  0.04
      L1  H     5    37       P1 10175  0.97
      L1  H    12    30       P1  7921  0.50
      P1  H  8022  8030       L1     1  0.26
      P1  H 10785 10796       L1    15  0.31

> <Gold.Chemscore.Hbond.Weighted>
-9.6716

> <Gold.Chemscore.Metal.Weighted>
-0.0000

> <Gold.Chemscore.Lipo.Weighted>
-7.5669

> <Gold.Chemscore.Internal_Hbond.Weighted>
0.0000

> <Gold.Chemscore.DEClash.Weighted>
2.9650

> <Gold.Chemscore.DEInternal.Weighted>
3.0474

> <Gold.Chemscore.Rot.Weighted>
5.2695

> <Gold.Chemscore.Internal.Correction.Weighted>
   9.000000E+99

> <Gold.Protein.RotatedTorsions>
[ 6907 6896 6895 6894 ] final  -84.48 input  -60.11 | X-H torsion
[ 7974 7965 7964 7962 ] final  -16.30 input  175.53 | X-H torsion
[ 8008 7997 7996 7995 ] final -100.52 input   59.86 | X-H torsion
[ 10167 10162 10161 10158 ] final  -97.38 input  -65.29 | X-H torsion
[ 10718 10713 10712 10709 ] final  141.60 input   66.30 | X-H torsion
[ 10763 10752 10751 10750 ] final   -2.54 input  -60.55 | X-H torsion
[ 11005 11000 10999 10996 ] final  124.17 input  -57.11 | X-H torsion

> <Gold.Protein.ActiveResidues>
 VAL166  LYS551  ARG553  GLY616  TRP617  ASP618  TYR619  PRO620  LYS621  CYS622 
 ASP623  PHE694  ASN695  SER759  ASP760  ASP761  ALA762  ILE779  LEU786  VAL792 
 PHE793  MET794  SER795  GLU796  ALA797  LYS798  CYS799  TRP800  GLU811  SER814 

> <Gold.Protein.RotatedAtoms>
  150.6876  134.3352  159.4843 H   0  0  0  0  0  0  0  0  0  0  0  0  # atno 6907 bound_to 6896
  152.1212  134.9201  160.0572 H   0  0  0  0  0  0  0  0  0  0  0  0  # atno 6908 bound_to 6896
  152.0407  133.3941  159.4372 H   0  0  0  0  0  0  0  0  0  0  0  0  # atno 6909 bound_to 6896
  146.1993  140.3617  142.8429 H   0  0  0  0  0  0  0  0  0  0  0  0  # atno 7974 bound_to 7965
  154.8298  140.0440  157.1469 H   0  0  0  0  0  0  0  0  0  0  0  0  # atno 8008 bound_to 7997
  154.9166  140.3021  155.5218 H   0  0  0  0  0  0  0  0  0  0  0  0  # atno 8009 bound_to 7997
  156.2986  140.2348  156.4211 H   0  0  0  0  0  0  0  0  0  0  0  0  # atno 8010 bound_to 7997
  140.2840  143.3264  152.0413 H   0  0  0  0  0  0  0  0  0  0  0  0  # atno 10167 bound_to 10162
  157.3902  131.1003  151.0654 H   0  0  0  0  0  0  0  0  0  0  0  0  # atno 10718 bound_to 10713
  153.3594  135.6989  153.6724 H   0  0  0  0  0  0  0  0  0  0  0  0  # atno 10763 bound_to 10752
  153.5419  135.3571  155.2722 H   0  0  0  0  0  0  0  0  0  0  0  0  # atno 10764 bound_to 10752
  154.8666  135.4205  154.2848 H   0  0  0  0  0  0  0  0  0  0  0  0  # atno 10765 bound_to 10752
  139.9346  134.9640  156.8370 H   0  0  0  0  0  0  0  0  0  0  0  0  # atno 11005 bound_to 11000
  144.8649  140.7192  143.6084 LP  0  0  0  0  0  0  0  0  0  0  0  0  # atno 17320 bound_to 7965
  145.3537  139.1699  143.4421 LP  0  0  0  0  0  0  0  0  0  0  0  0  # atno 17321 bound_to 7965
  139.4955  144.6572  151.6546 LP  0  0  0  0  0  0  0  0  0  0  0  0  # atno 17342 bound_to 10162
  140.5788  143.9982  150.6256 LP  0  0  0  0  0  0  0  0  0  0  0  0  # atno 17343 bound_to 10162
  157.1691  130.6259  149.5635 LP  0  0  0  0  0  0  0  0  0  0  0  0  # atno 17370 bound_to 10713
  155.9796  130.4791  150.6726 LP  0  0  0  0  0  0  0  0  0  0  0  0  # atno 17371 bound_to 10713
  140.6109  134.0083  155.7576 LP  0  0  0  0  0  0  0  0  0  0  0  0  # atno 17394 bound_to 11000
  141.0954  133.9852  157.3169 LP  0  0  0  0  0  0  0  0  0  0  0  0  # atno 17395 bound_to 11000

$$$$
