AV-unprocessed.smi:1637|AV-procd|sdf|6544|dock6
  -GOLD-   22720 7223D 1   1.00000     0.00000
 Structure written by MMmdl.
 38 39  0  0  0  0  0  0  0  0  1 V2000
  145.8376  142.2487  157.2441 C   0  0  0  0  0  0  0  0  0  0  0  0
  146.2780  142.2663  155.8907 O   0  0  0  0  0  0  0  0  0  0  0  0
  146.3878  141.0642  155.2221 C   0  0  0  0  0  0  0  0  0  0  0  0
  145.7593  139.9282  155.7699 C   0  0  0  0  0  0  0  0  0  0  0  0
  145.8696  138.6966  155.0963 C   0  0  0  0  0  0  0  0  0  0  0  0
  146.6147  138.6391  153.8944 C   0  0  0  0  0  0  0  0  0  0  0  0
  146.7853  137.4636  153.1150 N   0  0  0  0  0  0  0  0  0  0  0  0
  145.9059  136.4709  152.8981 C   0  0  0  0  0  0  0  0  0  0  0  0
  144.7687  136.4124  153.3652 O   0  0  0  0  0  0  0  0  0  0  0  0
  146.4339  135.5212  152.1130 N   0  0  0  0  0  0  0  0  0  0  0  0
  145.7554  134.3025  151.6717 C   0  0  2  0  0  0  0  0  0  0  0  0
  146.7543  133.3392  150.9797 C   0  0  0  0  0  0  0  0  0  0  0  0
  146.1475  132.3407  149.9716 C   0  0  0  0  0  0  0  0  0  0  0  0
  144.9882  131.4767  150.5079 C   0  0  0  0  0  0  0  0  0  0  0  0
  143.7846  132.2311  151.1211 C   0  0  0  0  0  0  0  0  0  0  0  0
  143.6219  133.6023  150.6389 N   0  0  0  0  0  0  0  0  0  0  0  0
  144.4757  134.6142  150.8720 C   0  0  0  0  0  0  0  0  0  0  0  0
  144.2593  135.7480  150.4460 O   0  0  0  0  0  0  0  0  0  0  0  0
  147.1903  139.8363  153.4213 C   0  0  0  0  0  0  0  0  0  0  0  0
  147.0904  141.0194  154.0631 N   0  0  0  0  0  0  0  0  0  0  0  0
  145.8101  143.2682  157.6280 H   0  0  0  0  0  0  0  0  0  0  0  0
  146.5158  141.6752  157.8775 H   0  0  0  0  0  0  0  0  0  0  0  0
  144.8315  141.8356  157.3302 H   0  0  0  0  0  0  0  0  0  0  0  0
  145.1987  140.0004  156.6902 H   0  0  0  0  0  0  0  0  0  0  0  0
  145.3723  137.8309  155.5057 H   0  0  0  0  0  0  0  0  0  0  0  0
  147.7087  137.3304  152.7291 H   0  0  0  0  0  0  0  0  0  0  0  0
  147.3760  135.6541  151.7746 H   0  0  0  0  0  0  0  0  0  0  0  0
  145.4062  133.8102  152.5802 H   0  0  0  0  0  0  0  0  0  0  0  0
  147.5083  133.9214  150.4481 H   0  0  0  0  0  0  0  0  0  0  0  0
  147.2986  132.7872  151.7468 H   0  0  0  0  0  0  0  0  0  0  0  0
  145.8139  132.8801  149.0839 H   0  0  0  0  0  0  0  0  0  0  0  0
  146.9397  131.6801  149.6179 H   0  0  0  0  0  0  0  0  0  0  0  0
  144.6239  130.8669  149.6805 H   0  0  0  0  0  0  0  0  0  0  0  0
  145.3712  130.7683  151.2432 H   0  0  0  0  0  0  0  0  0  0  0  0
  142.8666  131.6824  150.9100 H   0  0  0  0  0  0  0  0  0  0  0  0
  143.8663  132.2430  152.2086 H   0  0  0  0  0  0  0  0  0  0  0  0
  142.7900  133.8018  150.1026 H   0  0  0  0  0  0  0  0  0  0  0  0
  147.7554  139.8462  152.5008 H   0  0  0  0  0  0  0  0  0  0  0  0
  1  2  1  0  0  0  0
  1 21  1  0  0  0  0
  1 22  1  0  0  0  0
  1 23  1  0  0  0  0
  2  3  1  0  0  0  0
  3 20  1  0  0  0  0
  3  4  2  0  0  0  0
  4  5  1  0  0  0  0
  4 24  1  0  0  0  0
  5  6  2  0  0  0  0
  5 25  1  0  0  0  0
  6  7  1  0  0  0  0
  6 19  1  0  0  0  0
  7  8  1  0  0  0  0
  7 26  1  0  0  0  0
  8  9  2  0  0  0  0
  8 10  1  0  0  0  0
 10 11  1  0  0  0  0
 10 27  1  0  0  0  0
 11 17  1  0  0  0  0
 11 12  1  0  0  0  0
 11 28  1  0  0  0  0
 12 13  1  0  0  0  0
 12 29  1  0  0  0  0
 12 30  1  0  0  0  0
 13 14  1  0  0  0  0
 13 31  1  0  0  0  0
 13 32  1  0  0  0  0
 14 15  1  0  0  0  0
 14 33  1  0  0  0  0
 14 34  1  0  0  0  0
 15 16  1  0  0  0  0
 15 35  1  0  0  0  0
 15 36  1  0  0  0  0
 16 17  1  0  0  0  0
 16 37  1  0  0  0  0
 17 18  2  0  0  0  0
 19 20  2  0  0  0  0
 19 38  1  0  0  0  0
M  END
> <s_m_source_file>
AV-unprocessed.smi

> <i_m_source_file_index>
1637

> <i_lp_mmshare_version>
43012

> <i_f3d_flags>
0

> <s_epik_input>
W0NIM11PYzFbY0hdW2NIXWMoW2NIXW4xKVtOSF1DKD1PKVtOSF1bQ0BASF0yW0NIMl1bQ0gyXVtDSDJdW0NIMl1bTkhdQzI9Tw==

> <s_epik_cmdline>
J2VwaWtfcHl0aG9uJywgJy1waCcsICc3LjAnLCAnLXRuJywgJzgnLCAnLW1hJywgJzIwMCcsICctbWV0YWxfYmluZGluZycsICctaW1hZScsICc8aW5maWxlLm1hZT4nLCAnLW9tYWUnLCAnPG91dGZpbGUubWFlPic=

> <r_lp_tautomer_probability>
1

> <r_epik_Ionization_Penalty>
8.30847e-05

> <r_epik_Ionization_Penalty_Charging>
0

> <r_epik_Ionization_Penalty_Neutral>
8.30847e-05

> <r_epik_State_Penalty>
-0

> <r_epik_Charging_Adjusted_Penalty>
0

> <i_epik_Tot_Q>
0

> <i_epik_Tot_abs_Q>
0

> <r_epik_Metal_State_Penalty>
-0

> <b_epik_Metal_Only>
0

> <s_lp_Force_Field>
OPLS_2005

> <r_lp_Energy>
17.0101

> <b_lp_Chiralities_Consistent>
1

> <s_lp_Variant>
AV-unprocessed.smi:1637-1

> <Gold.Version>
5.8.1

> <Gold.Id.Protein>
6NUR|6NUR_protein|mol2

> <Gold.PLP.Fitness>
38.5646

> <Gold.PLP.PLP>
-27.5491

> <Gold.PLP.part.hbond>
-3.0000

> <Gold.PLP.part.metal>
0.0000

> <Gold.PLP.part.buried>
-4.8582

> <Gold.PLP.part.nonpolar>
-22.0891

> <Gold.PLP.part.repulsive>
2.3951

> <Gold.PLP.ligand.clash>
0.0000

> <Gold.PLP.ligand.torsion>
0.5069

> <Gold.PLP.Chemscore.Hbond>
2.9920

> <Gold.PLP.Chemscore.CHOScore>
1.0000

> <Gold.PLP.Chemscore.Metal>
0.0000

> <Gold.Chemscore.Hbonds>
donor molecule, donor type, donor heavy atom, donor atom, acceptor molecule, acceptor atom, score
      L1  H     7    26       P1  7948  0.99
      L1  H    10    27       P1  7948  1.00
      L1  H    16    37       P1 10186  1.00
      L1  C    19    38       P1  7957  1.00

> <Gold.PLP.Chemscore.Internal.Correction>
0.0535

> <Gold.Rescore>
     Score         DG    S(hbond)    S(metal)    S(lipo)     H(rot)  DE(clash)    DE(int)     intcor
     17.33     -18.37       2.94        0.00      54.88       1.31       0.33       0.72       ----

> <Gold.Chemscore.Fitness>
17.3254

> <Gold.Chemscore.DG>
-18.3747

> <Gold.Chemscore.ZeroCoef>
-5.4800

> <Gold.Chemscore.Hbond>
2.9416

> <Gold.Chemscore.Metal>
0.0000

> <Gold.Chemscore.Lipo>
54.8785

> <Gold.Chemscore.Internal_Hbond>
0.0000

> <Gold.Chemscore.DEClash>
0.3304

> <Gold.Chemscore.DEInternal>
0.7189

> <Gold.Chemscore.Rot>
1.3090

> <Gold.Chemscore.Internal.Correction>
   9.000000E+99

> <Gold.Chemscore.Hbonds>
donor molecule, donor type, donor heavy atom, donor atom, acceptor molecule, acceptor atom, score
      L1  H     7    26       P1  7948  0.94
      L1  H    10    27       P1  7948  0.98
      L1  H    16    37       P1 10186  0.98

> <Gold.Chemscore.Hbond.Weighted>
-9.8248

> <Gold.Chemscore.Metal.Weighted>
-0.0000

> <Gold.Chemscore.Lipo.Weighted>
-6.4208

> <Gold.Chemscore.Internal_Hbond.Weighted>
0.0000

> <Gold.Chemscore.DEClash.Weighted>
0.3304

> <Gold.Chemscore.DEInternal.Weighted>
0.7189

> <Gold.Chemscore.Rot.Weighted>
3.3509

> <Gold.Chemscore.Internal.Correction.Weighted>
   9.000000E+99

> <Gold.Protein.RotatedTorsions>
[ 6907 6896 6895 6894 ] final  170.53 input  -60.11 | X-H torsion
[ 7974 7965 7964 7962 ] final  123.40 input  175.53 | X-H torsion
[ 8008 7997 7996 7995 ] final  130.05 input   59.86 | X-H torsion
[ 10167 10162 10161 10158 ] final -135.85 input  -65.29 | X-H torsion
[ 10718 10713 10712 10709 ] final   85.13 input   66.30 | X-H torsion
[ 10763 10752 10751 10750 ] final   14.74 input  -60.55 | X-H torsion
[ 11005 11000 10999 10996 ] final  -47.37 input  -57.11 | X-H torsion

> <Gold.Protein.ActiveResidues>
 VAL166  LYS551  ARG553  GLY616  TRP617  ASP618  TYR619  PRO620  LYS621  CYS622 
 ASP623  PHE694  ASN695  SER759  ASP760  ASP761  ALA762  ILE779  LEU786  VAL792 
 PHE793  MET794  SER795  GLU796  ALA797  LYS798  CYS799  TRP800  GLU811  SER814 

> <Gold.Protein.RotatedAtoms>
  151.8147  133.3386  159.3565 H   0  0  0  0  0  0  0  0  0  0  0  0  # atno 6907 bound_to 6896
  150.7314  134.5631  159.5861 H   0  0  0  0  0  0  0  0  0  0  0  0  # atno 6908 bound_to 6896
  152.3050  134.7567  160.0400 H   0  0  0  0  0  0  0  0  0  0  0  0  # atno 6909 bound_to 6896
  145.0964  139.3550  143.4834 H   0  0  0  0  0  0  0  0  0  0  0  0  # atno 7974 bound_to 7965
  156.2947  140.2605  156.2698 H   0  0  0  0  0  0  0  0  0  0  0  0  # atno 8008 bound_to 7997
  154.9706  140.0391  157.2251 H   0  0  0  0  0  0  0  0  0  0  0  0  # atno 8009 bound_to 7997
  154.7862  140.2804  155.6031 H   0  0  0  0  0  0  0  0  0  0  0  0  # atno 8010 bound_to 7997
  139.8737  143.6925  152.2636 H   0  0  0  0  0  0  0  0  0  0  0  0  # atno 10167 bound_to 10162
  157.6910  131.0162  150.2776 H   0  0  0  0  0  0  0  0  0  0  0  0  # atno 10718 bound_to 10713
  153.1593  135.6793  153.8766 H   0  0  0  0  0  0  0  0  0  0  0  0  # atno 10763 bound_to 10752
  153.8167  135.3135  155.3407 H   0  0  0  0  0  0  0  0  0  0  0  0  # atno 10764 bound_to 10752
  154.7920  135.4829  154.0164 H   0  0  0  0  0  0  0  0  0  0  0  0  # atno 10765 bound_to 10752
  141.0636  133.6701  156.3288 H   0  0  0  0  0  0  0  0  0  0  0  0  # atno 11005 bound_to 11000
  146.3530  140.0821  142.8617 LP  0  0  0  0  0  0  0  0  0  0  0  0  # atno 17320 bound_to 7965
  145.1006  140.9343  143.4715 LP  0  0  0  0  0  0  0  0  0  0  0  0  # atno 17321 bound_to 7965
  139.7260  144.7593  151.0878 LP  0  0  0  0  0  0  0  0  0  0  0  0  # atno 17342 bound_to 10162
  140.7756  143.5148  150.9609 LP  0  0  0  0  0  0  0  0  0  0  0  0  # atno 17343 bound_to 10162
  156.3328  130.3803  149.7476 LP  0  0  0  0  0  0  0  0  0  0  0  0  # atno 17370 bound_to 10713
  156.5010  130.8129  151.3132 LP  0  0  0  0  0  0  0  0  0  0  0  0  # atno 17371 bound_to 10713
  140.5818  134.5738  157.5481 LP  0  0  0  0  0  0  0  0  0  0  0  0  # atno 17394 bound_to 11000
  139.9456  134.7708  156.0571 LP  0  0  0  0  0  0  0  0  0  0  0  0  # atno 17395 bound_to 11000

$$$$
