AV-unprocessed.smi:1409|AV-procd|sdf|5727|dock5
  -GOLD-   22720 5363D 1   1.00000     0.00000
 Structure written by MMmdl.
 37 38  0  0  0  0  0  0  0  0  1 V2000
  145.7602  137.9450  149.7935 C   0  0  0  0  0  0  0  0  0  0  0  0
  146.8130  138.2237  150.7099 O   0  0  0  0  0  0  0  0  0  0  0  0
  146.5811  139.1324  151.7249 C   0  0  0  0  0  0  0  0  0  0  0  0
  145.3921  139.7856  151.7477 N   0  0  0  0  0  0  0  0  0  0  0  0
  145.1644  140.6715  152.7391 C   0  0  0  0  0  0  0  0  0  0  0  0
  146.0972  140.9466  153.7557 C   0  0  0  0  0  0  0  0  0  0  0  0
  147.3310  140.2703  153.7346 C   0  0  0  0  0  0  0  0  0  0  0  0
  147.5909  139.3489  152.6914 C   0  0  0  0  0  0  0  0  0  0  0  0
  148.7938  138.5973  152.5900 N   0  0  0  0  0  0  0  0  0  0  0  0
  150.0467  138.9855  152.8807 C   0  0  0  0  0  0  0  0  0  0  0  0
  150.3715  140.1046  153.2772 O   0  0  0  0  0  0  0  0  0  0  0  0
  150.9234  137.9964  152.6584 N   0  0  0  0  0  0  0  0  0  0  0  0
  152.3676  138.0988  152.8404 C   0  0  0  0  0  0  0  0  0  0  0  0
  153.1010  136.8037  152.4380 C   0  0  2  0  0  0  0  0  0  0  0  0
  152.2837  135.5234  152.7118 C   0  0  0  0  0  0  0  0  0  0  0  0
  153.2066  134.3122  152.5522 C   0  0  0  0  0  0  0  0  0  0  0  0
  154.8454  134.8628  153.1542 S   0  0  0  0  0  0  0  0  0  0  0  0
  155.0285  134.4226  154.5455 O   0  0  0  0  0  0  0  0  0  0  0  0
  155.8573  134.5703  152.1279 O   0  0  0  0  0  0  0  0  0  0  0  0
  154.4581  136.6556  153.1458 C   0  0  0  0  0  0  0  0  0  0  0  0
  146.1065  137.2204  149.0567 H   0  0  0  0  0  0  0  0  0  0  0  0
  145.4514  138.8415  149.2540 H   0  0  0  0  0  0  0  0  0  0  0  0
  144.8947  137.5147  150.2995 H   0  0  0  0  0  0  0  0  0  0  0  0
  144.2071  141.1713  152.7252 H   0  0  0  0  0  0  0  0  0  0  0  0
  145.8691  141.6561  154.5374 H   0  0  0  0  0  0  0  0  0  0  0  0
  148.0441  140.4583  154.5223 H   0  0  0  0  0  0  0  0  0  0  0  0
  148.6948  137.6796  152.1810 H   0  0  0  0  0  0  0  0  0  0  0  0
  150.5677  137.1100  152.3311 H   0  0  0  0  0  0  0  0  0  0  0  0
  152.7539  138.9452  152.2697 H   0  0  0  0  0  0  0  0  0  0  0  0
  152.5579  138.3250  153.8899 H   0  0  0  0  0  0  0  0  0  0  0  0
  153.3016  136.8349  151.3659 H   0  0  0  0  0  0  0  0  0  0  0  0
  151.9092  135.5492  153.7360 H   0  0  0  0  0  0  0  0  0  0  0  0
  151.4156  135.4451  152.0565 H   0  0  0  0  0  0  0  0  0  0  0  0
  152.8709  133.4385  153.1110 H   0  0  0  0  0  0  0  0  0  0  0  0
  153.3068  134.0400  151.5012 H   0  0  0  0  0  0  0  0  0  0  0  0
  155.2559  137.2095  152.6508 H   0  0  0  0  0  0  0  0  0  0  0  0
  154.4013  136.9855  154.1835 H   0  0  0  0  0  0  0  0  0  0  0  0
  1  2  1  0  0  0  0
  1 21  1  0  0  0  0
  1 22  1  0  0  0  0
  1 23  1  0  0  0  0
  2  3  1  0  0  0  0
  3  8  1  0  0  0  0
  3  4  2  0  0  0  0
  4  5  1  0  0  0  0
  5  6  2  0  0  0  0
  5 24  1  0  0  0  0
  6  7  1  0  0  0  0
  6 25  1  0  0  0  0
  7  8  2  0  0  0  0
  7 26  1  0  0  0  0
  8  9  1  0  0  0  0
  9 10  1  0  0  0  0
  9 27  1  0  0  0  0
 10 11  2  0  0  0  0
 10 12  1  0  0  0  0
 12 13  1  0  0  0  0
 12 28  1  0  0  0  0
 13 14  1  0  0  0  0
 13 29  1  0  0  0  0
 13 30  1  0  0  0  0
 14 20  1  0  0  0  0
 14 15  1  0  0  0  0
 14 31  1  0  0  0  0
 15 16  1  0  0  0  0
 15 32  1  0  0  0  0
 15 33  1  0  0  0  0
 16 17  1  0  0  0  0
 16 34  1  0  0  0  0
 16 35  1  0  0  0  0
 17 18  2  0  0  0  0
 17 19  2  0  0  0  0
 17 20  1  0  0  0  0
 20 36  1  0  0  0  0
 20 37  1  0  0  0  0
M  END
> <s_m_source_file>
AV-unprocessed.smi

> <i_m_source_file_index>
1409

> <i_lp_mmshare_version>
43012

> <i_f3d_flags>
0

> <s_epik_input>
W0NIM11PYzFuW2NIXVtjSF1bY0hdYzFbTkhdQyg9TylbTkhdW0NIMl1bQ0BASF0oW0NIMl0yKVtDSDJdW0NIMl1TMig9Tyk9Tw==

> <s_epik_cmdline>
J2VwaWtfcHl0aG9uJywgJy1waCcsICc3LjAnLCAnLXRuJywgJzgnLCAnLW1hJywgJzIwMCcsICctbWV0YWxfYmluZGluZycsICctaW1hZScsICc8aW5maWxlLm1hZT4nLCAnLW9tYWUnLCAnPG91dGZpbGUubWFlPic=

> <r_lp_tautomer_probability>
1

> <r_epik_Ionization_Penalty>
9.0549e-05

> <r_epik_Ionization_Penalty_Charging>
0

> <r_epik_Ionization_Penalty_Neutral>
9.0549e-05

> <r_epik_State_Penalty>
-0

> <r_epik_Charging_Adjusted_Penalty>
0

> <i_epik_Tot_Q>
0

> <i_epik_Tot_abs_Q>
0

> <r_epik_Metal_State_Penalty>
-0

> <b_epik_Metal_Only>
0

> <s_lp_Force_Field>
OPLS_2005

> <r_lp_Energy>
8.54576

> <b_lp_Chiralities_Consistent>
1

> <s_lp_Variant>
AV-unprocessed.smi:1409-1

> <Gold.Version>
5.8.1

> <Gold.Id.Protein>
6NUR|6NUR_protein|mol2

> <Gold.PLP.Fitness>
-230.6150

> <Gold.PLP.PLP>
236.5917

> <Gold.PLP.part.hbond>
3.6029

> <Gold.PLP.part.metal>
0.0000

> <Gold.PLP.part.buried>
143.3815

> <Gold.PLP.part.nonpolar>
75.7112

> <Gold.PLP.part.repulsive>
17.1597

> <Gold.PLP.ligand.clash>
0.0000

> <Gold.PLP.ligand.torsion>
0.5753

> <Gold.PLP.Chemscore.Hbond>
2.3735

> <Gold.PLP.Chemscore.CHOScore>
0.0000

> <Gold.PLP.Chemscore.Metal>
0.0000

> <Gold.Chemscore.Hbonds>
donor molecule, donor type, donor heavy atom, donor atom, acceptor molecule, acceptor atom, score
      L1  H     9    27       P1  7948  0.84
      L1  H    12    28       P1  7949  0.06
      P1  H  7954  7966       L1     2  1.00
      P1  H  7989  7998       L1    11  0.46

> <Gold.PLP.Chemscore.Internal.Correction>
0.0068

> <Gold.Rescore>
     Score         DG    S(hbond)    S(metal)    S(lipo)     H(rot)  DE(clash)    DE(int)     intcor
      5.73      -7.20       0.66        0.00      30.58       1.59       0.30       1.17       ----

> <Gold.Chemscore.Fitness>
5.7336

> <Gold.Chemscore.DG>
-7.2016

> <Gold.Chemscore.ZeroCoef>
-5.4800

> <Gold.Chemscore.Hbond>
0.6643

> <Gold.Chemscore.Metal>
0.0000

> <Gold.Chemscore.Lipo>
30.5827

> <Gold.Chemscore.Internal_Hbond>
0.0000

> <Gold.Chemscore.DEClash>
0.2985

> <Gold.Chemscore.DEInternal>
1.1695

> <Gold.Chemscore.Rot>
1.5919

> <Gold.Chemscore.Internal.Correction>
   9.000000E+99

> <Gold.Chemscore.Hbonds>
donor molecule, donor type, donor heavy atom, donor atom, acceptor molecule, acceptor atom, score
      L1  H     9    27       P1  7948  0.84
      P1  H  7954  7966       L1     2  0.43
      P1  H  7989  7998       L1    11  0.45

> <Gold.Chemscore.Hbond.Weighted>
-2.2188

> <Gold.Chemscore.Metal.Weighted>
-0.0000

> <Gold.Chemscore.Lipo.Weighted>
-3.5782

> <Gold.Chemscore.Internal_Hbond.Weighted>
0.0000

> <Gold.Chemscore.DEClash.Weighted>
0.2985

> <Gold.Chemscore.DEInternal.Weighted>
1.1695

> <Gold.Chemscore.Rot.Weighted>
4.0754

> <Gold.Chemscore.Internal.Correction.Weighted>
   9.000000E+99

> <Gold.Protein.RotatedTorsions>
[ 6907 6896 6895 6894 ] final -144.49 input  -60.11 | X-H torsion
[ 7974 7965 7964 7962 ] final   23.65 input  175.53 | X-H torsion
[ 8008 7997 7996 7995 ] final  -56.86 input   59.86 | X-H torsion
[ 10167 10162 10161 10158 ] final  124.55 input  -65.29 | X-H torsion
[ 10718 10713 10712 10709 ] final -101.05 input   66.30 | X-H torsion
[ 10763 10752 10751 10750 ] final -171.65 input  -60.55 | X-H torsion
[ 11005 11000 10999 10996 ] final   82.11 input  -57.11 | X-H torsion

> <Gold.Protein.ActiveResidues>
 VAL166  LYS551  ARG553  GLY616  TRP617  ASP618  TYR619  PRO620  LYS621  CYS622 
 ASP623  PHE694  ASN695  SER759  ASP760  ASP761  ALA762  ILE779  LEU786  VAL792 
 PHE793  MET794  SER795  GLU796  ALA797  LYS798  CYS799  TRP800  GLU811  SER814 

> <Gold.Protein.RotatedAtoms>
  151.1147  133.5147  159.2604 H   0  0  0  0  0  0  0  0  0  0  0  0  # atno 6907 bound_to 6896
  151.1927  135.0409  159.8849 H   0  0  0  0  0  0  0  0  0  0  0  0  # atno 6908 bound_to 6896
  152.5452  134.0986  159.8361 H   0  0  0  0  0  0  0  0  0  0  0  0  # atno 6909 bound_to 6896
  146.1974  139.7714  142.8787 H   0  0  0  0  0  0  0  0  0  0  0  0  # atno 7974 bound_to 7965
  154.4246  140.1120  156.5705 H   0  0  0  0  0  0  0  0  0  0  0  0  # atno 8008 bound_to 7997
  155.6217  140.3495  155.4635 H   0  0  0  0  0  0  0  0  0  0  0  0  # atno 8009 bound_to 7997
  156.0019  140.1201  157.0529 H   0  0  0  0  0  0  0  0  0  0  0  0  # atno 8010 bound_to 7997
  139.5735  144.6951  151.3715 H   0  0  0  0  0  0  0  0  0  0  0  0  # atno 10167 bound_to 10162
  156.0182  130.5355  150.6906 H   0  0  0  0  0  0  0  0  0  0  0  0  # atno 10718 bound_to 10713
  154.6281  135.2883  155.0248 H   0  0  0  0  0  0  0  0  0  0  0  0  # atno 10763 bound_to 10752
  154.1418  135.6517  153.4948 H   0  0  0  0  0  0  0  0  0  0  0  0  # atno 10764 bound_to 10752
  153.0267  135.5335  154.7098 H   0  0  0  0  0  0  0  0  0  0  0  0  # atno 10765 bound_to 10752
  139.9075  134.8047  156.2131 H   0  0  0  0  0  0  0  0  0  0  0  0  # atno 11005 bound_to 11000
  145.3597  141.0323  143.3292 LP  0  0  0  0  0  0  0  0  0  0  0  0  # atno 17320 bound_to 7965
  144.8610  139.5178  143.6812 LP  0  0  0  0  0  0  0  0  0  0  0  0  # atno 17321 bound_to 7965
  140.7019  143.7611  150.7417 LP  0  0  0  0  0  0  0  0  0  0  0  0  # atno 17342 bound_to 10162
  140.1124  143.4687  152.2362 LP  0  0  0  0  0  0  0  0  0  0  0  0  # atno 17343 bound_to 10162
  157.4588  131.0881  151.0767 LP  0  0  0  0  0  0  0  0  0  0  0  0  # atno 17370 bound_to 10713
  157.1261  130.6082  149.5517 LP  0  0  0  0  0  0  0  0  0  0  0  0  # atno 17371 bound_to 10713
  141.0453  133.6916  156.1672 LP  0  0  0  0  0  0  0  0  0  0  0  0  # atno 17394 bound_to 11000
  140.6893  134.4683  157.5589 LP  0  0  0  0  0  0  0  0  0  0  0  0  # atno 17395 bound_to 11000

$$$$
