AV-unprocessed.smi:1603|AV-procd|sdf|6444|dock3
  -GOLD-   22720 7 93D 1   1.00000     0.00000
 Structure written by MMmdl.
 45 47  0  0  0  0  0  0  0  0  2 V2000
  153.4177  139.4180  158.4784 O   0  0  0  0  0  0  0  0  0  0  0  0
  153.0937  140.4993  158.9703 C   0  0  0  0  0  0  0  0  0  0  0  0
  153.6189  141.0002  160.2495 C   0  0  0  0  0  0  0  0  0  0  0  0
  154.5939  140.1135  161.0196 C   0  0  0  0  0  0  0  0  0  0  0  0
  154.2209  138.8331  160.9956 F   0  0  0  0  0  0  0  0  0  0  0  0
  155.8171  140.1910  160.4943 F   0  0  0  0  0  0  0  0  0  0  0  0
  154.6630  140.4953  162.2951 F   0  0  0  0  0  0  0  0  0  0  0  0
  153.2300  142.2121  160.7154 C   0  0  0  0  0  0  0  0  0  0  0  0
  152.2973  143.0226  159.9582 C   0  0  0  0  0  0  0  0  0  0  0  0
  151.8299  144.3755  160.4127 C   0  0  0  0  0  0  0  0  0  0  0  0
  150.6461  145.0725  159.7819 C   0  0  0  0  0  0  0  0  0  0  0  0
  152.0417  145.6133  159.5727 C   0  0  0  0  0  0  0  0  0  0  0  0
  151.8350  142.5788  158.8380 N   0  0  0  0  0  0  0  0  0  0  0  0
  152.2133  141.3416  158.3542 N   0  0  0  0  0  0  0  0  0  0  0  0
  151.5990  140.9914  157.0673 C   0  0  0  0  0  0  0  0  0  0  0  0
  150.3293  141.8267  156.7904 C   0  0  1  0  0  0  0  0  0  0  0  0
  150.7072  143.1799  156.6241 O   0  0  0  0  0  0  0  0  0  0  0  0
  149.6343  141.3876  155.4849 C   0  0  0  0  0  0  0  0  0  0  0  0
  148.3369  142.0767  155.2647 N   0  3  0  0  0  0  0  0  0  0  0  0
  147.7066  141.6997  153.9770 C   0  0  0  0  0  0  0  0  0  0  0  0
  146.4009  142.4848  153.7660 C   0  0  0  0  0  0  0  0  0  0  0  0
  145.5219  142.2501  154.8590 O   0  0  0  0  0  0  0  0  0  0  0  0
  146.0784  142.6883  156.0922 C   0  0  0  0  0  0  0  0  0  0  0  0
  147.3730  141.9095  156.3809 C   0  0  0  0  0  0  0  0  0  0  0  0
  153.6045  142.5968  161.6521 H   0  0  0  0  0  0  0  0  0  0  0  0
  151.9453  144.4809  161.4899 H   0  0  0  0  0  0  0  0  0  0  0  0
  150.1630  144.6017  158.9277 H   0  0  0  0  0  0  0  0  0  0  0  0
  149.9849  145.6318  160.4406 H   0  0  0  0  0  0  0  0  0  0  0  0
  152.3084  146.5316  160.0918 H   0  0  0  0  0  0  0  0  0  0  0  0
  152.4822  145.4916  158.5848 H   0  0  0  0  0  0  0  0  0  0  0  0
  152.3109  141.0627  156.2424 H   0  0  0  0  0  0  0  0  0  0  0  0
  151.3321  139.9334  157.1055 H   0  0  0  0  0  0  0  0  0  0  0  0
  149.6434  141.7423  157.6331 H   0  0  0  0  0  0  0  0  0  0  0  0
  149.9352  143.6851  156.4143 H   0  0  0  0  0  0  0  0  0  0  0  0
  150.3053  141.5942  154.6491 H   0  0  0  0  0  0  0  0  0  0  0  0
  149.4680  140.3092  155.4810 H   0  0  0  0  0  0  0  0  0  0  0  0
  148.3922  141.9042  153.1539 H   0  0  0  0  0  0  0  0  0  0  0  0
  147.5041  140.6275  153.9678 H   0  0  0  0  0  0  0  0  0  0  0  0
  146.5995  143.5532  153.6655 H   0  0  0  0  0  0  0  0  0  0  0  0
  145.9138  142.1634  152.8453 H   0  0  0  0  0  0  0  0  0  0  0  0
  146.2687  143.7624  156.0589 H   0  0  0  0  0  0  0  0  0  0  0  0
  145.3526  142.5185  156.8875 H   0  0  0  0  0  0  0  0  0  0  0  0
  147.1466  140.8505  156.5146 H   0  0  0  0  0  0  0  0  0  0  0  0
  147.8025  142.2645  157.3167 H   0  0  0  0  0  0  0  0  0  0  0  0
  148.5482  143.0627  155.1979 H   0  0  0  0  0  0  0  0  0  0  0  0
  1  2  2  0  0  0  0
  2 14  1  0  0  0  0
  2  3  1  0  0  0  0
  3  4  1  0  0  0  0
  3  8  2  0  0  0  0
  4  5  1  0  0  0  0
  4  6  1  0  0  0  0
  4  7  1  0  0  0  0
  8  9  1  0  0  0  0
  8 25  1  0  0  0  0
  9 10  1  0  0  0  0
  9 13  2  0  0  0  0
 10 12  1  0  0  0  0
 10 11  1  0  0  0  0
 10 26  1  0  0  0  0
 11 12  1  0  0  0  0
 11 27  1  0  0  0  0
 11 28  1  0  0  0  0
 12 29  1  0  0  0  0
 12 30  1  0  0  0  0
 13 14  1  0  0  0  0
 14 15  1  0  0  0  0
 15 16  1  0  0  0  0
 15 31  1  0  0  0  0
 15 32  1  0  0  0  0
 16 17  1  0  0  0  0
 16 18  1  0  0  0  0
 16 33  1  0  0  0  0
 17 34  1  0  0  0  0
 18 19  1  0  0  0  0
 18 35  1  0  0  0  0
 18 36  1  0  0  0  0
 19 24  1  0  0  0  0
 19 20  1  0  0  0  0
 19 45  1  0  0  0  0
 20 21  1  0  0  0  0
 20 37  1  0  0  0  0
 20 38  1  0  0  0  0
 21 22  1  0  0  0  0
 21 39  1  0  0  0  0
 21 40  1  0  0  0  0
 22 23  1  0  0  0  0
 23 24  1  0  0  0  0
 23 41  1  0  0  0  0
 23 42  1  0  0  0  0
 24 43  1  0  0  0  0
 24 44  1  0  0  0  0
M  CHG  1  19   1
M  END
> <s_m_source_file>
AV-unprocessed.smi

> <i_m_source_file_index>
1603

> <i_lp_mmshare_version>
43012

> <i_f3d_flags>
0

> <s_epik_input>
Tz1jMWMoQyhGKShGKUYpW2NIXWMoW0NIXTJbQ0gyXVtDSDJdMilubjFbQ0gyXVtDQEhdKFtPSF0pW0NIMl1OM1tDSDJdW0NIMl1PW0NIMl1bQ0gyXTM=

> <s_epik_cmdline>
J2VwaWtfcHl0aG9uJywgJy1waCcsICc3LjAnLCAnLXRuJywgJzgnLCAnLW1hJywgJzIwMCcsICctbWV0YWxfYmluZGluZycsICctaW1hZScsICc8aW5maWxlLm1hZT4nLCAnLW9tYWUnLCAnPG91dGZpbGUubWFlPic=

> <r_lp_tautomer_probability>
1

> <r_epik_Ionization_Penalty>
0.373533

> <r_epik_Ionization_Penalty_Charging>
0.373533

> <r_epik_Ionization_Penalty_Neutral>
6.58334e-07

> <r_epik_State_Penalty>
0.37113

> <r_epik_Charging_Adjusted_Penalty>
0.744662

> <i_epik_Tot_Q>
1

> <i_epik_Tot_abs_Q>
1

> <r_epik_Metal_State_Penalty>
0.37113

> <b_epik_Metal_Only>
0

> <s_lp_Force_Field>
OPLS_2005

> <r_lp_Energy>
42.0637

> <b_lp_Chiralities_Consistent>
1

> <s_lp_Variant>
AV-unprocessed.smi:1603-2

> <Gold.Version>
5.8.1

> <Gold.Id.Protein>
6NUR|6NUR_protein|mol2

> <Gold.PLP.Fitness>
63.8107

> <Gold.PLP.PLP>
-54.0251

> <Gold.PLP.part.hbond>
-2.8942

> <Gold.PLP.part.metal>
0.0000

> <Gold.PLP.part.buried>
-8.2786

> <Gold.PLP.part.nonpolar>
-43.6048

> <Gold.PLP.part.repulsive>
0.3111

> <Gold.PLP.ligand.clash>
0.4347

> <Gold.PLP.ligand.torsion>
1.2299

> <Gold.PLP.Chemscore.Hbond>
4.0000

> <Gold.PLP.Chemscore.CHOScore>
0.0000

> <Gold.PLP.Chemscore.Metal>
0.0000

> <Gold.Chemscore.Hbonds>
donor molecule, donor type, donor heavy atom, donor atom, acceptor molecule, acceptor atom, score
      L1  H    17    34       P1  8028  1.00
      L1  H    19    45       P1  8028  2.00
      P1  H  7997  8010       L1     1  1.00

> <Gold.PLP.Chemscore.Internal.Correction>
0.6801

> <Gold.Rescore>
     Score         DG    S(hbond)    S(metal)    S(lipo)     H(rot)  DE(clash)    DE(int)     intcor
     19.18     -21.46       2.78        0.00     112.18       2.52       0.06       2.21       ----

> <Gold.Chemscore.Fitness>
19.1831

> <Gold.Chemscore.DG>
-21.4558

> <Gold.Chemscore.ZeroCoef>
-5.4800

> <Gold.Chemscore.Hbond>
2.7820

> <Gold.Chemscore.Metal>
0.0000

> <Gold.Chemscore.Lipo>
112.1791

> <Gold.Chemscore.Internal_Hbond>
0.0000

> <Gold.Chemscore.DEClash>
0.0616

> <Gold.Chemscore.DEInternal>
2.2111

> <Gold.Chemscore.Rot>
2.5160

> <Gold.Chemscore.Internal.Correction>
   9.000000E+99

> <Gold.Chemscore.Hbonds>
donor molecule, donor type, donor heavy atom, donor atom, acceptor molecule, acceptor atom, score
      L1  H    17    34       P1  8028  0.99
      L1  H    19    45       P1  8028  1.00
      P1  H  7997  8010       L1     1  0.25

> <Gold.Chemscore.Hbond.Weighted>
-9.2920

> <Gold.Chemscore.Metal.Weighted>
-0.0000

> <Gold.Chemscore.Lipo.Weighted>
-13.1250

> <Gold.Chemscore.Internal_Hbond.Weighted>
0.0000

> <Gold.Chemscore.DEClash.Weighted>
0.0616

> <Gold.Chemscore.DEInternal.Weighted>
2.2111

> <Gold.Chemscore.Rot.Weighted>
6.4411

> <Gold.Chemscore.Internal.Correction.Weighted>
   9.000000E+99

> <Gold.Protein.RotatedTorsions>
[ 6907 6896 6895 6894 ] final  -55.46 input  -60.11 | X-H torsion
[ 7974 7965 7964 7962 ] final  171.08 input  175.53 | X-H torsion
[ 8008 7997 7996 7995 ] final   31.17 input   59.86 | X-H torsion
[ 10167 10162 10161 10158 ] final   74.61 input  -65.29 | X-H torsion
[ 10718 10713 10712 10709 ] final   49.24 input   66.30 | X-H torsion
[ 10763 10752 10751 10750 ] final -103.45 input  -60.55 | X-H torsion
[ 11005 11000 10999 10996 ] final  -38.27 input  -57.11 | X-H torsion

> <Gold.Protein.ActiveResidues>
 VAL166  LYS551  ARG553  GLY616  TRP617  ASP618  TYR619  PRO620  LYS621  CYS622 
 ASP623  PHE694  ASN695  SER759  ASP760  ASP761  ALA762  ILE779  LEU786  VAL792 
 PHE793  MET794  SER795  GLU796  ALA797  LYS798  CYS799  TRP800  GLU811  SER814 

> <Gold.Protein.RotatedAtoms>
  150.8250  134.7476  159.6804 H   0  0  0  0  0  0  0  0  0  0  0  0  # atno 6907 bound_to 6896
  152.4362  134.5679  159.9922 H   0  0  0  0  0  0  0  0  0  0  0  0  # atno 6908 bound_to 6896
  151.5854  133.3335  159.3052 H   0  0  0  0  0  0  0  0  0  0  0  0  # atno 6909 bound_to 6896
  144.7305  139.9297  143.6424 H   0  0  0  0  0  0  0  0  0  0  0  0  # atno 7974 bound_to 7965
  155.1021  140.3230  155.4544 H   0  0  0  0  0  0  0  0  0  0  0  0  # atno 8008 bound_to 7997
  156.2714  140.2059  156.6094 H   0  0  0  0  0  0  0  0  0  0  0  0  # atno 8009 bound_to 7997
  154.6821  140.0525  157.0264 H   0  0  0  0  0  0  0  0  0  0  0  0  # atno 8010 bound_to 7997
  140.0119  144.5607  150.7652 H   0  0  0  0  0  0  0  0  0  0  0  0  # atno 10167 bound_to 10162
  157.4767  130.8289  149.8048 H   0  0  0  0  0  0  0  0  0  0  0  0  # atno 10718 bound_to 10713
  154.7808  135.4823  153.9840 H   0  0  0  0  0  0  0  0  0  0  0  0  # atno 10763 bound_to 10752
  153.1491  135.6787  153.8916 H   0  0  0  0  0  0  0  0  0  0  0  0  # atno 10764 bound_to 10752
  153.8566  135.3160  155.3414 H   0  0  0  0  0  0  0  0  0  0  0  0  # atno 10765 bound_to 10752
  141.0015  133.6953  156.2031 H   0  0  0  0  0  0  0  0  0  0  0  0  # atno 11005 bound_to 11000
  146.0867  139.3855  143.0431 LP  0  0  0  0  0  0  0  0  0  0  0  0  # atno 17320 bound_to 7965
  145.7767  140.9873  143.1120 LP  0  0  0  0  0  0  0  0  0  0  0  0  # atno 17321 bound_to 7965
  140.7378  143.2770  151.3712 LP  0  0  0  0  0  0  0  0  0  0  0  0  # atno 17342 bound_to 10162
  139.6199  144.0928  152.2381 LP  0  0  0  0  0  0  0  0  0  0  0  0  # atno 17343 bound_to 10162
  156.0100  130.3837  150.2296 LP  0  0  0  0  0  0  0  0  0  0  0  0  # atno 17370 bound_to 10713
  157.0480  131.0054  151.3262 LP  0  0  0  0  0  0  0  0  0  0  0  0  # atno 17371 bound_to 10713
  140.6881  134.4695  157.5589 LP  0  0  0  0  0  0  0  0  0  0  0  0  # atno 17394 bound_to 11000
  139.9041  134.8489  156.1776 LP  0  0  0  0  0  0  0  0  0  0  0  0  # atno 17395 bound_to 11000

$$$$
