AV-unprocessed.smi:3157|AV-procd|sdf|12039|dock9
  -GOLD-   2272017463D 1   1.00000     0.00000
 Structure written by MMmdl.
 40 41  0  0  0  0  0  0  0  0  2 V2000
  149.6235  139.5907  157.1615 C   0  0  0  0  0  0  0  0  0  0  0  0
  150.5530  140.5416  156.3779 C   0  0  2  0  0  0  0  0  0  0  0  0
  150.3754  141.9323  156.8552 N   0  3  0  0  0  0  0  0  0  0  0  0
  151.6157  142.6263  157.2610 C   0  0  0  0  0  0  0  0  0  0  0  0
  151.5740  143.0065  158.7496 C   0  0  0  0  0  0  0  0  0  0  0  0
  152.1301  144.4023  159.0375 C   0  0  0  0  0  0  0  0  0  0  0  0
  152.4179  144.3945  160.5401 C   0  0  0  0  0  0  0  0  0  0  0  0
  152.7518  142.9385  160.8955 C   0  0  0  0  0  0  0  0  0  0  0  0
  152.4212  142.1005  159.6523 C   0  0  0  0  0  0  0  0  0  0  0  0
  150.3230  140.4833  154.8436 C   0  0  1  0  0  0  0  0  0  0  0  0
  150.7571  139.1360  154.2341 C   0  0  0  0  0  0  0  0  0  0  0  0
  148.9419  140.7739  154.4785 N   0  0  0  0  0  0  0  0  0  0  0  0
  148.2035  141.9043  154.7624 C   0  0  0  0  0  0  0  0  0  0  0  0
  146.9613  141.7269  154.2242 C   0  0  0  0  0  0  0  0  0  0  0  0
  147.0355  140.4422  153.6181 C   0  0  0  0  0  0  0  0  0  0  0  0
  148.2205  139.8742  153.7720 N   0  0  0  0  0  0  0  0  0  0  0  0
  149.7905  138.5478  156.8925 H   0  0  0  0  0  0  0  0  0  0  0  0
  148.5746  139.8181  156.9688 H   0  0  0  0  0  0  0  0  0  0  0  0
  149.7844  139.6604  158.2369 H   0  0  0  0  0  0  0  0  0  0  0  0
  151.5850  140.2442  156.5721 H   0  0  0  0  0  0  0  0  0  0  0  0
  149.9723  142.4658  156.0981 H   0  0  0  0  0  0  0  0  0  0  0  0
  152.4864  142.0024  157.0592 H   0  0  0  0  0  0  0  0  0  0  0  0
  151.7234  143.5276  156.6561 H   0  0  0  0  0  0  0  0  0  0  0  0
  150.5406  142.9799  159.1000 H   0  0  0  0  0  0  0  0  0  0  0  0
  153.0605  144.5563  158.4884 H   0  0  0  0  0  0  0  0  0  0  0  0
  151.4404  145.1966  158.7505 H   0  0  0  0  0  0  0  0  0  0  0  0
  153.2206  145.0824  160.8071 H   0  0  0  0  0  0  0  0  0  0  0  0
  151.5259  144.7062  161.0851 H   0  0  0  0  0  0  0  0  0  0  0  0
  153.8030  142.8272  161.1644 H   0  0  0  0  0  0  0  0  0  0  0  0
  152.1617  142.6147  161.7536 H   0  0  0  0  0  0  0  0  0  0  0  0
  151.9082  141.1723  159.9059 H   0  0  0  0  0  0  0  0  0  0  0  0
  153.3494  141.8314  159.1460 H   0  0  0  0  0  0  0  0  0  0  0  0
  150.9334  141.2627  154.3844 H   0  0  0  0  0  0  0  0  0  0  0  0
  151.8205  138.9499  154.3846 H   0  0  0  0  0  0  0  0  0  0  0  0
  150.5756  139.1178  153.1589 H   0  0  0  0  0  0  0  0  0  0  0  0
  150.2101  138.3020  154.6753 H   0  0  0  0  0  0  0  0  0  0  0  0
  148.6172  142.7319  155.3197 H   0  0  0  0  0  0  0  0  0  0  0  0
  146.1265  142.4113  154.2573 H   0  0  0  0  0  0  0  0  0  0  0  0
  146.2687  139.9089  153.0758 H   0  0  0  0  0  0  0  0  0  0  0  0
  149.7240  141.9310  157.6270 H   0  0  0  0  0  0  0  0  0  0  0  0
  1  2  1  0  0  0  0
  1 17  1  0  0  0  0
  1 18  1  0  0  0  0
  1 19  1  0  0  0  0
  2  3  1  0  0  0  0
  2 10  1  0  0  0  0
  2 20  1  0  0  0  0
  3  4  1  0  0  0  0
  3 21  1  0  0  0  0
  3 40  1  0  0  0  0
  4  5  1  0  0  0  0
  4 22  1  0  0  0  0
  4 23  1  0  0  0  0
  5  9  1  0  0  0  0
  5  6  1  0  0  0  0
  5 24  1  0  0  0  0
  6  7  1  0  0  0  0
  6 25  1  0  0  0  0
  6 26  1  0  0  0  0
  7  8  1  0  0  0  0
  7 27  1  0  0  0  0
  7 28  1  0  0  0  0
  8  9  1  0  0  0  0
  8 29  1  0  0  0  0
  8 30  1  0  0  0  0
  9 31  1  0  0  0  0
  9 32  1  0  0  0  0
 10 11  1  0  0  0  0
 10 12  1  0  0  0  0
 10 33  1  0  0  0  0
 11 34  1  0  0  0  0
 11 35  1  0  0  0  0
 11 36  1  0  0  0  0
 12 16  1  0  0  0  0
 12 13  1  0  0  0  0
 13 14  2  0  0  0  0
 13 37  1  0  0  0  0
 14 15  1  0  0  0  0
 14 38  1  0  0  0  0
 15 16  2  0  0  0  0
 15 39  1  0  0  0  0
M  CHG  1   3   1
M  END
> <s_m_source_file>
AV-unprocessed.smi

> <i_m_source_file_index>
3157

> <i_lp_mmshare_version>
43012

> <i_f3d_flags>
0

> <s_epik_input>
bjFbY0hdW2NIXVtjSF1uMVtDQEBIXShbQ0gzXSlbQ0BIXShbQ0gzXSlbTkhdW0NIMl1bQ0hdMltDSDJdW0NIMl1bQ0gyXVtDSDJdMg==

> <s_epik_cmdline>
J2VwaWtfcHl0aG9uJywgJy1waCcsICc3LjAnLCAnLXRuJywgJzgnLCAnLW1hJywgJzIwMCcsICctbWV0YWxfYmluZGluZycsICctaW1hZScsICc8aW5maWxlLm1hZT4nLCAnLW9tYWUnLCAnPG91dGZpbGUubWFlPic=

> <r_lp_tautomer_probability>
1

> <r_epik_Ionization_Penalty>
0.00132192

> <r_epik_Ionization_Penalty_Charging>
0.0013111

> <r_epik_Ionization_Penalty_Neutral>
1.08112e-05

> <r_epik_State_Penalty>
-0

> <r_epik_Charging_Adjusted_Penalty>
0.0013111

> <i_epik_Tot_Q>
1

> <i_epik_Tot_abs_Q>
1

> <r_epik_Metal_State_Penalty>
-0

> <b_epik_Metal_Only>
0

> <s_lp_Force_Field>
OPLS_2005

> <r_lp_Energy>
31.1874

> <b_lp_Chiralities_Consistent>
1

> <s_lp_Variant>
AV-unprocessed.smi:3157-3

> <Gold.Version>
5.8.1

> <Gold.Id.Protein>
6NUR|6NUR_protein|mol2

> <Gold.PLP.Fitness>
43.0171

> <Gold.PLP.PLP>
-38.2730

> <Gold.PLP.part.hbond>
-1.0000

> <Gold.PLP.part.metal>
0.0000

> <Gold.PLP.part.buried>
-1.1251

> <Gold.PLP.part.nonpolar>
-36.3900

> <Gold.PLP.part.repulsive>
0.3390

> <Gold.PLP.ligand.clash>
0.0000

> <Gold.PLP.ligand.torsion>
1.7637

> <Gold.PLP.Chemscore.Hbond>
0.9646

> <Gold.PLP.Chemscore.CHOScore>
1.7628

> <Gold.PLP.Chemscore.Metal>
0.0000

> <Gold.Chemscore.Hbonds>
donor molecule, donor type, donor heavy atom, donor atom, acceptor molecule, acceptor atom, score
      L1  C    13    37       P1  8028  0.98
      L1  C    15    39       P1 10175  0.54

> <Gold.PLP.Chemscore.Internal.Correction>
0.0893

> <Gold.Rescore>
     Score         DG    S(hbond)    S(metal)    S(lipo)     H(rot)  DE(clash)    DE(int)     intcor
     14.06     -16.15       0.50        0.00     109.72       1.50       0.31       1.78       ----

> <Gold.Chemscore.Fitness>
14.0561

> <Gold.Chemscore.DG>
-16.1482

> <Gold.Chemscore.ZeroCoef>
-5.4800

> <Gold.Chemscore.Hbond>
0.5037

> <Gold.Chemscore.Metal>
0.0000

> <Gold.Chemscore.Lipo>
109.7250

> <Gold.Chemscore.Internal_Hbond>
0.0000

> <Gold.Chemscore.DEClash>
0.3149

> <Gold.Chemscore.DEInternal>
1.7772

> <Gold.Chemscore.Rot>
1.5047

> <Gold.Chemscore.Internal.Correction>
   9.000000E+99

> <Gold.Chemscore.Hbond.Weighted>
-1.6823

> <Gold.Chemscore.Metal.Weighted>
-0.0000

> <Gold.Chemscore.Lipo.Weighted>
-12.8378

> <Gold.Chemscore.Internal_Hbond.Weighted>
0.0000

> <Gold.Chemscore.DEClash.Weighted>
0.3149

> <Gold.Chemscore.DEInternal.Weighted>
1.7772

> <Gold.Chemscore.Rot.Weighted>
3.8520

> <Gold.Chemscore.Internal.Correction.Weighted>
   9.000000E+99

> <Gold.Protein.RotatedTorsions>
[ 6907 6896 6895 6894 ] final    2.35 input  -60.11 | X-H torsion
[ 7974 7965 7964 7962 ] final  -29.18 input  175.53 | X-H torsion
[ 8008 7997 7996 7995 ] final -102.22 input   59.86 | X-H torsion
[ 10167 10162 10161 10158 ] final    5.13 input  -65.29 | X-H torsion
[ 10718 10713 10712 10709 ] final  -35.04 input   66.30 | X-H torsion
[ 10763 10752 10751 10750 ] final  -16.09 input  -60.55 | X-H torsion
[ 11005 11000 10999 10996 ] final -100.18 input  -57.11 | X-H torsion

> <Gold.Protein.ActiveResidues>
 VAL166  LYS551  ARG553  GLY616  TRP617  ASP618  TYR619  PRO620  LYS621  CYS622 
 ASP623  PHE694  ASN695  SER759  ASP760  ASP761  ALA762  ILE779  LEU786  VAL792 
 PHE793  MET794  SER795  GLU796  ALA797  LYS798  CYS799  TRP800  GLU811  SER814 

> <Gold.Protein.RotatedAtoms>
  151.6075  135.1043  160.0073 H   0  0  0  0  0  0  0  0  0  0  0  0  # atno 6907 bound_to 6896
  152.4225  133.7137  159.6504 H   0  0  0  0  0  0  0  0  0  0  0  0  # atno 6908 bound_to 6896
  150.8113  133.8343  159.3203 H   0  0  0  0  0  0  0  0  0  0  0  0  # atno 6909 bound_to 6896
  146.1235  140.5379  142.8725 H   0  0  0  0  0  0  0  0  0  0  0  0  # atno 7974 bound_to 7965
  154.8536  140.0429  157.1620 H   0  0  0  0  0  0  0  0  0  0  0  0  # atno 8008 bound_to 7997
  154.8916  140.2987  155.5347 H   0  0  0  0  0  0  0  0  0  0  0  0  # atno 8009 bound_to 7997
  156.2997  140.2392  156.3932 H   0  0  0  0  0  0  0  0  0  0  0  0  # atno 8010 bound_to 7997
  140.6499  143.7572  150.7557 H   0  0  0  0  0  0  0  0  0  0  0  0  # atno 10167 bound_to 10162
  156.3433  130.4297  149.7768 H   0  0  0  0  0  0  0  0  0  0  0  0  # atno 10718 bound_to 10713
  153.5533  135.7011  153.5581 H   0  0  0  0  0  0  0  0  0  0  0  0  # atno 10763 bound_to 10752
  153.3496  135.3999  155.1635 H   0  0  0  0  0  0  0  0  0  0  0  0  # atno 10764 bound_to 10752
  154.8658  135.3762  154.5045 H   0  0  0  0  0  0  0  0  0  0  0  0  # atno 10765 bound_to 10752
  141.1280  133.8379  157.1069 H   0  0  0  0  0  0  0  0  0  0  0  0  # atno 11005 bound_to 11000
  144.7620  140.5443  143.6729 LP  0  0  0  0  0  0  0  0  0  0  0  0  # atno 17320 bound_to 7965
  145.5415  139.1475  143.3444 LP  0  0  0  0  0  0  0  0  0  0  0  0  # atno 17321 bound_to 7965
  140.1220  143.4603  152.2307 LP  0  0  0  0  0  0  0  0  0  0  0  0  # atno 17342 bound_to 10162
  139.5712  144.7464  151.3885 LP  0  0  0  0  0  0  0  0  0  0  0  0  # atno 17343 bound_to 10162
  156.4996  130.8122  151.3127 LP  0  0  0  0  0  0  0  0  0  0  0  0  # atno 17370 bound_to 10713
  157.7450  130.9949  150.2724 LP  0  0  0  0  0  0  0  0  0  0  0  0  # atno 17371 bound_to 10713
  140.0299  134.9906  157.0760 LP  0  0  0  0  0  0  0  0  0  0  0  0  # atno 17394 bound_to 11000
  140.4302  134.1788  155.7168 LP  0  0  0  0  0  0  0  0  0  0  0  0  # atno 17395 bound_to 11000

$$$$
