#       Name:                AV-unprocessed.smi:157
#       Creating user name   scv26
#       Creation time:       Thu Mar 26 18:57:24 2020


#       File generated by GOLD software.
#

@<TRIPOS>MOLECULE
AV-unprocessed.smi:157
    45    47     1
SMALL
NO_CHARGES


@<TRIPOS>ATOM
      1 ****        -3.2065   2.6180   3.0171 O.3            1 S1                 0.0000
      2 ****        -2.5648   1.3997   2.7067 C.3            1 S1                 0.0000
      3 ****        -1.0459   1.6077   2.5946 C.3            1 S1                 0.0000
      4 ****        -0.3690   0.3481   2.5469 O.3            1 S1                 0.0000
      5 ****         0.6206   0.3530   1.5573 C.3            1 S1                 0.0000
      6 ****         0.1343  -0.4527   0.3837 N.pl3          1 S1                 0.0000
      7 ****        -1.0961  -0.9512   0.1944 C.2            1 S1                 0.0000
      8 ****        -1.2529  -1.6225  -0.9334 N.2            1 S1                 0.0000
      9 ****         0.0046  -1.5739  -1.5302 C.2            1 S1                 0.0000
     10 ****         0.8842  -0.8684  -0.7218 C.2            1 S1                 0.0000
     11 ****         2.2177  -0.5097  -0.7786 N.2            1 S1                 0.0000
     12 ****         2.9884  -1.1515  -1.5990 C.2            1 S1                 0.0000
     13 ****         2.6832  -2.1231  -2.5413 N.pl3          1 S1                 0.0000
     14 ****         1.5941  -1.9978  -3.4946 C.3            1 S1                 0.0000
     15 ****         0.2096  -2.2154  -2.8724 C.3            1 S1                 0.0000
     16 ****        -0.0156  -3.6006  -2.7082 O.3            1 S1                 0.0000
     17 ****         0.8078   1.8145   1.1492 C.3            1 S1                 0.0000
     18 ****        -0.5906   2.3628   1.3401 C.3            1 S1                 0.0000
     19 ****        -0.5569   3.7615   1.5328 O.3            1 S1                 0.0000
     20 ****        -0.6734   2.1139   3.4872 H              1 S1                 0.0000
     21 ****         1.5316  -0.1497   1.8838 H              1 S1                 0.0000
     22 ****        -0.5437  -1.8540  -3.5730 H              1 S1                 0.0000
     23 ****        -1.2159   2.1146   0.4812 H              1 S1                 0.0000
     24 ****        -4.1323   2.4545   3.1125 H              1 S1                 0.0000
     25 ****        -2.7859   0.6868   3.5013 H              1 S1                 0.0000
     26 ****        -2.9812   0.9964   1.7841 H              1 S1                 0.0000
     27 ****        -1.9050  -0.8220   0.8964 H              1 S1                 0.0000
     28 ****         4.0552  -0.9235  -1.5923 H              1 S1                 0.0000
     29 ****         3.4353  -2.6824  -2.9170 H              1 S1                 0.0000
     30 ****         1.6397  -0.9893  -3.9083 H              1 S1                 0.0000
     31 ****         1.7536  -2.6776  -4.3321 H              1 S1                 0.0000
     32 ****        -0.8947  -3.7200  -2.3822 H              1 S1                 0.0000
     33 ****         1.5106   2.2762   1.8447 H              1 S1                 0.0000
     34 ****         1.1921   1.9228   0.1347 H              1 S1                 0.0000
     35 ****        -1.4323   4.0545   1.7360 H              1 S1                 0.0000
     36 ****        -3.0547   3.2764   2.2798 LP             1 S1                 0.0000
     37 ****        -2.8390   2.9843   3.8720 LP             1 S1                 0.0000
     38 ****        -1.0317  -0.3728   2.3443 LP             1 S1                 0.0000
     39 ****         0.0558   0.1704   3.4345 LP             1 S1                 0.0000
     40 ****        -2.0819  -2.0630  -1.2781 LP             1 S1                 0.0000
     41 ****         2.5776   0.2244  -0.2028 LP             1 S1                 0.0000
     42 ****         0.6418  -3.9753  -2.0544 LP             1 S1                 0.0000
     43 ****         0.0858  -4.0666  -3.5871 LP             1 S1                 0.0000
     44 ****        -0.2353   4.2100   0.6989 LP             1 S1                 0.0000
     45 ****         0.0582   3.9838   2.2893 LP             1 S1                 0.0000
@<TRIPOS>BOND
    1    1    2 1     
    2    1   24 1     
    3    2    3 1     
    4    2   25 1     
    5    2   26 1     
    6    3   20 1     
    7    3   18 1     
    8    3    4 1     
    9    4    5 1     
   10    5   21 1     
   11    5    6 1     
   12    5   17 1     
   13    6   10 1     
   14    6    7 1     
   15    7    8 2     
   16    7   27 1     
   17    8    9 1     
   18    9   15 1     
   19    9   10 2     
   20   10   11 1     
   21   11   12 2     
   22   12   13 1     
   23   12   28 1     
   24   13   14 1     
   25   13   29 1     
   26   14   15 1     
   27   14   30 1     
   28   14   31 1     
   29   15   22 1     
   30   15   16 1     
   31   16   32 1     
   32   17   18 1     
   33   17   33 1     
   34   17   34 1     
   35   18   23 1     
   36   18   19 1     
   37   19   35 1     
   38    1   36 1     
   39    1   37 1     
   40    4   38 1     
   41    4   39 1     
   42    8   40 1     
   43   11   41 1     
   44   16   42 1     
   45   16   43 1     
   46   19   44 1     
   47   19   45 1     
@<TRIPOS>SUBSTRUCTURE
      1 S1             1
@<TRIPOS>SET
LONE_PAIRS      STATIC     ATOMS    <user>   **** ""
10 36 37 38 39 40 41 42 43 44 45
DONOR_HYDROGENS      STATIC     ATOMS    <user>   **** ""
4 24 29 32 35
ATOM$BLUE        STATIC     ATOMS    COLORGROUP SYSTEM
10 36 37 38 39 40 41 42 43 44 45
ATOM$RED        STATIC     ATOMS    COLORGROUP SYSTEM
4 24 29 32 35
