AV-unprocessed.smi:86|AV-procd|sdf|816|dock2
  -GOLD-   2262017213D 1   1.00000     0.00000
 Structure written by MMmdl.
 51 55  0  0  0  0  0  0  0  0  1 V2000
  147.9383  137.1541  161.3639 O   0  0  0  0  0  0  0  0  0  0  0  0
  147.1279  136.1079  160.8673 C   0  0  0  0  0  0  0  0  0  0  0  0
  146.7013  136.3680  159.4115 C   0  0  0  0  0  0  0  0  0  0  0  0
  147.9185  136.3309  158.4632 C   0  0  0  0  0  0  0  0  0  0  0  0
  148.7289  137.5396  158.4794 N   0  0  0  0  0  0  0  0  0  0  0  0
  148.3004  138.8157  158.1960 C   0  0  0  0  0  0  0  0  0  0  0  0
  149.2175  139.7394  158.2756 N   0  0  0  0  0  0  0  0  0  0  0  0
  150.3677  139.0564  158.6575 C   0  0  0  0  0  0  0  0  0  0  0  0
  151.7171  139.4359  158.9293 C   0  0  0  0  0  0  0  0  0  0  0  0
  152.1976  140.7043  158.8468 N   0  0  0  0  0  0  0  0  0  0  0  0
  153.4646  141.0989  159.4582 C   0  0  0  0  0  0  0  0  0  0  0  0
  153.3383  142.6037  159.7415 C   0  0  2  0  0  0  0  0  0  0  0  0
  152.8673  142.8602  161.1903 C   0  0  0  0  0  0  0  0  0  0  0  0
  152.3635  144.2952  161.3917 C   0  0  0  0  0  0  0  0  0  0  0  0
  151.2102  144.5974  160.4232 C   0  0  1  0  0  0  0  0  0  0  0  0
  150.7606  145.9205  160.6244 O   0  0  0  0  0  0  0  0  0  0  0  0
  151.6633  144.4276  158.9638 C   0  0  0  0  0  0  0  0  0  0  0  0
  152.3065  143.0532  158.6932 C   0  0  2  0  0  0  0  0  0  0  0  0
  151.3492  141.8625  158.6140 C   0  0  0  0  0  0  0  0  0  0  0  0
  152.5793  138.4464  159.2826 N   0  0  0  0  0  0  0  0  0  0  0  0
  152.1626  137.1812  159.3768 C   0  0  0  0  0  0  0  0  0  0  0  0
  150.9436  136.6878  159.1594 N   0  0  0  0  0  0  0  0  0  0  0  0
  150.0707  137.6685  158.7943 C   0  0  0  0  0  0  0  0  0  0  0  0
  145.4745  135.5695  158.9491 C   0  0  0  0  0  0  0  0  0  0  0  0
  144.5956  136.6962  159.1498 O   0  0  0  0  0  0  0  0  0  0  0  0
  145.7484  137.5595  159.2372 C   0  0  0  0  0  0  0  0  0  0  0  0
  148.8250  136.8359  161.4399 H   0  0  0  0  0  0  0  0  0  0  0  0
  147.7005  135.1824  160.9380 H   0  0  0  0  0  0  0  0  0  0  0  0
  146.2672  135.9773  161.5235 H   0  0  0  0  0  0  0  0  0  0  0  0
  148.5637  135.4869  158.7097 H   0  0  0  0  0  0  0  0  0  0  0  0
  147.5986  136.1589  157.4348 H   0  0  0  0  0  0  0  0  0  0  0  0
  147.2809  139.0405  157.9185 H   0  0  0  0  0  0  0  0  0  0  0  0
  153.6854  140.5396  160.3683 H   0  0  0  0  0  0  0  0  0  0  0  0
  154.2668  140.9088  158.7444 H   0  0  0  0  0  0  0  0  0  0  0  0
  154.2901  143.1127  159.5841 H   0  0  0  0  0  0  0  0  0  0  0  0
  152.0641  142.1689  161.4491 H   0  0  0  0  0  0  0  0  0  0  0  0
  153.6811  142.6511  161.8853 H   0  0  0  0  0  0  0  0  0  0  0  0
  152.0309  144.4254  162.4223 H   0  0  0  0  0  0  0  0  0  0  0  0
  153.1826  144.9988  161.2359 H   0  0  0  0  0  0  0  0  0  0  0  0
  150.3747  143.9280  160.6301 H   0  0  0  0  0  0  0  0  0  0  0  0
  151.4120  146.5142  160.2837 H   0  0  0  0  0  0  0  0  0  0  0  0
  150.8256  144.5875  158.2839 H   0  0  0  0  0  0  0  0  0  0  0  0
  152.3965  145.2008  158.7292 H   0  0  0  0  0  0  0  0  0  0  0  0
  152.8166  143.1120  157.7302 H   0  0  0  0  0  0  0  0  0  0  0  0
  150.8598  141.8145  157.6410 H   0  0  0  0  0  0  0  0  0  0  0  0
  150.5831  141.9145  159.3881 H   0  0  0  0  0  0  0  0  0  0  0  0
  152.9138  136.4616  159.6670 H   0  0  0  0  0  0  0  0  0  0  0  0
  145.5121  135.2668  157.9013 H   0  0  0  0  0  0  0  0  0  0  0  0
  145.2254  134.7226  159.5895 H   0  0  0  0  0  0  0  0  0  0  0  0
  145.7107  138.2289  160.0974 H   0  0  0  0  0  0  0  0  0  0  0  0
  145.8953  138.1206  158.3135 H   0  0  0  0  0  0  0  0  0  0  0  0
  1  2  1  0  0  0  0
  1 27  1  0  0  0  0
  2  3  1  0  0  0  0
  2 28  1  0  0  0  0
  2 29  1  0  0  0  0
  3 26  1  0  0  0  0
  3  4  1  0  0  0  0
  3 24  1  0  0  0  0
  4  5  1  0  0  0  0
  4 30  1  0  0  0  0
  4 31  1  0  0  0  0
  5 23  1  0  0  0  0
  5  6  1  0  0  0  0
  6  7  2  0  0  0  0
  6 32  1  0  0  0  0
  7  8  1  0  0  0  0
  8 23  2  0  0  0  0
  8  9  1  0  0  0  0
  9 10  1  0  0  0  0
  9 20  2  0  0  0  0
 10 19  1  0  0  0  0
 10 11  1  0  0  0  0
 11 12  1  0  0  0  0
 11 33  1  0  0  0  0
 11 34  1  0  0  0  0
 12 18  1  0  0  0  0
 12 13  1  0  0  0  0
 12 35  1  0  0  0  0
 13 14  1  0  0  0  0
 13 36  1  0  0  0  0
 13 37  1  0  0  0  0
 14 15  1  0  0  0  0
 14 38  1  0  0  0  0
 14 39  1  0  0  0  0
 15 16  1  0  0  0  0
 15 17  1  0  0  0  0
 15 40  1  0  0  0  0
 16 41  1  0  0  0  0
 17 18  1  0  0  0  0
 17 42  1  0  0  0  0
 17 43  1  0  0  0  0
 18 19  1  0  0  0  0
 18 44  1  0  0  0  0
 19 45  1  0  0  0  0
 19 46  1  0  0  0  0
 20 21  1  0  0  0  0
 21 22  2  0  0  0  0
 21 47  1  0  0  0  0
 22 23  1  0  0  0  0
 24 25  1  0  0  0  0
 24 48  1  0  0  0  0
 24 49  1  0  0  0  0
 25 26  1  0  0  0  0
 26 50  1  0  0  0  0
 26 51  1  0  0  0  0
M  END
> <s_m_source_file>
AV-unprocessed.smi

> <i_m_source_file_index>
86

> <i_lp_mmshare_version>
43012

> <i_f3d_flags>
0

> <s_epik_input>
W0NIMl0xT1tDSDJdQzEoW0NIMl1bT0hdKVtDSDJdbihbY0hdbjIpYyhjMjMpbltjSF1uYzNOKFtDSDJdNClbQ0gyXVtDQEBIXShbQ0BIXTQ1KVtDSDJdW0NASF0oW09IXSlbQ0gyXVtDSDJdNQ==

> <s_epik_cmdline>
J2VwaWtfcHl0aG9uJywgJy1waCcsICc3LjAnLCAnLXRuJywgJzgnLCAnLW1hJywgJzIwMCcsICctbWV0YWxfYmluZGluZycsICctaW1hZScsICc8aW5maWxlLm1hZT4nLCAnLW9tYWUnLCAnPG91dGZpbGUubWFlPic=

> <r_lp_tautomer_probability>
1

> <r_epik_Ionization_Penalty>
0.00425795

> <r_epik_Ionization_Penalty_Charging>
0

> <r_epik_Ionization_Penalty_Neutral>
0.00425795

> <r_epik_State_Penalty>
0.00299946

> <r_epik_Charging_Adjusted_Penalty>
0.00299946

> <i_epik_Tot_Q>
0

> <i_epik_Tot_abs_Q>
0

> <r_epik_Metal_State_Penalty>
-0

> <b_epik_Metal_Only>
0

> <s_lp_Force_Field>
OPLS_2005

> <r_lp_Energy>
53.5956

> <b_lp_Chiralities_Consistent>
1

> <s_lp_Variant>
AV-unprocessed.smi:86-5

> <Gold.Version>
5.8.1

> <Gold.Id.Protein>
6NUR|6NUR_protein|mol2

> <Gold.PLP.Fitness>
47.7014

> <Gold.PLP.PLP>
-43.2428

> <Gold.PLP.part.hbond>
-5.2260

> <Gold.PLP.part.metal>
0.0000

> <Gold.PLP.part.buried>
-4.9610

> <Gold.PLP.part.nonpolar>
-33.0851

> <Gold.PLP.part.repulsive>
0.0000

> <Gold.PLP.ligand.clash>
0.0000

> <Gold.PLP.ligand.torsion>
0.4765

> <Gold.PLP.Chemscore.Hbond>
1.6480

> <Gold.PLP.Chemscore.CHOScore>
0.0000

> <Gold.PLP.Chemscore.Metal>
0.0000

> <Gold.Chemscore.Hbonds>
donor molecule, donor type, donor heavy atom, donor atom, acceptor molecule, acceptor atom, score
      P1  H  6896  6907       L1    22  0.85
      P1  H  6934  6947       L1     1  0.66

> <Gold.PLP.Chemscore.Internal.Correction>
0.4677

> <Gold.Rescore>
     Score         DG    S(hbond)    S(metal)    S(lipo)     H(rot)  DE(clash)    DE(int)     intcor
      8.86     -12.26       0.95        0.00      91.21       2.76       0.91       2.49       ----

> <Gold.Chemscore.Fitness>
8.8613

> <Gold.Chemscore.DG>
-12.2638

> <Gold.Chemscore.ZeroCoef>
-5.4800

> <Gold.Chemscore.Hbond>
0.9536

> <Gold.Chemscore.Metal>
0.0000

> <Gold.Chemscore.Lipo>
91.2149

> <Gold.Chemscore.Internal_Hbond>
0.0000

> <Gold.Chemscore.DEClash>
0.9126

> <Gold.Chemscore.DEInternal>
2.4899

> <Gold.Chemscore.Rot>
2.7630

> <Gold.Chemscore.Internal.Correction>
   9.000000E+99

> <Gold.Chemscore.Hbonds>
donor molecule, donor type, donor heavy atom, donor atom, acceptor molecule, acceptor atom, score
      P1  H  6896  6907       L1    22  0.55
      P1  H  6934  6947       L1     1  0.55

> <Gold.Chemscore.Hbond.Weighted>
-3.1850

> <Gold.Chemscore.Metal.Weighted>
-0.0000

> <Gold.Chemscore.Lipo.Weighted>
-10.6721

> <Gold.Chemscore.Internal_Hbond.Weighted>
0.0000

> <Gold.Chemscore.DEClash.Weighted>
0.9126

> <Gold.Chemscore.DEInternal.Weighted>
2.4899

> <Gold.Chemscore.Rot.Weighted>
7.0734

> <Gold.Chemscore.Internal.Correction.Weighted>
   9.000000E+99

> <Gold.Protein.RotatedTorsions>
[ 6907 6896 6895 6894 ] final  -44.33 input  -60.11 | X-H torsion
[ 7974 7965 7964 7962 ] final -164.52 input  175.53 | X-H torsion
[ 8008 7997 7996 7995 ] final  -82.87 input   59.86 | X-H torsion
[ 10167 10162 10161 10158 ] final  -66.29 input  -65.29 | X-H torsion
[ 10718 10713 10712 10709 ] final   -5.65 input   66.30 | X-H torsion
[ 10763 10752 10751 10750 ] final   83.88 input  -60.55 | X-H torsion
[ 11005 11000 10999 10996 ] final  150.82 input  -57.11 | X-H torsion

> <Gold.Protein.ActiveResidues>
 VAL166  LYS551  ARG553  GLY616  TRP617  ASP618  TYR619  PRO620  LYS621  CYS622 
 ASP623  PHE694  ASN695  SER759  ASP760  ASP761  ALA762  ILE779  LEU786  VAL792 
 PHE793  MET794  SER795  GLU796  ALA797  LYS798  CYS799  TRP800  GLU811  SER814 

> <Gold.Protein.RotatedAtoms>
  150.9341  134.8754  159.7569 H   0  0  0  0  0  0  0  0  0  0  0  0  # atno 6907 bound_to 6896
  152.5051  134.4037  159.9435 H   0  0  0  0  0  0  0  0  0  0  0  0  # atno 6908 bound_to 6896
  151.4062  133.3702  159.2773 H   0  0  0  0  0  0  0  0  0  0  0  0  # atno 6909 bound_to 6896
  144.7295  140.2949  143.6214 H   0  0  0  0  0  0  0  0  0  0  0  0  # atno 7974 bound_to 7965
  154.6131  140.0627  156.9520 H   0  0  0  0  0  0  0  0  0  0  0  0  # atno 8008 bound_to 7997
  155.1940  140.3309  155.4335 H   0  0  0  0  0  0  0  0  0  0  0  0  # atno 8009 bound_to 7997
  156.2388  140.1876  156.7028 H   0  0  0  0  0  0  0  0  0  0  0  0  # atno 8010 bound_to 7997
  140.5667  143.2315  151.6619 H   0  0  0  0  0  0  0  0  0  0  0  0  # atno 10167 bound_to 10162
  156.7435  130.5217  149.5819 H   0  0  0  0  0  0  0  0  0  0  0  0  # atno 10718 bound_to 10713
  153.1331  135.4674  154.9380 H   0  0  0  0  0  0  0  0  0  0  0  0  # atno 10763 bound_to 10752
  154.7682  135.3151  154.8245 H   0  0  0  0  0  0  0  0  0  0  0  0  # atno 10764 bound_to 10752
  153.8784  135.6896  153.4823 H   0  0  0  0  0  0  0  0  0  0  0  0  # atno 10765 bound_to 10752
  140.1164  134.8891  157.2010 H   0  0  0  0  0  0  0  0  0  0  0  0  # atno 11005 bound_to 11000
  145.7818  139.1894  143.2153 LP  0  0  0  0  0  0  0  0  0  0  0  0  # atno 17320 bound_to 7965
  146.0827  140.7745  142.9633 LP  0  0  0  0  0  0  0  0  0  0  0  0  # atno 17321 bound_to 7965
  139.5097  144.3569  152.0599 LP  0  0  0  0  0  0  0  0  0  0  0  0  # atno 17342 bound_to 10162
  140.2701  144.3973  150.6154 LP  0  0  0  0  0  0  0  0  0  0  0  0  # atno 17343 bound_to 10162
  156.1448  130.6270  151.0517 LP  0  0  0  0  0  0  0  0  0  0  0  0  # atno 17370 bound_to 10713
  157.6808  131.0838  150.7374 LP  0  0  0  0  0  0  0  0  0  0  0  0  # atno 17371 bound_to 10713
  140.3022  134.3118  155.7287 LP  0  0  0  0  0  0  0  0  0  0  0  0  # atno 17394 bound_to 11000
  141.2142  133.7599  156.9657 LP  0  0  0  0  0  0  0  0  0  0  0  0  # atno 17395 bound_to 11000

$$$$
