AV-unprocessed.smi:2314|AV-procd|sdf|9267|dock4
  -GOLD-   2272012493D 1   1.00000     0.00000
 Structure written by MMmdl.
 37 38  0  0  0  0  0  0  0  0  1 V2000
  146.0331  132.5231  150.1725 C   0  0  0  0  0  0  0  0  0  0  0  0
  145.0126  132.8784  151.2688 C   0  0  0  0  0  0  0  0  0  0  0  0
  143.5775  132.5205  150.8517 C   0  0  0  0  0  0  0  0  0  0  0  0
  145.0874  134.2879  151.6786 N   0  0  0  0  0  0  0  0  0  0  0  0
  144.8407  135.3834  150.7547 C   0  0  0  0  0  0  0  0  0  0  0  0
  144.7708  136.6342  151.6362 C   0  0  0  0  0  0  0  0  0  0  0  0
  145.3756  136.2506  152.9964 C   0  0  2  0  0  0  0  0  0  0  0  0
  146.7380  136.7688  153.0987 N   0  0  0  0  0  0  0  0  0  0  0  0
  147.1180  137.7981  153.8696 C   0  0  0  0  0  0  0  0  0  0  0  0
  146.3392  138.4643  154.5515 O   0  0  0  0  0  0  0  0  0  0  0  0
  148.4409  138.0123  153.7824 N   0  0  0  0  0  0  0  0  0  0  0  0
  149.1921  139.0029  154.4655 C   0  0  0  0  0  0  0  0  0  0  0  0
  148.6256  140.2861  154.6111 C   0  0  0  0  0  0  0  0  0  0  0  0
  149.3720  141.2851  155.2675 C   0  0  0  0  0  0  0  0  0  0  0  0
  150.6144  141.0836  155.7550 N   0  0  0  0  0  0  0  0  0  0  0  0
  151.1648  139.8616  155.5908 C   0  0  0  0  0  0  0  0  0  0  0  0
  150.5073  138.7927  154.9486 C   0  0  0  0  0  0  0  0  0  0  0  0
  151.1508  137.6124  154.7804 F   0  0  0  0  0  0  0  0  0  0  0  0
  145.4062  134.7258  152.9044 C   0  0  0  0  0  0  0  0  0  0  0  0
  145.6783  134.0141  153.8709 O   0  0  0  0  0  0  0  0  0  0  0  0
  146.0116  131.4546  149.9563 H   0  0  0  0  0  0  0  0  0  0  0  0
  147.0482  132.7710  150.4838 H   0  0  0  0  0  0  0  0  0  0  0  0
  145.8277  133.0472  149.2388 H   0  0  0  0  0  0  0  0  0  0  0  0
  145.2659  132.2651  152.1354 H   0  0  0  0  0  0  0  0  0  0  0  0
  143.4984  131.4664  150.5848 H   0  0  0  0  0  0  0  0  0  0  0  0
  143.2575  133.1071  149.9900 H   0  0  0  0  0  0  0  0  0  0  0  0
  142.8715  132.7064  151.6621 H   0  0  0  0  0  0  0  0  0  0  0  0
  145.6682  135.4596  150.0478 H   0  0  0  0  0  0  0  0  0  0  0  0
  143.9178  135.2360  150.1924 H   0  0  0  0  0  0  0  0  0  0  0  0
  145.2631  137.4898  151.1713 H   0  0  0  0  0  0  0  0  0  0  0  0
  143.7255  136.9128  151.7783 H   0  0  0  0  0  0  0  0  0  0  0  0
  144.7464  136.5875  153.8222 H   0  0  0  0  0  0  0  0  0  0  0  0
  147.4471  136.2854  152.5670 H   0  0  0  0  0  0  0  0  0  0  0  0
  148.9419  137.4792  153.0871 H   0  0  0  0  0  0  0  0  0  0  0  0
  147.6353  140.5025  154.2379 H   0  0  0  0  0  0  0  0  0  0  0  0
  148.9601  142.2743  155.4020 H   0  0  0  0  0  0  0  0  0  0  0  0
  152.1680  139.7355  155.9702 H   0  0  0  0  0  0  0  0  0  0  0  0
  1  2  1  0  0  0  0
  1 21  1  0  0  0  0
  1 22  1  0  0  0  0
  1 23  1  0  0  0  0
  2  3  1  0  0  0  0
  2  4  1  0  0  0  0
  2 24  1  0  0  0  0
  3 25  1  0  0  0  0
  3 26  1  0  0  0  0
  3 27  1  0  0  0  0
  4 19  1  0  0  0  0
  4  5  1  0  0  0  0
  5  6  1  0  0  0  0
  5 28  1  0  0  0  0
  5 29  1  0  0  0  0
  6  7  1  0  0  0  0
  6 30  1  0  0  0  0
  6 31  1  0  0  0  0
  7  8  1  0  0  0  0
  7 19  1  0  0  0  0
  7 32  1  0  0  0  0
  8  9  1  0  0  0  0
  8 33  1  0  0  0  0
  9 10  2  0  0  0  0
  9 11  1  0  0  0  0
 11 12  1  0  0  0  0
 11 34  1  0  0  0  0
 12 17  1  0  0  0  0
 12 13  2  0  0  0  0
 13 14  1  0  0  0  0
 13 35  1  0  0  0  0
 14 15  2  0  0  0  0
 14 36  1  0  0  0  0
 15 16  1  0  0  0  0
 16 17  2  0  0  0  0
 16 37  1  0  0  0  0
 17 18  1  0  0  0  0
 19 20  2  0  0  0  0
M  END
> <s_m_source_file>
AV-unprocessed.smi

> <i_m_source_file_index>
2314

> <i_lp_mmshare_version>
43012

> <i_f3d_flags>
0

> <s_epik_input>
W0NIM11bQ0hdKFtDSDNdKU4xW0NIMl1bQ0gyXVtDQEhdKEMxPU8pW05IXUMoPU8pW05IXWMyW2NIXVtjSF1uW2NIXWMyRg==

> <s_epik_cmdline>
J2VwaWtfcHl0aG9uJywgJy1waCcsICc3LjAnLCAnLXRuJywgJzgnLCAnLW1hJywgJzIwMCcsICctbWV0YWxfYmluZGluZycsICctaW1hZScsICc8aW5maWxlLm1hZT4nLCAnLW9tYWUnLCAnPG91dGZpbGUubWFlPic=

> <r_epik_Ionization_Penalty>
0.00267735

> <r_epik_Ionization_Penalty_Charging>
0

> <r_epik_Ionization_Penalty_Neutral>
0.00267735

> <r_epik_State_Penalty>
0.00184148

> <r_epik_Charging_Adjusted_Penalty>
0.00184148

> <i_epik_Tot_Q>
0

> <i_epik_Tot_abs_Q>
0

> <r_epik_Metal_State_Penalty>
-0

> <b_epik_Metal_Only>
0

> <s_lp_Force_Field>
OPLS_2005

> <r_lp_Energy>
28.4638

> <b_lp_Chiralities_Consistent>
1

> <s_lp_Variant>
AV-unprocessed.smi:2314-2

> <Gold.Version>
5.8.1

> <Gold.Id.Protein>
6NUR|6NUR_protein|mol2

> <Gold.PLP.Fitness>
41.6102

> <Gold.PLP.PLP>
-33.4769

> <Gold.PLP.part.hbond>
-2.9638

> <Gold.PLP.part.metal>
0.0000

> <Gold.PLP.part.buried>
-0.4062

> <Gold.PLP.part.nonpolar>
-31.2302

> <Gold.PLP.part.repulsive>
0.2879

> <Gold.PLP.ligand.clash>
0.0000

> <Gold.PLP.ligand.torsion>
0.5237

> <Gold.PLP.Chemscore.Hbond>
1.9920

> <Gold.PLP.Chemscore.CHOScore>
1.0000

> <Gold.PLP.Chemscore.Metal>
0.0000

> <Gold.Chemscore.Hbonds>
donor molecule, donor type, donor heavy atom, donor atom, acceptor molecule, acceptor atom, score
      L1  H     8    33       P1  7948  1.00
      L1  H    11    34       P1  7948  1.00
      L1  C    14    36       P1  8028  1.00

> <Gold.PLP.Chemscore.Internal.Correction>
0.2047

> <Gold.Rescore>
     Score         DG    S(hbond)    S(metal)    S(lipo)     H(rot)  DE(clash)    DE(int)     intcor
     13.94     -17.09       1.93        0.00      71.65       1.26       1.44       1.71       ----

> <Gold.Chemscore.Fitness>
13.9393

> <Gold.Chemscore.DG>
-17.0886

> <Gold.Chemscore.ZeroCoef>
-5.4800

> <Gold.Chemscore.Hbond>
1.9336

> <Gold.Chemscore.Metal>
0.0000

> <Gold.Chemscore.Lipo>
71.6457

> <Gold.Chemscore.Internal_Hbond>
0.0000

> <Gold.Chemscore.DEClash>
1.4357

> <Gold.Chemscore.DEInternal>
1.7137

> <Gold.Chemscore.Rot>
1.2626

> <Gold.Chemscore.Internal.Correction>
   9.000000E+99

> <Gold.Chemscore.Hbonds>
donor molecule, donor type, donor heavy atom, donor atom, acceptor molecule, acceptor atom, score
      L1  H     8    33       P1  7948  0.96
      L1  H    11    34       P1  7948  0.95

> <Gold.Chemscore.Hbond.Weighted>
-6.4583

> <Gold.Chemscore.Metal.Weighted>
-0.0000

> <Gold.Chemscore.Lipo.Weighted>
-8.3825

> <Gold.Chemscore.Internal_Hbond.Weighted>
0.0000

> <Gold.Chemscore.DEClash.Weighted>
1.4357

> <Gold.Chemscore.DEInternal.Weighted>
1.7137

> <Gold.Chemscore.Rot.Weighted>
3.2322

> <Gold.Chemscore.Internal.Correction.Weighted>
   9.000000E+99

> <Gold.Protein.RotatedTorsions>
[ 6907 6896 6895 6894 ] final  -19.28 input  -60.11 | X-H torsion
[ 7974 7965 7964 7962 ] final  112.08 input  175.53 | X-H torsion
[ 8008 7997 7996 7995 ] final -101.55 input   59.86 | X-H torsion
[ 10167 10162 10161 10158 ] final  -60.10 input  -65.29 | X-H torsion
[ 10718 10713 10712 10709 ] final   80.07 input   66.30 | X-H torsion
[ 10763 10752 10751 10750 ] final   13.42 input  -60.55 | X-H torsion
[ 11005 11000 10999 10996 ] final  -98.29 input  -57.11 | X-H torsion

> <Gold.Protein.ActiveResidues>
 VAL166  LYS551  ARG553  GLY616  TRP617  ASP618  TYR619  PRO620  LYS621  CYS622 
 ASP623  PHE694  ASN695  SER759  ASP760  ASP761  ALA762  ILE779  LEU786  VAL792 
 PHE793  MET794  SER795  GLU796  ALA797  LYS798  CYS799  TRP800  GLU811  SER814 

> <Gold.Protein.RotatedAtoms>
  151.2655  135.0668  159.9114 H   0  0  0  0  0  0  0  0  0  0  0  0  # atno 6907 bound_to 6896
  152.5359  134.0185  159.7981 H   0  0  0  0  0  0  0  0  0  0  0  0  # atno 6908 bound_to 6896
  151.0415  133.5652  159.2681 H   0  0  0  0  0  0  0  0  0  0  0  0  # atno 6909 bound_to 6896
  145.2340  139.2807  143.4153 H   0  0  0  0  0  0  0  0  0  0  0  0  # atno 7974 bound_to 7965
  154.8442  140.0433  157.1561 H   0  0  0  0  0  0  0  0  0  0  0  0  # atno 8008 bound_to 7997
  154.9013  140.3000  155.5295 H   0  0  0  0  0  0  0  0  0  0  0  0  # atno 8009 bound_to 7997
  156.2993  140.2375  156.4041 H   0  0  0  0  0  0  0  0  0  0  0  0  # atno 8010 bound_to 7997
  140.6093  143.2382  151.5747 H   0  0  0  0  0  0  0  0  0  0  0  0  # atno 10167 bound_to 10162
  157.6795  130.9943  150.2025 H   0  0  0  0  0  0  0  0  0  0  0  0  # atno 10718 bound_to 10713
  153.1723  135.6814  153.8591 H   0  0  0  0  0  0  0  0  0  0  0  0  # atno 10763 bound_to 10752
  153.7950  135.3163  155.3384 H   0  0  0  0  0  0  0  0  0  0  0  0  # atno 10764 bound_to 10752
  154.8006  135.4780  154.0359 H   0  0  0  0  0  0  0  0  0  0  0  0  # atno 10765 bound_to 10752
  141.1350  133.8235  157.0820 H   0  0  0  0  0  0  0  0  0  0  0  0  # atno 11005 bound_to 11000
  146.3345  140.2684  142.8605 LP  0  0  0  0  0  0  0  0  0  0  0  0  # atno 17320 bound_to 7965
  144.9650  140.8313  143.5490 LP  0  0  0  0  0  0  0  0  0  0  0  0  # atno 17321 bound_to 7965
  139.5349  144.2810  152.1229 LP  0  0  0  0  0  0  0  0  0  0  0  0  # atno 17342 bound_to 10162
  140.2006  144.4662  150.6433 LP  0  0  0  0  0  0  0  0  0  0  0  0  # atno 17343 bound_to 10162
  156.2713  130.3722  149.8029 LP  0  0  0  0  0  0  0  0  0  0  0  0  # atno 17370 bound_to 10713
  156.5745  130.8439  151.3366 LP  0  0  0  0  0  0  0  0  0  0  0  0  # atno 17371 bound_to 10713
  140.0445  134.9837  157.1024 LP  0  0  0  0  0  0  0  0  0  0  0  0  # atno 17394 bound_to 11000
  140.4083  134.2008  155.7163 LP  0  0  0  0  0  0  0  0  0  0  0  0  # atno 17395 bound_to 11000

$$$$
