AV-unprocessed.smi:1733|AV-procd|sdf|6979|dock1
  -GOLD-   22720 8193D 1   1.00000     0.00000
 Structure written by MMmdl.
 53 55  0  0  0  0  0  0  0  0  2 V2000
  144.5819  136.2520  152.9227 O   0  0  0  0  0  0  0  0  0  0  0  0
  145.7370  136.1561  152.5085 C   0  0  0  0  0  0  0  0  0  0  0  0
  146.2183  135.1289  151.7871 N   0  0  0  0  0  0  0  0  0  0  0  0
  145.5211  133.9888  151.3032 C   0  0  0  0  0  0  0  0  0  0  0  0
  146.2634  133.0161  150.5973 C   0  0  0  0  0  0  0  0  0  0  0  0
  145.6076  131.8785  150.0839 C   0  0  0  0  0  0  0  0  0  0  0  0
  144.2768  131.7325  150.2603 N   0  3  0  0  0  0  0  0  0  0  0  0
  143.5229  132.6423  150.9140 C   0  0  0  0  0  0  0  0  0  0  0  0
  144.1232  133.7998  151.4503 C   0  0  0  0  0  0  0  0  0  0  0  0
  146.6883  137.0703  152.7466 N   0  0  0  0  0  0  0  0  0  0  0  0
  146.5035  138.3028  153.5074 C   0  0  0  0  0  0  0  0  0  0  0  0
  147.0471  139.4971  152.6936 C   0  0  0  0  0  0  0  0  0  0  0  0
  147.0594  140.7848  153.5354 C   0  0  0  0  0  0  0  0  0  0  0  0
  147.8571  140.5450  154.7494 N   0  0  0  0  0  0  0  0  0  0  0  0
  149.1103  141.0059  154.9937 C   0  0  0  0  0  0  0  0  0  0  0  0
  149.8650  141.4113  154.1084 O   0  0  0  0  0  0  0  0  0  0  0  0
  149.4699  140.9937  156.2889 N   0  0  0  0  0  0  0  0  0  0  0  0
  150.7464  141.4570  156.8239 C   0  0  0  0  0  0  0  0  0  0  0  0
  151.2714  140.4368  157.8520 C   0  0  0  0  0  0  0  0  0  0  0  0
  152.5846  140.9093  158.4963 C   0  0  0  0  0  0  0  0  0  0  0  0
  152.4236  142.2974  159.1357 C   0  0  0  0  0  0  0  0  0  0  0  0
  151.9068  143.3209  158.1132 C   0  0  0  0  0  0  0  0  0  0  0  0
  150.5933  142.8513  157.4677 C   0  0  0  0  0  0  0  0  0  0  0  0
  147.2090  139.5532  155.6158 C   0  0  0  0  0  0  0  0  0  0  0  0
  147.1910  138.1956  154.8886 C   0  0  0  0  0  0  0  0  0  0  0  0
  147.2114  135.1413  151.6056 H   0  0  0  0  0  0  0  0  0  0  0  0
  147.3280  133.1341  150.4536 H   0  0  0  0  0  0  0  0  0  0  0  0
  146.1038  131.0882  149.5395 H   0  0  0  0  0  0  0  0  0  0  0  0
  142.4675  132.4225  150.9829 H   0  0  0  0  0  0  0  0  0  0  0  0
  143.4998  134.5247  151.9515 H   0  0  0  0  0  0  0  0  0  0  0  0
  147.6120  136.9052  152.3739 H   0  0  0  0  0  0  0  0  0  0  0  0
  145.4373  138.4744  153.6675 H   0  0  0  0  0  0  0  0  0  0  0  0
  148.0621  139.2851  152.3529 H   0  0  0  0  0  0  0  0  0  0  0  0
  146.4436  139.6442  151.7970 H   0  0  0  0  0  0  0  0  0  0  0  0
  147.4102  141.6220  152.9321 H   0  0  0  0  0  0  0  0  0  0  0  0
  146.0405  141.0486  153.8227 H   0  0  0  0  0  0  0  0  0  0  0  0
  148.7984  140.6455  156.9574 H   0  0  0  0  0  0  0  0  0  0  0  0
  151.4697  141.5206  156.0084 H   0  0  0  0  0  0  0  0  0  0  0  0
  150.5250  140.2800  158.6323 H   0  0  0  0  0  0  0  0  0  0  0  0
  151.4256  139.4689  157.3736 H   0  0  0  0  0  0  0  0  0  0  0  0
  152.9095  140.1892  159.2478 H   0  0  0  0  0  0  0  0  0  0  0  0
  153.3705  140.9436  157.7407 H   0  0  0  0  0  0  0  0  0  0  0  0
  151.7291  142.2360  159.9747 H   0  0  0  0  0  0  0  0  0  0  0  0
  153.3765  142.6314  159.5467 H   0  0  0  0  0  0  0  0  0  0  0  0
  151.7581  144.2870  158.5963 H   0  0  0  0  0  0  0  0  0  0  0  0
  152.6589  143.4751  157.3384 H   0  0  0  0  0  0  0  0  0  0  0  0
  150.2758  143.5804  156.7212 H   0  0  0  0  0  0  0  0  0  0  0  0
  149.8085  142.8242  158.2249 H   0  0  0  0  0  0  0  0  0  0  0  0
  147.7026  139.4503  156.5832 H   0  0  0  0  0  0  0  0  0  0  0  0
  146.1901  139.8735  155.8379 H   0  0  0  0  0  0  0  0  0  0  0  0
  146.6843  137.4518  155.5046 H   0  0  0  0  0  0  0  0  0  0  0  0
  148.2173  137.8458  154.7648 H   0  0  0  0  0  0  0  0  0  0  0  0
  143.8207  130.9027  149.8797 H   0  0  0  0  0  0  0  0  0  0  0  0
  1  2  2  0  0  0  0
  2  3  1  0  0  0  0
  2 10  1  0  0  0  0
  3  4  1  0  0  0  0
  3 26  1  0  0  0  0
  4  9  1  0  0  0  0
  4  5  2  0  0  0  0
  5  6  1  0  0  0  0
  5 27  1  0  0  0  0
  6  7  2  0  0  0  0
  6 28  1  0  0  0  0
  7  8  1  0  0  0  0
  7 53  1  0  0  0  0
  8  9  2  0  0  0  0
  8 29  1  0  0  0  0
  9 30  1  0  0  0  0
 10 11  1  0  0  0  0
 10 31  1  0  0  0  0
 11 25  1  0  0  0  0
 11 12  1  0  0  0  0
 11 32  1  0  0  0  0
 12 13  1  0  0  0  0
 12 33  1  0  0  0  0
 12 34  1  0  0  0  0
 13 14  1  0  0  0  0
 13 35  1  0  0  0  0
 13 36  1  0  0  0  0
 14 15  1  0  0  0  0
 14 24  1  0  0  0  0
 15 16  2  0  0  0  0
 15 17  1  0  0  0  0
 17 18  1  0  0  0  0
 17 37  1  0  0  0  0
 18 23  1  0  0  0  0
 18 19  1  0  0  0  0
 18 38  1  0  0  0  0
 19 20  1  0  0  0  0
 19 39  1  0  0  0  0
 19 40  1  0  0  0  0
 20 21  1  0  0  0  0
 20 41  1  0  0  0  0
 20 42  1  0  0  0  0
 21 22  1  0  0  0  0
 21 43  1  0  0  0  0
 21 44  1  0  0  0  0
 22 23  1  0  0  0  0
 22 45  1  0  0  0  0
 22 46  1  0  0  0  0
 23 47  1  0  0  0  0
 23 48  1  0  0  0  0
 24 25  1  0  0  0  0
 24 49  1  0  0  0  0
 24 50  1  0  0  0  0
 25 51  1  0  0  0  0
 25 52  1  0  0  0  0
M  CHG  1   7   1
M  END
> <s_m_source_file>
AV-unprocessed.smi

> <i_m_source_file_index>
1733

> <i_lp_mmshare_version>
43012

> <i_f3d_flags>
0

> <s_epik_input>
W2NIXTFbY0hdbltjSF1bY0hdYzFbTkhdQyg9TylbTkhdW0NIXTJbQ0gyXVtDSDJdTihbQ0gyXVtDSDJdMilDKD1PKVtOSF1bQ0hdM1tDSDJdW0NIMl1bQ0gyXVtDSDJdW0NIMl0z

> <s_epik_cmdline>
J2VwaWtfcHl0aG9uJywgJy1waCcsICc3LjAnLCAnLXRuJywgJzgnLCAnLW1hJywgJzIwMCcsICctbWV0YWxfYmluZGluZycsICctaW1hZScsICc8aW5maWxlLm1hZT4nLCAnLW9tYWUnLCAnPG91dGZpbGUubWFlPic=

> <r_epik_Ionization_Penalty>
1.02331

> <r_epik_Ionization_Penalty_Charging>
1.02322

> <r_epik_Ionization_Penalty_Neutral>
8.7708e-05

> <r_epik_State_Penalty>
1.0737

> <r_epik_Charging_Adjusted_Penalty>
2.09692

> <i_epik_Tot_Q>
1

> <i_epik_Tot_abs_Q>
1

> <r_epik_Metal_State_Penalty>
1.17214

> <b_epik_Metal_Only>
0

> <s_lp_Force_Field>
OPLS_2005

> <r_lp_Energy>
47.1401

> <b_lp_Chiralities_Consistent>
1

> <s_lp_Variant>
AV-unprocessed.smi:1733-2

> <Gold.Version>
5.8.1

> <Gold.Id.Protein>
6NUR|6NUR_protein|mol2

> <Gold.PLP.Fitness>
47.9065

> <Gold.PLP.PLP>
-40.4964

> <Gold.PLP.part.hbond>
-3.7977

> <Gold.PLP.part.metal>
0.0000

> <Gold.PLP.part.buried>
-1.9665

> <Gold.PLP.part.nonpolar>
-35.0372

> <Gold.PLP.part.repulsive>
0.5693

> <Gold.PLP.ligand.clash>
0.0000

> <Gold.PLP.ligand.torsion>
0.5825

> <Gold.PLP.Chemscore.Hbond>
2.8400

> <Gold.PLP.Chemscore.CHOScore>
0.0000

> <Gold.PLP.Chemscore.Metal>
0.0000

> <Gold.Chemscore.Hbonds>
donor molecule, donor type, donor heavy atom, donor atom, acceptor molecule, acceptor atom, score
      L1  H     3    26       P1  7948  0.91
      L1  H    10    31       P1  7948  1.00
      P1  H  7989  7998       L1    16  0.29
      P1  H  8011  8017       L1    16  0.63

> <Gold.PLP.Chemscore.Internal.Correction>
0.0551

> <Gold.Rescore>
     Score         DG    S(hbond)    S(metal)    S(lipo)     H(rot)  DE(clash)    DE(int)     intcor
     19.68     -23.34       2.51        0.00     108.26       1.24       1.87       1.79       ----

> <Gold.Chemscore.Fitness>
19.6775

> <Gold.Chemscore.DG>
-23.3364

> <Gold.Chemscore.ZeroCoef>
-5.4800

> <Gold.Chemscore.Hbond>
2.5062

> <Gold.Chemscore.Metal>
0.0000

> <Gold.Chemscore.Lipo>
108.2626

> <Gold.Chemscore.Internal_Hbond>
0.0000

> <Gold.Chemscore.DEClash>
1.8698

> <Gold.Chemscore.DEInternal>
1.7891

> <Gold.Chemscore.Rot>
1.2426

> <Gold.Chemscore.Internal.Correction>
   9.000000E+99

> <Gold.Chemscore.Hbonds>
donor molecule, donor type, donor heavy atom, donor atom, acceptor molecule, acceptor atom, score
      L1  H     3    26       P1  7948  0.76
      L1  H    10    31       P1  7948  0.97
      P1  H  7989  7998       L1    16  0.28
      P1  H  8011  8017       L1    16  0.59

> <Gold.Chemscore.Hbond.Weighted>
-8.3708

> <Gold.Chemscore.Metal.Weighted>
-0.0000

> <Gold.Chemscore.Lipo.Weighted>
-12.6667

> <Gold.Chemscore.Internal_Hbond.Weighted>
0.0000

> <Gold.Chemscore.DEClash.Weighted>
1.8698

> <Gold.Chemscore.DEInternal.Weighted>
1.7891

> <Gold.Chemscore.Rot.Weighted>
3.1812

> <Gold.Chemscore.Internal.Correction.Weighted>
   9.000000E+99

> <Gold.Protein.RotatedTorsions>
[ 6907 6896 6895 6894 ] final  -94.13 input  -60.11 | X-H torsion
[ 7974 7965 7964 7962 ] final  115.06 input  175.53 | X-H torsion
[ 8008 7997 7996 7995 ] final  -26.93 input   59.86 | X-H torsion
[ 10167 10162 10161 10158 ] final -111.24 input  -65.29 | X-H torsion
[ 10718 10713 10712 10709 ] final  175.40 input   66.30 | X-H torsion
[ 10763 10752 10751 10750 ] final    4.17 input  -60.55 | X-H torsion
[ 11005 11000 10999 10996 ] final   93.67 input  -57.11 | X-H torsion

> <Gold.Protein.ActiveResidues>
 VAL166  LYS551  ARG553  GLY616  TRP617  ASP618  TYR619  PRO620  LYS621  CYS622 
 ASP623  PHE694  ASN695  SER759  ASP760  ASP761  ALA762  ILE779  LEU786  VAL792 
 PHE793  MET794  SER795  GLU796  ALA797  LYS798  CYS799  TRP800  GLU811  SER814 

> <Gold.Protein.RotatedAtoms>
  150.6935  134.1860  159.4266 H   0  0  0  0  0  0  0  0  0  0  0  0  # atno 6907 bound_to 6896
  151.9833  135.0015  160.0567 H   0  0  0  0  0  0  0  0  0  0  0  0  # atno 6908 bound_to 6896
  152.1735  133.4624  159.4958 H   0  0  0  0  0  0  0  0  0  0  0  0  # atno 6909 bound_to 6896
  145.1967  139.2973  143.4340 H   0  0  0  0  0  0  0  0  0  0  0  0  # atno 7974 bound_to 7965
  154.4401  140.1886  156.0852 H   0  0  0  0  0  0  0  0  0  0  0  0  # atno 8008 bound_to 7997
  156.0408  140.3320  155.7215 H   0  0  0  0  0  0  0  0  0  0  0  0  # atno 8009 bound_to 7997
  155.5702  140.0612  157.2799 H   0  0  0  0  0  0  0  0  0  0  0  0  # atno 8010 bound_to 7997
  140.1357  143.4322  152.1597 H   0  0  0  0  0  0  0  0  0  0  0  0  # atno 10167 bound_to 10162
  156.9354  130.9984  151.2979 H   0  0  0  0  0  0  0  0  0  0  0  0  # atno 10718 bound_to 10713
  153.2745  135.6935  153.7447 H   0  0  0  0  0  0  0  0  0  0  0  0  # atno 10763 bound_to 10752
  153.6458  135.3385  155.3086 H   0  0  0  0  0  0  0  0  0  0  0  0  # atno 10764 bound_to 10752
  154.8475  135.4442  154.1778 H   0  0  0  0  0  0  0  0  0  0  0  0  # atno 10765 bound_to 10752
  139.8807  134.8803  156.3752 H   0  0  0  0  0  0  0  0  0  0  0  0  # atno 11005 bound_to 11000
  146.3426  140.2198  142.8591 LP  0  0  0  0  0  0  0  0  0  0  0  0  # atno 17320 bound_to 7965
  144.9988  140.8613  143.5294 LP  0  0  0  0  0  0  0  0  0  0  0  0  # atno 17321 bound_to 7965
  139.5497  144.7327  151.4473 LP  0  0  0  0  0  0  0  0  0  0  0  0  # atno 17342 bound_to 10162
  140.6790  143.8124  150.7096 LP  0  0  0  0  0  0  0  0  0  0  0  0  # atno 17343 bound_to 10162
  157.5819  130.8383  149.8535 LP  0  0  0  0  0  0  0  0  0  0  0  0  # atno 17370 bound_to 10713
  156.0428  130.3735  150.1392 LP  0  0  0  0  0  0  0  0  0  0  0  0  # atno 17371 bound_to 10713
  140.9437  133.7497  156.0179 LP  0  0  0  0  0  0  0  0  0  0  0  0  # atno 17394 bound_to 11000
  140.8189  134.3312  157.5388 LP  0  0  0  0  0  0  0  0  0  0  0  0  # atno 17395 bound_to 11000

$$$$
