AV-unprocessed.smi:834|AV-procd|sdf|3884|dock3
  -GOLD-   22720 1343D 1   1.00000     0.00000
 Structure written by MMmdl.
 39 40  0  0  0  0  0  0  0  0  1 V2000
  144.2267  144.2770  162.5511 C   0  0  0  0  0  0  0  0  0  0  0  0
  145.1135  143.7145  161.4932 C   0  0  0  0  0  0  0  0  0  0  0  0
  145.2923  142.3993  161.3194 N   0  0  0  0  0  0  0  0  0  0  0  0
  146.1631  142.1199  160.2755 N   0  0  0  0  0  0  0  0  0  0  0  0
  146.6180  143.2372  159.6917 C   0  0  0  0  0  0  0  0  0  0  0  0
  147.5269  143.2442  158.6009 N   0  0  0  0  0  0  0  0  0  0  0  0
  148.2142  142.2117  158.0814 C   0  0  0  0  0  0  0  0  0  0  0  0
  148.1484  141.0448  158.4687 O   0  0  0  0  0  0  0  0  0  0  0  0
  148.9956  142.6108  157.0676 N   0  0  0  0  0  0  0  0  0  0  0  0
  149.8725  141.7397  156.2933 C   0  0  0  0  0  0  0  0  0  0  0  0
  150.8591  140.9784  157.2004 C   0  0  0  0  0  0  0  0  0  0  0  0
  151.7468  141.9091  158.0325 C   0  0  0  0  0  0  0  0  0  0  0  0
  151.5980  143.1304  157.9816 O   0  0  0  0  0  0  0  0  0  0  0  0
  152.6704  141.3135  158.8028 N   0  0  0  0  0  0  0  0  0  0  0  0
  153.6266  142.0091  159.6606 C   0  0  0  0  0  0  0  0  0  0  0  0
  154.1814  141.0623  160.7423 C   0  0  0  0  0  0  0  0  0  0  0  0
  154.0807  141.8233  162.0653 C   0  0  0  0  0  0  0  0  0  0  0  0
  152.8815  142.7470  161.8788 C   0  0  0  0  0  0  0  0  0  0  0  0
  152.9671  143.1813  160.4150 C   0  0  0  0  0  0  0  0  0  0  0  0
  146.0119  144.7354  160.3769 S   0  0  0  0  0  0  0  0  0  0  0  0
  143.6019  143.4959  162.9854 H   0  0  0  0  0  0  0  0  0  0  0  0
  143.5795  145.0448  162.1269 H   0  0  0  0  0  0  0  0  0  0  0  0
  144.8291  144.7236  163.3421 H   0  0  0  0  0  0  0  0  0  0  0  0
  147.6783  144.1445  158.1706 H   0  0  0  0  0  0  0  0  0  0  0  0
  148.9881  143.5884  156.8152 H   0  0  0  0  0  0  0  0  0  0  0  0
  149.2424  141.0352  155.7491 H   0  0  0  0  0  0  0  0  0  0  0  0
  150.4071  142.3231  155.5410 H   0  0  0  0  0  0  0  0  0  0  0  0
  150.3161  140.3208  157.8802 H   0  0  0  0  0  0  0  0  0  0  0  0
  151.4962  140.3386  156.5874 H   0  0  0  0  0  0  0  0  0  0  0  0
  152.7204  140.3051  158.7894 H   0  0  0  0  0  0  0  0  0  0  0  0
  154.4520  142.3868  159.0539 H   0  0  0  0  0  0  0  0  0  0  0  0
  153.5759  140.1566  160.8092 H   0  0  0  0  0  0  0  0  0  0  0  0
  155.2043  140.7493  160.5303 H   0  0  0  0  0  0  0  0  0  0  0  0
  153.9712  141.1601  162.9239 H   0  0  0  0  0  0  0  0  0  0  0  0
  154.9822  142.4185  162.2166 H   0  0  0  0  0  0  0  0  0  0  0  0
  151.9586  142.1891  162.0441 H   0  0  0  0  0  0  0  0  0  0  0  0
  152.8894  143.5913  162.5689 H   0  0  0  0  0  0  0  0  0  0  0  0
  153.6082  144.0606  160.3376 H   0  0  0  0  0  0  0  0  0  0  0  0
  151.9914  143.4633  160.0164 H   0  0  0  0  0  0  0  0  0  0  0  0
  1  2  1  0  0  0  0
  1 21  1  0  0  0  0
  1 22  1  0  0  0  0
  1 23  1  0  0  0  0
  2 20  1  0  0  0  0
  2  3  2  0  0  0  0
  3  4  1  0  0  0  0
  4  5  2  0  0  0  0
  5  6  1  0  0  0  0
  5 20  1  0  0  0  0
  6  7  1  0  0  0  0
  6 24  1  0  0  0  0
  7  8  2  0  0  0  0
  7  9  1  0  0  0  0
  9 10  1  0  0  0  0
  9 25  1  0  0  0  0
 10 11  1  0  0  0  0
 10 26  1  0  0  0  0
 10 27  1  0  0  0  0
 11 12  1  0  0  0  0
 11 28  1  0  0  0  0
 11 29  1  0  0  0  0
 12 13  2  0  0  0  0
 12 14  1  0  0  0  0
 14 15  1  0  0  0  0
 14 30  1  0  0  0  0
 15 19  1  0  0  0  0
 15 16  1  0  0  0  0
 15 31  1  0  0  0  0
 16 17  1  0  0  0  0
 16 32  1  0  0  0  0
 16 33  1  0  0  0  0
 17 18  1  0  0  0  0
 17 34  1  0  0  0  0
 17 35  1  0  0  0  0
 18 19  1  0  0  0  0
 18 36  1  0  0  0  0
 18 37  1  0  0  0  0
 19 38  1  0  0  0  0
 19 39  1  0  0  0  0
M  END
> <s_m_source_file>
AV-unprocessed.smi

> <i_m_source_file_index>
834

> <i_lp_mmshare_version>
43012

> <i_f3d_flags>
0

> <s_epik_input>
W0NIM11jMW5uYyhzMSlbTkhdQyg9TylbTkhdW0NIMl1bQ0gyXUMoPU8pW05IXVtDSF0yW0NIMl1bQ0gyXVtDSDJdW0NIMl0y

> <s_epik_cmdline>
J2VwaWtfcHl0aG9uJywgJy1waCcsICc3LjAnLCAnLXRuJywgJzgnLCAnLW1hJywgJzIwMCcsICctbWV0YWxfYmluZGluZycsICctaW1hZScsICc8aW5maWxlLm1hZT4nLCAnLW9tYWUnLCAnPG91dGZpbGUubWFlPic=

> <r_lp_tautomer_probability>
1

> <r_epik_Ionization_Penalty>
0.00240541

> <r_epik_Ionization_Penalty_Charging>
0

> <r_epik_Ionization_Penalty_Neutral>
0.00240541

> <r_epik_State_Penalty>
-0

> <r_epik_Charging_Adjusted_Penalty>
0

> <i_epik_Tot_Q>
0

> <i_epik_Tot_abs_Q>
0

> <r_epik_Metal_State_Penalty>
0.349697

> <b_epik_Metal_Only>
0

> <s_lp_Force_Field>
OPLS_2005

> <r_lp_Energy>
16.3225

> <b_lp_Chiralities_Consistent>
1

> <s_lp_Variant>
AV-unprocessed.smi:834-1

> <Gold.Version>
5.8.1

> <Gold.Id.Protein>
6NUR|6NUR_protein|mol2

> <Gold.PLP.Fitness>
47.3535

> <Gold.PLP.PLP>
-39.1277

> <Gold.PLP.part.hbond>
-4.4091

> <Gold.PLP.part.metal>
0.0000

> <Gold.PLP.part.buried>
-4.0399

> <Gold.PLP.part.nonpolar>
-31.0845

> <Gold.PLP.part.repulsive>
0.2987

> <Gold.PLP.ligand.clash>
0.0000

> <Gold.PLP.ligand.torsion>
0.3002

> <Gold.PLP.Chemscore.Hbond>
2.9345

> <Gold.PLP.Chemscore.CHOScore>
0.0000

> <Gold.PLP.Chemscore.Metal>
0.0000

> <Gold.Chemscore.Hbonds>
donor molecule, donor type, donor heavy atom, donor atom, acceptor molecule, acceptor atom, score
      L1  H     6    24       P1  8029  1.00
      L1  H     9    25       P1  8028  0.99
      P1  H  6934  6946       L1     4  0.99

> <Gold.PLP.Chemscore.Internal.Correction>
0.0227

> <Gold.Rescore>
     Score         DG    S(hbond)    S(metal)    S(lipo)     H(rot)  DE(clash)    DE(int)     intcor
     11.36     -15.62       1.83        0.00      77.96       1.99       0.03       4.24       ----

> <Gold.Chemscore.Fitness>
11.3562

> <Gold.Chemscore.DG>
-15.6216

> <Gold.Chemscore.ZeroCoef>
-5.4800

> <Gold.Chemscore.Hbond>
1.8274

> <Gold.Chemscore.Metal>
0.0000

> <Gold.Chemscore.Lipo>
77.9567

> <Gold.Chemscore.Internal_Hbond>
0.0000

> <Gold.Chemscore.DEClash>
0.0297

> <Gold.Chemscore.DEInternal>
4.2356

> <Gold.Chemscore.Rot>
1.9855

> <Gold.Chemscore.Internal.Correction>
   9.000000E+99

> <Gold.Chemscore.Hbonds>
donor molecule, donor type, donor heavy atom, donor atom, acceptor molecule, acceptor atom, score
      L1  H     6    24       P1  8029  0.38
      L1  H     9    25       P1  8028  0.65
      P1  H  6934  6946       L1     4  0.41

> <Gold.Chemscore.Hbond.Weighted>
-6.1035

> <Gold.Chemscore.Metal.Weighted>
-0.0000

> <Gold.Chemscore.Lipo.Weighted>
-9.1209

> <Gold.Chemscore.Internal_Hbond.Weighted>
0.0000

> <Gold.Chemscore.DEClash.Weighted>
0.0297

> <Gold.Chemscore.DEInternal.Weighted>
4.2356

> <Gold.Chemscore.Rot.Weighted>
5.0828

> <Gold.Chemscore.Internal.Correction.Weighted>
   9.000000E+99

> <Gold.Protein.RotatedTorsions>
[ 6907 6896 6895 6894 ] final   57.93 input  -60.11 | X-H torsion
[ 7974 7965 7964 7962 ] final  -17.67 input  175.53 | X-H torsion
[ 8008 7997 7996 7995 ] final  105.03 input   59.86 | X-H torsion
[ 10167 10162 10161 10158 ] final  -34.89 input  -65.29 | X-H torsion
[ 10718 10713 10712 10709 ] final   13.33 input   66.30 | X-H torsion
[ 10763 10752 10751 10750 ] final  -46.05 input  -60.55 | X-H torsion
[ 11005 11000 10999 10996 ] final  139.75 input  -57.11 | X-H torsion

> <Gold.Protein.ActiveResidues>
 VAL166  LYS551  ARG553  GLY616  TRP617  ASP618  TYR619  PRO620  LYS621  CYS622 
 ASP623  PHE694  ASN695  SER759  ASP760  ASP761  ALA762  ILE779  LEU786  VAL792 
 PHE793  MET794  SER795  GLU796  ALA797  LYS798  CYS799  TRP800  GLU811  SER814 

> <Gold.Protein.RotatedAtoms>
  152.3777  134.6638  160.0153 H   0  0  0  0  0  0  0  0  0  0  0  0  # atno 6907 bound_to 6896
  151.6911  133.3305  159.3251 H   0  0  0  0  0  0  0  0  0  0  0  0  # atno 6908 bound_to 6896
  150.7723  134.6634  159.6396 H   0  0  0  0  0  0  0  0  0  0  0  0  # atno 6909 bound_to 6896
  146.1930  140.3812  142.8451 H   0  0  0  0  0  0  0  0  0  0  0  0  # atno 7974 bound_to 7965
  156.1624  140.3137  155.8831 H   0  0  0  0  0  0  0  0  0  0  0  0  # atno 8008 bound_to 7997
  155.3754  140.0484  157.3062 H   0  0  0  0  0  0  0  0  0  0  0  0  # atno 8009 bound_to 7997
  154.5160  140.2181  155.9076 H   0  0  0  0  0  0  0  0  0  0  0  0  # atno 8010 bound_to 7997
  140.7176  143.3516  151.2145 H   0  0  0  0  0  0  0  0  0  0  0  0  # atno 10167 bound_to 10162
  157.0231  130.6163  149.5724 H   0  0  0  0  0  0  0  0  0  0  0  0  # atno 10718 bound_to 10713
  154.0386  135.6647  153.4788 H   0  0  0  0  0  0  0  0  0  0  0  0  # atno 10763 bound_to 10752
  153.0511  135.5084  154.7864 H   0  0  0  0  0  0  0  0  0  0  0  0  # atno 10764 bound_to 10752
  154.6832  135.3048  154.9549 H   0  0  0  0  0  0  0  0  0  0  0  0  # atno 10765 bound_to 10752
  140.0277  134.9367  157.0601 H   0  0  0  0  0  0  0  0  0  0  0  0  # atno 11005 bound_to 11000
  144.8523  140.7020  143.6160 LP  0  0  0  0  0  0  0  0  0  0  0  0  # atno 17320 bound_to 7965
  145.3733  139.1653  143.4320 LP  0  0  0  0  0  0  0  0  0  0  0  0  # atno 17321 bound_to 7965
  139.7047  143.9474  152.2921 LP  0  0  0  0  0  0  0  0  0  0  0  0  # atno 17342 bound_to 10162
  139.9179  144.6817  150.8492 LP  0  0  0  0  0  0  0  0  0  0  0  0  # atno 17343 bound_to 10162
  156.0095  130.5185  150.7942 LP  0  0  0  0  0  0  0  0  0  0  0  0  # atno 17370 bound_to 10713
  157.5234  131.0933  151.0049 LP  0  0  0  0  0  0  0  0  0  0  0  0  # atno 17371 bound_to 10713
  140.4278  134.1812  155.7167 LP  0  0  0  0  0  0  0  0  0  0  0  0  # atno 17394 bound_to 11000
  141.1812  133.8409  157.1249 LP  0  0  0  0  0  0  0  0  0  0  0  0  # atno 17395 bound_to 11000

$$$$
