AV-unprocessed.smi:1731|AV-procd|sdf|6974|dock10
  -GOLD-   22720 8183D 1   1.00000     0.00000
 Structure written by MMmdl.
 41 42  0  0  0  0  0  0  0  0  1 V2000
  149.3434  141.7438  157.0680 C   0  0  0  0  0  0  0  0  0  0  0  0
  148.5453  140.8654  156.0943 C   0  0  2  0  0  0  0  0  0  0  0  0
  149.2180  140.8039  154.7098 C   0  0  0  0  0  0  0  0  0  0  0  0
  148.4222  139.9254  153.7315 C   0  0  0  0  0  0  0  0  0  0  0  0
  146.9612  140.4013  153.6030 C   0  0  1  0  0  0  0  0  0  0  0  0
  146.2055  139.5039  152.7341 N   0  0  0  0  0  0  0  0  0  0  0  0
  146.2792  138.1652  152.7508 C   0  0  0  0  0  0  0  0  0  0  0  0
  147.0191  137.5323  153.5045 O   0  0  0  0  0  0  0  0  0  0  0  0
  145.4431  137.6194  151.8524 N   0  0  0  0  0  0  0  0  0  0  0  0
  145.2360  136.2403  151.5973 C   0  0  0  0  0  0  0  0  0  0  0  0
  144.1051  135.7000  150.9320 C   0  0  0  0  0  0  0  0  0  0  0  0
  144.1884  134.3816  150.8393 N   0  0  0  0  0  0  0  0  0  0  0  0
  145.3623  134.0589  151.4381 N   0  0  0  0  0  0  0  0  0  0  0  0
  145.7741  132.6681  151.5127 C   0  0  0  0  0  0  0  0  0  0  0  0
  145.4579  131.9282  150.2113 C   0  0  0  0  0  0  0  0  0  0  0  0
  146.4894  131.4202  149.5318 N   0  0  0  0  0  0  0  0  0  0  0  0
  144.2966  131.8127  149.8261 O   0  0  0  0  0  0  0  0  0  0  0  0
  146.0301  135.1731  151.9087 C   0  0  0  0  0  0  0  0  0  0  0  0
  146.2880  140.4703  154.9861 C   0  0  0  0  0  0  0  0  0  0  0  0
  147.0891  141.3495  155.9599 C   0  0  0  0  0  0  0  0  0  0  0  0
  149.4094  142.7723  156.7117 H   0  0  0  0  0  0  0  0  0  0  0  0
  150.3595  141.3683  157.1921 H   0  0  0  0  0  0  0  0  0  0  0  0
  148.8766  141.7619  158.0531 H   0  0  0  0  0  0  0  0  0  0  0  0
  148.5271  139.8545  156.5046 H   0  0  0  0  0  0  0  0  0  0  0  0
  149.3105  141.8105  154.2992 H   0  0  0  0  0  0  0  0  0  0  0  0
  150.2326  140.4155  154.8047 H   0  0  0  0  0  0  0  0  0  0  0  0
  148.9091  139.9353  152.7557 H   0  0  0  0  0  0  0  0  0  0  0  0
  148.4453  138.8905  154.0765 H   0  0  0  0  0  0  0  0  0  0  0  0
  146.9528  141.4050  153.1733 H   0  0  0  0  0  0  0  0  0  0  0  0
  145.5700  139.9359  152.0795 H   0  0  0  0  0  0  0  0  0  0  0  0
  144.8845  138.2567  151.3041 H   0  0  0  0  0  0  0  0  0  0  0  0
  143.2443  136.2082  150.5233 H   0  0  0  0  0  0  0  0  0  0  0  0
  146.8453  132.6129  151.7128 H   0  0  0  0  0  0  0  0  0  0  0  0
  145.2666  132.1980  152.3563 H   0  0  0  0  0  0  0  0  0  0  0  0
  146.3307  130.9256  148.6662 H   0  0  0  0  0  0  0  0  0  0  0  0
  147.4276  131.5355  149.8870 H   0  0  0  0  0  0  0  0  0  0  0  0
  146.9836  135.1000  152.4103 H   0  0  0  0  0  0  0  0  0  0  0  0
  145.2747  140.8619  154.8889 H   0  0  0  0  0  0  0  0  0  0  0  0
  146.1922  139.4665  155.4028 H   0  0  0  0  0  0  0  0  0  0  0  0
  146.6037  141.3474  156.9364 H   0  0  0  0  0  0  0  0  0  0  0  0
  147.0746  142.3833  155.6109 H   0  0  0  0  0  0  0  0  0  0  0  0
  1  2  1  0  0  0  0
  1 21  1  0  0  0  0
  1 22  1  0  0  0  0
  1 23  1  0  0  0  0
  2 20  1  0  0  0  0
  2  3  1  0  0  0  0
  2 24  1  0  0  0  0
  3  4  1  0  0  0  0
  3 25  1  0  0  0  0
  3 26  1  0  0  0  0
  4  5  1  0  0  0  0
  4 27  1  0  0  0  0
  4 28  1  0  0  0  0
  5  6  1  0  0  0  0
  5 19  1  0  0  0  0
  5 29  1  0  0  0  0
  6  7  1  0  0  0  0
  6 30  1  0  0  0  0
  7  8  2  0  0  0  0
  7  9  1  0  0  0  0
  9 10  1  0  0  0  0
  9 31  1  0  0  0  0
 10 18  2  0  0  0  0
 10 11  1  0  0  0  0
 11 12  2  0  0  0  0
 11 32  1  0  0  0  0
 12 13  1  0  0  0  0
 13 14  1  0  0  0  0
 13 18  1  0  0  0  0
 14 15  1  0  0  0  0
 14 33  1  0  0  0  0
 14 34  1  0  0  0  0
 15 16  1  0  0  0  0
 15 17  2  0  0  0  0
 16 35  1  0  0  0  0
 16 36  1  0  0  0  0
 18 37  1  0  0  0  0
 19 20  1  0  0  0  0
 19 38  1  0  0  0  0
 19 39  1  0  0  0  0
 20 40  1  0  0  0  0
 20 41  1  0  0  0  0
M  END
> <s_m_source_file>
AV-unprocessed.smi

> <i_m_source_file_index>
1731

> <i_lp_mmshare_version>
43012

> <i_f3d_flags>
0

> <s_epik_input>
W0NIM11bQ0BASF0xW0NIMl1bQ0gyXVtDQEhdKFtDSDJdW0NIMl0xKVtOSF1DKD1PKVtOSF1jMltjSF1ubihbY0hdMilbQ0gyXUMoPU8pW05IMl0=

> <s_epik_cmdline>
J2VwaWtfcHl0aG9uJywgJy1waCcsICc3LjAnLCAnLXRuJywgJzgnLCAnLW1hJywgJzIwMCcsICctbWV0YWxfYmluZGluZycsICctaW1hZScsICc8aW5maWxlLm1hZT4nLCAnLW9tYWUnLCAnPG91dGZpbGUubWFlPic=

> <r_lp_tautomer_probability>
1

> <r_epik_Ionization_Penalty>
4.81284e-05

> <r_epik_Ionization_Penalty_Charging>
0

> <r_epik_Ionization_Penalty_Neutral>
4.81284e-05

> <r_epik_State_Penalty>
-0

> <r_epik_Charging_Adjusted_Penalty>
0

> <i_epik_Tot_Q>
0

> <i_epik_Tot_abs_Q>
0

> <r_epik_Metal_State_Penalty>
-0

> <b_epik_Metal_Only>
0

> <s_lp_Force_Field>
OPLS_2005

> <r_lp_Energy>
12.4361

> <b_lp_Chiralities_Consistent>
1

> <s_lp_Variant>
AV-unprocessed.smi:1731-1

> <Gold.Version>
5.8.1

> <Gold.Id.Protein>
6NUR|6NUR_protein|mol2

> <Gold.PLP.Fitness>
39.9104

> <Gold.PLP.PLP>
-28.0469

> <Gold.PLP.part.hbond>
-4.0000

> <Gold.PLP.part.metal>
0.0000

> <Gold.PLP.part.buried>
-3.3396

> <Gold.PLP.part.nonpolar>
-24.2536

> <Gold.PLP.part.repulsive>
2.5786

> <Gold.PLP.ligand.clash>
0.0000

> <Gold.PLP.ligand.torsion>
0.6132

> <Gold.PLP.Chemscore.Hbond>
2.7996

> <Gold.PLP.Chemscore.CHOScore>
1.5622

> <Gold.PLP.Chemscore.Metal>
0.0000

> <Gold.Chemscore.Hbonds>
donor molecule, donor type, donor heavy atom, donor atom, acceptor molecule, acceptor atom, score
      L1  H     6    30       P1 10175  0.53
      L1  H     9    31       P1 10171  1.00
      L1  H    16    36       P1 10747  0.98
      P1  H 10785 10796       L1    17  0.25
      L1  C    11    32       P1 10171  0.63
      L1  C    18    37       P1  7948  0.93

> <Gold.PLP.Chemscore.Internal.Correction>
0.0045

> <Gold.Rescore>
     Score         DG    S(hbond)    S(metal)    S(lipo)     H(rot)  DE(clash)    DE(int)     intcor
     11.04     -18.15       3.25        0.00      57.30       1.90       2.82       4.29       ----

> <Gold.Chemscore.Fitness>
11.0352

> <Gold.Chemscore.DG>
-18.1522

> <Gold.Chemscore.ZeroCoef>
-5.4800

> <Gold.Chemscore.Hbond>
3.2452

> <Gold.Chemscore.Metal>
0.0000

> <Gold.Chemscore.Lipo>
57.3042

> <Gold.Chemscore.Internal_Hbond>
0.0000

> <Gold.Chemscore.DEClash>
2.8239

> <Gold.Chemscore.DEInternal>
4.2930

> <Gold.Chemscore.Rot>
1.9029

> <Gold.Chemscore.Internal.Correction>
   9.000000E+99

> <Gold.Chemscore.Hbonds>
donor molecule, donor type, donor heavy atom, donor atom, acceptor molecule, acceptor atom, score
      L1  H     6    30       P1 10175  0.39
      L1  H     9    31       P1 10171  0.94
      L1  H    16    36       P1 10747  0.93
      P1  H 10785 10796       L1    17  0.26

> <Gold.Chemscore.Hbond.Weighted>
-10.8390

> <Gold.Chemscore.Metal.Weighted>
-0.0000

> <Gold.Chemscore.Lipo.Weighted>
-6.7046

> <Gold.Chemscore.Internal_Hbond.Weighted>
0.0000

> <Gold.Chemscore.DEClash.Weighted>
2.8239

> <Gold.Chemscore.DEInternal.Weighted>
4.2930

> <Gold.Chemscore.Rot.Weighted>
4.8714

> <Gold.Chemscore.Internal.Correction.Weighted>
   9.000000E+99

> <Gold.Protein.RotatedTorsions>
[ 6907 6896 6895 6894 ] final  152.67 input  -60.11 | X-H torsion
[ 7974 7965 7964 7962 ] final  173.95 input  175.53 | X-H torsion
[ 8008 7997 7996 7995 ] final -126.34 input   59.86 | X-H torsion
[ 10167 10162 10161 10158 ] final   71.50 input  -65.29 | X-H torsion
[ 10718 10713 10712 10709 ] final   -9.60 input   66.30 | X-H torsion
[ 10763 10752 10751 10750 ] final   -5.80 input  -60.55 | X-H torsion
[ 11005 11000 10999 10996 ] final   87.94 input  -57.11 | X-H torsion

> <Gold.Protein.ActiveResidues>
 VAL166  LYS551  ARG553  GLY616  TRP617  ASP618  TYR619  PRO620  LYS621  CYS622 
 ASP623  PHE694  ASN695  SER759  ASP760  ASP761  ALA762  ILE779  LEU786  VAL792 
 PHE793  MET794  SER795  GLU796  ALA797  LYS798  CYS799  TRP800  GLU811  SER814 

> <Gold.Protein.RotatedAtoms>
  152.0834  133.4164  159.4511 H   0  0  0  0  0  0  0  0  0  0  0  0  # atno 6907 bound_to 6896
  150.6862  134.2956  159.4694 H   0  0  0  0  0  0  0  0  0  0  0  0  # atno 6908 bound_to 6896
  152.0800  134.9477  160.0624 H   0  0  0  0  0  0  0  0  0  0  0  0  # atno 6909 bound_to 6896
  144.7232  139.9724  143.6437 H   0  0  0  0  0  0  0  0  0  0  0  0  # atno 7974 bound_to 7965
  155.2281  140.0424  157.2958 H   0  0  0  0  0  0  0  0  0  0  0  0  # atno 8008 bound_to 7997
  154.5906  140.2425  155.7897 H   0  0  0  0  0  0  0  0  0  0  0  0  # atno 8009 bound_to 7997
  156.2256  140.2955  156.0068 H   0  0  0  0  0  0  0  0  0  0  0  0  # atno 8010 bound_to 7997
  140.0454  144.5355  150.7402 H   0  0  0  0  0  0  0  0  0  0  0  0  # atno 10167 bound_to 10162
  156.6857  130.5050  149.5958 H   0  0  0  0  0  0  0  0  0  0  0  0  # atno 10718 bound_to 10713
  153.4035  135.7005  153.6409 H   0  0  0  0  0  0  0  0  0  0  0  0  # atno 10763 bound_to 10752
  153.4933  135.3668  155.2503 H   0  0  0  0  0  0  0  0  0  0  0  0  # atno 10764 bound_to 10752
  154.8712  135.4094  154.3374 H   0  0  0  0  0  0  0  0  0  0  0  0  # atno 10765 bound_to 10752
  139.8908  134.8455  156.2930 H   0  0  0  0  0  0  0  0  0  0  0  0  # atno 11005 bound_to 11000
  146.0552  139.3550  143.0615 LP  0  0  0  0  0  0  0  0  0  0  0  0  # atno 17320 bound_to 7965
  145.8163  140.9701  143.0922 LP  0  0  0  0  0  0  0  0  0  0  0  0  # atno 17321 bound_to 7965
  140.7241  143.2618  151.4180 LP  0  0  0  0  0  0  0  0  0  0  0  0  # atno 17342 bound_to 10162
  139.5987  144.1343  152.2173 LP  0  0  0  0  0  0  0  0  0  0  0  0  # atno 17343 bound_to 10162
  156.1834  130.6514  151.0978 LP  0  0  0  0  0  0  0  0  0  0  0  0  # atno 17370 bound_to 10713
  157.7027  131.0769  150.6767 LP  0  0  0  0  0  0  0  0  0  0  0  0  # atno 17371 bound_to 10713
  140.9963  133.7178  156.0892 LP  0  0  0  0  0  0  0  0  0  0  0  0  # atno 17394 bound_to 11000
  140.7557  134.3995  157.5534 LP  0  0  0  0  0  0  0  0  0  0  0  0  # atno 17395 bound_to 11000

$$$$
