AV-unprocessed.smi:1943|AV-procd|sdf|7852|dock10
  -GOLD-   2272010 03D 1   1.00000     0.00000
 Structure written by MMmdl.
 47 48  0  0  0  0  0  0  0  0  3 V2000
  145.4203  131.4523  151.9070 C   0  0  0  0  0  0  0  0  0  0  0  0
  145.1772  132.5608  152.8770 N   0  3  0  0  0  0  0  0  0  0  0  0
  144.6520  133.7459  152.1488 C   0  0  0  0  0  0  0  0  0  0  0  0
  146.2774  132.8269  153.8856 C   0  0  0  0  0  0  0  0  0  0  0  0
  146.5235  131.5651  154.7639 C   0  0  0  0  0  0  0  0  0  0  0  0
  147.6292  133.1582  153.1742 C   0  0  0  0  0  0  0  0  0  0  0  0
  145.8432  134.0679  154.7479 C   0  0  0  0  0  0  0  0  0  0  0  0
  146.8823  134.4689  155.6930 N   0  5  0  0  0  0  0  0  0  0  0  0
  147.6471  135.5867  155.5499 C   0  0  0  0  0  0  0  0  0  0  0  0
  147.7435  136.3649  154.5944 O   0  0  0  0  0  0  0  0  0  0  0  0
  148.4131  135.9093  156.8015 C   0  0  0  0  0  0  0  0  0  0  0  0
  147.8321  135.5479  157.9690 N   0  0  0  0  0  0  0  0  0  0  0  0
  148.4769  135.8064  159.1127 C   0  0  0  0  0  0  0  0  0  0  0  0
  147.8599  135.4110  160.3071 N   0  0  0  0  0  0  0  0  0  0  0  0
  147.3580  136.3867  161.2785 C   0  0  0  0  0  0  0  0  0  0  0  0
  147.4445  135.8297  162.7094 C   0  0  0  0  0  0  0  0  0  0  0  0
  146.7591  134.5856  162.7853 O   0  0  0  0  0  0  0  0  0  0  0  0
  147.3444  133.6147  161.9266 C   0  0  0  0  0  0  0  0  0  0  0  0
  147.2535  134.0868  160.4657 C   0  0  0  0  0  0  0  0  0  0  0  0
  149.6668  136.4145  159.1990 N   0  0  0  0  0  0  0  0  0  0  0  0
  150.2589  136.7995  158.0493 C   0  0  0  0  0  0  0  0  0  0  0  0
  149.6672  136.5750  156.7921 C   0  0  0  0  0  0  0  0  0  0  0  0
  150.4550  137.1347  155.3556 Cl  0  0  0  0  0  0  0  0  0  0  0  0
  146.1586  131.7368  151.1563 H   0  0  0  0  0  0  0  0  0  0  0  0
  144.4981  131.2055  151.3802 H   0  0  0  0  0  0  0  0  0  0  0  0
  145.7596  130.5339  152.3850 H   0  0  0  0  0  0  0  0  0  0  0  0
  145.4449  134.2490  151.5939 H   0  0  0  0  0  0  0  0  0  0  0  0
  144.1788  134.4625  152.8200 H   0  0  0  0  0  0  0  0  0  0  0  0
  143.8835  133.4506  151.4338 H   0  0  0  0  0  0  0  0  0  0  0  0
  147.3898  131.6826  155.4177 H   0  0  0  0  0  0  0  0  0  0  0  0
  146.7285  130.6934  154.1418 H   0  0  0  0  0  0  0  0  0  0  0  0
  145.6783  131.3106  155.4063 H   0  0  0  0  0  0  0  0  0  0  0  0
  148.4345  133.3829  153.8768 H   0  0  0  0  0  0  0  0  0  0  0  0
  147.5527  134.0091  152.4937 H   0  0  0  0  0  0  0  0  0  0  0  0
  147.9990  132.3118  152.5950 H   0  0  0  0  0  0  0  0  0  0  0  0
  145.5832  134.8837  154.0717 H   0  0  0  0  0  0  0  0  0  0  0  0
  144.9194  133.8306  155.2758 H   0  0  0  0  0  0  0  0  0  0  0  0
  147.9121  137.3243  161.2453 H   0  0  0  0  0  0  0  0  0  0  0  0
  146.3228  136.6237  161.0308 H   0  0  0  0  0  0  0  0  0  0  0  0
  148.4845  135.7055  163.0157 H   0  0  0  0  0  0  0  0  0  0  0  0
  146.9886  136.5288  163.4107 H   0  0  0  0  0  0  0  0  0  0  0  0
  148.3821  133.4362  162.2136 H   0  0  0  0  0  0  0  0  0  0  0  0
  146.8149  132.6697  162.0482 H   0  0  0  0  0  0  0  0  0  0  0  0
  146.2100  134.1425  160.1540 H   0  0  0  0  0  0  0  0  0  0  0  0
  147.7319  133.3377  159.8355 H   0  0  0  0  0  0  0  0  0  0  0  0
  151.2114  137.3013  158.1362 H   0  0  0  0  0  0  0  0  0  0  0  0
  144.4005  132.2499  153.4436 H   0  0  0  0  0  0  0  0  0  0  0  0
  1  2  1  0  0  0  0
  1 24  1  0  0  0  0
  1 25  1  0  0  0  0
  1 26  1  0  0  0  0
  2  3  1  0  0  0  0
  2  4  1  0  0  0  0
  2 47  1  0  0  0  0
  3 27  1  0  0  0  0
  3 28  1  0  0  0  0
  3 29  1  0  0  0  0
  4  5  1  0  0  0  0
  4  6  1  0  0  0  0
  4  7  1  0  0  0  0
  5 30  1  0  0  0  0
  5 31  1  0  0  0  0
  5 32  1  0  0  0  0
  6 33  1  0  0  0  0
  6 34  1  0  0  0  0
  6 35  1  0  0  0  0
  7  8  1  0  0  0  0
  7 36  1  0  0  0  0
  7 37  1  0  0  0  0
  8  9  1  0  0  0  0
  9 10  2  0  0  0  0
  9 11  1  0  0  0  0
 11 22  1  0  0  0  0
 11 12  2  0  0  0  0
 12 13  1  0  0  0  0
 13 14  1  0  0  0  0
 13 20  2  0  0  0  0
 14 19  1  0  0  0  0
 14 15  1  0  0  0  0
 15 16  1  0  0  0  0
 15 38  1  0  0  0  0
 15 39  1  0  0  0  0
 16 17  1  0  0  0  0
 16 40  1  0  0  0  0
 16 41  1  0  0  0  0
 17 18  1  0  0  0  0
 18 19  1  0  0  0  0
 18 42  1  0  0  0  0
 18 43  1  0  0  0  0
 19 44  1  0  0  0  0
 19 45  1  0  0  0  0
 20 21  1  0  0  0  0
 21 22  2  0  0  0  0
 21 46  1  0  0  0  0
 22 23  1  0  0  0  0
M  CHG  1   2   1
M  CHG  1   8  -1
M  END
> <s_m_source_file>
AV-unprocessed.smi

> <i_m_source_file_index>
1943

> <i_lp_mmshare_version>
43012

> <i_f3d_flags>
0

> <s_epik_input>
W0NIM11OKFtDSDNdKUMoW0NIM10pKFtDSDNdKVtDSDJdW05IXUMoPU8pYzFuYyhuW2NIXWMxQ2wpTjJbQ0gyXVtDSDJdT1tDSDJdW0NIMl0y

> <s_epik_cmdline>
J2VwaWtfcHl0aG9uJywgJy1waCcsICc3LjAnLCAnLXRuJywgJzgnLCAnLW1hJywgJzIwMCcsICctbWV0YWxfYmluZGluZycsICctaW1hZScsICc8aW5maWxlLm1hZT4nLCAnLW9tYWUnLCAnPG91dGZpbGUubWFlPic=

> <r_lp_tautomer_probability>
1

> <r_epik_Ionization_Penalty>
4.9942

> <r_epik_Ionization_Penalty_Charging>
4.9942

> <r_epik_Ionization_Penalty_Neutral>
6.27513e-06

> <r_epik_State_Penalty>
4.99795

> <r_epik_Charging_Adjusted_Penalty>
9.99215

> <i_epik_Tot_Q>
0

> <i_epik_Tot_abs_Q>
2

> <r_epik_Metal_State_Penalty>
1.11486

> <b_epik_Metal_Only>
1

> <s_lp_Force_Field>
OPLS_2005

> <r_lp_Energy>
33.8194

> <b_lp_Chiralities_Consistent>
1

> <s_lp_Variant>
AV-unprocessed.smi:1943-2

> <Gold.Version>
5.8.1

> <Gold.Id.Protein>
6NUR|6NUR_protein|mol2

> <Gold.PLP.Fitness>
35.1846

> <Gold.PLP.PLP>
-29.3005

> <Gold.PLP.part.hbond>
-2.0579

> <Gold.PLP.part.metal>
0.0000

> <Gold.PLP.part.buried>
-6.2909

> <Gold.PLP.part.nonpolar>
-21.4078

> <Gold.PLP.part.repulsive>
0.1137

> <Gold.PLP.ligand.clash>
0.0000

> <Gold.PLP.ligand.torsion>
1.6667

> <Gold.PLP.Chemscore.Hbond>
2.9825

> <Gold.PLP.Chemscore.CHOScore>
0.0000

> <Gold.PLP.Chemscore.Metal>
0.0000

> <Gold.Chemscore.Hbonds>
donor molecule, donor type, donor heavy atom, donor atom, acceptor molecule, acceptor atom, score
      L1  H     2    47       P1 10957  0.73
      P1  H  6896  6908       L1    20  1.00

> <Gold.PLP.Chemscore.Internal.Correction>
0.2700

> <Gold.Rescore>
     Score         DG    S(hbond)    S(metal)    S(lipo)     H(rot)  DE(clash)    DE(int)     intcor
     11.07     -14.25       1.49        0.00      63.23       1.41       0.21       2.98       ----

> <Gold.Chemscore.Fitness>
11.0676

> <Gold.Chemscore.DG>
-14.2528

> <Gold.Chemscore.ZeroCoef>
-5.4800

> <Gold.Chemscore.Hbond>
1.4894

> <Gold.Chemscore.Metal>
0.0000

> <Gold.Chemscore.Lipo>
63.2296

> <Gold.Chemscore.Internal_Hbond>
0.0000

> <Gold.Chemscore.DEClash>
0.2084

> <Gold.Chemscore.DEInternal>
2.9769

> <Gold.Chemscore.Rot>
1.4060

> <Gold.Chemscore.Internal.Correction>
   9.000000E+99

> <Gold.Chemscore.Hbonds>
donor molecule, donor type, donor heavy atom, donor atom, acceptor molecule, acceptor atom, score
      L1  H     2    47       P1 10957  0.04
      P1  H  6896  6908       L1    20  0.10

> <Gold.Chemscore.Hbond.Weighted>
-4.9744

> <Gold.Chemscore.Metal.Weighted>
-0.0000

> <Gold.Chemscore.Lipo.Weighted>
-7.3979

> <Gold.Chemscore.Internal_Hbond.Weighted>
0.0000

> <Gold.Chemscore.DEClash.Weighted>
0.2084

> <Gold.Chemscore.DEInternal.Weighted>
2.9769

> <Gold.Chemscore.Rot.Weighted>
3.5994

> <Gold.Chemscore.Internal.Correction.Weighted>
   9.000000E+99

> <Gold.Protein.RotatedTorsions>
[ 6907 6896 6895 6894 ] final -164.16 input  -60.11 | X-H torsion
[ 7974 7965 7964 7962 ] final    5.67 input  175.53 | X-H torsion
[ 8008 7997 7996 7995 ] final  -56.18 input   59.86 | X-H torsion
[ 10167 10162 10161 10158 ] final -146.89 input  -65.29 | X-H torsion
[ 10718 10713 10712 10709 ] final  124.99 input   66.30 | X-H torsion
[ 10763 10752 10751 10750 ] final  112.88 input  -60.55 | X-H torsion
[ 11005 11000 10999 10996 ] final  -87.62 input  -57.11 | X-H torsion

> <Gold.Protein.ActiveResidues>
 VAL166  LYS551  ARG553  GLY616  TRP617  ASP618  TYR619  PRO620  LYS621  CYS622 
 ASP623  PHE694  ASN695  SER759  ASP760  ASP761  ALA762  ILE779  LEU786  VAL792 
 PHE793  MET794  SER795  GLU796  ALA797  LYS798  CYS799  TRP800  GLU811  SER814 

> <Gold.Protein.RotatedAtoms>
  151.4074  133.3738  159.2739 H   0  0  0  0  0  0  0  0  0  0  0  0  # atno 6907 bound_to 6896
  150.9388  134.8800  159.7609 H   0  0  0  0  0  0  0  0  0  0  0  0  # atno 6908 bound_to 6896
  152.5062  134.4024  159.9473 H   0  0  0  0  0  0  0  0  0  0  0  0  # atno 6909 bound_to 6896
  146.2439  140.0349  142.8386 H   0  0  0  0  0  0  0  0  0  0  0  0  # atno 7974 bound_to 7965
  154.4221  140.1135  156.5597 H   0  0  0  0  0  0  0  0  0  0  0  0  # atno 8008 bound_to 7997
  155.6324  140.3496  155.4668 H   0  0  0  0  0  0  0  0  0  0  0  0  # atno 8009 bound_to 7997
  155.9937  140.1184  157.0604 H   0  0  0  0  0  0  0  0  0  0  0  0  # atno 8010 bound_to 7997
  139.7672  143.8290  152.2618 H   0  0  0  0  0  0  0  0  0  0  0  0  # atno 10167 bound_to 10162
  157.5540  131.1093  150.8653 H   0  0  0  0  0  0  0  0  0  0  0  0  # atno 10718 bound_to 10713
  153.4843  135.3672  155.2458 H   0  0  0  0  0  0  0  0  0  0  0  0  # atno 10763 bound_to 10752
  154.8754  135.3962  154.3664 H   0  0  0  0  0  0  0  0  0  0  0  0  # atno 10764 bound_to 10752
  153.4272  135.7081  153.6320 H   0  0  0  0  0  0  0  0  0  0  0  0  # atno 10765 bound_to 10752
  141.1614  133.7522  156.9333 H   0  0  0  0  0  0  0  0  0  0  0  0  # atno 11005 bound_to 11000
  145.1121  140.9411  143.4650 LP  0  0  0  0  0  0  0  0  0  0  0  0  # atno 17320 bound_to 7965
  145.0566  139.3139  143.5902 LP  0  0  0  0  0  0  0  0  0  0  0  0  # atno 17321 bound_to 7965
  139.8314  144.7252  150.9446 LP  0  0  0  0  0  0  0  0  0  0  0  0  # atno 17342 bound_to 10162
  140.7811  143.4066  151.1060 LP  0  0  0  0  0  0  0  0  0  0  0  0  # atno 17343 bound_to 10162
  156.9170  130.5301  149.5279 LP  0  0  0  0  0  0  0  0  0  0  0  0  # atno 17370 bound_to 10713
  156.0602  130.5656  150.9176 LP  0  0  0  0  0  0  0  0  0  0  0  0  # atno 17371 bound_to 10713
  140.1371  134.9318  157.2417 LP  0  0  0  0  0  0  0  0  0  0  0  0  # atno 17394 bound_to 11000
  140.2881  134.3271  155.7323 LP  0  0  0  0  0  0  0  0  0  0  0  0  # atno 17395 bound_to 11000

$$$$
