AV-unprocessed.smi:2451|AV-procd|sdf|9682|dock8
  -GOLD-   2272013323D 1   1.00000     0.00000
 Structure written by MMmdl.
 37 38  0  0  0  0  0  0  0  0  2 V2000
  151.5033  145.1264  160.2448 C   0  0  0  0  0  0  0  0  0  0  0  0
  152.4002  143.9092  159.9476 C   0  0  1  0  0  0  0  0  0  0  0  0
  152.7648  143.2223  161.2871 C   0  0  0  0  0  0  0  0  0  0  0  0
  153.6567  141.9949  161.0327 C   0  0  0  0  0  0  0  0  0  0  0  0
  152.9984  140.9973  160.0564 C   0  0  0  0  0  0  0  0  0  0  0  0
  152.6262  141.6304  158.6952 C   0  0  1  0  0  0  0  0  0  0  0  0
  151.8988  140.6496  157.9004 N   0  5  0  0  0  0  0  0  0  0  0  0
  152.5644  139.1987  157.6194 S   0  0  0  0  0  0  0  0  0  0  0  0
  153.8988  139.0615  158.2262 O   0  0  0  0  0  0  0  0  0  0  0  0
  151.6174  138.0918  157.8332 O   0  0  0  0  0  0  0  0  0  0  0  0
  152.8369  139.2986  155.7984 C   0  0  0  0  0  0  0  0  0  0  0  0
  151.5265  139.1944  155.0685 C   0  0  0  0  0  0  0  0  0  0  0  0
  150.8658  138.0274  154.5927 C   0  0  0  0  0  0  0  0  0  0  0  0
  149.7260  138.5152  154.0221 C   0  0  0  0  0  0  0  0  0  0  0  0
  149.6752  139.8657  154.1411 O   0  0  0  0  0  0  0  0  0  0  0  0
  150.8274  140.2900  154.8128 N   0  0  0  0  0  0  0  0  0  0  0  0
  151.7619  142.9189  158.9085 C   0  0  2  0  0  0  0  0  0  0  0  0
  151.4644  143.6352  157.5639 C   0  0  0  0  0  0  0  0  0  0  0  0
  150.5112  144.8167  160.5752 H   0  0  0  0  0  0  0  0  0  0  0  0
  151.3851  145.7699  159.3740 H   0  0  0  0  0  0  0  0  0  0  0  0
  151.9336  145.7466  161.0315 H   0  0  0  0  0  0  0  0  0  0  0  0
  153.3276  144.3010  159.5239 H   0  0  0  0  0  0  0  0  0  0  0  0
  153.2797  143.9206  161.9479 H   0  0  0  0  0  0  0  0  0  0  0  0
  151.8562  142.9126  161.8053 H   0  0  0  0  0  0  0  0  0  0  0  0
  154.6276  142.3174  160.6508 H   0  0  0  0  0  0  0  0  0  0  0  0
  153.8603  141.4936  161.9793 H   0  0  0  0  0  0  0  0  0  0  0  0
  153.6703  140.1527  159.8983 H   0  0  0  0  0  0  0  0  0  0  0  0
  152.1028  140.5886  160.5278 H   0  0  0  0  0  0  0  0  0  0  0  0
  153.5539  141.9362  158.2091 H   0  0  0  0  0  0  0  0  0  0  0  0
  153.3338  140.2429  155.5783 H   0  0  0  0  0  0  0  0  0  0  0  0
  153.5149  138.4931  155.5144 H   0  0  0  0  0  0  0  0  0  0  0  0
  151.1845  136.9974  154.6548 H   0  0  0  0  0  0  0  0  0  0  0  0
  148.8914  138.0513  153.5176 H   0  0  0  0  0  0  0  0  0  0  0  0
  150.8038  142.6001  159.3226 H   0  0  0  0  0  0  0  0  0  0  0  0
  152.3679  144.0525  157.1153 H   0  0  0  0  0  0  0  0  0  0  0  0
  150.7598  144.4547  157.6957 H   0  0  0  0  0  0  0  0  0  0  0  0
  151.0032  142.9780  156.8240 H   0  0  0  0  0  0  0  0  0  0  0  0
  1  2  1  0  0  0  0
  1 19  1  0  0  0  0
  1 20  1  0  0  0  0
  1 21  1  0  0  0  0
  2 17  1  0  0  0  0
  2  3  1  0  0  0  0
  2 22  1  0  0  0  0
  3  4  1  0  0  0  0
  3 23  1  0  0  0  0
  3 24  1  0  0  0  0
  4  5  1  0  0  0  0
  4 25  1  0  0  0  0
  4 26  1  0  0  0  0
  5  6  1  0  0  0  0
  5 27  1  0  0  0  0
  5 28  1  0  0  0  0
  6  7  1  0  0  0  0
  6 17  1  0  0  0  0
  6 29  1  0  0  0  0
  7  8  1  0  0  0  0
  8  9  2  0  0  0  0
  8 10  2  0  0  0  0
  8 11  1  0  0  0  0
 11 12  1  0  0  0  0
 11 30  1  0  0  0  0
 11 31  1  0  0  0  0
 12 16  2  0  0  0  0
 12 13  1  0  0  0  0
 13 14  2  0  0  0  0
 13 32  1  0  0  0  0
 14 15  1  0  0  0  0
 14 33  1  0  0  0  0
 15 16  1  0  0  0  0
 17 18  1  0  0  0  0
 17 34  1  0  0  0  0
 18 35  1  0  0  0  0
 18 36  1  0  0  0  0
 18 37  1  0  0  0  0
M  CHG  1   7  -1
M  END
> <s_m_source_file>
AV-unprocessed.smi

> <i_m_source_file_index>
2451

> <i_lp_mmshare_version>
43012

> <i_f3d_flags>
0

> <s_epik_input>
W0NIM11bQ0BASF0xW0NIMl1bQ0gyXVtDSDJdW0NASF0oW0NASF0xW0NIM10pW05IXVMoPU8pKD1PKVtDSDJdYzJbY0hdW2NIXW9uMg==

> <s_epik_cmdline>
J2VwaWtfcHl0aG9uJywgJy1waCcsICc3LjAnLCAnLXRuJywgJzgnLCAnLW1hJywgJzIwMCcsICctbWV0YWxfYmluZGluZycsICctaW1hZScsICc8aW5maWxlLm1hZT4nLCAnLW9tYWUnLCAnPG91dGZpbGUubWFlPic=

> <r_lp_tautomer_probability>
1

> <r_epik_Ionization_Penalty>
5.22693

> <r_epik_Ionization_Penalty_Charging>
5.22693

> <r_epik_Ionization_Penalty_Neutral>
2.67702e-10

> <r_epik_State_Penalty>
5.22685

> <r_epik_Charging_Adjusted_Penalty>
10.4538

> <i_epik_Tot_Q>
-1

> <i_epik_Tot_abs_Q>
1

> <r_epik_Metal_State_Penalty>
1.28716

> <b_epik_Metal_Only>
1

> <s_lp_Force_Field>
OPLS_2005

> <r_lp_Energy>
12.2025

> <b_lp_Chiralities_Consistent>
1

> <s_lp_Variant>
AV-unprocessed.smi:2451-14

> <Gold.Version>
5.8.1

> <Gold.Id.Protein>
6NUR|6NUR_protein|mol2

> <Gold.PLP.Fitness>
45.6980

> <Gold.PLP.PLP>
-38.4120

> <Gold.PLP.part.hbond>
-2.2029

> <Gold.PLP.part.metal>
0.0000

> <Gold.PLP.part.buried>
-2.9344

> <Gold.PLP.part.nonpolar>
-34.4272

> <Gold.PLP.part.repulsive>
0.6971

> <Gold.PLP.ligand.clash>
0.0000

> <Gold.PLP.ligand.torsion>
1.1178

> <Gold.PLP.Chemscore.Hbond>
2.0000

> <Gold.PLP.Chemscore.CHOScore>
0.8432

> <Gold.PLP.Chemscore.Metal>
0.0000

> <Gold.Chemscore.Hbonds>
donor molecule, donor type, donor heavy atom, donor atom, acceptor molecule, acceptor atom, score
      P1  H  7989  7998       L1    16  0.85
      P1  H  7997  8008       L1     9  1.00
      L1  C    14    33       P1  7948  0.94

> <Gold.PLP.Chemscore.Internal.Correction>
0.9918

> <Gold.Rescore>
     Score         DG    S(hbond)    S(metal)    S(lipo)     H(rot)  DE(clash)    DE(int)     intcor
     18.60     -21.01       1.88        0.00     109.71       1.40       0.17       2.24       ----

> <Gold.Chemscore.Fitness>
18.6005

> <Gold.Chemscore.DG>
-21.0106

> <Gold.Chemscore.ZeroCoef>
-5.4800

> <Gold.Chemscore.Hbond>
1.8786

> <Gold.Chemscore.Metal>
0.0000

> <Gold.Chemscore.Lipo>
109.7139

> <Gold.Chemscore.Internal_Hbond>
0.0000

> <Gold.Chemscore.DEClash>
0.1721

> <Gold.Chemscore.DEInternal>
2.2379

> <Gold.Chemscore.Rot>
1.3986

> <Gold.Chemscore.Internal.Correction>
   9.000000E+99

> <Gold.Chemscore.Hbonds>
donor molecule, donor type, donor heavy atom, donor atom, acceptor molecule, acceptor atom, score
      P1  H  7989  7998       L1    16  0.04
      P1  H  7997  8008       L1     9  0.35

> <Gold.Chemscore.Hbond.Weighted>
-6.2745

> <Gold.Chemscore.Metal.Weighted>
-0.0000

> <Gold.Chemscore.Lipo.Weighted>
-12.8365

> <Gold.Chemscore.Internal_Hbond.Weighted>
0.0000

> <Gold.Chemscore.DEClash.Weighted>
0.1721

> <Gold.Chemscore.DEInternal.Weighted>
2.2379

> <Gold.Chemscore.Rot.Weighted>
3.5804

> <Gold.Chemscore.Internal.Correction.Weighted>
   9.000000E+99

> <Gold.Protein.RotatedTorsions>
[ 6907 6896 6895 6894 ] final  150.27 input  -60.11 | X-H torsion
[ 7974 7965 7964 7962 ] final  128.91 input  175.53 | X-H torsion
[ 8008 7997 7996 7995 ] final -104.57 input   59.86 | X-H torsion
[ 10167 10162 10161 10158 ] final   82.25 input  -65.29 | X-H torsion
[ 10718 10713 10712 10709 ] final -113.83 input   66.30 | X-H torsion
[ 10763 10752 10751 10750 ] final  146.51 input  -60.55 | X-H torsion
[ 11005 11000 10999 10996 ] final   11.87 input  -57.11 | X-H torsion

> <Gold.Protein.ActiveResidues>
 VAL166  LYS551  ARG553  GLY616  TRP617  ASP618  TYR619  PRO620  LYS621  CYS622 
 ASP623  PHE694  ASN695  SER759  ASP760  ASP761  ALA762  ILE779  LEU786  VAL792 
 PHE793  MET794  SER795  GLU796  ALA797  LYS798  CYS799  TRP800  GLU811  SER814 

> <Gold.Protein.RotatedAtoms>
  152.1167  133.4330  159.4656 H   0  0  0  0  0  0  0  0  0  0  0  0  # atno 6907 bound_to 6896
  150.6870  134.2583  159.4548 H   0  0  0  0  0  0  0  0  0  0  0  0  # atno 6908 bound_to 6896
  152.0457  134.9684  160.0625 H   0  0  0  0  0  0  0  0  0  0  0  0  # atno 6909 bound_to 6896
  145.0344  139.4017  143.5133 H   0  0  0  0  0  0  0  0  0  0  0  0  # atno 7974 bound_to 7965
  154.8873  140.0417  157.1817 H   0  0  0  0  0  0  0  0  0  0  0  0  # atno 8008 bound_to 7997
  154.8577  140.2939  155.5537 H   0  0  0  0  0  0  0  0  0  0  0  0  # atno 8009 bound_to 7997
  156.2997  140.2453  156.3547 H   0  0  0  0  0  0  0  0  0  0  0  0  # atno 8010 bound_to 7997
  139.9307  144.6154  150.8347 H   0  0  0  0  0  0  0  0  0  0  0  0  # atno 10167 bound_to 10162
  156.0791  130.5994  150.8694 H   0  0  0  0  0  0  0  0  0  0  0  0  # atno 10718 bound_to 10713
  154.0231  135.2904  155.3378 H   0  0  0  0  0  0  0  0  0  0  0  0  # atno 10763 bound_to 10752
  154.7034  135.5179  153.8562 H   0  0  0  0  0  0  0  0  0  0  0  0  # atno 10764 bound_to 10752
  153.0672  135.6635  154.0451 H   0  0  0  0  0  0  0  0  0  0  0  0  # atno 10765 bound_to 10752
  140.4983  134.0771  155.7787 H   0  0  0  0  0  0  0  0  0  0  0  0  # atno 11005 bound_to 11000
  146.3502  139.9912  142.8685 LP  0  0  0  0  0  0  0  0  0  0  0  0  # atno 17320 bound_to 7965
  145.1728  140.9729  143.4311 LP  0  0  0  0  0  0  0  0  0  0  0  0  # atno 17321 bound_to 7965
  140.7638  143.3232  151.2574 LP  0  0  0  0  0  0  0  0  0  0  0  0  # atno 17342 bound_to 10162
  139.6784  143.9897  152.2794 LP  0  0  0  0  0  0  0  0  0  0  0  0  # atno 17343 bound_to 10162
  157.5900  131.0944  150.9134 LP  0  0  0  0  0  0  0  0  0  0  0  0  # atno 17370 bound_to 10713
  156.9312  130.5350  149.5279 LP  0  0  0  0  0  0  0  0  0  0  0  0  # atno 17371 bound_to 10713
  141.1449  133.9073  157.2240 LP  0  0  0  0  0  0  0  0  0  0  0  0  # atno 17394 bound_to 11000
  139.9728  135.0123  156.9556 LP  0  0  0  0  0  0  0  0  0  0  0  0  # atno 17395 bound_to 11000

$$$$
