AV-unprocessed.smi:1154|AV-procd|sdf|4901|dock10
  -GOLD-   22720 3473D 1   1.00000     0.00000
 Structure written by MMmdl.
 42 43  0  0  0  0  0  0  0  0  2 V2000
  151.3972  145.3475  158.9672 C   0  0  0  0  0  0  0  0  0  0  0  0
  152.2116  144.0459  158.9756 C   0  0  1  0  0  0  0  0  0  0  0  0
  152.6543  143.6690  160.3992 C   0  0  0  0  0  0  0  0  0  0  0  0
  153.4525  142.3548  160.3883 C   0  0  1  0  0  0  0  0  0  0  0  0
  153.8848  141.9500  161.8048 C   0  0  0  0  0  0  0  0  0  0  0  0
  152.6344  141.2403  159.7079 C   0  0  0  0  0  0  0  0  0  0  0  0
  152.2243  141.6290  158.3335 N   0  3  1  0  0  0  0  0  0  0  0  0
  151.5600  140.5143  157.6111 C   0  0  0  0  0  0  0  0  0  0  0  0
  152.5207  139.3506  157.3165 C   0  0  0  0  0  0  0  0  0  0  0  0
  151.8303  138.2885  156.5984 N   0  0  0  0  0  0  0  0  0  0  0  0
  151.3158  138.4190  155.3659 C   0  0  0  0  0  0  0  0  0  0  0  0
  151.3557  139.4709  154.7289 O   0  0  0  0  0  0  0  0  0  0  0  0
  150.6460  137.1833  154.7587 C   0  0  0  0  0  0  0  0  0  0  0  0
  150.7665  136.0243  155.6250 N   0  0  0  0  0  0  0  0  0  0  0  0
  149.8934  135.0611  155.9262 C   0  0  0  0  0  0  0  0  0  0  0  0
  150.4041  134.1871  156.7797 N   0  0  0  0  0  0  0  0  0  0  0  0
  151.6844  134.6691  156.9951 N   0  0  0  0  0  0  0  0  0  0  0  0
  151.9060  135.7579  156.3111 N   0  0  0  0  0  0  0  0  0  0  0  0
  151.4264  142.8841  158.3370 C   0  0  0  0  0  0  0  0  0  0  0  0
  150.4826  145.2485  159.5529 H   0  0  0  0  0  0  0  0  0  0  0  0
  151.1133  145.6271  157.9521 H   0  0  0  0  0  0  0  0  0  0  0  0
  151.9729  146.1733  159.3863 H   0  0  0  0  0  0  0  0  0  0  0  0
  153.1076  144.2170  158.3766 H   0  0  0  0  0  0  0  0  0  0  0  0
  153.2615  144.4696  160.8240 H   0  0  0  0  0  0  0  0  0  0  0  0
  151.7802  143.5659  161.0444 H   0  0  0  0  0  0  0  0  0  0  0  0
  154.3588  142.5147  159.8021 H   0  0  0  0  0  0  0  0  0  0  0  0
  153.0220  141.7693  162.4466 H   0  0  0  0  0  0  0  0  0  0  0  0
  154.4871  142.7311  162.2697 H   0  0  0  0  0  0  0  0  0  0  0  0
  154.4841  141.0392  161.7883 H   0  0  0  0  0  0  0  0  0  0  0  0
  153.2371  140.3321  159.6637 H   0  0  0  0  0  0  0  0  0  0  0  0
  151.7474  141.0036  160.2984 H   0  0  0  0  0  0  0  0  0  0  0  0
  150.7434  140.1268  158.2225 H   0  0  0  0  0  0  0  0  0  0  0  0
  151.1060  140.8875  156.6917 H   0  0  0  0  0  0  0  0  0  0  0  0
  153.3662  139.6782  156.7115 H   0  0  0  0  0  0  0  0  0  0  0  0
  152.9242  138.9585  158.2519 H   0  0  0  0  0  0  0  0  0  0  0  0
  151.7504  137.3933  157.0588 H   0  0  0  0  0  0  0  0  0  0  0  0
  149.5890  137.3888  154.5853 H   0  0  0  0  0  0  0  0  0  0  0  0
  151.0925  136.9485  153.7912 H   0  0  0  0  0  0  0  0  0  0  0  0
  148.8907  135.0044  155.5293 H   0  0  0  0  0  0  0  0  0  0  0  0
  150.4916  142.7186  158.8753 H   0  0  0  0  0  0  0  0  0  0  0  0
  151.1569  143.1602  157.3182 H   0  0  0  0  0  0  0  0  0  0  0  0
  153.0789  141.8243  157.8318 H   0  0  0  0  0  0  0  0  0  0  0  0
  1  2  1  0  0  0  0
  1 20  1  0  0  0  0
  1 21  1  0  0  0  0
  1 22  1  0  0  0  0
  2 19  1  0  0  0  0
  2  3  1  0  0  0  0
  2 23  1  0  0  0  0
  3  4  1  0  0  0  0
  3 24  1  0  0  0  0
  3 25  1  0  0  0  0
  4  5  1  0  0  0  0
  4  6  1  0  0  0  0
  4 26  1  0  0  0  0
  5 27  1  0  0  0  0
  5 28  1  0  0  0  0
  5 29  1  0  0  0  0
  6  7  1  0  0  0  0
  6 30  1  0  0  0  0
  6 31  1  0  0  0  0
  7  8  1  0  0  0  0
  7 19  1  0  0  0  0
  7 42  1  0  0  0  0
  8  9  1  0  0  0  0
  8 32  1  0  0  0  0
  8 33  1  0  0  0  0
  9 10  1  0  0  0  0
  9 34  1  0  0  0  0
  9 35  1  0  0  0  0
 10 11  1  0  0  0  0
 10 36  1  0  0  0  0
 11 12  2  0  0  0  0
 11 13  1  0  0  0  0
 13 14  1  0  0  0  0
 13 37  1  0  0  0  0
 13 38  1  0  0  0  0
 14 18  1  0  0  0  0
 14 15  1  0  0  0  0
 15 16  2  0  0  0  0
 15 39  1  0  0  0  0
 16 17  1  0  0  0  0
 17 18  2  0  0  0  0
 19 40  1  0  0  0  0
 19 41  1  0  0  0  0
M  CHG  1   7   1
M  END
> <s_m_source_file>
AV-unprocessed.smi

> <i_m_source_file_index>
1154

> <i_lp_mmshare_version>
43012

> <i_f3d_flags>
0

> <s_epik_input>
W0NIM11bQ0BASF0xW0NIMl1bQ0BASF0oW0NIM10pW0NIMl1OKFtDSDJdMSlbQ0gyXVtDSDJdW05IXUMoPU8pW0NIMl1uMltjSF1ubm4y

> <s_epik_cmdline>
J2VwaWtfcHl0aG9uJywgJy1waCcsICc3LjAnLCAnLXRuJywgJzgnLCAnLW1hJywgJzIwMCcsICctbWV0YWxfYmluZGluZycsICctaW1hZScsICc8aW5maWxlLm1hZT4nLCAnLW9tYWUnLCAnPG91dGZpbGUubWFlPic=

> <r_lp_tautomer_probability>
1

> <r_epik_Ionization_Penalty>
0.00217773

> <r_epik_Ionization_Penalty_Charging>
0.00217329

> <r_epik_Ionization_Penalty_Neutral>
4.43997e-06

> <r_epik_State_Penalty>
0.00149294

> <r_epik_Charging_Adjusted_Penalty>
0.00366623

> <i_epik_Tot_Q>
1

> <i_epik_Tot_abs_Q>
1

> <r_epik_Metal_State_Penalty>
-0

> <b_epik_Metal_Only>
0

> <s_lp_Force_Field>
OPLS_2005

> <r_lp_Energy>
19.913

> <b_lp_Chiralities_Consistent>
1

> <s_lp_Variant>
AV-unprocessed.smi:1154-2

> <Gold.Version>
5.8.1

> <Gold.Id.Protein>
6NUR|6NUR_protein|mol2

> <Gold.PLP.Fitness>
44.4676

> <Gold.PLP.PLP>
-39.1307

> <Gold.PLP.part.hbond>
-2.9381

> <Gold.PLP.part.metal>
0.0000

> <Gold.PLP.part.buried>
-4.9951

> <Gold.PLP.part.nonpolar>
-31.3583

> <Gold.PLP.part.repulsive>
0.2432

> <Gold.PLP.ligand.clash>
0.0000

> <Gold.PLP.ligand.torsion>
0.3637

> <Gold.PLP.Chemscore.Hbond>
2.0000

> <Gold.PLP.Chemscore.CHOScore>
0.0000

> <Gold.PLP.Chemscore.Metal>
0.0000

> <Gold.Chemscore.Hbonds>
donor molecule, donor type, donor heavy atom, donor atom, acceptor molecule, acceptor atom, score
      P1  H  7989  7998       L1    12  1.00
      P1  H 10752 10764       L1    18  1.00

> <Gold.PLP.Chemscore.Internal.Correction>
0.0643

> <Gold.Rescore>
     Score         DG    S(hbond)    S(metal)    S(lipo)     H(rot)  DE(clash)    DE(int)     intcor
     14.15     -16.21       1.83        0.00      97.70       2.67       0.04       2.02       ----

> <Gold.Chemscore.Fitness>
14.1497

> <Gold.Chemscore.DG>
-16.2097

> <Gold.Chemscore.ZeroCoef>
-5.4800

> <Gold.Chemscore.Hbond>
1.8345

> <Gold.Chemscore.Metal>
0.0000

> <Gold.Chemscore.Lipo>
97.7005

> <Gold.Chemscore.Internal_Hbond>
0.0000

> <Gold.Chemscore.DEClash>
0.0383

> <Gold.Chemscore.DEInternal>
2.0217

> <Gold.Chemscore.Rot>
2.6674

> <Gold.Chemscore.Internal.Correction>
   9.000000E+99

> <Gold.Chemscore.Hbonds>
donor molecule, donor type, donor heavy atom, donor atom, acceptor molecule, acceptor atom, score
      P1  H  7989  7998       L1    12  1.00
      P1  H 10752 10764       L1    18  0.35

> <Gold.Chemscore.Hbond.Weighted>
-6.1273

> <Gold.Chemscore.Metal.Weighted>
-0.0000

> <Gold.Chemscore.Lipo.Weighted>
-11.4310

> <Gold.Chemscore.Internal_Hbond.Weighted>
0.0000

> <Gold.Chemscore.DEClash.Weighted>
0.0383

> <Gold.Chemscore.DEInternal.Weighted>
2.0217

> <Gold.Chemscore.Rot.Weighted>
6.8286

> <Gold.Chemscore.Internal.Correction.Weighted>
   9.000000E+99

> <Gold.Protein.RotatedTorsions>
[ 6907 6896 6895 6894 ] final   30.77 input  -60.11 | X-H torsion
[ 7974 7965 7964 7962 ] final   58.01 input  175.53 | X-H torsion
[ 8008 7997 7996 7995 ] final  166.64 input   59.86 | X-H torsion
[ 10167 10162 10161 10158 ] final  -14.64 input  -65.29 | X-H torsion
[ 10718 10713 10712 10709 ] final  118.18 input   66.30 | X-H torsion
[ 10763 10752 10751 10750 ] final  -31.10 input  -60.55 | X-H torsion
[ 11005 11000 10999 10996 ] final  -84.00 input  -57.11 | X-H torsion

> <Gold.Protein.ActiveResidues>
 VAL166  LYS551  ARG553  GLY616  TRP617  ASP618  TYR619  PRO620  LYS621  CYS622 
 ASP623  PHE694  ASN695  SER759  ASP760  ASP761  ALA762  ILE779  LEU786  VAL792 
 PHE793  MET794  SER795  GLU796  ALA797  LYS798  CYS799  TRP800  GLU811  SER814 

> <Gold.Protein.RotatedAtoms>
  152.0507  134.9655  160.0574 H   0  0  0  0  0  0  0  0  0  0  0  0  # atno 6907 bound_to 6896
  152.1057  133.4269  159.4616 H   0  0  0  0  0  0  0  0  0  0  0  0  # atno 6908 bound_to 6896
  150.6841  134.2626  159.4599 H   0  0  0  0  0  0  0  0  0  0  0  0  # atno 6909 bound_to 6896
  145.9228  139.3743  143.0468 H   0  0  0  0  0  0  0  0  0  0  0  0  # atno 7974 bound_to 7965
  156.1701  140.1638  156.8462 H   0  0  0  0  0  0  0  0  0  0  0  0  # atno 8008 bound_to 7997
  154.5248  140.0770  156.8273 H   0  0  0  0  0  0  0  0  0  0  0  0  # atno 8009 bound_to 7997
  155.3530  140.3391  155.4242 H   0  0  0  0  0  0  0  0  0  0  0  0  # atno 8010 bound_to 7997
  140.7205  143.5300  150.9531 H   0  0  0  0  0  0  0  0  0  0  0  0  # atno 10167 bound_to 10162
  157.6047  131.1045  150.7720 H   0  0  0  0  0  0  0  0  0  0  0  0  # atno 10718 bound_to 10713
  153.7919  135.6897  153.4870 H   0  0  0  0  0  0  0  0  0  0  0  0  # atno 10763 bound_to 10752
  153.1744  135.4530  154.9944 H   0  0  0  0  0  0  0  0  0  0  0  0  # atno 10764 bound_to 10752
  154.8041  135.3349  154.7414 H   0  0  0  0  0  0  0  0  0  0  0  0  # atno 10765 bound_to 10752
  141.1654  133.7323  156.8803 H   0  0  0  0  0  0  0  0  0  0  0  0  # atno 11005 bound_to 11000
  145.8528  140.9519  143.0741 LP  0  0  0  0  0  0  0  0  0  0  0  0  # atno 17320 bound_to 7965
  144.6755  140.0429  143.7480 LP  0  0  0  0  0  0  0  0  0  0  0  0  # atno 17321 bound_to 7965
  139.9020  143.6824  152.3130 LP  0  0  0  0  0  0  0  0  0  0  0  0  # atno 17342 bound_to 10162
  139.7177  144.7608  151.1007 LP  0  0  0  0  0  0  0  0  0  0  0  0  # atno 17343 bound_to 10162
  156.8111  130.4953  149.5356 LP  0  0  0  0  0  0  0  0  0  0  0  0  # atno 17370 bound_to 10713
  156.1130  130.6054  151.0077 LP  0  0  0  0  0  0  0  0  0  0  0  0  # atno 17371 bound_to 10713
  140.1720  134.9093  157.2844 LP  0  0  0  0  0  0  0  0  0  0  0  0  # atno 17394 bound_to 11000
  140.2492  134.3703  155.7449 LP  0  0  0  0  0  0  0  0  0  0  0  0  # atno 17395 bound_to 11000

$$$$
