AV-unprocessed.smi:3101|AV-procd|sdf|11810|dock8
  -GOLD-   2272017183D 1   1.00000     0.00000
 Structure written by MMmdl.
 28 29  0  0  0  0  0  0  0  0  1 V2000
  147.3793  140.8867  156.6817 C   0  0  0  0  0  0  0  0  0  0  0  0
  148.3113  140.5971  155.4910 C   0  0  2  0  0  0  0  0  0  0  0  0
  148.7133  139.1436  155.3448 C   0  0  0  0  0  0  0  0  0  0  0  0
  149.8806  139.2581  154.3715 C   0  0  0  0  0  0  0  0  0  0  0  0
  150.5298  140.4854  154.6942 O   0  0  0  0  0  0  0  0  0  0  0  0
  149.6693  141.3325  155.4582 C   0  0  2  0  0  0  0  0  0  0  0  0
  150.3365  141.5577  156.8257 C   0  0  0  0  0  0  0  0  0  0  0  0
  150.5963  140.5957  157.5495 O   0  0  0  0  0  0  0  0  0  0  0  0
  150.6136  142.8379  157.1341 N   0  0  0  0  0  0  0  0  0  0  0  0
  151.2111  143.3453  158.3177 C   0  0  0  0  0  0  0  0  0  0  0  0
  150.9279  144.6988  158.6170 C   0  0  0  0  0  0  0  0  0  0  0  0
  151.4216  145.3234  159.7091 N   0  0  0  0  0  0  0  0  0  0  0  0
  152.2122  144.5878  160.5193 C   0  0  0  0  0  0  0  0  0  0  0  0
  152.5049  143.2385  160.2377 C   0  0  0  0  0  0  0  0  0  0  0  0
  152.0076  142.6205  159.1445 N   0  0  0  0  0  0  0  0  0  0  0  0
  147.8034  140.5477  157.6272 H   0  0  0  0  0  0  0  0  0  0  0  0
  146.4237  140.3774  156.5551 H   0  0  0  0  0  0  0  0  0  0  0  0
  147.1754  141.9542  156.7676 H   0  0  0  0  0  0  0  0  0  0  0  0
  147.7728  140.8823  154.5855 H   0  0  0  0  0  0  0  0  0  0  0  0
  149.0508  138.7339  156.2976 H   0  0  0  0  0  0  0  0  0  0  0  0
  147.9086  138.5120  154.9675 H   0  0  0  0  0  0  0  0  0  0  0  0
  150.5670  138.4138  154.4382 H   0  0  0  0  0  0  0  0  0  0  0  0
  149.5142  139.3173  153.3459 H   0  0  0  0  0  0  0  0  0  0  0  0
  149.5614  142.2884  154.9429 H   0  0  0  0  0  0  0  0  0  0  0  0
  150.3623  143.5284  156.4418 H   0  0  0  0  0  0  0  0  0  0  0  0
  150.2956  145.2920  157.9721 H   0  0  0  0  0  0  0  0  0  0  0  0
  152.6122  145.0767  161.3953 H   0  0  0  0  0  0  0  0  0  0  0  0
  153.1378  142.6549  160.8897 H   0  0  0  0  0  0  0  0  0  0  0  0
  1  2  1  0  0  0  0
  1 16  1  0  0  0  0
  1 17  1  0  0  0  0
  1 18  1  0  0  0  0
  2  6  1  0  0  0  0
  2  3  1  0  0  0  0
  2 19  1  0  0  0  0
  3  4  1  0  0  0  0
  3 20  1  0  0  0  0
  3 21  1  0  0  0  0
  4  5  1  0  0  0  0
  4 22  1  0  0  0  0
  4 23  1  0  0  0  0
  5  6  1  0  0  0  0
  6  7  1  0  0  0  0
  6 24  1  0  0  0  0
  7  8  2  0  0  0  0
  7  9  1  0  0  0  0
  9 10  1  0  0  0  0
  9 25  1  0  0  0  0
 10 15  1  0  0  0  0
 10 11  2  0  0  0  0
 11 12  1  0  0  0  0
 11 26  1  0  0  0  0
 12 13  2  0  0  0  0
 13 14  1  0  0  0  0
 13 27  1  0  0  0  0
 14 15  2  0  0  0  0
 14 28  1  0  0  0  0
M  END
> <s_m_source_file>
AV-unprocessed.smi

> <i_m_source_file_index>
3101

> <i_lp_mmshare_version>
43012

> <i_f3d_flags>
0

> <s_epik_input>
W0NIM11bQ0BASF0xW0NIMl1bQ0gyXU9bQ0BIXTFDKD1PKVtOSF1jMltjSF1uW2NIXVtjSF1uMg==

> <s_epik_cmdline>
J2VwaWtfcHl0aG9uJywgJy1waCcsICc3LjAnLCAnLXRuJywgJzgnLCAnLW1hJywgJzIwMCcsICctbWV0YWxfYmluZGluZycsICctaW1hZScsICc8aW5maWxlLm1hZT4nLCAnLW9tYWUnLCAnPG91dGZpbGUubWFlPic=

> <r_lp_tautomer_probability>
1

> <r_epik_Ionization_Penalty>
2.83174e-06

> <r_epik_Ionization_Penalty_Charging>
0

> <r_epik_Ionization_Penalty_Neutral>
2.83174e-06

> <r_epik_State_Penalty>
-0

> <r_epik_Charging_Adjusted_Penalty>
0

> <i_epik_Tot_Q>
0

> <i_epik_Tot_abs_Q>
0

> <r_epik_Metal_State_Penalty>
-0

> <b_epik_Metal_Only>
0

> <s_lp_Force_Field>
OPLS_2005

> <r_lp_Energy>
27.4183

> <b_lp_Chiralities_Consistent>
1

> <s_lp_Variant>
AV-unprocessed.smi:3101-3

> <Gold.Version>
5.8.1

> <Gold.Id.Protein>
6NUR|6NUR_protein|mol2

> <Gold.PLP.Fitness>
34.5123

> <Gold.PLP.PLP>
-26.0336

> <Gold.PLP.part.hbond>
-2.0000

> <Gold.PLP.part.metal>
0.0000

> <Gold.PLP.part.buried>
-6.2409

> <Gold.PLP.part.nonpolar>
-18.9294

> <Gold.PLP.part.repulsive>
0.2656

> <Gold.PLP.ligand.clash>
0.0000

> <Gold.PLP.ligand.torsion>
0.1264

> <Gold.PLP.Chemscore.Hbond>
2.0000

> <Gold.PLP.Chemscore.CHOScore>
0.9069

> <Gold.PLP.Chemscore.Metal>
0.0000

> <Gold.Chemscore.Hbonds>
donor molecule, donor type, donor heavy atom, donor atom, acceptor molecule, acceptor atom, score
      L1  H     9    25       P1  8028  0.92
      P1  H  7989  7998       L1     5  1.00
      L1  C    11    26       P1  8028  0.18
      L1  C    11    26       P1  8029  0.64

> <Gold.PLP.Chemscore.Internal.Correction>
0.0109

> <Gold.Rescore>
     Score         DG    S(hbond)    S(metal)    S(lipo)     H(rot)  DE(clash)    DE(int)     intcor
     14.67     -15.96       1.90        0.00      57.20       1.00       0.00       1.29       ----

> <Gold.Chemscore.Fitness>
14.6675

> <Gold.Chemscore.DG>
-15.9623

> <Gold.Chemscore.ZeroCoef>
-5.4800

> <Gold.Chemscore.Hbond>
1.9012

> <Gold.Chemscore.Metal>
0.0000

> <Gold.Chemscore.Lipo>
57.1995

> <Gold.Chemscore.Internal_Hbond>
0.0000

> <Gold.Chemscore.DEClash>
0.0021

> <Gold.Chemscore.DEInternal>
1.2927

> <Gold.Chemscore.Rot>
1.0000

> <Gold.Chemscore.Internal.Correction>
   9.000000E+99

> <Gold.Chemscore.Hbonds>
donor molecule, donor type, donor heavy atom, donor atom, acceptor molecule, acceptor atom, score
      L1  H     9    25       P1  8028  0.83
      P1  H  7989  7998       L1     5  0.71

> <Gold.Chemscore.Hbond.Weighted>
-6.3500

> <Gold.Chemscore.Metal.Weighted>
-0.0000

> <Gold.Chemscore.Lipo.Weighted>
-6.6923

> <Gold.Chemscore.Internal_Hbond.Weighted>
0.0000

> <Gold.Chemscore.DEClash.Weighted>
0.0021

> <Gold.Chemscore.DEInternal.Weighted>
1.2927

> <Gold.Chemscore.Rot.Weighted>
2.5600

> <Gold.Chemscore.Internal.Correction.Weighted>
   9.000000E+99

> <Gold.Protein.RotatedTorsions>
[ 6907 6896 6895 6894 ] final -112.30 input  -60.11 | X-H torsion
[ 7974 7965 7964 7962 ] final  112.00 input  175.53 | X-H torsion
[ 8008 7997 7996 7995 ] final  146.84 input   59.86 | X-H torsion
[ 10167 10162 10161 10158 ] final -140.04 input  -65.29 | X-H torsion
[ 10718 10713 10712 10709 ] final  -70.95 input   66.30 | X-H torsion
[ 10763 10752 10751 10750 ] final  -23.54 input  -60.55 | X-H torsion
[ 11005 11000 10999 10996 ] final  108.74 input  -57.11 | X-H torsion

> <Gold.Protein.ActiveResidues>
 VAL166  LYS551  ARG553  GLY616  TRP617  ASP618  TYR619  PRO620  LYS621  CYS622 
 ASP623  PHE694  ASN695  SER759  ASP760  ASP761  ALA762  ILE779  LEU786  VAL792 
 PHE793  MET794  SER795  GLU796  ALA797  LYS798  CYS799  TRP800  GLU811  SER814 

> <Gold.Protein.RotatedAtoms>
  150.7749  133.9109  159.3368 H   0  0  0  0  0  0  0  0  0  0  0  0  # atno 6907 bound_to 6896
  151.6986  135.0932  160.0256 H   0  0  0  0  0  0  0  0  0  0  0  0  # atno 6908 bound_to 6896
  152.3781  133.6471  159.6175 H   0  0  0  0  0  0  0  0  0  0  0  0  # atno 6909 bound_to 6896
  145.2350  139.2803  143.4148 H   0  0  0  0  0  0  0  0  0  0  0  0  # atno 7974 bound_to 7965
  156.2843  140.2171  156.5442 H   0  0  0  0  0  0  0  0  0  0  0  0  # atno 8008 bound_to 7997
  154.7345  140.0493  157.0778 H   0  0  0  0  0  0  0  0  0  0  0  0  # atno 8009 bound_to 7997
  155.0311  140.3135  155.4761 H   0  0  0  0  0  0  0  0  0  0  0  0  # atno 8010 bound_to 7997
  139.8320  143.7434  152.2665 H   0  0  0  0  0  0  0  0  0  0  0  0  # atno 10167 bound_to 10162
  156.0384  130.4341  150.2371 H   0  0  0  0  0  0  0  0  0  0  0  0  # atno 10718 bound_to 10713
  153.6695  135.6972  153.5151 H   0  0  0  0  0  0  0  0  0  0  0  0  # atno 10763 bound_to 10752
  153.2569  135.4257  155.0853 H   0  0  0  0  0  0  0  0  0  0  0  0  # atno 10764 bound_to 10752
  154.8430  135.3545  154.6239 H   0  0  0  0  0  0  0  0  0  0  0  0  # atno 10765 bound_to 10752
  139.8849  134.9439  156.6019 H   0  0  0  0  0  0  0  0  0  0  0  0  # atno 11005 bound_to 11000
  146.3343  140.2697  142.8605 LP  0  0  0  0  0  0  0  0  0  0  0  0  # atno 17320 bound_to 7965
  144.9641  140.8304  143.5495 LP  0  0  0  0  0  0  0  0  0  0  0  0  # atno 17321 bound_to 7965
  139.7645  144.7496  151.0315 LP  0  0  0  0  0  0  0  0  0  0  0  0  # atno 17342 bound_to 10162
  140.7806  143.4714  151.0141 LP  0  0  0  0  0  0  0  0  0  0  0  0  # atno 17343 bound_to 10162
  157.0468  131.0051  151.3266 LP  0  0  0  0  0  0  0  0  0  0  0  0  # atno 17370 bound_to 10713
  157.5169  130.7973  149.7766 LP  0  0  0  0  0  0  0  0  0  0  0  0  # atno 17371 bound_to 10713
  140.7877  133.8608  155.8620 LP  0  0  0  0  0  0  0  0  0  0  0  0  # atno 17394 bound_to 11000
  140.9705  134.1538  157.4580 LP  0  0  0  0  0  0  0  0  0  0  0  0  # atno 17395 bound_to 11000

$$$$
