AV-unprocessed.smi:2718|AV-procd|sdf|10486|dock3
  -GOLD-   2272014533D 1   1.00000     0.00000
 Structure written by MMmdl.
 47 48  0  0  0  0  0  0  0  0  1 V2000
  145.8550  132.0979  149.9815 C   0  0  0  0  0  0  0  0  0  0  0  0
  145.9871  132.4994  151.4370 C   0  0  0  0  0  0  0  0  0  0  0  0
  144.6679  132.6950  152.1637 C   0  0  0  0  0  0  0  0  0  0  0  0
  147.1898  132.6619  152.0207 C   0  0  0  0  0  0  0  0  0  0  0  0
  147.4403  133.0466  153.4346 C   0  0  2  0  0  0  0  0  0  0  0  0
  148.7721  133.6399  153.8592 C   0  0  1  0  0  0  0  0  0  0  0  0
  148.7828  134.7410  154.8727 C   0  0  0  0  0  0  0  0  0  0  0  0
  148.5616  134.5649  156.0714 O   0  0  0  0  0  0  0  0  0  0  0  0
  149.0542  135.9453  154.3491 N   0  0  0  0  0  0  0  0  0  0  0  0
  149.1169  137.2051  155.0866 C   0  0  0  0  0  0  0  0  0  0  0  0
  149.8382  138.3419  154.3247 C   0  0  2  0  0  0  0  0  0  0  0  0
  151.3149  138.4485  154.7315 C   0  0  0  0  0  0  0  0  0  0  0  0
  149.1359  139.6686  154.4396 C   0  0  0  0  0  0  0  0  0  0  0  0
  149.7283  140.7841  154.8865 N   0  0  0  0  0  0  0  0  0  0  0  0
  148.7623  141.7681  154.8331 N   0  0  0  0  0  0  0  0  0  0  0  0
  147.6864  141.1545  154.3434 C   0  0  0  0  0  0  0  0  0  0  0  0
  147.8509  139.8521  154.0686 N   0  0  0  0  0  0  0  0  0  0  0  0
  146.8876  138.9211  153.5144 C   0  0  0  0  0  0  0  0  0  0  0  0
  148.3841  132.2352  154.3059 C   0  0  0  0  0  0  0  0  0  0  0  0
  147.9555  131.9013  155.7287 C   0  0  0  0  0  0  0  0  0  0  0  0
  149.1834  131.0726  153.7368 C   0  0  0  0  0  0  0  0  0  0  0  0
  145.3016  132.8574  149.4284 H   0  0  0  0  0  0  0  0  0  0  0  0
  145.3174  131.1531  149.8986 H   0  0  0  0  0  0  0  0  0  0  0  0
  146.8297  131.9763  149.5078 H   0  0  0  0  0  0  0  0  0  0  0  0
  144.0967  131.7664  152.1602 H   0  0  0  0  0  0  0  0  0  0  0  0
  144.0751  133.4617  151.6644 H   0  0  0  0  0  0  0  0  0  0  0  0
  144.8026  133.0012  153.2006 H   0  0  0  0  0  0  0  0  0  0  0  0
  148.0770  132.5051  151.4246 H   0  0  0  0  0  0  0  0  0  0  0  0
  146.5418  133.4422  153.9056 H   0  0  0  0  0  0  0  0  0  0  0  0
  149.5537  133.6979  153.1027 H   0  0  0  0  0  0  0  0  0  0  0  0
  149.2294  135.9961  153.3558 H   0  0  0  0  0  0  0  0  0  0  0  0
  148.0859  137.5011  155.2832 H   0  0  0  0  0  0  0  0  0  0  0  0
  149.5798  137.0431  156.0612 H   0  0  0  0  0  0  0  0  0  0  0  0
  149.8370  138.0538  153.2741 H   0  0  0  0  0  0  0  0  0  0  0  0
  151.8350  139.1906  154.1248 H   0  0  0  0  0  0  0  0  0  0  0  0
  151.8282  137.4956  154.6002 H   0  0  0  0  0  0  0  0  0  0  0  0
  151.4192  138.7408  155.7769 H   0  0  0  0  0  0  0  0  0  0  0  0
  146.7538  141.6726  154.1745 H   0  0  0  0  0  0  0  0  0  0  0  0
  145.9182  139.4078  153.4000 H   0  0  0  0  0  0  0  0  0  0  0  0
  146.7750  138.0635  154.1770 H   0  0  0  0  0  0  0  0  0  0  0  0
  147.2304  138.5773  152.5383 H   0  0  0  0  0  0  0  0  0  0  0  0
  148.8229  131.8780  156.3882 H   0  0  0  0  0  0  0  0  0  0  0  0
  147.4728  130.9242  155.7585 H   0  0  0  0  0  0  0  0  0  0  0  0
  147.2421  132.6288  156.1137 H   0  0  0  0  0  0  0  0  0  0  0  0
  150.0471  130.8622  154.3680 H   0  0  0  0  0  0  0  0  0  0  0  0
  149.5457  131.2978  152.7336 H   0  0  0  0  0  0  0  0  0  0  0  0
  148.5645  130.1766  153.6819 H   0  0  0  0  0  0  0  0  0  0  0  0
  1  2  1  0  0  0  0
  1 22  1  0  0  0  0
  1 23  1  0  0  0  0
  1 24  1  0  0  0  0
  2  3  1  0  0  0  0
  2  4  2  0  0  0  0
  3 25  1  0  0  0  0
  3 26  1  0  0  0  0
  3 27  1  0  0  0  0
  4  5  1  0  0  0  0
  4 28  1  0  0  0  0
  5 19  1  0  0  0  0
  5  6  1  0  0  0  0
  5 29  1  0  0  0  0
  6  7  1  0  0  0  0
  6 19  1  0  0  0  0
  6 30  1  0  0  0  0
  7  8  2  0  0  0  0
  7  9  1  0  0  0  0
  9 10  1  0  0  0  0
  9 31  1  0  0  0  0
 10 11  1  0  0  0  0
 10 32  1  0  0  0  0
 10 33  1  0  0  0  0
 11 12  1  0  0  0  0
 11 13  1  0  0  0  0
 11 34  1  0  0  0  0
 12 35  1  0  0  0  0
 12 36  1  0  0  0  0
 12 37  1  0  0  0  0
 13 17  1  0  0  0  0
 13 14  2  0  0  0  0
 14 15  1  0  0  0  0
 15 16  2  0  0  0  0
 16 17  1  0  0  0  0
 16 38  1  0  0  0  0
 17 18  1  0  0  0  0
 18 39  1  0  0  0  0
 18 40  1  0  0  0  0
 18 41  1  0  0  0  0
 19 20  1  0  0  0  0
 19 21  1  0  0  0  0
 20 42  1  0  0  0  0
 20 43  1  0  0  0  0
 20 44  1  0  0  0  0
 21 45  1  0  0  0  0
 21 46  1  0  0  0  0
 21 47  1  0  0  0  0
M  END
> <s_m_source_file>
AV-unprocessed.smi

> <i_m_source_file_index>
2718

> <i_lp_mmshare_version>
43012

> <i_f3d_flags>
0

> <s_epik_input>
W0NIM11DKFtDSDNdKT1bQ0hdW0NAQEhdKEMxKFtDSDNdKVtDSDNdKVtDQEhdMUMoPU8pW05IXVtDSDJdW0NASF0oW0NIM10pYzJubltjSF1uMltDSDNd

> <s_epik_cmdline>
J2VwaWtfcHl0aG9uJywgJy1waCcsICc3LjAnLCAnLXRuJywgJzgnLCAnLW1hJywgJzIwMCcsICctbWV0YWxfYmluZGluZycsICctaW1hZScsICc8aW5maWxlLm1hZT4nLCAnLW9tYWUnLCAnPG91dGZpbGUubWFlPic=

> <r_lp_tautomer_probability>
1

> <r_epik_Ionization_Penalty>
0.000449586

> <r_epik_Ionization_Penalty_Charging>
0

> <r_epik_Ionization_Penalty_Neutral>
0.000449586

> <r_epik_State_Penalty>
0.000243372

> <r_epik_Charging_Adjusted_Penalty>
0.000243372

> <i_epik_Tot_Q>
0

> <i_epik_Tot_abs_Q>
0

> <r_epik_Metal_State_Penalty>
-0

> <b_epik_Metal_Only>
0

> <s_lp_Force_Field>
OPLS_2005

> <r_lp_Energy>
15.15

> <b_lp_Chiralities_Consistent>
1

> <s_lp_Variant>
AV-unprocessed.smi:2718-1

> <Gold.Version>
5.8.1

> <Gold.Id.Protein>
6NUR|6NUR_protein|mol2

> <Gold.PLP.Fitness>
40.5471

> <Gold.PLP.PLP>
-36.7089

> <Gold.PLP.part.hbond>
-2.9424

> <Gold.PLP.part.metal>
0.0000

> <Gold.PLP.part.buried>
-1.6047

> <Gold.PLP.part.nonpolar>
-33.2522

> <Gold.PLP.part.repulsive>
0.2992

> <Gold.PLP.ligand.clash>
0.0000

> <Gold.PLP.ligand.torsion>
1.0424

> <Gold.PLP.Chemscore.Hbond>
1.8880

> <Gold.PLP.Chemscore.CHOScore>
0.0000

> <Gold.PLP.Chemscore.Metal>
0.0000

> <Gold.Chemscore.Hbonds>
donor molecule, donor type, donor heavy atom, donor atom, acceptor molecule, acceptor atom, score
      L1  H     9    31       P1  7948  0.94
      P1  H  7989  7998       L1    14  0.16

> <Gold.PLP.Chemscore.Internal.Correction>
0.2591

> <Gold.Rescore>
     Score         DG    S(hbond)    S(metal)    S(lipo)     H(rot)  DE(clash)    DE(int)     intcor
      9.88     -12.27       1.10        0.00      69.45       1.95       0.00       2.39       ----

> <Gold.Chemscore.Fitness>
9.8790

> <Gold.Chemscore.DG>
-12.2670

> <Gold.Chemscore.ZeroCoef>
-5.4800

> <Gold.Chemscore.Hbond>
1.0962

> <Gold.Chemscore.Metal>
0.0000

> <Gold.Chemscore.Lipo>
69.4536

> <Gold.Chemscore.Internal_Hbond>
0.0000

> <Gold.Chemscore.DEClash>
0.0000

> <Gold.Chemscore.DEInternal>
2.3880

> <Gold.Chemscore.Rot>
1.9533

> <Gold.Chemscore.Internal.Correction>
   9.000000E+99

> <Gold.Chemscore.Hbonds>
donor molecule, donor type, donor heavy atom, donor atom, acceptor molecule, acceptor atom, score
      L1  H     9    31       P1  7948  0.67
      P1  H  7989  7998       L1    14  0.05

> <Gold.Chemscore.Hbond.Weighted>
-3.6615

> <Gold.Chemscore.Metal.Weighted>
-0.0000

> <Gold.Chemscore.Lipo.Weighted>
-8.1261

> <Gold.Chemscore.Internal_Hbond.Weighted>
0.0000

> <Gold.Chemscore.DEClash.Weighted>
0.0000

> <Gold.Chemscore.DEInternal.Weighted>
2.3880

> <Gold.Chemscore.Rot.Weighted>
5.0005

> <Gold.Chemscore.Internal.Correction.Weighted>
   9.000000E+99

> <Gold.Protein.RotatedTorsions>
[ 6907 6896 6895 6894 ] final  -55.03 input  -60.11 | X-H torsion
[ 7974 7965 7964 7962 ] final  149.97 input  175.53 | X-H torsion
[ 8008 7997 7996 7995 ] final  -10.64 input   59.86 | X-H torsion
[ 10167 10162 10161 10158 ] final -132.32 input  -65.29 | X-H torsion
[ 10718 10713 10712 10709 ] final   51.55 input   66.30 | X-H torsion
[ 10763 10752 10751 10750 ] final   22.35 input  -60.55 | X-H torsion
[ 11005 11000 10999 10996 ] final -156.01 input  -57.11 | X-H torsion

> <Gold.Protein.ActiveResidues>
 VAL166  LYS551  ARG553  GLY616  TRP617  ASP618  TYR619  PRO620  LYS621  CYS622 
 ASP623  PHE694  ASN695  SER759  ASP760  ASP761  ALA762  ILE779  LEU786  VAL792 
 PHE793  MET794  SER795  GLU796  ALA797  LYS798  CYS799  TRP800  GLU811  SER814 

> <Gold.Protein.RotatedAtoms>
  150.8287  134.7530  159.6834 H   0  0  0  0  0  0  0  0  0  0  0  0  # atno 6907 bound_to 6896
  152.4394  134.5618  159.9906 H   0  0  0  0  0  0  0  0  0  0  0  0  # atno 6908 bound_to 6896
  151.5784  133.3343  159.3039 H   0  0  0  0  0  0  0  0  0  0  0  0  # atno 6909 bound_to 6896
  144.8398  139.6349  143.6021 H   0  0  0  0  0  0  0  0  0  0  0  0  # atno 7974 bound_to 7965
  154.5536  140.2323  155.8445 H   0  0  0  0  0  0  0  0  0  0  0  0  # atno 8008 bound_to 7997
  156.1969  140.3063  155.9406 H   0  0  0  0  0  0  0  0  0  0  0  0  # atno 8009 bound_to 7997
  155.3022  140.0431  157.3020 H   0  0  0  0  0  0  0  0  0  0  0  0  # atno 8010 bound_to 7997
  139.9097  143.6508  152.2578 H   0  0  0  0  0  0  0  0  0  0  0  0  # atno 10167 bound_to 10162
  157.4991  130.8426  149.8294 H   0  0  0  0  0  0  0  0  0  0  0  0  # atno 10718 bound_to 10713
  153.0923  135.6650  153.9831 H   0  0  0  0  0  0  0  0  0  0  0  0  # atno 10763 bound_to 10752
  153.9424  135.2992  155.3443 H   0  0  0  0  0  0  0  0  0  0  0  0  # atno 10764 bound_to 10752
  154.7338  135.5111  153.9081 H   0  0  0  0  0  0  0  0  0  0  0  0  # atno 10765 bound_to 10752
  140.6802  134.4153  157.5227 H   0  0  0  0  0  0  0  0  0  0  0  0  # atno 11005 bound_to 11000
  146.2692  139.6594  142.9308 LP  0  0  0  0  0  0  0  0  0  0  0  0  # atno 17320 bound_to 7965
  145.4718  141.0436  143.2694 LP  0  0  0  0  0  0  0  0  0  0  0  0  # atno 17321 bound_to 7965
  139.6953  144.7642  151.1367 LP  0  0  0  0  0  0  0  0  0  0  0  0  # atno 17342 bound_to 10162
  140.7688  143.5532  150.9181 LP  0  0  0  0  0  0  0  0  0  0  0  0  # atno 17343 bound_to 10162
  156.0218  130.3793  150.1939 LP  0  0  0  0  0  0  0  0  0  0  0  0  # atno 17370 bound_to 10713
  157.0129  130.9956  151.3361 LP  0  0  0  0  0  0  0  0  0  0  0  0  # atno 17371 bound_to 10713
  139.8954  134.8683  156.2133 LP  0  0  0  0  0  0  0  0  0  0  0  0  # atno 17394 bound_to 11000
  141.0324  133.6982  156.1452 LP  0  0  0  0  0  0  0  0  0  0  0  0  # atno 17395 bound_to 11000

$$$$
