AV-unprocessed.smi:44|AV-procd|sdf|397|dock8
  -GOLD-   2262016253D 1   1.00000     0.00000
 Structure written by MMmdl.
 29 31  0  0  0  0  0  0  0  0  1 V2000
  151.8982  137.4313  154.2755 O   0  0  0  0  0  0  0  0  0  0  0  0
  151.9706  137.8357  155.4340 C   0  0  0  0  0  0  0  0  0  0  0  0
  152.4004  137.0753  156.4703 N   0  0  0  0  0  0  0  0  0  0  0  0
  152.4823  137.5343  157.8087 C   0  0  0  0  0  0  0  0  0  0  0  0
  152.1612  138.7369  158.2102 N   0  0  0  0  0  0  0  0  0  0  0  0
  151.7243  139.5363  157.1728 C   0  0  0  0  0  0  0  0  0  0  0  0
  151.5993  139.2089  155.8490 C   0  0  0  0  0  0  0  0  0  0  0  0
  151.1283  140.2819  155.1031 N   0  0  0  0  0  0  0  0  0  0  0  0
  150.9903  141.2295  156.0281 C   0  0  0  0  0  0  0  0  0  0  0  0
  151.3211  140.8660  157.2823 N   0  0  0  0  0  0  0  0  0  0  0  0
  151.2702  141.7347  158.4971 C   0  0  1  0  0  0  0  0  0  0  0  0
  152.6396  141.8146  159.1788 C   0  0  0  0  0  0  0  0  0  0  0  0
  152.5981  143.2173  159.7422 C   0  0  0  0  0  0  0  0  0  0  0  0
  151.8737  143.9533  158.6127 C   0  0  2  0  0  0  0  0  0  0  0  0
  151.2239  145.3033  158.9610 C   0  0  0  0  0  0  0  0  0  0  0  0
  149.8788  145.1539  159.3654 O   0  0  0  0  0  0  0  0  0  0  0  0
  150.9127  143.0291  158.1096 O   0  0  0  0  0  0  0  0  0  0  0  0
  152.6776  136.1258  156.2686 H   0  0  0  0  0  0  0  0  0  0  0  0
  150.4938  141.3087  159.1345 H   0  0  0  0  0  0  0  0  0  0  0  0
  152.5866  144.1228  157.8045 H   0  0  0  0  0  0  0  0  0  0  0  0
  152.8483  136.7718  158.4977 H   0  0  0  0  0  0  0  0  0  0  0  0
  150.6379  142.2212  155.7853 H   0  0  0  0  0  0  0  0  0  0  0  0
  152.7520  141.0364  159.9340 H   0  0  0  0  0  0  0  0  0  0  0  0
  153.4394  141.7207  158.4428 H   0  0  0  0  0  0  0  0  0  0  0  0
  152.0191  143.2242  160.6662 H   0  0  0  0  0  0  0  0  0  0  0  0
  153.5875  143.6245  159.9515 H   0  0  0  0  0  0  0  0  0  0  0  0
  151.7681  145.7720  159.7811 H   0  0  0  0  0  0  0  0  0  0  0  0
  151.2777  145.9845  158.1114 H   0  0  0  0  0  0  0  0  0  0  0  0
  149.3200  145.4359  158.6576 H   0  0  0  0  0  0  0  0  0  0  0  0
  1  2  2  0  0  0  0
  2  7  1  0  0  0  0
  2  3  1  0  0  0  0
  3 18  1  0  0  0  0
  3  4  1  0  0  0  0
  4  5  2  0  0  0  0
  4 21  1  0  0  0  0
  5  6  1  0  0  0  0
  6 10  1  0  0  0  0
  6  7  2  0  0  0  0
  7  8  1  0  0  0  0
  8  9  2  0  0  0  0
  9 10  1  0  0  0  0
  9 22  1  0  0  0  0
 10 11  1  0  0  0  0
 11 19  1  0  0  0  0
 11 17  1  0  0  0  0
 11 12  1  0  0  0  0
 12 13  1  0  0  0  0
 12 23  1  0  0  0  0
 12 24  1  0  0  0  0
 13 14  1  0  0  0  0
 13 25  1  0  0  0  0
 13 26  1  0  0  0  0
 14 20  1  0  0  0  0
 14 15  1  0  0  0  0
 14 17  1  0  0  0  0
 15 16  1  0  0  0  0
 15 27  1  0  0  0  0
 15 28  1  0  0  0  0
 16 29  1  0  0  0  0
M  END
> <s_m_source_file>
AV-unprocessed.smi

> <i_m_source_file_index>
44

> <i_lp_mmshare_version>
43012

> <i_f3d_flags>
0

> <s_epik_input>
bjFbY0hdW25IXWMoPU8pYyhjMTIpbltjSF1uMltDQEhdM1tDSDJdW0NIMl1bQ0BIXShPMylbQ0gyXVtPSF0=

> <s_epik_cmdline>
J2VwaWtfcHl0aG9uJywgJy1waCcsICc3LjAnLCAnLXRuJywgJzgnLCAnLW1hJywgJzIwMCcsICctbWV0YWxfYmluZGluZycsICctaW1hZScsICc8aW5maWxlLm1hZT4nLCAnLW9tYWUnLCAnPG91dGZpbGUubWFlPic=

> <r_lp_tautomer_probability>
0.85571

> <r_epik_Ionization_Penalty>
0.00801444

> <r_epik_Ionization_Penalty_Charging>
0.00794574

> <r_epik_Ionization_Penalty_Neutral>
6.87072e-05

> <r_epik_State_Penalty>
0.0826172

> <r_epik_Charging_Adjusted_Penalty>
0.090563

> <i_epik_Tot_Q>
0

> <i_epik_Tot_abs_Q>
0

> <r_epik_Metal_State_Penalty>
0.440697

> <b_epik_Metal_Only>
0

> <s_epik_Chemistry_Notes>
This compound contains an acetal/aminal-like group ( X-CH(R)-Y where X, Y are N, S, or O) that may be acid/base labile, releasing an aldehyde.

> <s_lp_Force_Field>
OPLS_2005

> <r_lp_Energy>
42.4933

> <b_lp_Chiralities_Consistent>
1

> <s_lp_Variant>
AV-unprocessed.smi:44-3

> <Gold.Version>
5.8.1

> <Gold.Id.Protein>
6NUR|6NUR_protein|mol2

> <Gold.PLP.Fitness>
40.2686

> <Gold.PLP.PLP>
-32.2681

> <Gold.PLP.part.hbond>
-3.0648

> <Gold.PLP.part.metal>
0.0000

> <Gold.PLP.part.buried>
-5.9289

> <Gold.PLP.part.nonpolar>
-24.6340

> <Gold.PLP.part.repulsive>
0.4625

> <Gold.PLP.ligand.clash>
0.0000

> <Gold.PLP.ligand.torsion>
0.4177

> <Gold.PLP.Chemscore.Hbond>
2.9440

> <Gold.PLP.Chemscore.CHOScore>
0.0000

> <Gold.PLP.Chemscore.Metal>
0.0000

> <Gold.Chemscore.Hbonds>
donor molecule, donor type, donor heavy atom, donor atom, acceptor molecule, acceptor atom, score
      L1  H    16    29       P1  8029  0.98
      P1  H  7989  7998       L1     8  1.00
      P1  H 10752 10764       L1     1  0.92

> <Gold.PLP.Chemscore.Internal.Correction>
0.0040

> <Gold.Rescore>
     Score         DG    S(hbond)    S(metal)    S(lipo)     H(rot)  DE(clash)    DE(int)     intcor
     14.28     -14.50       2.59        0.00      52.81       2.27       0.07       0.15       ----

> <Gold.Chemscore.Fitness>
14.2788

> <Gold.Chemscore.DG>
-14.5007

> <Gold.Chemscore.ZeroCoef>
-5.4800

> <Gold.Chemscore.Hbond>
2.5922

> <Gold.Chemscore.Metal>
0.0000

> <Gold.Chemscore.Lipo>
52.8148

> <Gold.Chemscore.Internal_Hbond>
0.0000

> <Gold.Chemscore.DEClash>
0.0727

> <Gold.Chemscore.DEInternal>
0.1492

> <Gold.Chemscore.Rot>
2.2720

> <Gold.Chemscore.Internal.Correction>
   9.000000E+99

> <Gold.Chemscore.Hbonds>
donor molecule, donor type, donor heavy atom, donor atom, acceptor molecule, acceptor atom, score
      L1  H    16    29       P1  8029  0.88
      P1  H  7989  7998       L1     8  0.86
      P1  H 10752 10764       L1     1  0.51

> <Gold.Chemscore.Hbond.Weighted>
-8.6578

> <Gold.Chemscore.Metal.Weighted>
-0.0000

> <Gold.Chemscore.Lipo.Weighted>
-6.1793

> <Gold.Chemscore.Internal_Hbond.Weighted>
0.0000

> <Gold.Chemscore.DEClash.Weighted>
0.0727

> <Gold.Chemscore.DEInternal.Weighted>
0.1492

> <Gold.Chemscore.Rot.Weighted>
5.8164

> <Gold.Chemscore.Internal.Correction.Weighted>
   9.000000E+99

> <Gold.Protein.RotatedTorsions>
[ 6907 6896 6895 6894 ] final -160.60 input  -60.11 | X-H torsion
[ 7974 7965 7964 7962 ] final  -15.71 input  175.53 | X-H torsion
[ 8008 7997 7996 7995 ] final  -91.38 input   59.86 | X-H torsion
[ 10167 10162 10161 10158 ] final -117.71 input  -65.29 | X-H torsion
[ 10718 10713 10712 10709 ] final   18.11 input   66.30 | X-H torsion
[ 10763 10752 10751 10750 ] final  -83.20 input  -60.55 | X-H torsion
[ 11005 11000 10999 10996 ] final  -13.49 input  -57.11 | X-H torsion

> <Gold.Protein.ActiveResidues>
 VAL166  LYS551  ARG553  GLY616  TRP617  ASP618  TYR619  PRO620  LYS621  CYS622 
 ASP623  PHE694  ASN695  SER759  ASP760  ASP761  ALA762  ILE779  LEU786  VAL792 
 PHE793  MET794  SER795  GLU796  ALA797  LYS798  CYS799  TRP800  GLU811  SER814 

> <Gold.Protein.RotatedAtoms>
  151.3516  133.3923  159.2680 H   0  0  0  0  0  0  0  0  0  0  0  0  # atno 6907 bound_to 6896
  150.9796  134.9155  159.7847 H   0  0  0  0  0  0  0  0  0  0  0  0  # atno 6908 bound_to 6896
  152.5213  134.3480  159.9293 H   0  0  0  0  0  0  0  0  0  0  0  0  # atno 6909 bound_to 6896
  146.2020  140.3533  142.8420 H   0  0  0  0  0  0  0  0  0  0  0  0  # atno 7974 bound_to 7965
  154.7101  140.0520  157.0541 H   0  0  0  0  0  0  0  0  0  0  0  0  # atno 8008 bound_to 7997
  155.0567  140.3185  155.4655 H   0  0  0  0  0  0  0  0  0  0  0  0  # atno 8009 bound_to 7997
  156.2786  140.2106  156.5693 H   0  0  0  0  0  0  0  0  0  0  0  0  # atno 8010 bound_to 7997
  140.0654  143.4928  152.2009 H   0  0  0  0  0  0  0  0  0  0  0  0  # atno 10167 bound_to 10162
  157.0917  130.6430  149.5850 H   0  0  0  0  0  0  0  0  0  0  0  0  # atno 10718 bound_to 10713
  154.5848  135.5564  153.7221 H   0  0  0  0  0  0  0  0  0  0  0  0  # atno 10763 bound_to 10752
  153.0095  135.6329  154.1931 H   0  0  0  0  0  0  0  0  0  0  0  0  # atno 10764 bound_to 10752
  154.1872  135.2884  155.3013 H   0  0  0  0  0  0  0  0  0  0  0  0  # atno 10765 bound_to 10752
  140.7766  133.8396  155.9254 H   0  0  0  0  0  0  0  0  0  0  0  0  # atno 11005 bound_to 11000
  144.8704  140.7265  143.6050 LP  0  0  0  0  0  0  0  0  0  0  0  0  # atno 17320 bound_to 7965
  145.3452  139.1721  143.4464 LP  0  0  0  0  0  0  0  0  0  0  0  0  # atno 17321 bound_to 7965
  139.5868  144.7534  151.3499 LP  0  0  0  0  0  0  0  0  0  0  0  0  # atno 17342 bound_to 10162
  140.7152  143.7286  150.7641 LP  0  0  0  0  0  0  0  0  0  0  0  0  # atno 17343 bound_to 10162
  155.9896  130.4944  150.7222 LP  0  0  0  0  0  0  0  0  0  0  0  0  # atno 17370 bound_to 10713
  157.4716  131.0893  151.0636 LP  0  0  0  0  0  0  0  0  0  0  0  0  # atno 17371 bound_to 10713
  140.9523  134.1763  157.4718 LP  0  0  0  0  0  0  0  0  0  0  0  0  # atno 17394 bound_to 11000
  139.8748  134.9913  156.5545 LP  0  0  0  0  0  0  0  0  0  0  0  0  # atno 17395 bound_to 11000

$$$$
