AV-unprocessed.smi:1793|AV-procd|sdf|7226|dock6
  -GOLD-   22720 8473D 1   1.00000     0.00000
 Structure written by MMmdl.
 46 48  0  0  0  0  0  0  0  0  1 V2000
  152.0500  137.9616  154.8644 C   0  0  0  0  0  0  0  0  0  0  0  0
  150.5193  138.0012  154.9792 C   0  0  2  0  0  0  0  0  0  0  0  0
  149.9688  136.8182  154.3197 N   0  0  0  0  0  0  0  0  0  0  0  0
  150.0083  135.5643  154.7935 C   0  0  0  0  0  0  0  0  0  0  0  0
  150.5275  135.2538  155.8653 O   0  0  0  0  0  0  0  0  0  0  0  0
  149.3899  134.7136  153.9582 N   0  0  0  0  0  0  0  0  0  0  0  0
  149.1191  133.3311  154.1601 C   0  0  0  0  0  0  0  0  0  0  0  0
  149.9113  132.5431  155.0305 C   0  0  0  0  0  0  0  0  0  0  0  0
  149.6476  131.1677  155.1487 C   0  0  0  0  0  0  0  0  0  0  0  0
  148.6086  130.6224  154.3770 C   0  0  0  0  0  0  0  0  0  0  0  0
  147.8558  131.3552  153.5324 N   0  0  0  0  0  0  0  0  0  0  0  0
  148.0873  132.6864  153.4184 C   0  0  0  0  0  0  0  0  0  0  0  0
  147.2551  133.4034  152.5272 N   0  0  0  0  0  0  0  0  0  0  0  0
  146.4611  132.6981  151.5267 C   0  0  0  0  0  0  0  0  0  0  0  0
  145.4448  133.7239  151.0339 C   0  0  0  0  0  0  0  0  0  0  0  0
  145.1444  134.5181  152.3012 C   0  0  0  0  0  0  0  0  0  0  0  0
  146.4812  134.5258  153.0502 C   0  0  0  0  0  0  0  0  0  0  0  0
  149.9345  139.2892  154.3626 C   0  0  1  0  0  0  0  0  0  0  0  0
  148.4189  139.4461  154.4912 C   0  0  0  0  0  0  0  0  0  0  0  0
  148.2116  140.9445  154.3588 C   0  0  0  0  0  0  0  0  0  0  0  0
  149.5834  141.5390  154.6908 C   0  0  0  0  0  0  0  0  0  0  0  0
  150.4012  140.4351  155.0579 O   0  0  0  0  0  0  0  0  0  0  0  0
  152.5057  138.8109  155.3740 H   0  0  0  0  0  0  0  0  0  0  0  0
  152.3719  137.9878  153.8227 H   0  0  0  0  0  0  0  0  0  0  0  0
  152.4543  137.0548  155.3154 H   0  0  0  0  0  0  0  0  0  0  0  0
  150.2690  137.9789  156.0415 H   0  0  0  0  0  0  0  0  0  0  0  0
  149.5147  136.9712  153.4313 H   0  0  0  0  0  0  0  0  0  0  0  0
  148.9418  135.1279  153.1538 H   0  0  0  0  0  0  0  0  0  0  0  0
  150.7302  132.9661  155.5920 H   0  0  0  0  0  0  0  0  0  0  0  0
  150.2363  130.5447  155.8057 H   0  0  0  0  0  0  0  0  0  0  0  0
  148.3792  129.5687  154.4337 H   0  0  0  0  0  0  0  0  0  0  0  0
  147.0851  132.3229  150.7153 H   0  0  0  0  0  0  0  0  0  0  0  0
  145.9355  131.8541  151.9753 H   0  0  0  0  0  0  0  0  0  0  0  0
  145.9012  134.3734  150.2855 H   0  0  0  0  0  0  0  0  0  0  0  0
  144.5583  133.2668  150.5935 H   0  0  0  0  0  0  0  0  0  0  0  0
  144.7667  135.5205  152.0976 H   0  0  0  0  0  0  0  0  0  0  0  0
  144.3951  133.9908  152.8933 H   0  0  0  0  0  0  0  0  0  0  0  0
  146.3343  134.4573  154.1291 H   0  0  0  0  0  0  0  0  0  0  0  0
  147.0174  135.4513  152.8393 H   0  0  0  0  0  0  0  0  0  0  0  0
  150.2244  139.3730  153.3131 H   0  0  0  0  0  0  0  0  0  0  0  0
  147.8663  138.8740  153.7451 H   0  0  0  0  0  0  0  0  0  0  0  0
  148.0904  139.1195  155.4789 H   0  0  0  0  0  0  0  0  0  0  0  0
  147.9207  141.2094  153.3417 H   0  0  0  0  0  0  0  0  0  0  0  0
  147.4333  141.2999  155.0350 H   0  0  0  0  0  0  0  0  0  0  0  0
  150.0105  142.0310  153.8160 H   0  0  0  0  0  0  0  0  0  0  0  0
  149.5362  142.2673  155.5007 H   0  0  0  0  0  0  0  0  0  0  0  0
  1  2  1  0  0  0  0
  1 23  1  0  0  0  0
  1 24  1  0  0  0  0
  1 25  1  0  0  0  0
  2  3  1  0  0  0  0
  2 18  1  0  0  0  0
  2 26  1  0  0  0  0
  3  4  1  0  0  0  0
  3 27  1  0  0  0  0
  4  5  2  0  0  0  0
  4  6  1  0  0  0  0
  6  7  1  0  0  0  0
  6 28  1  0  0  0  0
  7 12  1  0  0  0  0
  7  8  2  0  0  0  0
  8  9  1  0  0  0  0
  8 29  1  0  0  0  0
  9 10  2  0  0  0  0
  9 30  1  0  0  0  0
 10 11  1  0  0  0  0
 10 31  1  0  0  0  0
 11 12  2  0  0  0  0
 12 13  1  0  0  0  0
 13 17  1  0  0  0  0
 13 14  1  0  0  0  0
 14 15  1  0  0  0  0
 14 32  1  0  0  0  0
 14 33  1  0  0  0  0
 15 16  1  0  0  0  0
 15 34  1  0  0  0  0
 15 35  1  0  0  0  0
 16 17  1  0  0  0  0
 16 36  1  0  0  0  0
 16 37  1  0  0  0  0
 17 38  1  0  0  0  0
 17 39  1  0  0  0  0
 18 22  1  0  0  0  0
 18 19  1  0  0  0  0
 18 40  1  0  0  0  0
 19 20  1  0  0  0  0
 19 41  1  0  0  0  0
 19 42  1  0  0  0  0
 20 21  1  0  0  0  0
 20 43  1  0  0  0  0
 20 44  1  0  0  0  0
 21 22  1  0  0  0  0
 21 45  1  0  0  0  0
 21 46  1  0  0  0  0
M  END
> <s_m_source_file>
AV-unprocessed.smi

> <i_m_source_file_index>
1793

> <i_lp_mmshare_version>
43012

> <i_f3d_flags>
0

> <s_epik_input>
TzFbQ0gyXVtDSDJdW0NIMl1bQ0BIXTFbQ0BIXShbQ0gzXSlbTkhdQyg9TylbTkhdYzJbY0hdW2NIXVtjSF1uYzJOM1tDSDJdW0NIMl1bQ0gyXVtDSDJdMw==

> <s_epik_cmdline>
J2VwaWtfcHl0aG9uJywgJy1waCcsICc3LjAnLCAnLXRuJywgJzgnLCAnLW1hJywgJzIwMCcsICctbWV0YWxfYmluZGluZycsICctaW1hZScsICc8aW5maWxlLm1hZT4nLCAnLW9tYWUnLCAnPG91dGZpbGUubWFlPic=

> <r_lp_tautomer_probability>
1

> <r_epik_Ionization_Penalty>
0.0992086

> <r_epik_Ionization_Penalty_Charging>
0

> <r_epik_Ionization_Penalty_Neutral>
0.0992086

> <r_epik_State_Penalty>
0.0887141

> <r_epik_Charging_Adjusted_Penalty>
0.0887141

> <i_epik_Tot_Q>
0

> <i_epik_Tot_abs_Q>
0

> <r_epik_Metal_State_Penalty>
0.075945

> <b_epik_Metal_Only>
0

> <s_lp_Force_Field>
OPLS_2005

> <r_lp_Energy>
46.1922

> <b_lp_Chiralities_Consistent>
1

> <s_lp_Variant>
AV-unprocessed.smi:1793-3

> <Gold.Version>
5.8.1

> <Gold.Id.Protein>
6NUR|6NUR_protein|mol2

> <Gold.PLP.Fitness>
41.5195

> <Gold.PLP.PLP>
-35.8052

> <Gold.PLP.part.hbond>
-3.9002

> <Gold.PLP.part.metal>
0.0000

> <Gold.PLP.part.buried>
-0.5390

> <Gold.PLP.part.nonpolar>
-32.0758

> <Gold.PLP.part.repulsive>
0.4580

> <Gold.PLP.ligand.clash>
0.0000

> <Gold.PLP.ligand.torsion>
0.5419

> <Gold.PLP.Chemscore.Hbond>
2.1433

> <Gold.PLP.Chemscore.CHOScore>
0.0000

> <Gold.PLP.Chemscore.Metal>
0.0000

> <Gold.Chemscore.Hbonds>
donor molecule, donor type, donor heavy atom, donor atom, acceptor molecule, acceptor atom, score
      L1  H     3    27       P1  7948  0.93
      L1  H     6    28       P1  7948  0.99
      P1  H  7989  7998       L1    22  0.22

> <Gold.PLP.Chemscore.Internal.Correction>
0.3683

> <Gold.Rescore>
     Score         DG    S(hbond)    S(metal)    S(lipo)     H(rot)  DE(clash)    DE(int)     intcor
     13.46     -15.59       1.23        0.00      81.16       1.36       0.29       1.85       ----

> <Gold.Chemscore.Fitness>
13.4571

> <Gold.Chemscore.DG>
-15.5921

> <Gold.Chemscore.ZeroCoef>
-5.4800

> <Gold.Chemscore.Hbond>
1.2255

> <Gold.Chemscore.Metal>
0.0000

> <Gold.Chemscore.Lipo>
81.1634

> <Gold.Chemscore.Internal_Hbond>
0.0000

> <Gold.Chemscore.DEClash>
0.2894

> <Gold.Chemscore.DEInternal>
1.8456

> <Gold.Chemscore.Rot>
1.3582

> <Gold.Chemscore.Internal.Correction>
   9.000000E+99

> <Gold.Chemscore.Hbonds>
donor molecule, donor type, donor heavy atom, donor atom, acceptor molecule, acceptor atom, score
      L1  H     3    27       P1  7948  0.76
      L1  H     6    28       P1  7948  0.28

> <Gold.Chemscore.Hbond.Weighted>
-4.0930

> <Gold.Chemscore.Metal.Weighted>
-0.0000

> <Gold.Chemscore.Lipo.Weighted>
-9.4961

> <Gold.Chemscore.Internal_Hbond.Weighted>
0.0000

> <Gold.Chemscore.DEClash.Weighted>
0.2894

> <Gold.Chemscore.DEInternal.Weighted>
1.8456

> <Gold.Chemscore.Rot.Weighted>
3.4771

> <Gold.Chemscore.Internal.Correction.Weighted>
   9.000000E+99

> <Gold.Protein.RotatedTorsions>
[ 6907 6896 6895 6894 ] final  105.02 input  -60.11 | X-H torsion
[ 7974 7965 7964 7962 ] final   17.99 input  175.53 | X-H torsion
[ 8008 7997 7996 7995 ] final  141.69 input   59.86 | X-H torsion
[ 10167 10162 10161 10158 ] final   42.86 input  -65.29 | X-H torsion
[ 10718 10713 10712 10709 ] final  -63.35 input   66.30 | X-H torsion
[ 10763 10752 10751 10750 ] final -142.44 input  -60.55 | X-H torsion
[ 11005 11000 10999 10996 ] final   88.82 input  -57.11 | X-H torsion

> <Gold.Protein.ActiveResidues>
 VAL166  LYS551  ARG553  GLY616  TRP617  ASP618  TYR619  PRO620  LYS621  CYS622 
 ASP623  PHE694  ASN695  SER759  ASP760  ASP761  ALA762  ILE779  LEU786  VAL792 
 PHE793  MET794  SER795  GLU796  ALA797  LYS798  CYS799  TRP800  GLU811  SER814 

> <Gold.Protein.RotatedAtoms>
  152.5245  133.9590  159.7707 H   0  0  0  0  0  0  0  0  0  0  0  0  # atno 6907 bound_to 6896
  150.9884  133.6166  159.2719 H   0  0  0  0  0  0  0  0  0  0  0  0  # atno 6908 bound_to 6896
  151.3318  135.0849  159.9394 H   0  0  0  0  0  0  0  0  0  0  0  0  # atno 6909 bound_to 6896
  146.2200  139.8521  142.8620 H   0  0  0  0  0  0  0  0  0  0  0  0  # atno 7974 bound_to 7965
  156.2961  140.2308  156.4606 H   0  0  0  0  0  0  0  0  0  0  0  0  # atno 8008 bound_to 7997
  154.8021  140.0448  157.1301 H   0  0  0  0  0  0  0  0  0  0  0  0  # atno 8009 bound_to 7997
  154.9521  140.3043  155.5073 H   0  0  0  0  0  0  0  0  0  0  0  0  # atno 8010 bound_to 7997
  140.3502  144.2360  150.6146 H   0  0  0  0  0  0  0  0  0  0  0  0  # atno 10167 bound_to 10162
  156.0796  130.4220  150.1265 H   0  0  0  0  0  0  0  0  0  0  0  0  # atno 10718 bound_to 10713
  154.8509  135.3496  154.6028 H   0  0  0  0  0  0  0  0  0  0  0  0  # atno 10763 bound_to 10752
  153.6636  135.6988  153.5174 H   0  0  0  0  0  0  0  0  0  0  0  0  # atno 10764 bound_to 10752
  153.2798  135.4267  155.1024 H   0  0  0  0  0  0  0  0  0  0  0  0  # atno 10765 bound_to 10752
  139.8888  134.8512  156.3055 H   0  0  0  0  0  0  0  0  0  0  0  0  # atno 11005 bound_to 11000
  145.2790  141.0133  143.3728 LP  0  0  0  0  0  0  0  0  0  0  0  0  # atno 17320 bound_to 7965
  144.9164  139.4465  143.6562 LP  0  0  0  0  0  0  0  0  0  0  0  0  # atno 17321 bound_to 7965
  140.5226  143.2262  151.8364 LP  0  0  0  0  0  0  0  0  0  0  0  0  # atno 17342 bound_to 10162
  139.4827  144.4818  151.9297 LP  0  0  0  0  0  0  0  0  0  0  0  0  # atno 17343 bound_to 10162
  156.9299  130.9710  151.3535 LP  0  0  0  0  0  0  0  0  0  0  0  0  # atno 17370 bound_to 10713
  157.5908  130.8442  149.8656 LP  0  0  0  0  0  0  0  0  0  0  0  0  # atno 17371 bound_to 10713
  140.9885  133.7223  156.0778 LP  0  0  0  0  0  0  0  0  0  0  0  0  # atno 17394 bound_to 11000
  140.7656  134.3890  157.5517 LP  0  0  0  0  0  0  0  0  0  0  0  0  # atno 17395 bound_to 11000

$$$$
