AV-unprocessed.smi:39|AV-procd|sdf|355|dock3
  -GOLD-   2262016193D 1   1.00000     0.00000
 Structure written by MMmdl.
 32 33  0  0  0  0  0  0  0  0  3 V2000
  153.1516  143.1938  160.3300 C   0  0  0  0  0  0  0  0  0  0  0  0
  152.2677  142.7609  159.1720 C   0  0  0  0  0  0  0  0  0  0  0  0
  152.1102  141.4581  158.8239 C   0  0  0  0  0  0  0  0  0  0  0  0
  151.3099  141.0329  157.7722 N   0  0  0  0  0  0  0  0  0  0  0  0
  151.1731  139.5683  157.4242 C   0  0  1  0  0  0  0  0  0  0  0  0
  149.6992  139.1350  157.4670 C   0  0  0  0  0  0  0  0  0  0  0  0
  149.6100  138.1605  156.3048 C   0  0  2  0  0  0  0  0  0  0  0  0
  150.0211  136.8209  156.7442 N   0  0  0  0  0  0  0  0  0  0  0  0
  150.1866  136.6608  157.9609 N   0  3  0  0  0  0  0  0  0  0  0  0
  150.2183  136.5521  159.0934 N   0  5  0  0  0  0  0  0  0  0  0  0
  150.5882  138.8388  155.3280 C   0  0  2  0  0  0  0  0  0  0  0  0
  151.1046  138.0794  154.0884 C   0  0  0  0  0  0  0  0  0  0  0  0
  151.6890  136.8326  154.4002 O   0  0  0  0  0  0  0  0  0  0  0  0
  151.6469  139.3556  156.1257 O   0  0  0  0  0  0  0  0  0  0  0  0
  150.6339  141.9903  156.9881 C   0  0  0  0  0  0  0  0  0  0  0  0
  149.9352  141.6918  156.0205 O   0  0  0  0  0  0  0  0  0  0  0  0
  150.7909  143.3275  157.3480 N   0  0  0  0  0  0  0  0  0  0  0  0
  151.5693  143.7984  158.4079 C   0  0  0  0  0  0  0  0  0  0  0  0
  151.6264  145.0069  158.6296 O   0  0  0  0  0  0  0  0  0  0  0  0
  151.8147  139.0029  158.1023 H   0  0  0  0  0  0  0  0  0  0  0  0
  148.5964  138.1496  155.8984 H   0  0  0  0  0  0  0  0  0  0  0  0
  150.0651  139.7134  154.9376 H   0  0  0  0  0  0  0  0  0  0  0  0
  150.3031  144.0153  156.7928 H   0  0  0  0  0  0  0  0  0  0  0  0
  153.6218  142.3415  160.8211 H   0  0  0  0  0  0  0  0  0  0  0  0
  152.5646  143.7282  161.0779 H   0  0  0  0  0  0  0  0  0  0  0  0
  153.9437  143.8558  159.9784 H   0  0  0  0  0  0  0  0  0  0  0  0
  152.6438  140.7174  159.3995 H   0  0  0  0  0  0  0  0  0  0  0  0
  149.4389  138.7103  158.4373 H   0  0  0  0  0  0  0  0  0  0  0  0
  149.0574  139.9979  157.2811 H   0  0  0  0  0  0  0  0  0  0  0  0
  150.2823  137.9055  153.3942 H   0  0  0  0  0  0  0  0  0  0  0  0
  151.8417  138.6856  153.5615 H   0  0  0  0  0  0  0  0  0  0  0  0
  151.5326  136.6463  155.3134 H   0  0  0  0  0  0  0  0  0  0  0  0
  1  2  1  0  0  0  0
  1 24  1  0  0  0  0
  1 25  1  0  0  0  0
  1 26  1  0  0  0  0
  2 18  1  0  0  0  0
  2  3  2  0  0  0  0
  3  4  1  0  0  0  0
  3 27  1  0  0  0  0
  4  5  1  0  0  0  0
  4 15  1  0  0  0  0
  5 20  1  0  0  0  0
  5 14  1  0  0  0  0
  5  6  1  0  0  0  0
  6  7  1  0  0  0  0
  6 28  1  0  0  0  0
  6 29  1  0  0  0  0
  7 21  1  0  0  0  0
  7  8  1  0  0  0  0
  7 11  1  0  0  0  0
  8  9  2  0  0  0  0
  9 10  2  0  0  0  0
 11 22  1  0  0  0  0
 11 12  1  0  0  0  0
 11 14  1  0  0  0  0
 12 13  1  0  0  0  0
 12 30  1  0  0  0  0
 12 31  1  0  0  0  0
 13 32  1  0  0  0  0
 15 16  2  0  0  0  0
 15 17  1  0  0  0  0
 17 23  1  0  0  0  0
 17 18  1  0  0  0  0
 18 19  2  0  0  0  0
M  CHG  1   9   1
M  CHG  1  10  -1
M  END
> <s_m_source_file>
AV-unprocessed.smi

> <i_m_source_file_index>
39

> <i_lp_mmshare_version>
43012

> <i_f3d_flags>
0

> <s_epik_input>
Tz1jMVtuSF1jKD1PKW4oW2NIXWMxW0NIM10pW0NASF0yW0NIMl1bQ0BIXShOPVtOK109W04tXSlbQ0BIXShPMilbQ0gyXVtPSF0=

> <s_epik_cmdline>
J2VwaWtfcHl0aG9uJywgJy1waCcsICc3LjAnLCAnLXRuJywgJzgnLCAnLW1hJywgJzIwMCcsICctbWV0YWxfYmluZGluZycsICctaW1hZScsICc8aW5maWxlLm1hZT4nLCAnLW9tYWUnLCAnPG91dGZpbGUubWFlPic=

> <r_lp_tautomer_probability>
0.999537

> <r_epik_Ionization_Penalty>
0.00127512

> <r_epik_Ionization_Penalty_Charging>
0.00127507

> <r_epik_Ionization_Penalty_Neutral>
5.43433e-08

> <r_epik_State_Penalty>
0.000844892

> <r_epik_Charging_Adjusted_Penalty>
0.00211996

> <i_epik_Tot_Q>
0

> <i_epik_Tot_abs_Q>
2

> <r_epik_Metal_State_Penalty>
0.680636

> <b_epik_Metal_Only>
0

> <s_epik_Chemistry_Notes>
This compound contains an acetal/aminal-like group ( X-CH(R)-Y where X, Y are N, S, or O) that may be acid/base labile, releasing an aldehyde.

> <s_lp_Force_Field>
OPLS_2005

> <r_lp_Energy>
30.2266

> <b_lp_Chiralities_Consistent>
1

> <s_lp_Variant>
AV-unprocessed.smi:39-5

> <Gold.Version>
5.8.1

> <Gold.Id.Protein>
6NUR|6NUR_protein|mol2

> <Gold.PLP.Fitness>
39.1457

> <Gold.PLP.PLP>
-30.2750

> <Gold.PLP.part.hbond>
-3.7876

> <Gold.PLP.part.metal>
0.0000

> <Gold.PLP.part.buried>
-7.3018

> <Gold.PLP.part.nonpolar>
-20.1974

> <Gold.PLP.part.repulsive>
0.1988

> <Gold.PLP.ligand.clash>
0.0000

> <Gold.PLP.ligand.torsion>
0.0923

> <Gold.PLP.Chemscore.Hbond>
3.0000

> <Gold.PLP.Chemscore.CHOScore>
0.0000

> <Gold.PLP.Chemscore.Metal>
0.0000

> <Gold.Chemscore.Hbonds>
donor molecule, donor type, donor heavy atom, donor atom, acceptor molecule, acceptor atom, score
      L1  H    17    23       P1  8028  1.00
      P1  H  6896  6909       L1    10  0.94
      P1  H 10752 10764       L1    13  0.95

> <Gold.PLP.Chemscore.Internal.Correction>
0.0552

> <Gold.Rescore>
     Score         DG    S(hbond)    S(metal)    S(lipo)     H(rot)  DE(clash)    DE(int)     intcor
      9.25     -11.82       2.24        0.00      50.38       2.75       0.00       2.56       ----

> <Gold.Chemscore.Fitness>
9.2497

> <Gold.Chemscore.DG>
-11.8154

> <Gold.Chemscore.ZeroCoef>
-5.4800

> <Gold.Chemscore.Hbond>
2.2415

> <Gold.Chemscore.Metal>
0.0000

> <Gold.Chemscore.Lipo>
50.3850

> <Gold.Chemscore.Internal_Hbond>
0.0000

> <Gold.Chemscore.DEClash>
0.0009

> <Gold.Chemscore.DEInternal>
2.5649

> <Gold.Chemscore.Rot>
2.7524

> <Gold.Chemscore.Internal.Correction>
   9.000000E+99

> <Gold.Chemscore.Hbonds>
donor molecule, donor type, donor heavy atom, donor atom, acceptor molecule, acceptor atom, score
      L1  H    17    23       P1  8028  0.98
      P1  H  6896  6909       L1    10  0.75
      P1  H 10752 10764       L1    13  0.21

> <Gold.Chemscore.Hbond.Weighted>
-7.4865

> <Gold.Chemscore.Metal.Weighted>
-0.0000

> <Gold.Chemscore.Lipo.Weighted>
-5.8950

> <Gold.Chemscore.Internal_Hbond.Weighted>
0.0000

> <Gold.Chemscore.DEClash.Weighted>
0.0009

> <Gold.Chemscore.DEInternal.Weighted>
2.5649

> <Gold.Chemscore.Rot.Weighted>
7.0461

> <Gold.Chemscore.Internal.Correction.Weighted>
   9.000000E+99

> <Gold.Protein.RotatedTorsions>
[ 6907 6896 6895 6894 ] final   60.72 input  -60.11 | X-H torsion
[ 7974 7965 7964 7962 ] final   70.33 input  175.53 | X-H torsion
[ 8008 7997 7996 7995 ] final  -92.24 input   59.86 | X-H torsion
[ 10167 10162 10161 10158 ] final  175.81 input  -65.29 | X-H torsion
[ 10718 10713 10712 10709 ] final  -40.08 input   66.30 | X-H torsion
[ 10763 10752 10751 10750 ] final  -89.43 input  -60.55 | X-H torsion
[ 11005 11000 10999 10996 ] final -131.37 input  -57.11 | X-H torsion

> <Gold.Protein.ActiveResidues>
 VAL166  LYS551  ARG553  GLY616  TRP617  ASP618  TYR619  PRO620  LYS621  CYS622 
 ASP623  PHE694  ASN695  SER759  ASP760  ASP761  ALA762  ILE779  LEU786  VAL792 
 PHE793  MET794  SER795  GLU796  ALA797  LYS798  CYS799  TRP800  GLU811  SER814 

> <Gold.Protein.RotatedAtoms>
  152.4027  134.6259  160.0062 H   0  0  0  0  0  0  0  0  0  0  0  0  # atno 6907 bound_to 6896
  151.6459  133.3318  159.3149 H   0  0  0  0  0  0  0  0  0  0  0  0  # atno 6908 bound_to 6896
  150.7925  134.7003  159.6591 H   0  0  0  0  0  0  0  0  0  0  0  0  # atno 6909 bound_to 6896
  145.7794  139.2880  143.1274 H   0  0  0  0  0  0  0  0  0  0  0  0  # atno 7974 bound_to 7965
  154.7207  140.0511  157.0637 H   0  0  0  0  0  0  0  0  0  0  0  0  # atno 8008 bound_to 7997
  155.0431  140.3171  155.4698 H   0  0  0  0  0  0  0  0  0  0  0  0  # atno 8009 bound_to 7997
  156.2815  140.2129  156.5555 H   0  0  0  0  0  0  0  0  0  0  0  0  # atno 8010 bound_to 7997
  139.5191  144.2988  152.0397 H   0  0  0  0  0  0  0  0  0  0  0  0  # atno 10167 bound_to 10162
  156.2853  130.4222  149.8294 H   0  0  0  0  0  0  0  0  0  0  0  0  # atno 10718 bound_to 10713
  154.6552  135.5341  153.7950 H   0  0  0  0  0  0  0  0  0  0  0  0  # atno 10763 bound_to 10752
  153.0409  135.6492  154.0956 H   0  0  0  0  0  0  0  0  0  0  0  0  # atno 10764 bound_to 10752
  154.0870  135.2943  155.3259 H   0  0  0  0  0  0  0  0  0  0  0  0  # atno 10765 bound_to 10752
  140.9264  134.1377  157.4271 H   0  0  0  0  0  0  0  0  0  0  0  0  # atno 11005 bound_to 11000
  146.0089  140.8453  142.9981 LP  0  0  0  0  0  0  0  0  0  0  0  0  # atno 17320 bound_to 7965
  144.6799  140.2461  143.7337 LP  0  0  0  0  0  0  0  0  0  0  0  0  # atno 17321 bound_to 7965
  140.2436  144.4243  150.6250 LP  0  0  0  0  0  0  0  0  0  0  0  0  # atno 17342 bound_to 10162
  140.6273  143.2183  151.6569 LP  0  0  0  0  0  0  0  0  0  0  0  0  # atno 17343 bound_to 10162
  156.5727  130.8432  151.3361 LP  0  0  0  0  0  0  0  0  0  0  0  0  # atno 17370 bound_to 10713
  157.7326  130.9718  150.1939 LP  0  0  0  0  0  0  0  0  0  0  0  0  # atno 17371 bound_to 10713
  139.8786  134.9990  156.5929 LP  0  0  0  0  0  0  0  0  0  0  0  0  # atno 17394 bound_to 11000
  140.7920  133.8574  155.8654 LP  0  0  0  0  0  0  0  0  0  0  0  0  # atno 17395 bound_to 11000

$$$$
