#       Name:                AV-unprocessed.smi:1022
#       Creating user name   scv26
#       Creation time:       Fri Mar 27 02:43:29 2020


#       File generated by GOLD software.
#

@<TRIPOS>MOLECULE
AV-unprocessed.smi:1022
    39    40     1
SMALL
NO_CHARGES


@<TRIPOS>ATOM
      1 ****        -3.6629   3.4038  -1.8701 C.3            1 S1                 0.0000
      2 ****        -2.3216   3.6590  -1.4921 O.3            1 S1                 0.0000
      3 ****        -1.4872   2.5235  -1.6552 C.3            1 S1                 0.0000
      4 ****        -0.0510   2.8704  -1.2217 C.3            1 S1                 0.0000
      5 ****         0.5756   3.9473  -2.1199 C.3            1 S1                 0.0000
      6 ****         0.7899   1.6759  -1.2527 N.am           1 S1                 0.0000
      7 ****         0.8409   0.7188  -0.3146 C.2            1 S1                 0.0000
      8 ****         0.1425   0.8101   0.6977 O.2            1 S1                 0.0000
      9 ****         1.6924  -0.2893  -0.6115 N.pl3          1 S1                -1.0000
     10 ****         1.8213  -1.3284   0.2300 C.2            1 S1                 0.0000
     11 ****         2.8429  -1.4346   1.0914 N.2            1 S1                 0.0000
     12 ****         2.7857  -2.5852   1.8646 N.2            1 S1                 0.0000
     13 ****         1.7227  -3.3377   1.5702 C.2            1 S1                 0.0000
     14 ****         1.4376  -4.6267   2.2661 C.3            1 S1                 0.0000
     15 ****         0.0214  -5.0737   2.5560 C.3            1 S1                 0.0000
     16 ****         0.9198  -4.6407   3.6861 C.3            1 S1                 0.0000
     17 ****         0.6997  -2.6873   0.2994 S.3            1 S1                 0.0000
     18 ****        -4.2608   4.3040  -1.7292 H              1 S1                 0.0000
     19 ****        -4.1000   2.6107  -1.2620 H              1 S1                 0.0000
     20 ****        -3.7287   3.1170  -2.9204 H              1 S1                 0.0000
     21 ****        -1.8773   1.7044  -1.0486 H              1 S1                 0.0000
     22 ****        -1.4993   2.1913  -2.6948 H              1 S1                 0.0000
     23 ****        -0.0739   3.2558  -0.2008 H              1 S1                 0.0000
     24 ****        -0.0019   4.8715  -2.0885 H              1 S1                 0.0000
     25 ****         0.6226   3.6200  -3.1592 H              1 S1                 0.0000
     26 ****         1.5900   4.1846  -1.7983 H              1 S1                 0.0000
     27 ****         1.3814   1.5581  -2.0621 H              1 S1                 0.0000
     28 ****         2.1619  -5.3864   1.9792 H              1 S1                 0.0000
     29 ****        -0.7951  -4.4065   2.2876 H              1 S1                 0.0000
     30 ****        -0.1971  -6.1359   2.4669 H              1 S1                 0.0000
     31 ****         1.3004  -5.4129   4.3513 H              1 S1                 0.0000
     32 ****         0.7082  -3.6821   4.1559 H              1 S1                 0.0000
     33 ****        -2.3058   3.9335  -0.5306 LP             1 S1                 0.0000
     34 ****        -1.9650   4.4031  -2.0570 LP             1 S1                 0.0000
     35 ****        -0.4617   1.5977   0.8189 LP             1 S1                 0.0000
     36 ****         0.1804   0.0966   1.3973 LP             1 S1                 0.0000
     37 ****         2.2257  -0.2611  -1.4570 LP             1 S1                 0.0000
     38 ****         3.5716  -0.7541   1.1688 LP             1 S1                 0.0000
     39 ****         3.4621  -2.8233   2.5615 LP             1 S1                 0.0000
@<TRIPOS>BOND
    1    1    2 1     
    2    1   18 1     
    3    1   19 1     
    4    1   20 1     
    5    2    3 1     
    6    3    4 1     
    7    3   21 1     
    8    3   22 1     
    9    4    5 1     
   10    4    6 1     
   11    4   23 1     
   12    5   24 1     
   13    5   25 1     
   14    5   26 1     
   15    6    7 am    
   16    6   27 1     
   17    7    8 2     
   18    7    9 1     
   19    9   10 1     
   20   10   17 1     
   21   10   11 2     
   22   11   12 1     
   23   12   13 2     
   24   13   14 1     
   25   13   17 1     
   26   14   16 1     
   27   14   15 1     
   28   14   28 1     
   29   15   16 1     
   30   15   29 1     
   31   15   30 1     
   32   16   31 1     
   33   16   32 1     
   34    2   33 1     
   35    2   34 1     
   36    8   35 1     
   37    8   36 1     
   38    9   37 1     
   39   11   38 1     
   40   12   39 1     
@<TRIPOS>SUBSTRUCTURE
      1 S1             1
@<TRIPOS>SET
LONE_PAIRS      STATIC     ATOMS    <user>   **** ""
7 33 34 35 36 37 38 39
DONOR_HYDROGENS      STATIC     ATOMS    <user>   **** ""
1 27
ATOM$BLUE        STATIC     ATOMS    COLORGROUP SYSTEM
7 33 34 35 36 37 38 39
ATOM$RED        STATIC     ATOMS    COLORGROUP SYSTEM
1 27
