AV-unprocessed.smi:1144|AV-procd|sdf|4879|dock1
  -GOLD-   22720 3453D 1   1.00000     0.00000
 Structure written by MMmdl.
 35 36  0  0  0  0  0  0  0  0  2 V2000
  147.1285  138.4181  153.6198 C   0  0  0  0  0  0  0  0  0  0  0  0
  148.3844  137.7525  154.0264 N   0  3  2  0  0  0  0  0  0  0  0  0
  148.1795  136.7575  155.1034 C   0  0  0  0  0  0  0  0  0  0  0  0
  149.5115  136.0790  155.4623 C   0  0  0  0  0  0  0  0  0  0  0  0
  150.4635  137.0701  155.8289 O   0  0  0  0  0  0  0  0  0  0  0  0
  150.7476  137.9725  154.7633 C   0  0  2  0  0  0  0  0  0  0  0  0
  151.8393  138.9433  155.2334 C   0  0  0  0  0  0  0  0  0  0  0  0
  151.3419  139.8617  156.2467 N   0  0  0  0  0  0  0  0  0  0  0  0
  151.9262  140.0316  157.4871 C   0  0  0  0  0  0  0  0  0  0  0  0
  152.3759  138.9170  158.0671 N   0  0  0  0  0  0  0  0  0  0  0  0
  152.9472  139.0464  159.2842 C   0  0  0  0  0  0  0  0  0  0  0  0
  153.0685  140.2984  159.9186 C   0  0  0  0  0  0  0  0  0  0  0  0
  152.5599  141.4108  159.2113 C   0  0  0  0  0  0  0  0  0  0  0  0
  152.6247  142.8244  159.7698 C   0  0  0  0  0  0  0  0  0  0  0  0
  153.1492  142.8434  160.9958 F   0  0  0  0  0  0  0  0  0  0  0  0
  153.3771  143.5861  158.9756 F   0  0  0  0  0  0  0  0  0  0  0  0
  151.3975  143.3423  159.8258 F   0  0  0  0  0  0  0  0  0  0  0  0
  151.9881  141.2682  157.9929 N   0  0  0  0  0  0  0  0  0  0  0  0
  149.4488  138.7155  154.3920 C   0  0  0  0  0  0  0  0  0  0  0  0
  146.7021  138.9894  154.4456 H   0  0  0  0  0  0  0  0  0  0  0  0
  146.3914  137.6827  153.2958 H   0  0  0  0  0  0  0  0  0  0  0  0
  147.3069  139.1004  152.7880 H   0  0  0  0  0  0  0  0  0  0  0  0
  147.7632  137.2497  155.9840 H   0  0  0  0  0  0  0  0  0  0  0  0
  147.4552  136.0083  154.7818 H   0  0  0  0  0  0  0  0  0  0  0  0
  149.3714  135.3958  156.2999 H   0  0  0  0  0  0  0  0  0  0  0  0
  149.8866  135.4857  154.6267 H   0  0  0  0  0  0  0  0  0  0  0  0
  151.1099  137.4173  153.8955 H   0  0  0  0  0  0  0  0  0  0  0  0
  152.6720  138.3819  155.6589 H   0  0  0  0  0  0  0  0  0  0  0  0
  152.2320  139.5093  154.3877 H   0  0  0  0  0  0  0  0  0  0  0  0
  150.6043  140.5031  155.9936 H   0  0  0  0  0  0  0  0  0  0  0  0
  153.3093  138.1446  159.7554 H   0  0  0  0  0  0  0  0  0  0  0  0
  153.5269  140.3913  160.8919 H   0  0  0  0  0  0  0  0  0  0  0  0
  149.6328  139.3898  153.5545 H   0  0  0  0  0  0  0  0  0  0  0  0
  149.1133  139.3291  155.2299 H   0  0  0  0  0  0  0  0  0  0  0  0
  148.7172  137.2432  153.2200 H   0  0  0  0  0  0  0  0  0  0  0  0
  1  2  1  0  0  0  0
  1 20  1  0  0  0  0
  1 21  1  0  0  0  0
  1 22  1  0  0  0  0
  2 19  1  0  0  0  0
  2  3  1  0  0  0  0
  2 35  1  0  0  0  0
  3  4  1  0  0  0  0
  3 23  1  0  0  0  0
  3 24  1  0  0  0  0
  4  5  1  0  0  0  0
  4 25  1  0  0  0  0
  4 26  1  0  0  0  0
  5  6  1  0  0  0  0
  6  7  1  0  0  0  0
  6 19  1  0  0  0  0
  6 27  1  0  0  0  0
  7  8  1  0  0  0  0
  7 28  1  0  0  0  0
  7 29  1  0  0  0  0
  8  9  1  0  0  0  0
  8 30  1  0  0  0  0
  9 18  1  0  0  0  0
  9 10  2  0  0  0  0
 10 11  1  0  0  0  0
 11 12  2  0  0  0  0
 11 31  1  0  0  0  0
 12 13  1  0  0  0  0
 12 32  1  0  0  0  0
 13 14  1  0  0  0  0
 13 18  2  0  0  0  0
 14 15  1  0  0  0  0
 14 16  1  0  0  0  0
 14 17  1  0  0  0  0
 19 33  1  0  0  0  0
 19 34  1  0  0  0  0
M  CHG  1   2   1
M  END
> <s_m_source_file>
AV-unprocessed.smi

> <i_m_source_file_index>
1144

> <i_lp_mmshare_version>
43012

> <i_f3d_flags>
0

> <s_epik_input>
W0NIM11OMVtDSDJdW0NIMl1PW0NASF0oW0NIMl0xKVtDSDJdW05IXWMybltjSF1bY0hdYyhuMilDKEYpKEYpRg==

> <s_epik_cmdline>
J2VwaWtfcHl0aG9uJywgJy1waCcsICc3LjAnLCAnLXRuJywgJzgnLCAnLW1hJywgJzIwMCcsICctbWV0YWxfYmluZGluZycsICctaW1hZScsICc8aW5maWxlLm1hZT4nLCAnLW9tYWUnLCAnPG91dGZpbGUubWFlPic=

> <r_lp_tautomer_probability>
1

> <r_epik_Ionization_Penalty>
0.178506

> <r_epik_Ionization_Penalty_Charging>
0.178504

> <r_epik_Ionization_Penalty_Neutral>
2.47225e-06

> <r_epik_State_Penalty>
0.167974

> <r_epik_Charging_Adjusted_Penalty>
0.346478

> <i_epik_Tot_Q>
1

> <i_epik_Tot_abs_Q>
1

> <r_epik_Metal_State_Penalty>
0.167974

> <b_epik_Metal_Only>
0

> <s_lp_Force_Field>
OPLS_2005

> <r_lp_Energy>
9.23753

> <b_lp_Chiralities_Consistent>
1

> <s_lp_Variant>
AV-unprocessed.smi:1144-4

> <Gold.Version>
5.8.1

> <Gold.Id.Protein>
6NUR|6NUR_protein|mol2

> <Gold.PLP.Fitness>
41.0231

> <Gold.PLP.PLP>
-35.7829

> <Gold.PLP.part.hbond>
-1.0000

> <Gold.PLP.part.metal>
0.0000

> <Gold.PLP.part.buried>
-3.4367

> <Gold.PLP.part.nonpolar>
-30.9610

> <Gold.PLP.part.repulsive>
0.2109

> <Gold.PLP.ligand.clash>
0.0000

> <Gold.PLP.ligand.torsion>
0.3940

> <Gold.PLP.Chemscore.Hbond>
2.0000

> <Gold.PLP.Chemscore.CHOScore>
0.0000

> <Gold.PLP.Chemscore.Metal>
0.0000

> <Gold.Chemscore.Hbonds>
donor molecule, donor type, donor heavy atom, donor atom, acceptor molecule, acceptor atom, score
      L1  H     2    35       P1  7948  2.00

> <Gold.PLP.Chemscore.Internal.Correction>
0.0282

> <Gold.Rescore>
     Score         DG    S(hbond)    S(metal)    S(lipo)     H(rot)  DE(clash)    DE(int)     intcor
     12.78     -13.27       1.00        0.00      67.32       1.34       0.21       0.28       ----

> <Gold.Chemscore.Fitness>
12.7784

> <Gold.Chemscore.DG>
-13.2680

> <Gold.Chemscore.ZeroCoef>
-5.4800

> <Gold.Chemscore.Hbond>
0.9989

> <Gold.Chemscore.Metal>
0.0000

> <Gold.Chemscore.Lipo>
67.3215

> <Gold.Chemscore.Internal_Hbond>
0.0000

> <Gold.Chemscore.DEClash>
0.2139

> <Gold.Chemscore.DEInternal>
0.2756

> <Gold.Chemscore.Rot>
1.3379

> <Gold.Chemscore.Internal.Correction>
   9.000000E+99

> <Gold.Chemscore.Hbonds>
donor molecule, donor type, donor heavy atom, donor atom, acceptor molecule, acceptor atom, score
      L1  H     2    35       P1  7948  1.00

> <Gold.Chemscore.Hbond.Weighted>
-3.3364

> <Gold.Chemscore.Metal.Weighted>
-0.0000

> <Gold.Chemscore.Lipo.Weighted>
-7.8766

> <Gold.Chemscore.Internal_Hbond.Weighted>
0.0000

> <Gold.Chemscore.DEClash.Weighted>
0.2139

> <Gold.Chemscore.DEInternal.Weighted>
0.2756

> <Gold.Chemscore.Rot.Weighted>
3.4250

> <Gold.Chemscore.Internal.Correction.Weighted>
   9.000000E+99

> <Gold.Protein.RotatedTorsions>
[ 6907 6896 6895 6894 ] final   93.86 input  -60.11 | X-H torsion
[ 7974 7965 7964 7962 ] final  169.50 input  175.53 | X-H torsion
[ 8008 7997 7996 7995 ] final  -83.16 input   59.86 | X-H torsion
[ 10167 10162 10161 10158 ] final  -42.90 input  -65.29 | X-H torsion
[ 10718 10713 10712 10709 ] final  129.61 input   66.30 | X-H torsion
[ 10763 10752 10751 10750 ] final   30.18 input  -60.55 | X-H torsion
[ 11005 11000 10999 10996 ] final  170.10 input  -57.11 | X-H torsion

> <Gold.Protein.ActiveResidues>
 VAL166  LYS551  ARG553  GLY616  TRP617  ASP618  TYR619  PRO620  LYS621  CYS622 
 ASP623  PHE694  ASN695  SER759  ASP760  ASP761  ALA762  ILE779  LEU786  VAL792 
 PHE793  MET794  SER795  GLU796  ALA797  LYS798  CYS799  TRP800  GLU811  SER814 

> <Gold.Protein.RotatedAtoms>
  152.5451  134.1282  159.8427 H   0  0  0  0  0  0  0  0  0  0  0  0  # atno 6907 bound_to 6896
  151.1331  133.5016  159.2606 H   0  0  0  0  0  0  0  0  0  0  0  0  # atno 6908 bound_to 6896
  151.1654  135.0303  159.8783 H   0  0  0  0  0  0  0  0  0  0  0  0  # atno 6909 bound_to 6896
  144.7353  139.9064  143.6412 H   0  0  0  0  0  0  0  0  0  0  0  0  # atno 7974 bound_to 7965
  154.6162  140.0623  156.9557 H   0  0  0  0  0  0  0  0  0  0  0  0  # atno 8008 bound_to 7997
  155.1892  140.3306  155.4343 H   0  0  0  0  0  0  0  0  0  0  0  0  # atno 8009 bound_to 7997
  156.2405  140.1884  156.6984 H   0  0  0  0  0  0  0  0  0  0  0  0  # atno 8010 bound_to 7997
  140.6953  143.3012  151.3274 H   0  0  0  0  0  0  0  0  0  0  0  0  # atno 10167 bound_to 10162
  157.5138  131.1097  150.9254 H   0  0  0  0  0  0  0  0  0  0  0  0  # atno 10718 bound_to 10713
  153.0387  135.6470  154.1004 H   0  0  0  0  0  0  0  0  0  0  0  0  # atno 10763 bound_to 10752
  154.0714  135.2880  155.3309 H   0  0  0  0  0  0  0  0  0  0  0  0  # atno 10764 bound_to 10752
  154.6591  135.5398  153.8060 H   0  0  0  0  0  0  0  0  0  0  0  0  # atno 10765 bound_to 10752
  140.3048  134.7566  157.3944 H   0  0  0  0  0  0  0  0  0  0  0  0  # atno 11005 bound_to 11000
  146.1034  139.4031  143.0333 LP  0  0  0  0  0  0  0  0  0  0  0  0  # atno 17320 bound_to 7965
  145.7546  140.9959  143.1232 LP  0  0  0  0  0  0  0  0  0  0  0  0  # atno 17321 bound_to 7965
  139.6401  144.0555  152.2547 LP  0  0  0  0  0  0  0  0  0  0  0  0  # atno 17342 bound_to 10162
  140.0058  144.6260  150.7690 LP  0  0  0  0  0  0  0  0  0  0  0  0  # atno 17343 bound_to 10162
  156.9886  130.5554  149.5301 LP  0  0  0  0  0  0  0  0  0  0  0  0  # atno 17370 bound_to 10713
  156.0306  130.5398  150.8525 LP  0  0  0  0  0  0  0  0  0  0  0  0  # atno 17371 bound_to 10713
  140.1077  134.5387  155.8294 LP  0  0  0  0  0  0  0  0  0  0  0  0  # atno 17394 bound_to 11000
  141.2121  133.6714  156.6630 LP  0  0  0  0  0  0  0  0  0  0  0  0  # atno 17395 bound_to 11000

$$$$
