AV-unprocessed.smi:45|AV-procd|sdf|407|dock5
  -GOLD-   2262016263D 1   1.00000     0.00000
 Structure written by MMmdl.
 60 63  0  0  0  0  0  0  0  0  1 V2000
  143.0599  134.6833  163.0662 C   0  0  0  0  0  0  0  0  0  0  0  0
  144.4182  134.5267  162.6826 O   0  0  0  0  0  0  0  0  0  0  0  0
  144.6958  134.2777  161.3544 C   0  0  0  0  0  0  0  0  0  0  0  0
  143.7052  134.2147  160.3422 C   0  0  0  0  0  0  0  0  0  0  0  0
  144.0601  133.9451  159.0075 C   0  0  0  0  0  0  0  0  0  0  0  0
  145.4095  133.7390  158.6611 C   0  0  0  0  0  0  0  0  0  0  0  0
  145.7842  133.3954  157.2293 C   0  0  0  0  0  0  0  0  0  0  0  0
  146.8401  134.2390  156.6826 N   0  0  0  0  0  0  0  0  0  0  0  0
  147.2123  133.9639  155.3569 C   0  0  0  0  0  0  0  0  0  0  0  0
  146.2593  134.1188  154.4081 N   0  0  0  0  0  0  0  0  0  0  0  0
  146.5983  133.9153  153.1308 C   0  0  0  0  0  0  0  0  0  0  0  0
  145.5983  134.1072  152.1783 N   0  0  0  0  0  0  0  0  0  0  0  0
  144.6266  133.0643  151.8691 C   0  0  0  0  0  0  0  0  0  0  0  0
  144.2346  133.2755  150.4081 C   0  0  0  0  0  0  0  0  0  0  0  0
  144.4220  134.7749  150.2186 C   0  0  0  0  0  0  0  0  0  0  0  0
  145.6348  135.0999  151.1032 C   0  0  1  0  0  0  0  0  0  0  0  0
  145.6173  136.5554  151.6162 C   0  0  0  0  0  0  0  0  0  0  0  0
  146.2733  137.4017  150.6961 O   0  0  0  0  0  0  0  0  0  0  0  0
  147.8093  133.5475  152.7012 N   0  0  0  0  0  0  0  0  0  0  0  0
  148.7747  133.3860  153.6298 C   0  0  0  0  0  0  0  0  0  0  0  0
  148.5402  133.5990  155.0074 C   0  0  0  0  0  0  0  0  0  0  0  0
  149.6480  133.4457  156.0145 C   0  0  0  0  0  0  0  0  0  0  0  0
  149.6631  134.1017  157.0564 O   0  0  0  0  0  0  0  0  0  0  0  0
  150.6256  132.5968  155.6592 N   0  0  0  0  0  0  0  0  0  0  0  0
  151.8479  132.3627  156.4180 C   0  0  0  0  0  0  0  0  0  0  0  0
  152.5597  131.0943  155.9824 C   0  0  0  0  0  0  0  0  0  0  0  0
  153.8129  130.9299  156.4194 N   0  0  0  0  0  0  0  0  0  0  0  0
  154.4554  129.8094  156.0248 C   0  0  0  0  0  0  0  0  0  0  0  0
  153.8349  128.8504  155.1992 C   0  0  0  0  0  0  0  0  0  0  0  0
  152.5095  129.1281  154.8084 C   0  0  0  0  0  0  0  0  0  0  0  0
  151.8738  130.2530  155.2014 N   0  0  0  0  0  0  0  0  0  0  0  0
  146.4016  133.8080  159.6583 C   0  0  0  0  0  0  0  0  0  0  0  0
  146.0472  134.0724  160.9952 C   0  0  0  0  0  0  0  0  0  0  0  0
  147.2864  134.1295  162.1970 Cl  0  0  0  0  0  0  0  0  0  0  0  0
  146.5469  134.9244  150.5307 H   0  0  0  0  0  0  0  0  0  0  0  0
  143.0082  134.8601  164.1404 H   0  0  0  0  0  0  0  0  0  0  0  0
  142.4801  133.7843  162.8522 H   0  0  0  0  0  0  0  0  0  0  0  0
  142.5991  135.5382  162.5694 H   0  0  0  0  0  0  0  0  0  0  0  0
  142.6613  134.3650  160.5649 H   0  0  0  0  0  0  0  0  0  0  0  0
  143.2908  133.8844  158.2514 H   0  0  0  0  0  0  0  0  0  0  0  0
  146.1243  132.3601  157.1996 H   0  0  0  0  0  0  0  0  0  0  0  0
  144.9037  133.4479  156.5877 H   0  0  0  0  0  0  0  0  0  0  0  0
  146.7070  135.2227  156.8716 H   0  0  0  0  0  0  0  0  0  0  0  0
  145.0323  132.0637  152.0239 H   0  0  0  0  0  0  0  0  0  0  0  0
  143.7626  133.1860  152.5234 H   0  0  0  0  0  0  0  0  0  0  0  0
  144.9227  132.7339  149.7578 H   0  0  0  0  0  0  0  0  0  0  0  0
  143.2218  132.9383  150.1869 H   0  0  0  0  0  0  0  0  0  0  0  0
  144.5724  135.0559  149.1758 H   0  0  0  0  0  0  0  0  0  0  0  0
  143.5345  135.2961  150.5809 H   0  0  0  0  0  0  0  0  0  0  0  0
  144.5949  136.9052  151.7624 H   0  0  0  0  0  0  0  0  0  0  0  0
  146.1247  136.6517  152.5750 H   0  0  0  0  0  0  0  0  0  0  0  0
  145.6305  137.7489  150.0967 H   0  0  0  0  0  0  0  0  0  0  0  0
  149.7471  133.0956  153.2597 H   0  0  0  0  0  0  0  0  0  0  0  0
  150.5440  132.1158  154.7753 H   0  0  0  0  0  0  0  0  0  0  0  0
  152.5247  133.2158  156.3401 H   0  0  0  0  0  0  0  0  0  0  0  0
  151.5837  132.2851  157.4734 H   0  0  0  0  0  0  0  0  0  0  0  0
  155.4680  129.6737  156.3750 H   0  0  0  0  0  0  0  0  0  0  0  0
  154.3451  127.9516  154.8865 H   0  0  0  0  0  0  0  0  0  0  0  0
  151.9578  128.4455  154.1791 H   0  0  0  0  0  0  0  0  0  0  0  0
  147.4375  133.6386  159.4025 H   0  0  0  0  0  0  0  0  0  0  0  0
  1  2  1  0  0  0  0
  1 36  1  0  0  0  0
  1 37  1  0  0  0  0
  1 38  1  0  0  0  0
  2  3  1  0  0  0  0
  3 33  1  0  0  0  0
  3  4  2  0  0  0  0
  4  5  1  0  0  0  0
  4 39  1  0  0  0  0
  5  6  2  0  0  0  0
  5 40  1  0  0  0  0
  6  7  1  0  0  0  0
  6 32  1  0  0  0  0
  7  8  1  0  0  0  0
  7 41  1  0  0  0  0
  7 42  1  0  0  0  0
  8  9  1  0  0  0  0
  8 43  1  0  0  0  0
  9 21  1  0  0  0  0
  9 10  2  0  0  0  0
 10 11  1  0  0  0  0
 11 12  1  0  0  0  0
 11 19  2  0  0  0  0
 12 16  1  0  0  0  0
 12 13  1  0  0  0  0
 13 14  1  0  0  0  0
 13 44  1  0  0  0  0
 13 45  1  0  0  0  0
 14 15  1  0  0  0  0
 14 46  1  0  0  0  0
 14 47  1  0  0  0  0
 15 16  1  0  0  0  0
 15 48  1  0  0  0  0
 15 49  1  0  0  0  0
 16 35  1  0  0  0  0
 16 17  1  0  0  0  0
 17 18  1  0  0  0  0
 17 50  1  0  0  0  0
 17 51  1  0  0  0  0
 18 52  1  0  0  0  0
 19 20  1  0  0  0  0
 20 21  2  0  0  0  0
 20 53  1  0  0  0  0
 21 22  1  0  0  0  0
 22 23  2  0  0  0  0
 22 24  1  0  0  0  0
 24 25  1  0  0  0  0
 24 54  1  0  0  0  0
 25 26  1  0  0  0  0
 25 55  1  0  0  0  0
 25 56  1  0  0  0  0
 26 31  1  0  0  0  0
 26 27  2  0  0  0  0
 27 28  1  0  0  0  0
 28 29  2  0  0  0  0
 28 57  1  0  0  0  0
 29 30  1  0  0  0  0
 29 58  1  0  0  0  0
 30 31  2  0  0  0  0
 30 59  1  0  0  0  0
 32 33  2  0  0  0  0
 32 60  1  0  0  0  0
 33 34  1  0  0  0  0
M  END
> <s_m_source_file>
AV-unprocessed.smi

> <i_m_source_file_index>
45

> <i_lp_mmshare_version>
43012

> <i_f3d_flags>
0

> <s_epik_input>
W0NIM11PYzFbY0hdW2NIXWMoW2NIXWMxQ2wpW0NIMl1bTkhdYzJuYyhOM1tDSDJdW0NIMl1bQ0gyXVtDQEhdM1tDSDJdW09IXSluW2NIXWMyQyg9TylbTkhdW0NIMl1jNG5bY0hdW2NIXVtjSF1uNA==

> <s_epik_cmdline>
J2VwaWtfcHl0aG9uJywgJy1waCcsICc3LjAnLCAnLXRuJywgJzgnLCAnLW1hJywgJzIwMCcsICctbWV0YWxfYmluZGluZycsICctaW1hZScsICc8aW5maWxlLm1hZT4nLCAnLW9tYWUnLCAnPG91dGZpbGUubWFlPic=

> <r_lp_tautomer_probability>
1

> <r_epik_Ionization_Penalty>
0.0522664

> <r_epik_Ionization_Penalty_Charging>
0

> <r_epik_Ionization_Penalty_Neutral>
0.0522664

> <r_epik_State_Penalty>
0.0369431

> <r_epik_Charging_Adjusted_Penalty>
0.0369431

> <i_epik_Tot_Q>
0

> <i_epik_Tot_abs_Q>
0

> <r_epik_Metal_State_Penalty>
0.0404664

> <b_epik_Metal_Only>
0

> <s_epik_Chemistry_Notes>
This compound contains an electron-poor aromatic ring that is susceptible to covalent hydrolysis at low pH, typically resulting in measured values for nitrogen ring protonation that are around two units higher than predicted values.

> <s_lp_Force_Field>
OPLS_2005

> <r_lp_Energy>
30.7934

> <b_lp_Chiralities_Consistent>
1

> <s_lp_Variant>
AV-unprocessed.smi:45-1

> <Gold.Version>
5.8.1

> <Gold.Id.Protein>
6NUR|6NUR_protein|mol2

> <Gold.PLP.Fitness>
47.5084

> <Gold.PLP.PLP>
-42.9587

> <Gold.PLP.part.hbond>
-3.0000

> <Gold.PLP.part.metal>
0.0000

> <Gold.PLP.part.buried>
-5.6338

> <Gold.PLP.part.nonpolar>
-34.5629

> <Gold.PLP.part.repulsive>
0.8077

> <Gold.PLP.ligand.clash>
0.0000

> <Gold.PLP.ligand.torsion>
2.3372

> <Gold.PLP.Chemscore.Hbond>
1.9175

> <Gold.PLP.Chemscore.CHOScore>
1.0000

> <Gold.PLP.Chemscore.Metal>
0.0000

> <Gold.Chemscore.Hbonds>
donor molecule, donor type, donor heavy atom, donor atom, acceptor molecule, acceptor atom, score
      L1  H    18    52       P1 10171  1.00
      P1  H  7954  7966       L1    18  0.82
      L1  C    30    59       P1 10737  0.97

> <Gold.PLP.Chemscore.Internal.Correction>
0.4716

> <Gold.Rescore>
     Score         DG    S(hbond)    S(metal)    S(lipo)     H(rot)  DE(clash)    DE(int)     intcor
     12.58     -16.07       2.31        0.00      93.67       3.16       0.08       3.41       ----

> <Gold.Chemscore.Fitness>
12.5809

> <Gold.Chemscore.DG>
-16.0735

> <Gold.Chemscore.ZeroCoef>
-5.4800

> <Gold.Chemscore.Hbond>
2.3101

> <Gold.Chemscore.Metal>
0.0000

> <Gold.Chemscore.Lipo>
93.6743

> <Gold.Chemscore.Internal_Hbond>
0.0000

> <Gold.Chemscore.DEClash>
0.0819

> <Gold.Chemscore.DEInternal>
3.4107

> <Gold.Chemscore.Rot>
3.1571

> <Gold.Chemscore.Internal.Correction>
   9.000000E+99

> <Gold.Chemscore.Hbonds>
donor molecule, donor type, donor heavy atom, donor atom, acceptor molecule, acceptor atom, score
      L1  H    18    52       P1 10171  0.93
      P1  H  6896  6908       L1    23  0.02
      P1  H  7954  7966       L1    18  0.43

> <Gold.Chemscore.Hbond.Weighted>
-7.7158

> <Gold.Chemscore.Metal.Weighted>
-0.0000

> <Gold.Chemscore.Lipo.Weighted>
-10.9599

> <Gold.Chemscore.Internal_Hbond.Weighted>
0.0000

> <Gold.Chemscore.DEClash.Weighted>
0.0819

> <Gold.Chemscore.DEInternal.Weighted>
3.4107

> <Gold.Chemscore.Rot.Weighted>
8.0822

> <Gold.Chemscore.Internal.Correction.Weighted>
   9.000000E+99

> <Gold.Protein.RotatedTorsions>
[ 6907 6896 6895 6894 ] final  117.07 input  -60.11 | X-H torsion
[ 7974 7965 7964 7962 ] final  100.18 input  175.53 | X-H torsion
[ 8008 7997 7996 7995 ] final -110.91 input   59.86 | X-H torsion
[ 10167 10162 10161 10158 ] final    3.77 input  -65.29 | X-H torsion
[ 10718 10713 10712 10709 ] final   69.67 input   66.30 | X-H torsion
[ 10763 10752 10751 10750 ] final  169.04 input  -60.55 | X-H torsion
[ 11005 11000 10999 10996 ] final  -94.77 input  -57.11 | X-H torsion

> <Gold.Protein.ActiveResidues>
 VAL166  LYS551  ARG553  GLY616  TRP617  ASP618  TYR619  PRO620  LYS621  CYS622 
 ASP623  PHE694  ASN695  SER759  ASP760  ASP761  ALA762  ILE779  LEU786  VAL792 
 PHE793  MET794  SER795  GLU796  ALA797  LYS798  CYS799  TRP800  GLU811  SER814 

> <Gold.Protein.RotatedAtoms>
  152.4636  133.7876  159.6884 H   0  0  0  0  0  0  0  0  0  0  0  0  # atno 6907 bound_to 6896
  150.8591  133.7660  159.3005 H   0  0  0  0  0  0  0  0  0  0  0  0  # atno 6908 bound_to 6896
  151.5232  135.1070  159.9935 H   0  0  0  0  0  0  0  0  0  0  0  0  # atno 6909 bound_to 6896
  145.3890  139.2366  143.3362 H   0  0  0  0  0  0  0  0  0  0  0  0  # atno 7974 bound_to 7965
  154.9817  140.0396  157.2280 H   0  0  0  0  0  0  0  0  0  0  0  0  # atno 8008 bound_to 7997
  154.7708  140.2801  155.6117 H   0  0  0  0  0  0  0  0  0  0  0  0  # atno 8009 bound_to 7997
  156.2920  140.2610  156.2510 H   0  0  0  0  0  0  0  0  0  0  0  0  # atno 8010 bound_to 7997
  140.6569  143.7404  150.7669 H   0  0  0  0  0  0  0  0  0  0  0  0  # atno 10167 bound_to 10162
  157.6358  130.9437  150.0545 H   0  0  0  0  0  0  0  0  0  0  0  0  # atno 10718 bound_to 10713
  154.3773  135.2753  155.2232 H   0  0  0  0  0  0  0  0  0  0  0  0  # atno 10763 bound_to 10752
  154.4353  135.5967  153.6098 H   0  0  0  0  0  0  0  0  0  0  0  0  # atno 10764 bound_to 10752
  152.9836  135.6005  154.4012 H   0  0  0  0  0  0  0  0  0  0  0  0  # atno 10765 bound_to 10752
  141.1461  133.7979  157.0344 H   0  0  0  0  0  0  0  0  0  0  0  0  # atno 11005 bound_to 11000
  146.2806  140.4570  142.8778 LP  0  0  0  0  0  0  0  0  0  0  0  0  # atno 17320 bound_to 7965
  144.8454  140.6920  143.6203 LP  0  0  0  0  0  0  0  0  0  0  0  0  # atno 17321 bound_to 7965
  140.1065  143.4739  152.2395 LP  0  0  0  0  0  0  0  0  0  0  0  0  # atno 17342 bound_to 10162
  139.5794  144.7503  151.3680 LP  0  0  0  0  0  0  0  0  0  0  0  0  # atno 17343 bound_to 10162
  156.1596  130.3643  149.9318 LP  0  0  0  0  0  0  0  0  0  0  0  0  # atno 17370 bound_to 10713
  156.7319  130.9046  151.3626 LP  0  0  0  0  0  0  0  0  0  0  0  0  # atno 17371 bound_to 10713
  140.0733  134.9690  157.1504 LP  0  0  0  0  0  0  0  0  0  0  0  0  # atno 17394 bound_to 11000
  140.3680  134.2422  155.7180 LP  0  0  0  0  0  0  0  0  0  0  0  0  # atno 17395 bound_to 11000

$$$$
