AV-unprocessed.smi:546|AV-procd|sdf|2885|dock3
  -GOLD-   2262023383D 1   1.00000     0.00000
 Structure written by MMmdl.
 52 54  0  0  0  0  0  0  0  0  1 V2000
  150.4123  132.2049  156.0052 C   0  0  0  0  0  0  0  0  0  0  0  0
  150.5699  133.7079  156.2443 C   0  0  0  0  0  0  0  0  0  0  0  0
  149.6764  134.0950  157.2720 O   0  0  0  0  0  0  0  0  0  0  0  0
  148.3428  134.2588  156.8198 C   0  0  0  0  0  0  0  0  0  0  0  0
  147.6473  135.3451  157.6530 C   0  0  0  0  0  0  0  0  0  0  0  0
  148.6139  136.2472  158.2704 N   0  0  0  0  0  0  0  0  0  0  0  0
  148.8674  136.4398  159.5937 C   0  0  0  0  0  0  0  0  0  0  0  0
  148.1423  135.7983  160.6015 N   0  0  0  0  0  0  0  0  0  0  0  0
  148.0797  136.2608  161.9921 C   0  0  0  0  0  0  0  0  0  0  0  0
  146.7311  135.9699  162.6917 C   0  0  1  0  0  0  0  0  0  0  0  0
  145.5920  136.8958  162.2354 C   0  0  0  0  0  0  0  0  0  0  0  0
  146.3656  134.4818  162.5626 C   0  0  0  0  0  0  0  0  0  0  0  0
  146.4696  134.0118  161.1036 C   0  0  2  0  0  0  0  0  0  0  0  0
  146.1812  132.5099  160.9770 C   0  0  0  0  0  0  0  0  0  0  0  0
  147.8601  134.3638  160.5460 C   0  0  0  0  0  0  0  0  0  0  0  0
  149.8846  137.2691  159.8466 N   0  0  0  0  0  0  0  0  0  0  0  0
  150.2992  137.6578  158.5830 C   0  0  0  0  0  0  0  0  0  0  0  0
  149.5502  137.0579  157.6233 C   0  0  0  0  0  0  0  0  0  0  0  0
  149.7953  137.2695  156.1889 C   0  0  0  0  0  0  0  0  0  0  0  0
  149.1372  136.7358  155.2987 O   0  0  0  0  0  0  0  0  0  0  0  0
  150.8269  138.1133  155.9441 N   0  0  0  0  0  0  0  0  0  0  0  0
  151.6179  138.7480  156.8616 C   0  0  0  0  0  0  0  0  0  0  0  0
  152.5278  139.4859  156.4836 O   0  0  0  0  0  0  0  0  0  0  0  0
  151.3565  138.5269  158.1894 N   0  0  0  0  0  0  0  0  0  0  0  0
  152.1764  139.1756  159.2143 C   0  0  0  0  0  0  0  0  0  0  0  0
  151.0377  138.2919  154.9731 H   0  0  0  0  0  0  0  0  0  0  0  0
  151.0853  131.8618  155.2196 H   0  0  0  0  0  0  0  0  0  0  0  0
  149.3931  131.9619  155.7037 H   0  0  0  0  0  0  0  0  0  0  0  0
  150.6369  131.6400  156.9101 H   0  0  0  0  0  0  0  0  0  0  0  0
  151.5971  133.9366  156.5311 H   0  0  0  0  0  0  0  0  0  0  0  0
  150.3502  134.2565  155.3273 H   0  0  0  0  0  0  0  0  0  0  0  0
  148.3356  134.5355  155.7648 H   0  0  0  0  0  0  0  0  0  0  0  0
  147.8029  133.3156  156.9163 H   0  0  0  0  0  0  0  0  0  0  0  0
  146.9572  135.9163  157.0352 H   0  0  0  0  0  0  0  0  0  0  0  0
  147.0264  134.8907  158.4176 H   0  0  0  0  0  0  0  0  0  0  0  0
  148.8768  135.7555  162.5392 H   0  0  0  0  0  0  0  0  0  0  0  0
  148.3194  137.3216  162.0537 H   0  0  0  0  0  0  0  0  0  0  0  0
  146.8728  136.1741  163.7536 H   0  0  0  0  0  0  0  0  0  0  0  0
  145.3744  136.7796  161.1751 H   0  0  0  0  0  0  0  0  0  0  0  0
  145.8409  137.9416  162.4154 H   0  0  0  0  0  0  0  0  0  0  0  0
  144.6739  136.6837  162.7839 H   0  0  0  0  0  0  0  0  0  0  0  0
  147.0486  133.8944  163.1779 H   0  0  0  0  0  0  0  0  0  0  0  0
  145.3652  134.2977  162.9563 H   0  0  0  0  0  0  0  0  0  0  0  0
  145.7211  134.5383  160.5104 H   0  0  0  0  0  0  0  0  0  0  0  0
  146.8993  131.9185  161.5460 H   0  0  0  0  0  0  0  0  0  0  0  0
  146.2340  132.1868  159.9371 H   0  0  0  0  0  0  0  0  0  0  0  0
  145.1839  132.2695  161.3463 H   0  0  0  0  0  0  0  0  0  0  0  0
  147.9254  134.0301  159.5095 H   0  0  0  0  0  0  0  0  0  0  0  0
  148.6368  133.8268  161.0927 H   0  0  0  0  0  0  0  0  0  0  0  0
  152.1706  140.2587  159.0838 H   0  0  0  0  0  0  0  0  0  0  0  0
  153.2088  138.8304  159.1497 H   0  0  0  0  0  0  0  0  0  0  0  0
  151.8245  138.9705  160.2252 H   0  0  0  0  0  0  0  0  0  0  0  0
  1  2  1  0  0  0  0
  1 27  1  0  0  0  0
  1 28  1  0  0  0  0
  1 29  1  0  0  0  0
  2  3  1  0  0  0  0
  2 30  1  0  0  0  0
  2 31  1  0  0  0  0
  3  4  1  0  0  0  0
  4  5  1  0  0  0  0
  4 32  1  0  0  0  0
  4 33  1  0  0  0  0
  5  6  1  0  0  0  0
  5 34  1  0  0  0  0
  5 35  1  0  0  0  0
  6 18  1  0  0  0  0
  6  7  1  0  0  0  0
  7  8  1  0  0  0  0
  7 16  2  0  0  0  0
  8 15  1  0  0  0  0
  8  9  1  0  0  0  0
  9 10  1  0  0  0  0
  9 36  1  0  0  0  0
  9 37  1  0  0  0  0
 10 11  1  0  0  0  0
 10 12  1  0  0  0  0
 10 38  1  0  0  0  0
 11 39  1  0  0  0  0
 11 40  1  0  0  0  0
 11 41  1  0  0  0  0
 12 13  1  0  0  0  0
 12 42  1  0  0  0  0
 12 43  1  0  0  0  0
 13 14  1  0  0  0  0
 13 15  1  0  0  0  0
 13 44  1  0  0  0  0
 14 45  1  0  0  0  0
 14 46  1  0  0  0  0
 14 47  1  0  0  0  0
 15 48  1  0  0  0  0
 15 49  1  0  0  0  0
 16 17  1  0  0  0  0
 17 24  1  0  0  0  0
 17 18  2  0  0  0  0
 18 19  1  0  0  0  0
 19 20  2  0  0  0  0
 19 21  1  0  0  0  0
 21 26  1  0  0  0  0
 21 22  1  0  0  0  0
 22 23  2  0  0  0  0
 22 24  1  0  0  0  0
 24 25  1  0  0  0  0
 25 50  1  0  0  0  0
 25 51  1  0  0  0  0
 25 52  1  0  0  0  0
M  END
> <s_m_source_file>
AV-unprocessed.smi

> <i_m_source_file_index>
546

> <i_lp_mmshare_version>
43012

> <i_f3d_flags>
0

> <s_epik_input>
W0NIM11uMWMoPU8pW25IXWMoPU8pYyhjMTIpbihbQ0gyXVtDSDJdT1tDSDJdW0NIM10pYyhuMilOM1tDSDJdW0NAQEhdKFtDSDNdKVtDSDJdW0NAQEhdKFtDSDNdKVtDSDJdMw==

> <s_epik_cmdline>
J2VwaWtfcHl0aG9uJywgJy1waCcsICc3LjAnLCAnLXRuJywgJzgnLCAnLW1hJywgJzIwMCcsICctbWV0YWxfYmluZGluZycsICctaW1hZScsICc8aW5maWxlLm1hZT4nLCAnLW9tYWUnLCAnPG91dGZpbGUubWFlPic=

> <r_lp_tautomer_probability>
1

> <r_epik_Ionization_Penalty>
0.000576472

> <r_epik_Ionization_Penalty_Charging>
0.000118943

> <r_epik_Ionization_Penalty_Neutral>
0.000457529

> <r_epik_State_Penalty>
-0

> <r_epik_Charging_Adjusted_Penalty>
0.000118943

> <i_epik_Tot_Q>
0

> <i_epik_Tot_abs_Q>
0

> <r_epik_Metal_State_Penalty>
0.0916165

> <b_epik_Metal_Only>
0

> <s_lp_Force_Field>
OPLS_2005

> <r_lp_Energy>
39.3864

> <b_lp_Chiralities_Consistent>
1

> <s_lp_Variant>
AV-unprocessed.smi:546-3

> <Gold.Version>
5.8.1

> <Gold.Id.Protein>
6NUR|6NUR_protein|mol2

> <Gold.PLP.Fitness>
38.5597

> <Gold.PLP.PLP>
-34.0679

> <Gold.PLP.part.hbond>
-3.0000

> <Gold.PLP.part.metal>
0.0000

> <Gold.PLP.part.buried>
-5.6193

> <Gold.PLP.part.nonpolar>
-25.9245

> <Gold.PLP.part.repulsive>
0.1594

> <Gold.PLP.ligand.clash>
0.0000

> <Gold.PLP.ligand.torsion>
1.0531

> <Gold.PLP.Chemscore.Hbond>
2.0281

> <Gold.PLP.Chemscore.CHOScore>
0.0000

> <Gold.PLP.Chemscore.Metal>
0.0000

> <Gold.Chemscore.Hbonds>
donor molecule, donor type, donor heavy atom, donor atom, acceptor molecule, acceptor atom, score
      P1  H  6896  6907       L1     3  0.39
      P1  H  6931  6943       L1    16  0.02
      P1  H  7997  8008       L1    23  1.00

> <Gold.PLP.Chemscore.Internal.Correction>
0.5136

> <Gold.Rescore>
     Score         DG    S(hbond)    S(metal)    S(lipo)     H(rot)  DE(clash)    DE(int)     intcor
     12.42     -16.56       1.86        0.00      75.53       1.55       0.05       4.08       ----

> <Gold.Chemscore.Fitness>
12.4230

> <Gold.Chemscore.DG>
-16.5565

> <Gold.Chemscore.ZeroCoef>
-5.4800

> <Gold.Chemscore.Hbond>
1.8559

> <Gold.Chemscore.Metal>
0.0000

> <Gold.Chemscore.Lipo>
75.5292

> <Gold.Chemscore.Internal_Hbond>
0.0000

> <Gold.Chemscore.DEClash>
0.0536

> <Gold.Chemscore.DEInternal>
4.0799

> <Gold.Chemscore.Rot>
1.5465

> <Gold.Chemscore.Internal.Correction>
   9.000000E+99

> <Gold.Chemscore.Hbonds>
donor molecule, donor type, donor heavy atom, donor atom, acceptor molecule, acceptor atom, score
      P1  H  6896  6907       L1     3  0.27
      P1  H  6931  6943       L1    16  0.01
      P1  H  7997  8008       L1    23  1.00

> <Gold.Chemscore.Hbond.Weighted>
-6.1987

> <Gold.Chemscore.Metal.Weighted>
-0.0000

> <Gold.Chemscore.Lipo.Weighted>
-8.8369

> <Gold.Chemscore.Internal_Hbond.Weighted>
0.0000

> <Gold.Chemscore.DEClash.Weighted>
0.0536

> <Gold.Chemscore.DEInternal.Weighted>
4.0799

> <Gold.Chemscore.Rot.Weighted>
3.9591

> <Gold.Chemscore.Internal.Correction.Weighted>
   9.000000E+99

> <Gold.Protein.RotatedTorsions>
[ 6907 6896 6895 6894 ] final -109.96 input  -60.11 | X-H torsion
[ 7974 7965 7964 7962 ] final -153.40 input  175.53 | X-H torsion
[ 8008 7997 7996 7995 ] final  -46.03 input   59.86 | X-H torsion
[ 10167 10162 10161 10158 ] final   67.75 input  -65.29 | X-H torsion
[ 10718 10713 10712 10709 ] final -166.10 input   66.30 | X-H torsion
[ 10763 10752 10751 10750 ] final  123.44 input  -60.55 | X-H torsion
[ 11005 11000 10999 10996 ] final  -16.38 input  -57.11 | X-H torsion

> <Gold.Protein.ActiveResidues>
 VAL166  LYS551  ARG553  GLY616  TRP617  ASP618  TYR619  PRO620  LYS621  CYS622 
 ASP623  PHE694  ASN695  SER759  ASP760  ASP761  ALA762  ILE779  LEU786  VAL792 
 PHE793  MET794  SER795  GLU796  ALA797  LYS798  CYS799  TRP800  GLU811  SER814 

> <Gold.Protein.RotatedAtoms>
  150.7594  133.9453  159.3468 H   0  0  0  0  0  0  0  0  0  0  0  0  # atno 6907 bound_to 6896
  151.7365  135.0861  160.0318 H   0  0  0  0  0  0  0  0  0  0  0  0  # atno 6908 bound_to 6896
  152.3556  133.6196  159.6013 H   0  0  0  0  0  0  0  0  0  0  0  0  # atno 6909 bound_to 6896
  144.7742  140.4530  143.5885 H   0  0  0  0  0  0  0  0  0  0  0  0  # atno 7974 bound_to 7965
  154.4004  140.1382  156.3945 H   0  0  0  0  0  0  0  0  0  0  0  0  # atno 8008 bound_to 7997
  155.7883  140.3479  155.5314 H   0  0  0  0  0  0  0  0  0  0  0  0  # atno 8009 bound_to 7997
  155.8605  140.0956  157.1607 H   0  0  0  0  0  0  0  0  0  0  0  0  # atno 8010 bound_to 7997
  140.0862  144.5028  150.7129 H   0  0  0  0  0  0  0  0  0  0  0  0  # atno 10167 bound_to 10162
  156.6629  130.9053  151.3032 H   0  0  0  0  0  0  0  0  0  0  0  0  # atno 10718 bound_to 10713
  153.6456  135.3372  155.3084 H   0  0  0  0  0  0  0  0  0  0  0  0  # atno 10763 bound_to 10752
  154.8549  135.4328  154.1959 H   0  0  0  0  0  0  0  0  0  0  0  0  # atno 10764 bound_to 10752
  153.2888  135.7015  153.7387 H   0  0  0  0  0  0  0  0  0  0  0  0  # atno 10765 bound_to 10752
  140.8062  133.8176  155.9518 H   0  0  0  0  0  0  0  0  0  0  0  0  # atno 11005 bound_to 11000
  145.6233  139.1527  143.3010 LP  0  0  0  0  0  0  0  0  0  0  0  0  # atno 17320 bound_to 7965
  146.1911  140.6342  142.9145 LP  0  0  0  0  0  0  0  0  0  0  0  0  # atno 17321 bound_to 7965
  140.7052  143.2463  151.4747 LP  0  0  0  0  0  0  0  0  0  0  0  0  # atno 17342 bound_to 10162
  139.5751  144.1838  152.1891 LP  0  0  0  0  0  0  0  0  0  0  0  0  # atno 17343 bound_to 10162
  157.7103  130.9433  150.1068 LP  0  0  0  0  0  0  0  0  0  0  0  0  # atno 17370 bound_to 10713
  156.1997  130.3659  149.8804 LP  0  0  0  0  0  0  0  0  0  0  0  0  # atno 17371 bound_to 10713
  140.9244  134.2101  157.4905 LP  0  0  0  0  0  0  0  0  0  0  0  0  # atno 17394 bound_to 11000
  139.8717  134.9806  156.5083 LP  0  0  0  0  0  0  0  0  0  0  0  0  # atno 17395 bound_to 11000

$$$$
