#       Name:                AV-unprocessed.smi:25
#       Creating user name   scv26
#       Creation time:       Thu Mar 26 15:44:17 2020


#       File generated by GOLD software.
#

@<TRIPOS>MOLECULE
AV-unprocessed.smi:25
    55    58     1
SMALL
NO_CHARGES


@<TRIPOS>ATOM
      1 ****        -3.4273  -1.9385  -2.0545 C.3            1 S1                 0.0000
      2 ****        -2.7346  -2.3415  -0.7374 C.3            1 S1                 0.0000
      3 ****        -2.9236  -3.8456  -0.4374 C.3            1 S1                 0.0000
      4 ****        -1.5289  -4.3857  -0.5071 C.ar           1 S1                 0.0000
      5 ****        -1.1611  -5.7377  -0.3942 C.ar           1 S1                 0.0000
      6 ****         0.2028  -6.0718  -0.5093 C.ar           1 S1                 0.0000
      7 ****         1.1621  -5.0619  -0.7418 C.ar           1 S1                 0.0000
      8 ****         0.7737  -3.7088  -0.8540 C.ar           1 S1                 0.0000
      9 ****        -0.5953  -3.3724  -0.7207 C.ar           1 S1                 0.0000
     10 ****        -1.2712  -2.1157  -0.7884 N.am           1 S1                 0.0000
     11 ****        -0.7658  -0.8520  -0.7368 C.2            1 S1                 0.0000
     12 ****        -1.5128   0.1260  -0.6523 O.2            1 S1                 0.0000
     13 ****         0.7536  -0.5954  -0.7519 C.3            1 S1                 0.0000
     14 ****         1.1204   0.8363  -0.6465 N.am           1 S1                 0.0000
     15 ****         1.2417   1.5979  -1.8364 C.2            1 S1                 0.0000
     16 ****         1.0570   1.0888  -2.9429 O.2            1 S1                 0.0000
     17 ****         1.5822   3.0043  -1.6533 C.2            1 S1                 0.0000
     18 ****         1.7114   3.8031  -2.7261 F              1 S1                 0.0000
     19 ****         1.7650   3.5198  -0.4207 C.2            1 S1                 0.0000
     20 ****         1.6457   2.7650   0.7316 N.am           1 S1                 0.0000
     21 ****         1.8396   3.3827   2.0985 C.3            1 S1                 0.0000
     22 ****         0.4985   3.8796   2.6502 C.3            1 S1                 0.0000
     23 ****         0.5127   5.3365   2.2410 C.3            1 S1                 0.0000
     24 ****         1.9935   5.6757   2.3674 C.3            1 S1                 0.0000
     25 ****         2.6857   4.4908   1.9827 O.3            1 S1                 0.0000
     26 ****         1.3021   1.3988   0.6401 C.2            1 S1                 0.0000
     27 ****         1.1520   0.7183   1.6573 O.2            1 S1                 0.0000
     28 ****        -4.4938  -2.1618  -2.0163 H              1 S1                 0.0000
     29 ****        -3.0054  -2.4785  -2.9028 H              1 S1                 0.0000
     30 ****        -3.3298  -0.8726  -2.2591 H              1 S1                 0.0000
     31 ****        -3.1696  -1.7685   0.0836 H              1 S1                 0.0000
     32 ****        -3.3319  -4.0068   0.5609 H              1 S1                 0.0000
     33 ****        -3.5677  -4.3474  -1.1607 H              1 S1                 0.0000
     34 ****        -1.9053  -6.5028  -0.2283 H              1 S1                 0.0000
     35 ****         0.5143  -7.1027  -0.4278 H              1 S1                 0.0000
     36 ****         2.2043  -5.3280  -0.8397 H              1 S1                 0.0000
     37 ****         1.5486  -2.9904  -1.0500 H              1 S1                 0.0000
     38 ****         1.2151  -1.1557   0.0616 H              1 S1                 0.0000
     39 ****         1.1635  -1.0108  -1.6724 H              1 S1                 0.0000
     40 ****         2.0077   4.5691  -0.3454 H              1 S1                 0.0000
     41 ****         2.3181   2.6202   2.7152 H              1 S1                 0.0000
     42 ****        -0.3491   3.3152   2.2593 H              1 S1                 0.0000
     43 ****         0.5140   3.7880   3.7369 H              1 S1                 0.0000
     44 ****         0.1859   5.4419   1.2059 H              1 S1                 0.0000
     45 ****        -0.1232   5.9641   2.8659 H              1 S1                 0.0000
     46 ****         2.2842   6.5272   1.7522 H              1 S1                 0.0000
     47 ****         2.2425   5.9040   3.4044 H              1 S1                 0.0000
     48 ****        -2.5040  -0.0031  -0.6208 LP             1 S1                 0.0000
     49 ****        -1.1273   1.0479  -0.6153 LP             1 S1                 0.0000
     50 ****         0.8165   0.1207  -3.0141 LP             1 S1                 0.0000
     51 ****         1.1475   1.6436  -3.7700 LP             1 S1                 0.0000
     52 ****         2.9891   4.5779   1.0338 LP             1 S1                 0.0000
     53 ****         3.4803   4.3641   2.5764 LP             1 S1                 0.0000
     54 ****         0.8982  -0.2459   1.5809 LP             1 S1                 0.0000
     55 ****         1.2840   1.1306   2.5587 LP             1 S1                 0.0000
@<TRIPOS>BOND
    1    1    2 1     
    2    1   28 1     
    3    1   29 1     
    4    1   30 1     
    5    2   10 1     
    6    2    3 1     
    7    2   31 1     
    8    3    4 1     
    9    3   32 1     
   10    3   33 1     
   11    4    9 ar    
   12    4    5 ar    
   13    5    6 ar    
   14    5   34 1     
   15    6    7 ar    
   16    6   35 1     
   17    7    8 ar    
   18    7   36 1     
   19    8    9 ar    
   20    8   37 1     
   21    9   10 1     
   22   10   11 am    
   23   11   12 2     
   24   11   13 1     
   25   13   14 1     
   26   13   38 1     
   27   13   39 1     
   28   14   26 am    
   29   14   15 am    
   30   15   16 2     
   31   15   17 1     
   32   17   18 1     
   33   17   19 2     
   34   19   20 1     
   35   19   40 1     
   36   20   21 1     
   37   20   26 am    
   38   21   25 1     
   39   21   22 1     
   40   21   41 1     
   41   22   23 1     
   42   22   42 1     
   43   22   43 1     
   44   23   24 1     
   45   23   44 1     
   46   23   45 1     
   47   24   25 1     
   48   24   46 1     
   49   24   47 1     
   50   26   27 2     
   51   12   48 1     
   52   12   49 1     
   53   16   50 1     
   54   16   51 1     
   55   25   52 1     
   56   25   53 1     
   57   27   54 1     
   58   27   55 1     
@<TRIPOS>SUBSTRUCTURE
      1 S1             1
@<TRIPOS>SET
LONE_PAIRS      STATIC     ATOMS    <user>   **** ""
8 48 49 50 51 52 53 54 55
ATOM$BLUE        STATIC     ATOMS    COLORGROUP SYSTEM
8 48 49 50 51 52 53 54 55
