#       Name:                AV-unprocessed.smi:1423
#       Creating user name   scv26
#       Creation time:       Fri Mar 27 05:44:41 2020


#       File generated by GOLD software.
#

@<TRIPOS>MOLECULE
AV-unprocessed.smi:1423
    51    52     1
SMALL
NO_CHARGES


@<TRIPOS>ATOM
      1 ****        -7.8789   1.5777   0.3097 C.3            1 S1                 0.0000
      2 ****        -7.3274   0.2702   0.2002 O.3            1 S1                 0.0000
      3 ****        -5.9750   0.1479  -0.0446 C.ar           1 S1                 0.0000
      4 ****        -5.4252  -1.1440  -0.1605 C.ar           1 S1                 0.0000
      5 ****        -4.0456  -1.2788  -0.4072 C.ar           1 S1                 0.0000
      6 ****        -3.2533  -0.1111  -0.5222 C.ar           1 S1                 0.0000
      7 ****        -1.8548  -0.1063  -0.7806 N.am           1 S1                 0.0000
      8 ****        -0.9682  -1.1071  -0.6414 C.2            1 S1                 0.0000
      9 ****        -1.2278  -2.2415  -0.2422 O.2            1 S1                 0.0000
     10 ****         0.2674  -0.7109  -0.9805 N.am           1 S1                 0.0000
     11 ****         1.4605  -1.5573  -0.9576 C.3            1 S1                 0.0000
     12 ****         2.0066  -1.7472   0.4722 C.3            1 S1                 0.0000
     13 ****         2.6514  -0.4623   1.0196 C.3            1 S1                 0.0000
     14 ****         3.7222   0.0262   0.1105 N.4            1 S1                 1.0000
     15 ****         4.4780   1.1794   0.6643 C.3            1 S1                 0.0000
     16 ****         5.5022   0.7718   1.7290 C.2            1 S1                 0.0000
     17 ****         5.9810   1.7456   2.5064 N.am           1 S1                 0.0000
     18 ****         5.8690  -0.3965   1.8420 O.2            1 S1                 0.0000
     19 ****         3.1986   0.2924  -1.2534 C.3            1 S1                 0.0000
     20 ****         2.5585  -0.9694  -1.8613 C.3            1 S1                 0.0000
     21 ****        -3.9040   1.1348  -0.4037 C.ar           1 S1                 0.0000
     22 ****        -5.2256   1.2712  -0.1679 N.ar           1 S1                 0.0000
     23 ****        -8.9470   1.5023   0.5133 H              1 S1                 0.0000
     24 ****        -7.7575   2.1397  -0.6174 H              1 S1                 0.0000
     25 ****        -7.4249   2.1364   1.1292 H              1 S1                 0.0000
     26 ****        -6.0525  -2.0179  -0.0651 H              1 S1                 0.0000
     27 ****        -3.6337  -2.2699  -0.5127 H              1 S1                 0.0000
     28 ****        -1.4745   0.7857  -1.0610 H              1 S1                 0.0000
     29 ****         0.3874   0.2398  -1.2982 H              1 S1                 0.0000
     30 ****         1.1828  -2.5338  -1.3591 H              1 S1                 0.0000
     31 ****         1.2186  -2.0866   1.1455 H              1 S1                 0.0000
     32 ****         2.7544  -2.5414   0.4643 H              1 S1                 0.0000
     33 ****         1.8961   0.3145   1.1485 H              1 S1                 0.0000
     34 ****         3.0617  -0.6654   2.0092 H              1 S1                 0.0000
     35 ****         5.0382   1.6686  -0.1337 H              1 S1                 0.0000
     36 ****         3.7871   1.9239   1.0636 H              1 S1                 0.0000
     37 ****         6.6550   1.5351   3.2286 H              1 S1                 0.0000
     38 ****         5.6627   2.6952   2.3732 H              1 S1                 0.0000
     39 ****         2.4743   1.1075  -1.2138 H              1 S1                 0.0000
     40 ****         4.0111   0.6236  -1.9011 H              1 S1                 0.0000
     41 ****         3.3346  -1.7211  -2.0122 H              1 S1                 0.0000
     42 ****         2.1567  -0.7481  -2.8510 H              1 S1                 0.0000
     43 ****        -3.3459   2.0553  -0.4965 H              1 S1                 0.0000
     44 ****         4.3922  -0.7243   0.0156 H              1 S1                 0.0000
     45 ****        -7.8062  -0.1912  -0.5467 LP             1 S1                 0.0000
     46 ****        -7.5164  -0.2036   1.0604 LP             1 S1                 0.0000
     47 ****        -2.1654  -2.4803   0.0105 LP             1 S1                 0.0000
     48 ****        -0.5012  -2.9247  -0.1703 LP             1 S1                 0.0000
     49 ****         5.4981  -1.0981   1.2336 LP             1 S1                 0.0000
     50 ****         6.5382  -0.6449   2.5424 LP             1 S1                 0.0000
     51 ****        -5.6414   2.1770  -0.0862 LP             1 S1                 0.0000
@<TRIPOS>BOND
    1    1    2 1     
    2    1   23 1     
    3    1   24 1     
    4    1   25 1     
    5    2    3 1     
    6    3   22 ar    
    7    3    4 ar    
    8    4    5 ar    
    9    4   26 1     
   10    5    6 ar    
   11    5   27 1     
   12    6    7 1     
   13    6   21 ar    
   14    7    8 am    
   15    7   28 1     
   16    8    9 2     
   17    8   10 am    
   18   10   11 1     
   19   10   29 1     
   20   11   20 1     
   21   11   12 1     
   22   11   30 1     
   23   12   13 1     
   24   12   31 1     
   25   12   32 1     
   26   13   14 1     
   27   13   33 1     
   28   13   34 1     
   29   14   15 1     
   30   14   19 1     
   31   14   44 1     
   32   15   16 1     
   33   15   35 1     
   34   15   36 1     
   35   16   17 am    
   36   16   18 2     
   37   17   37 1     
   38   17   38 1     
   39   19   20 1     
   40   19   39 1     
   41   19   40 1     
   42   20   41 1     
   43   20   42 1     
   44   21   22 ar    
   45   21   43 1     
   46    2   45 1     
   47    2   46 1     
   48    9   47 1     
   49    9   48 1     
   50   18   49 1     
   51   18   50 1     
   52   22   51 1     
@<TRIPOS>SUBSTRUCTURE
      1 S1             1
@<TRIPOS>SET
LONE_PAIRS      STATIC     ATOMS    <user>   **** ""
7 45 46 47 48 49 50 51
DONOR_HYDROGENS      STATIC     ATOMS    <user>   **** ""
5 28 29 44 37 38
ATOM$BLUE        STATIC     ATOMS    COLORGROUP SYSTEM
7 45 46 47 48 49 50 51
ATOM$RED        STATIC     ATOMS    COLORGROUP SYSTEM
5 28 29 44 37 38
