AV-unprocessed.smi:2566|AV-procd|sdf|10073|dock5
  -GOLD-   2272014103D 1   1.00000     0.00000
 Structure written by MMmdl.
 21 22  0  0  0  0  0  0  0  0  2 V2000
  152.5015  138.4761  154.5812 C   0  0  0  0  0  0  0  0  0  0  0  0
  151.7644  139.5718  154.7343 N   0  0  0  0  0  0  0  0  0  0  0  0
  150.5094  139.0391  154.7417 C   0  0  0  0  0  0  0  0  0  0  0  0
  149.2695  139.8555  154.9364 C   0  0  1  0  0  0  0  0  0  0  0  0
  149.5681  141.3661  154.9864 C   0  0  0  0  0  0  0  0  0  0  0  0
  148.3054  142.1248  155.0793 N   0  3  0  0  0  0  0  0  0  0  0  0
  147.3819  141.7730  153.9822 C   0  0  0  0  0  0  0  0  0  0  0  0
  147.1572  140.2506  153.9435 C   0  0  0  0  0  0  0  0  0  0  0  0
  148.4085  139.5798  153.8331 O   0  0  0  0  0  0  0  0  0  0  0  0
  150.4426  137.7163  154.6387 N   0  0  0  0  0  0  0  0  0  0  0  0
  151.7854  137.3298  154.5168 O   0  0  0  0  0  0  0  0  0  0  0  0
  153.5798  138.4701  154.5188 H   0  0  0  0  0  0  0  0  0  0  0  0
  148.7815  139.5372  155.8600 H   0  0  0  0  0  0  0  0  0  0  0  0
  150.1993  141.6080  155.8419 H   0  0  0  0  0  0  0  0  0  0  0  0
  150.1055  141.6783  154.0895 H   0  0  0  0  0  0  0  0  0  0  0  0
  147.8605  141.9068  155.9597 H   0  0  0  0  0  0  0  0  0  0  0  0
  146.4366  142.2978  154.1220 H   0  0  0  0  0  0  0  0  0  0  0  0
  147.8033  142.1151  153.0361 H   0  0  0  0  0  0  0  0  0  0  0  0
  146.6292  139.9121  154.8365 H   0  0  0  0  0  0  0  0  0  0  0  0
  146.5372  139.9842  153.0873 H   0  0  0  0  0  0  0  0  0  0  0  0
  148.5043  143.1148  155.0479 H   0  0  0  0  0  0  0  0  0  0  0  0
  1 11  1  0  0  0  0
  1  2  2  0  0  0  0
  1 12  1  0  0  0  0
  2  3  1  0  0  0  0
  3  4  1  0  0  0  0
  3 10  2  0  0  0  0
  4  9  1  0  0  0  0
  4  5  1  0  0  0  0
  4 13  1  0  0  0  0
  5  6  1  0  0  0  0
  5 14  1  0  0  0  0
  5 15  1  0  0  0  0
  6  7  1  0  0  0  0
  6 16  1  0  0  0  0
  6 21  1  0  0  0  0
  7  8  1  0  0  0  0
  7 17  1  0  0  0  0
  7 18  1  0  0  0  0
  8  9  1  0  0  0  0
  8 19  1  0  0  0  0
  8 20  1  0  0  0  0
 10 11  1  0  0  0  0
M  CHG  1   6   1
M  END
> <s_m_source_file>
AV-unprocessed.smi

> <i_m_source_file_index>
2566

> <i_lp_mmshare_version>
43012

> <i_f3d_flags>
0

> <s_epik_input>
bjFvW2NIXW5jMVtDQEBIXTJbQ0gyXVtOSF1bQ0gyXVtDSDJdTzI=

> <s_epik_cmdline>
J2VwaWtfcHl0aG9uJywgJy1waCcsICc3LjAnLCAnLXRuJywgJzgnLCAnLW1hJywgJzIwMCcsICctbWV0YWxfYmluZGluZycsICctaW1hZScsICc8aW5maWxlLm1hZT4nLCAnLW9tYWUnLCAnPG91dGZpbGUubWFlPic=

> <r_lp_tautomer_probability>
1

> <r_epik_Ionization_Penalty>
0.157575

> <r_epik_Ionization_Penalty_Charging>
0.157575

> <r_epik_Ionization_Penalty_Neutral>
8.82756e-14

> <r_epik_State_Penalty>
0.146877

> <r_epik_Charging_Adjusted_Penalty>
0.304452

> <i_epik_Tot_Q>
1

> <i_epik_Tot_abs_Q>
1

> <r_epik_Metal_State_Penalty>
0.146877

> <b_epik_Metal_Only>
0

> <s_lp_Force_Field>
OPLS_2005

> <r_lp_Energy>
9.76896

> <b_lp_Chiralities_Consistent>
1

> <s_lp_Variant>
AV-unprocessed.smi:2566-2

> <Gold.Version>
5.8.1

> <Gold.Id.Protein>
6NUR|6NUR_protein|mol2

> <Gold.PLP.Fitness>
32.8806

> <Gold.PLP.PLP>
-20.9868

> <Gold.PLP.part.hbond>
-3.0000

> <Gold.PLP.part.metal>
0.0000

> <Gold.PLP.part.buried>
-5.5838

> <Gold.PLP.part.nonpolar>
-14.4314

> <Gold.PLP.part.repulsive>
1.9923

> <Gold.PLP.ligand.clash>
0.0000

> <Gold.PLP.ligand.torsion>
0.0356

> <Gold.PLP.Chemscore.Hbond>
3.9833

> <Gold.PLP.Chemscore.CHOScore>
0.0000

> <Gold.PLP.Chemscore.Metal>
0.0000

> <Gold.Chemscore.Hbonds>
donor molecule, donor type, donor heavy atom, donor atom, acceptor molecule, acceptor atom, score
      L1  H     6    21       P1  8028  2.00
      P1  H  7989  7998       L1     2  1.00
      P1  H 10752 10763       L1    11  0.97

> <Gold.PLP.Chemscore.Internal.Correction>
0.0151

> <Gold.Rescore>
     Score         DG    S(hbond)    S(metal)    S(lipo)     H(rot)  DE(clash)    DE(int)     intcor
     13.72     -14.18       2.51        0.00      24.58       1.00       0.36       0.11       ----

> <Gold.Chemscore.Fitness>
13.7161

> <Gold.Chemscore.DG>
-14.1768

> <Gold.Chemscore.ZeroCoef>
-5.4800

> <Gold.Chemscore.Hbond>
2.5091

> <Gold.Chemscore.Metal>
0.0000

> <Gold.Chemscore.Lipo>
24.5837

> <Gold.Chemscore.Internal_Hbond>
0.0000

> <Gold.Chemscore.DEClash>
0.3550

> <Gold.Chemscore.DEInternal>
0.1057

> <Gold.Chemscore.Rot>
1.0000

> <Gold.Chemscore.Internal.Correction>
   9.000000E+99

> <Gold.Chemscore.Hbonds>
donor molecule, donor type, donor heavy atom, donor atom, acceptor molecule, acceptor atom, score
      L1  H     6    21       P1  8028  0.99
      P1  H  7989  7998       L1     2  0.43
      P1  H 10752 10763       L1    11  0.74

> <Gold.Chemscore.Hbond.Weighted>
-8.3805

> <Gold.Chemscore.Metal.Weighted>
-0.0000

> <Gold.Chemscore.Lipo.Weighted>
-2.8763

> <Gold.Chemscore.Internal_Hbond.Weighted>
0.0000

> <Gold.Chemscore.DEClash.Weighted>
0.3550

> <Gold.Chemscore.DEInternal.Weighted>
0.1057

> <Gold.Chemscore.Rot.Weighted>
2.5600

> <Gold.Chemscore.Internal.Correction.Weighted>
   9.000000E+99

> <Gold.Protein.RotatedTorsions>
[ 6907 6896 6895 6894 ] final -104.28 input  -60.11 | X-H torsion
[ 7974 7965 7964 7962 ] final   96.56 input  175.53 | X-H torsion
[ 8008 7997 7996 7995 ] final -138.14 input   59.86 | X-H torsion
[ 10167 10162 10161 10158 ] final -125.27 input  -65.29 | X-H torsion
[ 10718 10713 10712 10709 ] final   -1.35 input   66.30 | X-H torsion
[ 10763 10752 10751 10750 ] final   39.66 input  -60.55 | X-H torsion
[ 11005 11000 10999 10996 ] final   49.01 input  -57.11 | X-H torsion

> <Gold.Protein.ActiveResidues>
 VAL166  LYS551  ARG553  GLY616  TRP617  ASP618  TYR619  PRO620  LYS621  CYS622 
 ASP623  PHE694  ASN695  SER759  ASP760  ASP761  ALA762  ILE779  LEU786  VAL792 
 PHE793  MET794  SER795  GLU796  ALA797  LYS798  CYS799  TRP800  GLU811  SER814 

> <Gold.Protein.RotatedAtoms>
  150.7280  134.0302  159.3730 H   0  0  0  0  0  0  0  0  0  0  0  0  # atno 6907 bound_to 6896
  151.8270  135.0631  160.0441 H   0  0  0  0  0  0  0  0  0  0  0  0  # atno 6908 bound_to 6896
  152.2961  133.5573  159.5625 H   0  0  0  0  0  0  0  0  0  0  0  0  # atno 6909 bound_to 6896
  145.4372  139.2304  143.3112 H   0  0  0  0  0  0  0  0  0  0  0  0  # atno 7974 bound_to 7965
  155.4234  140.0520  157.3024 H   0  0  0  0  0  0  0  0  0  0  0  0  # atno 8008 bound_to 7997
  154.4892  140.2113  155.9545 H   0  0  0  0  0  0  0  0  0  0  0  0  # atno 8009 bound_to 7997
  156.1318  140.3170  155.8366 H   0  0  0  0  0  0  0  0  0  0  0  0  # atno 8010 bound_to 7997
  139.9839  143.5712  152.2368 H   0  0  0  0  0  0  0  0  0  0  0  0  # atno 10167 bound_to 10162
  156.8069  130.5411  149.5714 H   0  0  0  0  0  0  0  0  0  0  0  0  # atno 10718 bound_to 10713
  152.9960  135.6214  154.2501 H   0  0  0  0  0  0  0  0  0  0  0  0  # atno 10763 bound_to 10752
  154.2239  135.2795  155.2916 H   0  0  0  0  0  0  0  0  0  0  0  0  # atno 10764 bound_to 10752
  154.5505  135.5734  153.6976 H   0  0  0  0  0  0  0  0  0  0  0  0  # atno 10765 bound_to 10752
  140.1141  134.4916  155.8652 H   0  0  0  0  0  0  0  0  0  0  0  0  # atno 11005 bound_to 11000
  146.2576  140.5116  142.8867 LP  0  0  0  0  0  0  0  0  0  0  0  0  # atno 17320 bound_to 7965
  144.8145  140.6443  143.6393 LP  0  0  0  0  0  0  0  0  0  0  0  0  # atno 17321 bound_to 7965
  139.6389  144.7653  151.2380 LP  0  0  0  0  0  0  0  0  0  0  0  0  # atno 17342 bound_to 10162
  140.7479  143.6351  150.8387 LP  0  0  0  0  0  0  0  0  0  0  0  0  # atno 17343 bound_to 10162
  156.1067  130.6010  150.9982 LP  0  0  0  0  0  0  0  0  0  0  0  0  # atno 17370 bound_to 10713
  157.6525  131.0894  150.8019 LP  0  0  0  0  0  0  0  0  0  0  0  0  # atno 17371 bound_to 10713
  141.2137  133.6737  156.6762 LP  0  0  0  0  0  0  0  0  0  0  0  0  # atno 17394 bound_to 11000
  140.3052  134.8131  157.4131 LP  0  0  0  0  0  0  0  0  0  0  0  0  # atno 17395 bound_to 11000

$$$$
