AV-unprocessed.smi:452|AV-procd|sdf|2610|dock9
  -GOLD-   2262023 13D 1   1.00000     0.00000
 Structure written by MMmdl.
 43 44  0  0  0  0  0  0  0  0  1 V2000
  155.8095  135.4081  164.2304 C   0  0  0  0  0  0  0  0  0  0  0  0
  154.5520  134.6496  163.7782 C   0  0  0  0  0  0  0  0  0  0  0  0
  153.9982  133.8021  164.9364 C   0  0  0  0  0  0  0  0  0  0  0  0
  154.8464  133.8096  162.5179 C   0  0  0  0  0  0  0  0  0  0  0  0
  155.6345  134.5641  161.4281 C   0  0  0  0  0  0  0  0  0  0  0  0
  154.8995  135.8104  160.9237 C   0  0  0  0  0  0  0  0  0  0  0  0
  153.9986  135.6949  160.0924 O   0  0  0  0  0  0  0  0  0  0  0  0
  155.3143  136.9814  161.4434 N   0  0  0  0  0  0  0  0  0  0  0  0
  154.8232  138.2874  161.1793 C   0  0  0  0  0  0  0  0  0  0  0  0
  155.0397  139.2263  162.2121 C   0  0  0  0  0  0  0  0  0  0  0  0
  154.5844  140.5490  162.0532 C   0  0  0  0  0  0  0  0  0  0  0  0
  153.9255  140.9072  160.8617 C   0  0  0  0  0  0  0  0  0  0  0  0
  153.4539  142.2167  160.6922 N   0  0  0  0  0  0  0  0  0  0  0  0
  152.5779  142.6475  161.7744 C   0  0  0  0  0  0  0  0  0  0  0  0
  152.2013  144.1283  161.5906 C   0  0  0  0  0  0  0  0  0  0  0  0
  151.6138  144.3174  160.3062 O   0  0  0  0  0  0  0  0  0  0  0  0
  152.5064  143.9645  159.2532 C   0  0  0  0  0  0  0  0  0  0  0  0
  152.8846  142.4778  159.3756 C   0  0  0  0  0  0  0  0  0  0  0  0
  153.7548  139.9054  159.8806 C   0  0  0  0  0  0  0  0  0  0  0  0
  154.1886  138.6367  160.0331 N   0  0  0  0  0  0  0  0  0  0  0  0
  156.6113  134.7194  164.4992 H   0  0  0  0  0  0  0  0  0  0  0  0
  155.6019  136.0328  165.0996 H   0  0  0  0  0  0  0  0  0  0  0  0
  156.1824  136.0611  163.4409 H   0  0  0  0  0  0  0  0  0  0  0  0
  153.7999  135.3964  163.5195 H   0  0  0  0  0  0  0  0  0  0  0  0
  154.6928  133.0085  165.2132 H   0  0  0  0  0  0  0  0  0  0  0  0
  153.0456  133.3393  164.6814 H   0  0  0  0  0  0  0  0  0  0  0  0
  153.8270  134.4152  165.8217 H   0  0  0  0  0  0  0  0  0  0  0  0
  155.4183  132.9291  162.8152 H   0  0  0  0  0  0  0  0  0  0  0  0
  153.9100  133.4327  162.1037 H   0  0  0  0  0  0  0  0  0  0  0  0
  156.6138  134.8581  161.8065 H   0  0  0  0  0  0  0  0  0  0  0  0
  155.8138  133.9064  160.5770 H   0  0  0  0  0  0  0  0  0  0  0  0
  156.0628  136.9282  162.1184 H   0  0  0  0  0  0  0  0  0  0  0  0
  155.5460  138.9394  163.1223 H   0  0  0  0  0  0  0  0  0  0  0  0
  154.7392  141.2753  162.8377 H   0  0  0  0  0  0  0  0  0  0  0  0
  151.6755  142.0346  161.7846 H   0  0  0  0  0  0  0  0  0  0  0  0
  153.0763  142.5055  162.7341 H   0  0  0  0  0  0  0  0  0  0  0  0
  151.4882  144.4326  162.3568 H   0  0  0  0  0  0  0  0  0  0  0  0
  153.0785  144.7685  161.6984 H   0  0  0  0  0  0  0  0  0  0  0  0
  152.0199  144.1520  158.2960 H   0  0  0  0  0  0  0  0  0  0  0  0
  153.3953  144.5966  159.2886 H   0  0  0  0  0  0  0  0  0  0  0  0
  153.6048  142.2103  158.6016 H   0  0  0  0  0  0  0  0  0  0  0  0
  151.9988  141.8605  159.2218 H   0  0  0  0  0  0  0  0  0  0  0  0
  153.2498  140.1205  158.9503 H   0  0  0  0  0  0  0  0  0  0  0  0
  1  2  1  0  0  0  0
  1 21  1  0  0  0  0
  1 22  1  0  0  0  0
  1 23  1  0  0  0  0
  2  3  1  0  0  0  0
  2  4  1  0  0  0  0
  2 24  1  0  0  0  0
  3 25  1  0  0  0  0
  3 26  1  0  0  0  0
  3 27  1  0  0  0  0
  4  5  1  0  0  0  0
  4 28  1  0  0  0  0
  4 29  1  0  0  0  0
  5  6  1  0  0  0  0
  5 30  1  0  0  0  0
  5 31  1  0  0  0  0
  6  7  2  0  0  0  0
  6  8  1  0  0  0  0
  8  9  1  0  0  0  0
  8 32  1  0  0  0  0
  9 20  1  0  0  0  0
  9 10  2  0  0  0  0
 10 11  1  0  0  0  0
 10 33  1  0  0  0  0
 11 12  2  0  0  0  0
 11 34  1  0  0  0  0
 12 13  1  0  0  0  0
 12 19  1  0  0  0  0
 13 18  1  0  0  0  0
 13 14  1  0  0  0  0
 14 15  1  0  0  0  0
 14 35  1  0  0  0  0
 14 36  1  0  0  0  0
 15 16  1  0  0  0  0
 15 37  1  0  0  0  0
 15 38  1  0  0  0  0
 16 17  1  0  0  0  0
 17 18  1  0  0  0  0
 17 39  1  0  0  0  0
 17 40  1  0  0  0  0
 18 41  1  0  0  0  0
 18 42  1  0  0  0  0
 19 20  2  0  0  0  0
 19 43  1  0  0  0  0
M  END
> <s_m_source_file>
AV-unprocessed.smi

> <i_m_source_file_index>
452

> <i_lp_mmshare_version>
43012

> <i_f3d_flags>
0

> <s_epik_input>
W0NIM11bQ0hdKFtDSDNdKVtDSDJdW0NIMl1DKD1PKVtOSF1jMVtjSF1bY0hdYyhbY0hdbjEpTjJbQ0gyXVtDSDJdT1tDSDJdW0NIMl0y

> <s_epik_cmdline>
J2VwaWtfcHl0aG9uJywgJy1waCcsICc3LjAnLCAnLXRuJywgJzgnLCAnLW1hJywgJzIwMCcsICctbWV0YWxfYmluZGluZycsICctaW1hZScsICc8aW5maWxlLm1hZT4nLCAnLW9tYWUnLCAnPG91dGZpbGUubWFlPic=

> <r_lp_tautomer_probability>
1

> <r_epik_Ionization_Penalty>
0.0030116

> <r_epik_Ionization_Penalty_Charging>
0

> <r_epik_Ionization_Penalty_Neutral>
0.0030116

> <r_epik_State_Penalty>
0.00263935

> <r_epik_Charging_Adjusted_Penalty>
0.00263935

> <i_epik_Tot_Q>
0

> <i_epik_Tot_abs_Q>
0

> <r_epik_Metal_State_Penalty>
-0

> <b_epik_Metal_Only>
0

> <s_lp_Force_Field>
OPLS_2005

> <r_lp_Energy>
28.4973

> <b_lp_Chiralities_Consistent>
1

> <s_lp_Variant>
AV-unprocessed.smi:452-1

> <Gold.Version>
5.8.1

> <Gold.Id.Protein>
6NUR|6NUR_protein|mol2

> <Gold.PLP.Fitness>
41.3674

> <Gold.PLP.PLP>
-39.3468

> <Gold.PLP.part.hbond>
-1.0000

> <Gold.PLP.part.metal>
0.0000

> <Gold.PLP.part.buried>
-5.1758

> <Gold.PLP.part.nonpolar>
-33.0183

> <Gold.PLP.part.repulsive>
0.0899

> <Gold.PLP.ligand.clash>
0.0000

> <Gold.PLP.ligand.torsion>
0.5430

> <Gold.PLP.Chemscore.Hbond>
1.0000

> <Gold.PLP.Chemscore.CHOScore>
0.0000

> <Gold.PLP.Chemscore.Metal>
0.0000

> <Gold.Chemscore.Hbonds>
donor molecule, donor type, donor heavy atom, donor atom, acceptor molecule, acceptor atom, score
      P1  H  6896  6909       L1     7  1.00

> <Gold.PLP.Chemscore.Internal.Correction>
0.1067

> <Gold.Rescore>
     Score         DG    S(hbond)    S(metal)    S(lipo)     H(rot)  DE(clash)    DE(int)     intcor
     16.89     -18.70       1.00        0.00     115.83       1.43       0.09       1.72       ----

> <Gold.Chemscore.Fitness>
16.8943

> <Gold.Chemscore.DG>
-18.6988

> <Gold.Chemscore.ZeroCoef>
-5.4800

> <Gold.Chemscore.Hbond>
0.9988

> <Gold.Chemscore.Metal>
0.0000

> <Gold.Chemscore.Lipo>
115.8260

> <Gold.Chemscore.Internal_Hbond>
0.0000

> <Gold.Chemscore.DEClash>
0.0884

> <Gold.Chemscore.DEInternal>
1.7161

> <Gold.Chemscore.Rot>
1.4332

> <Gold.Chemscore.Internal.Correction>
   9.000000E+99

> <Gold.Chemscore.Hbonds>
donor molecule, donor type, donor heavy atom, donor atom, acceptor molecule, acceptor atom, score
      P1  H  6896  6909       L1     7  1.00

> <Gold.Chemscore.Hbond.Weighted>
-3.3361

> <Gold.Chemscore.Metal.Weighted>
-0.0000

> <Gold.Chemscore.Lipo.Weighted>
-13.5516

> <Gold.Chemscore.Internal_Hbond.Weighted>
0.0000

> <Gold.Chemscore.DEClash.Weighted>
0.0884

> <Gold.Chemscore.DEInternal.Weighted>
1.7161

> <Gold.Chemscore.Rot.Weighted>
3.6689

> <Gold.Chemscore.Internal.Correction.Weighted>
   9.000000E+99

> <Gold.Protein.RotatedTorsions>
[ 6907 6896 6895 6894 ] final  177.57 input  -60.11 | X-H torsion
[ 7974 7965 7964 7962 ] final -161.59 input  175.53 | X-H torsion
[ 8008 7997 7996 7995 ] final  129.36 input   59.86 | X-H torsion
[ 10167 10162 10161 10158 ] final  -96.34 input  -65.29 | X-H torsion
[ 10718 10713 10712 10709 ] final   15.62 input   66.30 | X-H torsion
[ 10763 10752 10751 10750 ] final  -61.46 input  -60.55 | X-H torsion
[ 11005 11000 10999 10996 ] final   74.55 input  -57.11 | X-H torsion

> <Gold.Protein.ActiveResidues>
 VAL166  LYS551  ARG553  GLY616  TRP617  ASP618  TYR619  PRO620  LYS621  CYS622 
 ASP623  PHE694  ASN695  SER759  ASP760  ASP761  ALA762  ILE779  LEU786  VAL792 
 PHE793  MET794  SER795  GLU796  ALA797  LYS798  CYS799  TRP800  GLU811  SER814 

> <Gold.Protein.RotatedAtoms>
  151.7019  133.3311  159.3268 H   0  0  0  0  0  0  0  0  0  0  0  0  # atno 6907 bound_to 6896
  150.7732  134.6608  159.6348 H   0  0  0  0  0  0  0  0  0  0  0  0  # atno 6908 bound_to 6896
  152.3764  134.6659  160.0210 H   0  0  0  0  0  0  0  0  0  0  0  0  # atno 6909 bound_to 6896
  144.7386  140.3375  143.6141 H   0  0  0  0  0  0  0  0  0  0  0  0  # atno 7974 bound_to 7965
  156.2934  140.2622  156.2586 H   0  0  0  0  0  0  0  0  0  0  0  0  # atno 8008 bound_to 7997
  154.9811  140.0390  157.2296 H   0  0  0  0  0  0  0  0  0  0  0  0  # atno 8009 bound_to 7997
  154.7771  140.2788  155.6097 H   0  0  0  0  0  0  0  0  0  0  0  0  # atno 8010 bound_to 7997
  140.2948  143.3199  152.0309 H   0  0  0  0  0  0  0  0  0  0  0  0  # atno 10167 bound_to 10162
  157.0561  130.6289  149.5777 H   0  0  0  0  0  0  0  0  0  0  0  0  # atno 10718 bound_to 10713
  154.2849  135.6265  153.5362 H   0  0  0  0  0  0  0  0  0  0  0  0  # atno 10763 bound_to 10752
  152.9860  135.5642  154.5455 H   0  0  0  0  0  0  0  0  0  0  0  0  # atno 10764 bound_to 10752
  154.5053  135.2874  155.1363 H   0  0  0  0  0  0  0  0  0  0  0  0  # atno 10765 bound_to 10752
  139.9385  134.7442  156.1162 H   0  0  0  0  0  0  0  0  0  0  0  0  # atno 11005 bound_to 11000
  145.7408  139.1763  143.2377 LP  0  0  0  0  0  0  0  0  0  0  0  0  # atno 17320 bound_to 7965
  146.1135  140.7398  142.9491 LP  0  0  0  0  0  0  0  0  0  0  0  0  # atno 17321 bound_to 7965
  139.4929  144.6499  151.6699 LP  0  0  0  0  0  0  0  0  0  0  0  0  # atno 17342 bound_to 10162
  140.5701  144.0122  150.6212 LP  0  0  0  0  0  0  0  0  0  0  0  0  # atno 17343 bound_to 10162
  155.9993  130.5068  150.7601 LP  0  0  0  0  0  0  0  0  0  0  0  0  # atno 17370 bound_to 10713
  157.4992  131.0917  151.0335 LP  0  0  0  0  0  0  0  0  0  0  0  0  # atno 17371 bound_to 10713
  141.1010  133.6677  156.2755 LP  0  0  0  0  0  0  0  0  0  0  0  0  # atno 17394 bound_to 11000
  140.6012  134.5553  157.5517 LP  0  0  0  0  0  0  0  0  0  0  0  0  # atno 17395 bound_to 11000

$$$$
