AV-unprocessed.smi:3165|AV-procd|sdf|12091|dock9
  -GOLD-   2272017523D 1   1.00000     0.00000
 Structure written by MMmdl.
 37 38  0  0  0  0  0  0  0  0  1 V2000
  152.1960  144.5530  158.0449 C   0  0  0  0  0  0  0  0  0  0  0  0
  151.3578  143.2644  158.1076 C   0  0  2  0  0  0  0  0  0  0  0  0
  152.1101  142.0887  158.7777 C   0  0  0  0  0  0  0  0  0  0  0  0
  152.4808  142.3612  160.1554 N   0  0  0  0  0  0  0  0  0  0  0  0
  153.3544  141.6604  160.9603 C   0  0  0  0  0  0  0  0  0  0  0  0
  153.3892  142.2929  162.1701 C   0  0  0  0  0  0  0  0  0  0  0  0
  152.4948  143.3873  162.0048 C   0  0  0  0  0  0  0  0  0  0  0  0
  151.9543  143.4267  160.7978 N   0  0  0  0  0  0  0  0  0  0  0  0
  150.9083  142.9221  156.7549 N   0  0  0  0  0  0  0  0  0  0  0  0
  150.0895  141.7155  156.6480 C   0  0  0  0  0  0  0  0  0  0  0  0
  150.6718  140.7492  155.6067 C   0  0  1  0  0  0  0  0  0  0  0  0
  151.9124  140.0123  156.1477 C   0  0  0  0  0  0  0  0  0  0  0  0
  152.4215  138.9897  155.1254 C   0  0  0  0  0  0  0  0  0  0  0  0
  151.2756  138.0619  154.7088 C   0  0  0  0  0  0  0  0  0  0  0  0
  150.0608  138.8855  154.2529 C   0  0  0  0  0  0  0  0  0  0  0  0
  149.6703  139.7850  155.2859 O   0  0  0  0  0  0  0  0  0  0  0  0
  152.4498  144.9188  159.0398 H   0  0  0  0  0  0  0  0  0  0  0  0
  151.6496  145.3514  157.5417 H   0  0  0  0  0  0  0  0  0  0  0  0
  153.1274  144.3929  157.5005 H   0  0  0  0  0  0  0  0  0  0  0  0
  150.4806  143.4888  158.7159 H   0  0  0  0  0  0  0  0  0  0  0  0
  151.4969  141.1875  158.7818 H   0  0  0  0  0  0  0  0  0  0  0  0
  153.0119  141.8487  158.2117 H   0  0  0  0  0  0  0  0  0  0  0  0
  153.8708  140.7794  160.6083 H   0  0  0  0  0  0  0  0  0  0  0  0
  153.9666  142.0176  163.0401 H   0  0  0  0  0  0  0  0  0  0  0  0
  152.2257  144.1504  162.7202 H   0  0  0  0  0  0  0  0  0  0  0  0
  150.4015  143.7068  156.3572 H   0  0  0  0  0  0  0  0  0  0  0  0
  150.0512  141.2091  157.6121 H   0  0  0  0  0  0  0  0  0  0  0  0
  149.0624  141.9701  156.3837 H   0  0  0  0  0  0  0  0  0  0  0  0
  150.9477  141.3076  154.7097 H   0  0  0  0  0  0  0  0  0  0  0  0
  152.7029  140.7249  156.3853 H   0  0  0  0  0  0  0  0  0  0  0  0
  151.6607  139.5030  157.0790 H   0  0  0  0  0  0  0  0  0  0  0  0
  152.8113  139.5096  154.2491 H   0  0  0  0  0  0  0  0  0  0  0  0
  153.2475  138.4129  155.5419 H   0  0  0  0  0  0  0  0  0  0  0  0
  151.6013  137.3937  153.9111 H   0  0  0  0  0  0  0  0  0  0  0  0
  150.9908  137.4301  155.5512 H   0  0  0  0  0  0  0  0  0  0  0  0
  150.2852  139.4382  153.3393 H   0  0  0  0  0  0  0  0  0  0  0  0
  149.2241  138.2247  154.0268 H   0  0  0  0  0  0  0  0  0  0  0  0
  1  2  1  0  0  0  0
  1 17  1  0  0  0  0
  1 18  1  0  0  0  0
  1 19  1  0  0  0  0
  2  3  1  0  0  0  0
  2  9  1  0  0  0  0
  2 20  1  0  0  0  0
  3  4  1  0  0  0  0
  3 21  1  0  0  0  0
  3 22  1  0  0  0  0
  4  8  1  0  0  0  0
  4  5  1  0  0  0  0
  5  6  2  0  0  0  0
  5 23  1  0  0  0  0
  6  7  1  0  0  0  0
  6 24  1  0  0  0  0
  7  8  2  0  0  0  0
  7 25  1  0  0  0  0
  9 10  1  0  0  0  0
  9 26  1  0  0  0  0
 10 11  1  0  0  0  0
 10 27  1  0  0  0  0
 10 28  1  0  0  0  0
 11 16  1  0  0  0  0
 11 12  1  0  0  0  0
 11 29  1  0  0  0  0
 12 13  1  0  0  0  0
 12 30  1  0  0  0  0
 12 31  1  0  0  0  0
 13 14  1  0  0  0  0
 13 32  1  0  0  0  0
 13 33  1  0  0  0  0
 14 15  1  0  0  0  0
 14 34  1  0  0  0  0
 14 35  1  0  0  0  0
 15 16  1  0  0  0  0
 15 36  1  0  0  0  0
 15 37  1  0  0  0  0
M  END
> <s_m_source_file>
AV-unprocessed.smi

> <i_m_source_file_index>
3165

> <i_lp_mmshare_version>
43012

> <i_f3d_flags>
0

> <s_epik_input>
bjFbY0hdW2NIXVtjSF1uMVtDSDJdW0NAQEhdKFtDSDNdKVtOSF1bQ0gyXVtDQEBIXTJbQ0gyXVtDSDJdW0NIMl1bQ0gyXU8y

> <s_epik_cmdline>
J2VwaWtfcHl0aG9uJywgJy1waCcsICc3LjAnLCAnLXRuJywgJzgnLCAnLW1hJywgJzIwMCcsICctbWV0YWxfYmluZGluZycsICctaW1hZScsICc8aW5maWxlLm1hZT4nLCAnLW9tYWUnLCAnPG91dGZpbGUubWFlPic=

> <r_lp_tautomer_probability>
1

> <r_epik_Ionization_Penalty>
2.51982

> <r_epik_Ionization_Penalty_Charging>
0

> <r_epik_Ionization_Penalty_Neutral>
2.51982

> <r_epik_State_Penalty>
2.68614

> <r_epik_Charging_Adjusted_Penalty>
2.68614

> <i_epik_Tot_Q>
0

> <i_epik_Tot_abs_Q>
0

> <r_epik_Metal_State_Penalty>
2.6861

> <b_epik_Metal_Only>
0

> <s_lp_Force_Field>
OPLS_2005

> <r_lp_Energy>
13.227

> <b_lp_Chiralities_Consistent>
1

> <s_lp_Variant>
AV-unprocessed.smi:3165-7

> <Gold.Version>
5.8.1

> <Gold.Id.Protein>
6NUR|6NUR_protein|mol2

> <Gold.PLP.Fitness>
47.3006

> <Gold.PLP.PLP>
-45.5476

> <Gold.PLP.part.hbond>
-1.0000

> <Gold.PLP.part.metal>
0.0000

> <Gold.PLP.part.buried>
-5.1395

> <Gold.PLP.part.nonpolar>
-40.0261

> <Gold.PLP.part.repulsive>
0.1362

> <Gold.PLP.ligand.clash>
0.0000

> <Gold.PLP.ligand.torsion>
0.6362

> <Gold.PLP.Chemscore.Hbond>
1.0000

> <Gold.PLP.Chemscore.CHOScore>
0.0000

> <Gold.PLP.Chemscore.Metal>
0.0000

> <Gold.Chemscore.Hbonds>
donor molecule, donor type, donor heavy atom, donor atom, acceptor molecule, acceptor atom, score
      L1  H     9    26       P1  8028  1.00

> <Gold.PLP.Chemscore.Internal.Correction>
0.0254

> <Gold.Rescore>
     Score         DG    S(hbond)    S(metal)    S(lipo)     H(rot)  DE(clash)    DE(int)     intcor
     17.52     -18.19       1.00        0.00     114.65       1.57       0.01       0.66       ----

> <Gold.Chemscore.Fitness>
17.5215

> <Gold.Chemscore.DG>
-18.1913

> <Gold.Chemscore.ZeroCoef>
-5.4800

> <Gold.Chemscore.Hbond>
0.9954

> <Gold.Chemscore.Metal>
0.0000

> <Gold.Chemscore.Lipo>
114.6500

> <Gold.Chemscore.Internal_Hbond>
0.0000

> <Gold.Chemscore.DEClash>
0.0126

> <Gold.Chemscore.DEInternal>
0.6572

> <Gold.Chemscore.Rot>
1.5731

> <Gold.Chemscore.Internal.Correction>
   9.000000E+99

> <Gold.Chemscore.Hbonds>
donor molecule, donor type, donor heavy atom, donor atom, acceptor molecule, acceptor atom, score
      L1  H     9    26       P1  8028  0.99

> <Gold.Chemscore.Hbond.Weighted>
-3.3245

> <Gold.Chemscore.Metal.Weighted>
-0.0000

> <Gold.Chemscore.Lipo.Weighted>
-13.4140

> <Gold.Chemscore.Internal_Hbond.Weighted>
0.0000

> <Gold.Chemscore.DEClash.Weighted>
0.0126

> <Gold.Chemscore.DEInternal.Weighted>
0.6572

> <Gold.Chemscore.Rot.Weighted>
4.0273

> <Gold.Chemscore.Internal.Correction.Weighted>
   9.000000E+99

> <Gold.Protein.RotatedTorsions>
[ 6907 6896 6895 6894 ] final -100.50 input  -60.11 | X-H torsion
[ 7974 7965 7964 7962 ] final  -87.10 input  175.53 | X-H torsion
[ 8008 7997 7996 7995 ] final   70.68 input   59.86 | X-H torsion
[ 10167 10162 10161 10158 ] final   57.60 input  -65.29 | X-H torsion
[ 10718 10713 10712 10709 ] final  111.45 input   66.30 | X-H torsion
[ 10763 10752 10751 10750 ] final   58.29 input  -60.55 | X-H torsion
[ 11005 11000 10999 10996 ] final   55.36 input  -57.11 | X-H torsion

> <Gold.Protein.ActiveResidues>
 VAL166  LYS551  ARG553  GLY616  TRP617  ASP618  TYR619  PRO620  LYS621  CYS622 
 ASP623  PHE694  ASN695  SER759  ASP760  ASP761  ALA762  ILE779  LEU786  VAL792 
 PHE793  MET794  SER795  GLU796  ALA797  LYS798  CYS799  TRP800  GLU811  SER814 

> <Gold.Protein.RotatedAtoms>
  150.7118  134.0877  159.3920 H   0  0  0  0  0  0  0  0  0  0  0  0  # atno 6907 bound_to 6896
  151.8862  135.0432  160.0503 H   0  0  0  0  0  0  0  0  0  0  0  0  # atno 6908 bound_to 6896
  152.2528  133.5194  159.5372 H   0  0  0  0  0  0  0  0  0  0  0  0  # atno 6909 bound_to 6896
  145.4710  140.9559  143.1917 H   0  0  0  0  0  0  0  0  0  0  0  0  # atno 7974 bound_to 7965
  155.7424  140.3490  155.5111 H   0  0  0  0  0  0  0  0  0  0  0  0  # atno 8008 bound_to 7997
  155.9081  140.1045  157.1321 H   0  0  0  0  0  0  0  0  0  0  0  0  # atno 8009 bound_to 7997
  154.4052  140.1273  156.4509 H   0  0  0  0  0  0  0  0  0  0  0  0  # atno 8010 bound_to 7997
  140.1962  144.4035  150.6549 H   0  0  0  0  0  0  0  0  0  0  0  0  # atno 10167 bound_to 10162
  157.6444  131.0951  150.6751 H   0  0  0  0  0  0  0  0  0  0  0  0  # atno 10718 bound_to 10713
  152.9868  135.5612  154.5529 H   0  0  0  0  0  0  0  0  0  0  0  0  # atno 10763 bound_to 10752
  154.4962  135.2795  155.1459 H   0  0  0  0  0  0  0  0  0  0  0  0  # atno 10764 bound_to 10752
  154.2908  135.6326  153.5437 H   0  0  0  0  0  0  0  0  0  0  0  0  # atno 10765 bound_to 10752
  140.0613  134.5598  155.9149 H   0  0  0  0  0  0  0  0  0  0  0  0  # atno 11005 bound_to 11000
  144.7945  139.6261  143.7098 LP  0  0  0  0  0  0  0  0  0  0  0  0  # atno 17320 bound_to 7965
  146.2397  139.5976  142.9500 LP  0  0  0  0  0  0  0  0  0  0  0  0  # atno 17321 bound_to 7965
  140.6422  143.2206  151.6265 LP  0  0  0  0  0  0  0  0  0  0  0  0  # atno 17342 bound_to 10162
  139.5236  144.3129  152.0977 LP  0  0  0  0  0  0  0  0  0  0  0  0  # atno 17343 bound_to 10162
  156.7070  130.4640  149.5557 LP  0  0  0  0  0  0  0  0  0  0  0  0  # atno 17370 bound_to 10713
  156.1756  130.6465  151.0890 LP  0  0  0  0  0  0  0  0  0  0  0  0  # atno 17371 bound_to 10713
  141.1974  133.6596  156.5741 LP  0  0  0  0  0  0  0  0  0  0  0  0  # atno 17394 bound_to 11000
  140.3766  134.7560  157.4633 LP  0  0  0  0  0  0  0  0  0  0  0  0  # atno 17395 bound_to 11000

$$$$
