AV-unprocessed.smi:1338|AV-procd|sdf|5500|dock6
  -GOLD-   22720 5 83D 1   1.00000     0.00000
 Structure written by MMmdl.
 40 41  0  0  0  0  0  0  0  0  1 V2000
  145.5300  137.7846  153.2570 C   0  0  0  0  0  0  0  0  0  0  0  0
  146.6340  138.7464  153.6393 C   0  0  0  0  0  0  0  0  0  0  0  0
  146.2330  140.0718  153.6673 N   0  0  0  0  0  0  0  0  0  0  0  0
  147.1731  141.0256  154.0155 C   0  0  0  0  0  0  0  0  0  0  0  0
  146.6491  142.4512  154.0292 C   0  0  0  0  0  0  0  0  0  0  0  0
  148.4506  140.6767  154.3139 C   0  0  0  0  0  0  0  0  0  0  0  0
  149.5174  141.6985  154.7027 C   0  0  0  0  0  0  0  0  0  0  0  0
  150.1424  141.4933  156.0838 C   0  0  0  0  0  0  0  0  0  0  0  0
  150.5351  140.3766  156.4204 O   0  0  0  0  0  0  0  0  0  0  0  0
  150.2362  142.5781  156.8684 N   0  0  0  0  0  0  0  0  0  0  0  0
  150.8183  142.6038  158.2067 C   0  0  0  0  0  0  0  0  0  0  0  0
  151.1072  144.0542  158.6461 C   0  0  0  0  0  0  0  0  0  0  0  0
  151.7906  144.0984  160.0225 C   0  0  0  0  0  0  0  0  0  0  0  0
  153.0732  143.2518  160.0367 C   0  0  0  0  0  0  0  0  0  0  0  0
  152.7876  141.8050  159.6043 C   0  0  0  0  0  0  0  0  0  0  0  0
  152.1063  141.7590  158.2267 C   0  0  0  0  0  0  0  0  0  0  0  0
  148.8234  139.2432  154.2540 C   0  0  0  0  0  0  0  0  0  0  0  0
  149.9684  138.8642  154.4960 O   0  0  0  0  0  0  0  0  0  0  0  0
  147.8292  138.3147  153.9055 N   0  0  0  0  0  0  0  0  0  0  0  0
  145.2940  140.3744  153.4521 H   0  0  0  0  0  0  0  0  0  0  0  0
  145.8655  136.7507  153.3463 H   0  0  0  0  0  0  0  0  0  0  0  0
  145.2196  137.9547  152.2258 H   0  0  0  0  0  0  0  0  0  0  0  0
  144.6648  137.9180  153.9073 H   0  0  0  0  0  0  0  0  0  0  0  0
  146.7537  142.8876  155.0227 H   0  0  0  0  0  0  0  0  0  0  0  0
  145.5939  142.4939  153.7565 H   0  0  0  0  0  0  0  0  0  0  0  0
  147.2015  143.0677  153.3198 H   0  0  0  0  0  0  0  0  0  0  0  0
  149.1157  142.7113  154.6584 H   0  0  0  0  0  0  0  0  0  0  0  0
  150.3027  141.6835  153.9461 H   0  0  0  0  0  0  0  0  0  0  0  0
  149.8856  143.4538  156.5084 H   0  0  0  0  0  0  0  0  0  0  0  0
  150.1132  142.1570  158.9104 H   0  0  0  0  0  0  0  0  0  0  0  0
  151.7467  144.5432  157.9097 H   0  0  0  0  0  0  0  0  0  0  0  0
  150.1814  144.6296  158.6808 H   0  0  0  0  0  0  0  0  0  0  0  0
  152.0228  145.1298  160.2892 H   0  0  0  0  0  0  0  0  0  0  0  0
  151.1015  143.7300  160.7834 H   0  0  0  0  0  0  0  0  0  0  0  0
  153.8109  143.6950  159.3666 H   0  0  0  0  0  0  0  0  0  0  0  0
  153.5145  143.2621  161.0336 H   0  0  0  0  0  0  0  0  0  0  0  0
  153.7165  141.2346  159.5787 H   0  0  0  0  0  0  0  0  0  0  0  0
  152.1482  141.3219  160.3442 H   0  0  0  0  0  0  0  0  0  0  0  0
  151.8795  140.7248  157.9646 H   0  0  0  0  0  0  0  0  0  0  0  0
  152.8009  142.1247  157.4692 H   0  0  0  0  0  0  0  0  0  0  0  0
  1 21  1  0  0  0  0
  1 22  1  0  0  0  0
  1 23  1  0  0  0  0
  1  2  1  0  0  0  0
  2  3  1  0  0  0  0
  2 19  2  0  0  0  0
  3  4  1  0  0  0  0
  3 20  1  0  0  0  0
  4  6  2  0  0  0  0
  4  5  1  0  0  0  0
  5 24  1  0  0  0  0
  5 25  1  0  0  0  0
  5 26  1  0  0  0  0
  6 17  1  0  0  0  0
  6  7  1  0  0  0  0
  7  8  1  0  0  0  0
  7 27  1  0  0  0  0
  7 28  1  0  0  0  0
  8  9  2  0  0  0  0
  8 10  1  0  0  0  0
 10 11  1  0  0  0  0
 10 29  1  0  0  0  0
 11 16  1  0  0  0  0
 11 12  1  0  0  0  0
 11 30  1  0  0  0  0
 12 13  1  0  0  0  0
 12 31  1  0  0  0  0
 12 32  1  0  0  0  0
 13 14  1  0  0  0  0
 13 33  1  0  0  0  0
 13 34  1  0  0  0  0
 14 15  1  0  0  0  0
 14 35  1  0  0  0  0
 14 36  1  0  0  0  0
 15 16  1  0  0  0  0
 15 37  1  0  0  0  0
 15 38  1  0  0  0  0
 16 39  1  0  0  0  0
 16 40  1  0  0  0  0
 17 18  2  0  0  0  0
 17 19  1  0  0  0  0
M  END
> <s_m_source_file>
AV-unprocessed.smi

> <i_m_source_file_index>
1338

> <i_lp_mmshare_version>
43012

> <i_f3d_flags>
0

> <s_epik_input>
W0NIM11jMW5jKFtDSDNdKWMoYyg9TylbbkhdMSlbQ0gyXUMoPU8pW05IXVtDSF0yW0NIMl1bQ0gyXVtDSDJdW0NIMl1bQ0gyXTI=

> <s_epik_cmdline>
J2VwaWtfcHl0aG9uJywgJy1waCcsICc3LjAnLCAnLXRuJywgJzgnLCAnLW1hJywgJzIwMCcsICctbWV0YWxfYmluZGluZycsICctaW1hZScsICc8aW5maWxlLm1hZT4nLCAnLW9tYWUnLCAnPG91dGZpbGUubWFlPic=

> <r_lp_tautomer_probability>
0.156392

> <r_epik_Ionization_Penalty>
0.0136832

> <r_epik_Ionization_Penalty_Charging>
0.0135532

> <r_epik_Ionization_Penalty_Neutral>
0.000130025

> <r_epik_State_Penalty>
1.15342

> <r_epik_Charging_Adjusted_Penalty>
1.16697

> <i_epik_Tot_Q>
0

> <i_epik_Tot_abs_Q>
0

> <r_epik_Metal_State_Penalty>
1.31441

> <b_epik_Metal_Only>
0

> <s_lp_Force_Field>
OPLS_2005

> <r_lp_Energy>
13.63

> <b_lp_Chiralities_Consistent>
1

> <s_lp_Variant>
AV-unprocessed.smi:1338-2

> <Gold.Version>
5.8.1

> <Gold.Id.Protein>
6NUR|6NUR_protein|mol2

> <Gold.PLP.Fitness>
42.0739

> <Gold.PLP.PLP>
-36.7872

> <Gold.PLP.part.hbond>
-2.0000

> <Gold.PLP.part.metal>
0.0000

> <Gold.PLP.part.buried>
-4.3158

> <Gold.PLP.part.nonpolar>
-30.8692

> <Gold.PLP.part.repulsive>
0.4369

> <Gold.PLP.ligand.clash>
0.0000

> <Gold.PLP.ligand.torsion>
0.3589

> <Gold.PLP.Chemscore.Hbond>
2.0000

> <Gold.PLP.Chemscore.CHOScore>
0.0000

> <Gold.PLP.Chemscore.Metal>
0.0000

> <Gold.Chemscore.Hbonds>
donor molecule, donor type, donor heavy atom, donor atom, acceptor molecule, acceptor atom, score
      L1  H     3    20       P1 10175  1.00
      L1  H    10    29       P1  8028  1.00

> <Gold.PLP.Chemscore.Internal.Correction>
0.0045

> <Gold.Rescore>
     Score         DG    S(hbond)    S(metal)    S(lipo)     H(rot)  DE(clash)    DE(int)     intcor
     15.55     -18.80       1.88        0.00      92.92       1.49       0.28       2.98       ----

> <Gold.Chemscore.Fitness>
15.5472

> <Gold.Chemscore.DG>
-18.8025

> <Gold.Chemscore.ZeroCoef>
-5.4800

> <Gold.Chemscore.Hbond>
1.8793

> <Gold.Chemscore.Metal>
0.0000

> <Gold.Chemscore.Lipo>
92.9151

> <Gold.Chemscore.Internal_Hbond>
0.0000

> <Gold.Chemscore.DEClash>
0.2759

> <Gold.Chemscore.DEInternal>
2.9795

> <Gold.Chemscore.Rot>
1.4942

> <Gold.Chemscore.Internal.Correction>
   9.000000E+99

> <Gold.Chemscore.Hbonds>
donor molecule, donor type, donor heavy atom, donor atom, acceptor molecule, acceptor atom, score
      L1  H     3    20       P1 10175  0.98
      L1  H    10    29       P1  8028  1.00

> <Gold.Chemscore.Hbond.Weighted>
-6.2767

> <Gold.Chemscore.Metal.Weighted>
-0.0000

> <Gold.Chemscore.Lipo.Weighted>
-10.8711

> <Gold.Chemscore.Internal_Hbond.Weighted>
0.0000

> <Gold.Chemscore.DEClash.Weighted>
0.2759

> <Gold.Chemscore.DEInternal.Weighted>
2.9795

> <Gold.Chemscore.Rot.Weighted>
3.8253

> <Gold.Chemscore.Internal.Correction.Weighted>
   9.000000E+99

> <Gold.Protein.RotatedTorsions>
[ 6907 6896 6895 6894 ] final -143.85 input  -60.11 | X-H torsion
[ 7974 7965 7964 7962 ] final   83.07 input  175.53 | X-H torsion
[ 8008 7997 7996 7995 ] final  157.73 input   59.86 | X-H torsion
[ 10167 10162 10161 10158 ] final   -1.13 input  -65.29 | X-H torsion
[ 10718 10713 10712 10709 ] final  175.09 input   66.30 | X-H torsion
[ 10763 10752 10751 10750 ] final   26.68 input  -60.55 | X-H torsion
[ 11005 11000 10999 10996 ] final  135.14 input  -57.11 | X-H torsion

> <Gold.Protein.ActiveResidues>
 VAL166  LYS551  ARG553  GLY616  TRP617  ASP618  TYR619  PRO620  LYS621  CYS622 
 ASP623  PHE694  ASN695  SER759  ASP760  ASP761  ALA762  ILE779  LEU786  VAL792 
 PHE793  MET794  SER795  GLU796  ALA797  LYS798  CYS799  TRP800  GLU811  SER814 

> <Gold.Protein.RotatedAtoms>
  151.1061  133.5207  159.2607 H   0  0  0  0  0  0  0  0  0  0  0  0  # atno 6907 bound_to 6896
  151.2019  135.0445  159.8886 H   0  0  0  0  0  0  0  0  0  0  0  0  # atno 6908 bound_to 6896
  152.5447  134.0888  159.8321 H   0  0  0  0  0  0  0  0  0  0  0  0  # atno 6909 bound_to 6896
  145.6167  139.2378  143.2161 H   0  0  0  0  0  0  0  0  0  0  0  0  # atno 7974 bound_to 7965
  156.2346  140.1877  156.7153 H   0  0  0  0  0  0  0  0  0  0  0  0  # atno 8008 bound_to 7997
  154.6083  140.0625  156.9487 H   0  0  0  0  0  0  0  0  0  0  0  0  # atno 8009 bound_to 7997
  155.2059  140.3296  155.4338 H   0  0  0  0  0  0  0  0  0  0  0  0  # atno 8010 bound_to 7997
  140.6797  143.6812  150.8104 H   0  0  0  0  0  0  0  0  0  0  0  0  # atno 10167 bound_to 10162
  156.9400  130.9998  151.2970 H   0  0  0  0  0  0  0  0  0  0  0  0  # atno 10718 bound_to 10713
  153.0606  135.6554  154.0472 H   0  0  0  0  0  0  0  0  0  0  0  0  # atno 10763 bound_to 10752
  154.0140  135.2926  155.3390 H   0  0  0  0  0  0  0  0  0  0  0  0  # atno 10764 bound_to 10752
  154.6942  135.5270  153.8503 H   0  0  0  0  0  0  0  0  0  0  0  0  # atno 10765 bound_to 10752
  139.9960  134.9497  156.9966 H   0  0  0  0  0  0  0  0  0  0  0  0  # atno 11005 bound_to 11000
  146.1462  140.6989  142.9343 LP  0  0  0  0  0  0  0  0  0  0  0  0  # atno 17320 bound_to 7965
  144.7247  140.4488  143.6982 LP  0  0  0  0  0  0  0  0  0  0  0  0  # atno 17321 bound_to 7965
  140.0511  143.5249  152.2673 LP  0  0  0  0  0  0  0  0  0  0  0  0  # atno 17342 bound_to 10162
  139.6111  144.7609  151.2950 LP  0  0  0  0  0  0  0  0  0  0  0  0  # atno 17343 bound_to 10162
  157.5791  130.8364  149.8497 LP  0  0  0  0  0  0  0  0  0  0  0  0  # atno 17370 bound_to 10713
  156.0408  130.3739  150.1440 LP  0  0  0  0  0  0  0  0  0  0  0  0  # atno 17371 bound_to 10713
  140.4817  134.1283  155.7218 LP  0  0  0  0  0  0  0  0  0  0  0  0  # atno 17394 bound_to 11000
  141.1605  133.8802  157.1861 LP  0  0  0  0  0  0  0  0  0  0  0  0  # atno 17395 bound_to 11000

$$$$
