AV-unprocessed.smi:2198|AV-procd|sdf|8912|dock9
  -GOLD-   2272012133D 1   1.00000     0.00000
 Structure written by MMmdl.
 43 44  0  0  0  0  0  0  0  0  1 V2000
  147.3343  139.6595  153.2911 C   0  0  0  0  0  0  0  0  0  0  0  0
  148.2920  139.2545  154.3917 C   0  0  0  0  0  0  0  0  0  0  0  0
  147.9218  138.7225  155.5099 N   0  0  0  0  0  0  0  0  0  0  0  0
  148.9023  138.3885  156.4544 C   0  0  0  0  0  0  0  0  0  0  0  0
  148.3897  137.7621  157.7399 C   0  0  0  0  0  0  0  0  0  0  0  0
  150.2280  138.6165  156.2208 C   0  0  0  0  0  0  0  0  0  0  0  0
  151.3208  138.2617  157.2287 C   0  0  0  0  0  0  0  0  0  0  0  0
  152.1443  139.4315  157.7739 C   0  0  0  0  0  0  0  0  0  0  0  0
  153.2785  139.2486  158.2179 O   0  0  0  0  0  0  0  0  0  0  0  0
  151.5508  140.6339  157.7391 N   0  0  0  0  0  0  0  0  0  0  0  0
  152.1371  141.8777  158.2288 C   0  0  1  0  0  0  0  0  0  0  0  0
  151.3229  143.0746  157.7059 C   0  0  0  0  0  0  0  0  0  0  0  0
  151.8766  144.4022  158.2449 C   0  0  0  0  0  0  0  0  0  0  0  0
  151.9250  144.4031  159.7810 C   0  0  0  0  0  0  0  0  0  0  0  0
  152.7378  143.2117  160.3233 C   0  0  1  0  0  0  0  0  0  0  0  0
  152.7712  143.2085  161.8585 C   0  0  0  0  0  0  0  0  0  0  0  0
  152.1866  141.8826  159.7709 C   0  0  0  0  0  0  0  0  0  0  0  0
  150.6397  139.2233  154.9402 C   0  0  0  0  0  0  0  0  0  0  0  0
  151.8040  139.4642  154.6249 O   0  0  0  0  0  0  0  0  0  0  0  0
  149.6287  139.5098  154.0897 N   0  0  0  0  0  0  0  0  0  0  0  0
  149.8592  139.9248  153.1986 H   0  0  0  0  0  0  0  0  0  0  0  0
  146.7732  138.7915  152.9442 H   0  0  0  0  0  0  0  0  0  0  0  0
  147.8600  140.0896  152.4374 H   0  0  0  0  0  0  0  0  0  0  0  0
  146.6260  140.3997  153.6633 H   0  0  0  0  0  0  0  0  0  0  0  0
  148.5918  138.4145  158.5895 H   0  0  0  0  0  0  0  0  0  0  0  0
  148.8691  136.7995  157.9189 H   0  0  0  0  0  0  0  0  0  0  0  0
  147.3130  137.5940  157.6962 H   0  0  0  0  0  0  0  0  0  0  0  0
  150.8967  137.7166  158.0728 H   0  0  0  0  0  0  0  0  0  0  0  0
  152.0076  137.5566  156.7600 H   0  0  0  0  0  0  0  0  0  0  0  0
  150.6188  140.6910  157.3544 H   0  0  0  0  0  0  0  0  0  0  0  0
  153.1545  141.9671  157.8427 H   0  0  0  0  0  0  0  0  0  0  0  0
  151.3349  143.0879  156.6152 H   0  0  0  0  0  0  0  0  0  0  0  0
  150.2781  142.9718  158.0031 H   0  0  0  0  0  0  0  0  0  0  0  0
  152.8785  144.5682  157.8469 H   0  0  0  0  0  0  0  0  0  0  0  0
  151.2627  145.2313  157.8919 H   0  0  0  0  0  0  0  0  0  0  0  0
  152.3588  145.3404  160.1308 H   0  0  0  0  0  0  0  0  0  0  0  0
  150.9085  144.3673  160.1759 H   0  0  0  0  0  0  0  0  0  0  0  0
  153.7655  143.3187  159.9730 H   0  0  0  0  0  0  0  0  0  0  0  0
  151.7692  143.1083  162.2768 H   0  0  0  0  0  0  0  0  0  0  0  0
  153.2011  144.1336  162.2439 H   0  0  0  0  0  0  0  0  0  0  0  0
  153.3737  142.3824  162.2369 H   0  0  0  0  0  0  0  0  0  0  0  0
  151.1859  141.7087  160.1698 H   0  0  0  0  0  0  0  0  0  0  0  0
  152.8054  141.0564  160.1238 H   0  0  0  0  0  0  0  0  0  0  0  0
  1  2  1  0  0  0  0
  1 22  1  0  0  0  0
  1 23  1  0  0  0  0
  1 24  1  0  0  0  0
  2 20  1  0  0  0  0
  2  3  2  0  0  0  0
  3  4  1  0  0  0  0
  4  5  1  0  0  0  0
  4  6  2  0  0  0  0
  5 25  1  0  0  0  0
  5 26  1  0  0  0  0
  5 27  1  0  0  0  0
  6  7  1  0  0  0  0
  6 18  1  0  0  0  0
  7  8  1  0  0  0  0
  7 28  1  0  0  0  0
  7 29  1  0  0  0  0
  8  9  2  0  0  0  0
  8 10  1  0  0  0  0
 10 11  1  0  0  0  0
 10 30  1  0  0  0  0
 11 17  1  0  0  0  0
 11 12  1  0  0  0  0
 11 31  1  0  0  0  0
 12 13  1  0  0  0  0
 12 32  1  0  0  0  0
 12 33  1  0  0  0  0
 13 14  1  0  0  0  0
 13 34  1  0  0  0  0
 13 35  1  0  0  0  0
 14 15  1  0  0  0  0
 14 36  1  0  0  0  0
 14 37  1  0  0  0  0
 15 16  1  0  0  0  0
 15 17  1  0  0  0  0
 15 38  1  0  0  0  0
 16 39  1  0  0  0  0
 16 40  1  0  0  0  0
 16 41  1  0  0  0  0
 17 42  1  0  0  0  0
 17 43  1  0  0  0  0
 18 19  2  0  0  0  0
 18 20  1  0  0  0  0
 20 21  1  0  0  0  0
M  END
> <s_m_source_file>
AV-unprocessed.smi

> <i_m_source_file_index>
2198

> <i_lp_mmshare_version>
43012

> <i_f3d_flags>
0

> <s_epik_input>
W0NIM11jMW5jKFtDSDNdKWMoYyg9TylbbkhdMSlbQ0gyXUMoPU8pW05IXVtDQEBIXTJbQ0gyXVtDSDJdW0NIMl1bQ0BASF0oW0NIM10pW0NIMl0y

> <s_epik_cmdline>
J2VwaWtfcHl0aG9uJywgJy1waCcsICc3LjAnLCAnLXRuJywgJzgnLCAnLW1hJywgJzIwMCcsICctbWV0YWxfYmluZGluZycsICctaW1hZScsICc8aW5maWxlLm1hZT4nLCAnLW9tYWUnLCAnPG91dGZpbGUubWFlPic=

> <r_lp_tautomer_probability>
0.839158

> <r_epik_Ionization_Penalty>
0.000372587

> <r_epik_Ionization_Penalty_Charging>
0.000337977

> <r_epik_Ionization_Penalty_Neutral>
3.46101e-05

> <r_epik_State_Penalty>
0.09125

> <r_epik_Charging_Adjusted_Penalty>
0.091588

> <i_epik_Tot_Q>
0

> <i_epik_Tot_abs_Q>
0

> <r_epik_Metal_State_Penalty>
0.25197

> <b_epik_Metal_Only>
0

> <s_lp_Force_Field>
OPLS_2005

> <r_lp_Energy>
10.3452

> <b_lp_Chiralities_Consistent>
1

> <s_lp_Variant>
AV-unprocessed.smi:2198-2

> <Gold.Version>
5.8.1

> <Gold.Id.Protein>
6NUR|6NUR_protein|mol2

> <Gold.PLP.Fitness>
43.8123

> <Gold.PLP.PLP>
-35.8519

> <Gold.PLP.part.hbond>
-3.0000

> <Gold.PLP.part.metal>
0.0000

> <Gold.PLP.part.buried>
-4.4552

> <Gold.PLP.part.nonpolar>
-28.4720

> <Gold.PLP.part.repulsive>
0.2947

> <Gold.PLP.ligand.clash>
0.0000

> <Gold.PLP.ligand.torsion>
0.4964

> <Gold.PLP.Chemscore.Hbond>
2.9833

> <Gold.PLP.Chemscore.CHOScore>
0.0000

> <Gold.PLP.Chemscore.Metal>
0.0000

> <Gold.Chemscore.Hbonds>
donor molecule, donor type, donor heavy atom, donor atom, acceptor molecule, acceptor atom, score
      L1  H    20    21       P1  7957  0.94
      P1  H  7989  7998       L1    19  1.00
      P1  H  7997  8008       L1     9  1.00

> <Gold.PLP.Chemscore.Internal.Correction>
0.0033

> <Gold.Rescore>
     Score         DG    S(hbond)    S(metal)    S(lipo)     H(rot)  DE(clash)    DE(int)     intcor
     21.61     -22.35       2.91        0.00      93.48       1.48       0.29       0.45       ----

> <Gold.Chemscore.Fitness>
21.6104

> <Gold.Chemscore.DG>
-22.3492

> <Gold.Chemscore.ZeroCoef>
-5.4800

> <Gold.Chemscore.Hbond>
2.9107

> <Gold.Chemscore.Metal>
0.0000

> <Gold.Chemscore.Lipo>
93.4754

> <Gold.Chemscore.Internal_Hbond>
0.0000

> <Gold.Chemscore.DEClash>
0.2900

> <Gold.Chemscore.DEInternal>
0.4488

> <Gold.Chemscore.Rot>
1.4801

> <Gold.Chemscore.Internal.Correction>
   9.000000E+99

> <Gold.Chemscore.Hbonds>
donor molecule, donor type, donor heavy atom, donor atom, acceptor molecule, acceptor atom, score
      L1  H    20    21       P1  7957  0.86
      P1  H  7989  7998       L1    19  0.43
      P1  H  7997  8008       L1     9  0.81

> <Gold.Chemscore.Hbond.Weighted>
-9.7217

> <Gold.Chemscore.Metal.Weighted>
-0.0000

> <Gold.Chemscore.Lipo.Weighted>
-10.9366

> <Gold.Chemscore.Internal_Hbond.Weighted>
0.0000

> <Gold.Chemscore.DEClash.Weighted>
0.2900

> <Gold.Chemscore.DEInternal.Weighted>
0.4488

> <Gold.Chemscore.Rot.Weighted>
3.7891

> <Gold.Chemscore.Internal.Correction.Weighted>
   9.000000E+99

> <Gold.Protein.RotatedTorsions>
[ 6907 6896 6895 6894 ] final   18.93 input  -60.11 | X-H torsion
[ 7974 7965 7964 7962 ] final   96.59 input  175.53 | X-H torsion
[ 8008 7997 7996 7995 ] final  -89.26 input   59.86 | X-H torsion
[ 10167 10162 10161 10158 ] final  154.73 input  -65.29 | X-H torsion
[ 10718 10713 10712 10709 ] final  -11.39 input   66.30 | X-H torsion
[ 10763 10752 10751 10750 ] final -176.09 input  -60.55 | X-H torsion
[ 11005 11000 10999 10996 ] final  -90.47 input  -57.11 | X-H torsion

> <Gold.Protein.ActiveResidues>
 VAL166  LYS551  ARG553  GLY616  TRP617  ASP618  TYR619  PRO620  LYS621  CYS622 
 ASP623  PHE694  ASN695  SER759  ASP760  ASP761  ALA762  ILE779  LEU786  VAL792 
 PHE793  MET794  SER795  GLU796  ALA797  LYS798  CYS799  TRP800  GLU811  SER814 

> <Gold.Protein.RotatedAtoms>
  151.8729  135.0482  160.0480 H   0  0  0  0  0  0  0  0  0  0  0  0  # atno 6907 bound_to 6896
  152.2574  133.5263  159.5369 H   0  0  0  0  0  0  0  0  0  0  0  0  # atno 6908 bound_to 6896
  150.7104  134.0793  159.3935 H   0  0  0  0  0  0  0  0  0  0  0  0  # atno 6909 bound_to 6896
  145.4368  139.2305  143.3114 H   0  0  0  0  0  0  0  0  0  0  0  0  # atno 7974 bound_to 7965
  154.6845  140.0544  157.0300 H   0  0  0  0  0  0  0  0  0  0  0  0  # atno 8008 bound_to 7997
  155.0904  140.3218  155.4556 H   0  0  0  0  0  0  0  0  0  0  0  0  # atno 8009 bound_to 7997
  156.2706  140.2049  156.6031 H   0  0  0  0  0  0  0  0  0  0  0  0  # atno 8010 bound_to 7997
  139.4822  144.5161  151.7950 H   0  0  0  0  0  0  0  0  0  0  0  0  # atno 10167 bound_to 10162
  156.6597  130.4978  149.6034 H   0  0  0  0  0  0  0  0  0  0  0  0  # atno 10718 bound_to 10713
  154.5766  135.2832  155.0774 H   0  0  0  0  0  0  0  0  0  0  0  0  # atno 10763 bound_to 10752
  154.2127  135.6405  153.5124 H   0  0  0  0  0  0  0  0  0  0  0  0  # atno 10764 bound_to 10752
  153.0074  135.5495  154.6406 H   0  0  0  0  0  0  0  0  0  0  0  0  # atno 10765 bound_to 10752
  141.1565  133.7694  156.9742 H   0  0  0  0  0  0  0  0  0  0  0  0  # atno 11005 bound_to 11000
  146.2578  140.5111  142.8866 LP  0  0  0  0  0  0  0  0  0  0  0  0  # atno 17320 bound_to 7965
  144.8147  140.6447  143.6392 LP  0  0  0  0  0  0  0  0  0  0  0  0  # atno 17321 bound_to 7965
  140.4669  144.1642  150.5913 LP  0  0  0  0  0  0  0  0  0  0  0  0  # atno 17342 bound_to 10162
  140.4424  143.2521  151.9455 LP  0  0  0  0  0  0  0  0  0  0  0  0  # atno 17343 bound_to 10162
  156.2020  130.6626  151.1177 LP  0  0  0  0  0  0  0  0  0  0  0  0  # atno 17370 bound_to 10713
  157.7113  131.0732  150.6488 LP  0  0  0  0  0  0  0  0  0  0  0  0  # atno 17371 bound_to 10713
  140.1109  134.9477  157.2063 LP  0  0  0  0  0  0  0  0  0  0  0  0  # atno 17394 bound_to 11000
  140.3195  134.2932  155.7249 LP  0  0  0  0  0  0  0  0  0  0  0  0  # atno 17395 bound_to 11000

$$$$
