AV-unprocessed.smi:1005|AV-procd|sdf|4377|dock3
  -GOLD-   22720 2293D 1   1.00000     0.00000
 Structure written by MMmdl.
 57 59  0  0  0  0  0  0  0  0  3 V2000
  152.3718  143.6038  160.3811 C   0  0  0  0  0  0  0  0  0  0  0  0
  152.0680  142.5920  159.2894 C   0  0  0  0  0  0  0  0  0  0  0  0
  151.1591  142.9530  158.2694 C   0  0  0  0  0  0  0  0  0  0  0  0
  150.9002  142.0059  157.2859 C   0  0  0  0  0  0  0  0  0  0  0  0
  150.0643  142.0552  156.1684 N   0  3  0  0  0  0  0  0  0  0  0  0
  150.1376  140.8748  155.4939 C   0  0  0  0  0  0  0  0  0  0  0  0
  151.0077  140.0714  156.1642 N   0  0  0  0  0  0  0  0  0  0  0  0
  151.4386  138.7008  155.8541 C   0  0  0  0  0  0  0  0  0  0  0  0
  150.6246  138.0618  154.7119 C   0  0  1  0  0  0  0  0  0  0  0  0
  151.3535  136.9459  154.2441 O   0  0  0  0  0  0  0  0  0  0  0  0
  149.2185  137.5898  155.1457 C   0  0  0  0  0  0  0  0  0  0  0  0
  149.1822  136.6720  156.2852 N   0  0  0  0  0  0  0  0  0  0  0  0
  149.3060  135.2714  155.8858 C   0  0  0  0  0  0  0  0  0  0  0  0
  149.2268  134.3218  157.0928 C   0  0  0  0  0  0  0  0  0  0  0  0
  148.0155  134.5530  157.8042 O   0  0  0  0  0  0  0  0  0  0  0  0
  147.8896  135.8951  158.2670 C   0  0  2  0  0  0  0  0  0  0  0  0
  146.5538  136.0208  159.0215 C   0  0  0  0  0  0  0  0  0  0  0  0
  146.6034  135.4266  160.3820 N   0  3  0  0  0  0  0  0  0  0  0  0
  146.9985  133.9989  160.3904 C   0  0  0  0  0  0  0  0  0  0  0  0
  147.4390  136.2249  161.3061 C   0  0  0  0  0  0  0  0  0  0  0  0
  147.9499  136.8379  157.0484 C   0  0  0  0  0  0  0  0  0  0  0  0
  151.5114  140.7366  157.2892 C   0  0  0  0  0  0  0  0  0  0  0  0
  152.4104  140.3658  158.2873 C   0  0  0  0  0  0  0  0  0  0  0  0
  152.6852  141.3144  159.2982 C   0  0  0  0  0  0  0  0  0  0  0  0
  153.6585  140.9352  160.4016 C   0  0  0  0  0  0  0  0  0  0  0  0
  151.8117  144.5279  160.2359 H   0  0  0  0  0  0  0  0  0  0  0  0
  153.4329  143.8549  160.3858 H   0  0  0  0  0  0  0  0  0  0  0  0
  152.1054  143.2037  161.3596 H   0  0  0  0  0  0  0  0  0  0  0  0
  150.6848  143.9236  158.2564 H   0  0  0  0  0  0  0  0  0  0  0  0
  149.6016  140.6214  154.5904 H   0  0  0  0  0  0  0  0  0  0  0  0
  152.4907  138.7584  155.5709 H   0  0  0  0  0  0  0  0  0  0  0  0
  151.4018  138.0928  156.7580 H   0  0  0  0  0  0  0  0  0  0  0  0
  150.5576  138.7853  153.9005 H   0  0  0  0  0  0  0  0  0  0  0  0
  150.9834  136.6659  153.4209 H   0  0  0  0  0  0  0  0  0  0  0  0
  148.6254  138.4756  155.3780 H   0  0  0  0  0  0  0  0  0  0  0  0
  148.7171  137.1129  154.3035 H   0  0  0  0  0  0  0  0  0  0  0  0
  148.5178  135.0175  155.1753 H   0  0  0  0  0  0  0  0  0  0  0  0
  150.2531  135.1010  155.3761 H   0  0  0  0  0  0  0  0  0  0  0  0
  149.2532  133.2839  156.7607 H   0  0  0  0  0  0  0  0  0  0  0  0
  150.0805  134.4677  157.7565 H   0  0  0  0  0  0  0  0  0  0  0  0
  148.7227  136.1298  158.9300 H   0  0  0  0  0  0  0  0  0  0  0  0
  146.2505  137.0664  159.0930 H   0  0  0  0  0  0  0  0  0  0  0  0
  145.7837  135.5171  158.4353 H   0  0  0  0  0  0  0  0  0  0  0  0
  147.9967  133.8664  159.9712 H   0  0  0  0  0  0  0  0  0  0  0  0
  146.3026  133.3851  159.8201 H   0  0  0  0  0  0  0  0  0  0  0  0
  147.0057  133.6109  161.4096 H   0  0  0  0  0  0  0  0  0  0  0  0
  148.4795  136.2384  160.9784 H   0  0  0  0  0  0  0  0  0  0  0  0
  147.4034  135.8113  162.3147 H   0  0  0  0  0  0  0  0  0  0  0  0
  147.0832  137.2544  161.3614 H   0  0  0  0  0  0  0  0  0  0  0  0
  147.8676  137.8704  157.3908 H   0  0  0  0  0  0  0  0  0  0  0  0
  147.0893  136.6546  156.4028 H   0  0  0  0  0  0  0  0  0  0  0  0
  152.8799  139.3936  158.2992 H   0  0  0  0  0  0  0  0  0  0  0  0
  154.0484  139.9266  160.2616 H   0  0  0  0  0  0  0  0  0  0  0  0
  153.1673  140.9699  161.3741 H   0  0  0  0  0  0  0  0  0  0  0  0
  154.5067  141.6202  160.4166 H   0  0  0  0  0  0  0  0  0  0  0  0
  145.6623  135.4733  160.7472 H   0  0  0  0  0  0  0  0  0  0  0  0
  149.4858  142.8356  155.8843 H   0  0  0  0  0  0  0  0  0  0  0  0
  1  2  1  0  0  0  0
  1 26  1  0  0  0  0
  1 27  1  0  0  0  0
  1 28  1  0  0  0  0
  2 24  1  0  0  0  0
  2  3  2  0  0  0  0
  3  4  1  0  0  0  0
  3 29  1  0  0  0  0
  4 22  2  0  0  0  0
  4  5  1  0  0  0  0
  5  6  2  0  0  0  0
  5 57  1  0  0  0  0
  6  7  1  0  0  0  0
  6 30  1  0  0  0  0
  7  8  1  0  0  0  0
  7 22  1  0  0  0  0
  8  9  1  0  0  0  0
  8 31  1  0  0  0  0
  8 32  1  0  0  0  0
  9 10  1  0  0  0  0
  9 11  1  0  0  0  0
  9 33  1  0  0  0  0
 10 34  1  0  0  0  0
 11 12  1  0  0  0  0
 11 35  1  0  0  0  0
 11 36  1  0  0  0  0
 12 21  1  0  0  0  0
 12 13  1  0  0  0  0
 13 14  1  0  0  0  0
 13 37  1  0  0  0  0
 13 38  1  0  0  0  0
 14 15  1  0  0  0  0
 14 39  1  0  0  0  0
 14 40  1  0  0  0  0
 15 16  1  0  0  0  0
 16 17  1  0  0  0  0
 16 21  1  0  0  0  0
 16 41  1  0  0  0  0
 17 18  1  0  0  0  0
 17 42  1  0  0  0  0
 17 43  1  0  0  0  0
 18 19  1  0  0  0  0
 18 20  1  0  0  0  0
 18 56  1  0  0  0  0
 19 44  1  0  0  0  0
 19 45  1  0  0  0  0
 19 46  1  0  0  0  0
 20 47  1  0  0  0  0
 20 48  1  0  0  0  0
 20 49  1  0  0  0  0
 21 50  1  0  0  0  0
 21 51  1  0  0  0  0
 22 23  1  0  0  0  0
 23 24  2  0  0  0  0
 23 52  1  0  0  0  0
 24 25  1  0  0  0  0
 25 53  1  0  0  0  0
 25 54  1  0  0  0  0
 25 55  1  0  0  0  0
M  CHG  1   5   1
M  CHG  1  18   1
M  END
> <s_m_source_file>
AV-unprocessed.smi

> <i_m_source_file_index>
1005

> <i_lp_mmshare_version>
43012

> <i_f3d_flags>
0

> <s_epik_input>
W0NIM11jKFtjSF0xKWMoW0NIM10pW2NIXWMoYzEyKW4oW2NIXW4yKVtDSDJdW0NASF0oW09IXSlbQ0gyXU4zW0NIMl1bQ0gyXU9bQ0BIXShbQ0gyXTMpW0NIMl1OKFtDSDNdKVtDSDNd

> <s_epik_cmdline>
J2VwaWtfcHl0aG9uJywgJy1waCcsICc3LjAnLCAnLXRuJywgJzgnLCAnLW1hJywgJzIwMCcsICctbWV0YWxfYmluZGluZycsICctaW1hZScsICc8aW5maWxlLm1hZT4nLCAnLW9tYWUnLCAnPG91dGZpbGUubWFlPic=

> <r_epik_Ionization_Penalty>
1.3281

> <r_epik_Ionization_Penalty_Charging>
1.21988

> <r_epik_Ionization_Penalty_Neutral>
0.10822

> <r_epik_State_Penalty>
1.32886

> <r_epik_Charging_Adjusted_Penalty>
2.54875

> <i_epik_Tot_Q>
2

> <i_epik_Tot_abs_Q>
2

> <r_epik_Metal_State_Penalty>
5.33912

> <b_epik_Metal_Only>
0

> <s_lp_Force_Field>
OPLS_2005

> <r_lp_Energy>
45.9182

> <b_lp_Chiralities_Consistent>
1

> <s_lp_Variant>
AV-unprocessed.smi:1005-16

> <Gold.Version>
5.8.1

> <Gold.Id.Protein>
6NUR|6NUR_protein|mol2

> <Gold.PLP.Fitness>
53.5519

> <Gold.PLP.PLP>
-43.1002

> <Gold.PLP.part.hbond>
-3.0000

> <Gold.PLP.part.metal>
0.0000

> <Gold.PLP.part.buried>
-5.1623

> <Gold.PLP.part.nonpolar>
-35.1946

> <Gold.PLP.part.repulsive>
0.2030

> <Gold.PLP.ligand.clash>
0.0000

> <Gold.PLP.ligand.torsion>
0.7389

> <Gold.PLP.Chemscore.Hbond>
3.9264

> <Gold.PLP.Chemscore.CHOScore>
0.0000

> <Gold.PLP.Chemscore.Metal>
0.0000

> <Gold.Chemscore.Hbonds>
donor molecule, donor type, donor heavy atom, donor atom, acceptor molecule, acceptor atom, score
      L1  H     5    57       P1  8028  2.00
      L1  H    10    34       P1  7949  0.94
      P1  H 10752 10763       L1    10  0.94

> <Gold.PLP.Chemscore.Internal.Correction>
0.1503

> <Gold.Rescore>
     Score         DG    S(hbond)    S(metal)    S(lipo)     H(rot)  DE(clash)    DE(int)     intcor
     17.51     -19.64       1.98        0.00     118.97       2.49       0.04       2.10       ----

> <Gold.Chemscore.Fitness>
17.5082

> <Gold.Chemscore.DG>
-19.6397

> <Gold.Chemscore.ZeroCoef>
-5.4800

> <Gold.Chemscore.Hbond>
1.9800

> <Gold.Chemscore.Metal>
0.0000

> <Gold.Chemscore.Lipo>
118.9749

> <Gold.Chemscore.Internal_Hbond>
0.0000

> <Gold.Chemscore.DEClash>
0.0365

> <Gold.Chemscore.DEInternal>
2.0951

> <Gold.Chemscore.Rot>
2.4897

> <Gold.Chemscore.Internal.Correction>
   9.000000E+99

> <Gold.Chemscore.Hbonds>
donor molecule, donor type, donor heavy atom, donor atom, acceptor molecule, acceptor atom, score
      L1  H     5    57       P1  8028  0.96
      L1  H    10    34       P1  7949  0.22
      P1  H 10752 10763       L1    10  0.23

> <Gold.Chemscore.Hbond.Weighted>
-6.6134

> <Gold.Chemscore.Metal.Weighted>
-0.0000

> <Gold.Chemscore.Lipo.Weighted>
-13.9201

> <Gold.Chemscore.Internal_Hbond.Weighted>
0.0000

> <Gold.Chemscore.DEClash.Weighted>
0.0365

> <Gold.Chemscore.DEInternal.Weighted>
2.0951

> <Gold.Chemscore.Rot.Weighted>
6.3737

> <Gold.Chemscore.Internal.Correction.Weighted>
   9.000000E+99

> <Gold.Protein.RotatedTorsions>
[ 6907 6896 6895 6894 ] final   11.09 input  -60.11 | X-H torsion
[ 7974 7965 7964 7962 ] final   44.58 input  175.53 | X-H torsion
[ 8008 7997 7996 7995 ] final  -72.24 input   59.86 | X-H torsion
[ 10167 10162 10161 10158 ] final  141.63 input  -65.29 | X-H torsion
[ 10718 10713 10712 10709 ] final   -3.83 input   66.30 | X-H torsion
[ 10763 10752 10751 10750 ] final   50.03 input  -60.55 | X-H torsion
[ 11005 11000 10999 10996 ] final -176.64 input  -57.11 | X-H torsion

> <Gold.Protein.ActiveResidues>
 VAL166  LYS551  ARG553  GLY616  TRP617  ASP618  TYR619  PRO620  LYS621  CYS622 
 ASP623  PHE694  ASN695  SER759  ASP760  ASP761  ALA762  ILE779  LEU786  VAL792 
 PHE793  MET794  SER795  GLU796  ALA797  LYS798  CYS799  TRP800  GLU811  SER814 

> <Gold.Protein.RotatedAtoms>
  151.7488  135.0837  160.0327 H   0  0  0  0  0  0  0  0  0  0  0  0  # atno 6907 bound_to 6896
  152.3431  133.6086  159.5899 H   0  0  0  0  0  0  0  0  0  0  0  0  # atno 6908 bound_to 6896
  150.7491  133.9608  159.3556 H   0  0  0  0  0  0  0  0  0  0  0  0  # atno 6909 bound_to 6896
  146.0556  139.5058  142.9691 H   0  0  0  0  0  0  0  0  0  0  0  0  # atno 7974 bound_to 7965
  154.5151  140.0801  156.8065 H   0  0  0  0  0  0  0  0  0  0  0  0  # atno 8008 bound_to 7997
  155.3699  140.3422  155.4225 H   0  0  0  0  0  0  0  0  0  0  0  0  # atno 8009 bound_to 7997
  156.1618  140.1591  156.8586 H   0  0  0  0  0  0  0  0  0  0  0  0  # atno 8010 bound_to 7997
  139.5015  144.6159  151.6164 H   0  0  0  0  0  0  0  0  0  0  0  0  # atno 10167 bound_to 10162
  156.7703  130.5298  149.5768 H   0  0  0  0  0  0  0  0  0  0  0  0  # atno 10718 bound_to 10713
  152.9785  135.5892  154.4185 H   0  0  0  0  0  0  0  0  0  0  0  0  # atno 10763 bound_to 10752
  154.3812  135.2767  155.2212 H   0  0  0  0  0  0  0  0  0  0  0  0  # atno 10764 bound_to 10752
  154.4125  135.6078  153.6015 H   0  0  0  0  0  0  0  0  0  0  0  0  # atno 10765 bound_to 10752
  140.4498  134.6353  157.4796 H   0  0  0  0  0  0  0  0  0  0  0  0  # atno 11005 bound_to 11000
  145.6650  141.0231  143.1688 LP  0  0  0  0  0  0  0  0  0  0  0  0  # atno 17320 bound_to 7965
  144.7146  139.8244  143.7403 LP  0  0  0  0  0  0  0  0  0  0  0  0  # atno 17321 bound_to 7965
  140.5847  143.9884  150.6289 LP  0  0  0  0  0  0  0  0  0  0  0  0  # atno 17342 bound_to 10162
  140.3045  143.3238  152.0939 LP  0  0  0  0  0  0  0  0  0  0  0  0  # atno 17343 bound_to 10162
  156.1282  130.6159  151.0295 LP  0  0  0  0  0  0  0  0  0  0  0  0  # atno 17370 bound_to 10713
  157.6694  131.0864  150.7649 LP  0  0  0  0  0  0  0  0  0  0  0  0  # atno 17371 bound_to 10713
  140.0014  134.6831  155.9524 LP  0  0  0  0  0  0  0  0  0  0  0  0  # atno 17394 bound_to 11000
  141.1669  133.6537  156.4511 LP  0  0  0  0  0  0  0  0  0  0  0  0  # atno 17395 bound_to 11000

$$$$
