AV-unprocessed.smi:2802|AV-procd|sdf|10804|dock7
  -GOLD-   2272015243D 1   1.00000     0.00000
 Structure written by MMmdl.
 47 48  0  0  0  0  0  0  0  0  1 V2000
  147.4102  139.5399  153.2139 C   0  0  0  0  0  0  0  0  0  0  0  0
  148.5211  139.0471  154.1533 C   0  0  1  0  0  0  0  0  0  0  0  0
  149.0247  140.1852  155.0567 C   0  0  0  0  0  0  0  0  0  0  0  0
  150.1642  139.7554  156.0067 C   0  0  0  0  0  0  0  0  0  0  0  0
  151.4953  139.5984  155.2380 C   0  0  0  0  0  0  0  0  0  0  0  0
  150.3838  140.8803  157.0404 C   0  0  0  0  0  0  0  0  0  0  0  0
  149.7708  138.4618  156.7768 C   0  0  0  0  0  0  0  0  0  0  0  0
  149.1097  137.2941  155.9747 C   0  0  1  0  0  0  0  0  0  0  0  0
  150.1539  136.4334  155.2052 C   0  0  0  0  0  0  0  0  0  0  0  0
  149.5459  135.4098  154.4399 O   0  0  0  0  0  0  0  0  0  0  0  0
  148.3759  136.4377  156.9224 N   0  0  0  0  0  0  0  0  0  0  0  0
  148.8570  135.7199  157.9534 C   0  0  0  0  0  0  0  0  0  0  0  0
  150.0457  135.6976  158.2752 O   0  0  0  0  0  0  0  0  0  0  0  0
  147.8128  134.9082  158.7296 C   0  0  0  0  0  0  0  0  0  0  0  0
  147.7850  135.2631  160.2075 C   0  0  0  0  0  0  0  0  0  0  0  0
  147.2250  134.3805  161.1545 C   0  0  0  0  0  0  0  0  0  0  0  0
  147.2216  134.7550  162.5118 C   0  0  0  0  0  0  0  0  0  0  0  0
  147.7792  136.0003  162.8652 C   0  0  0  0  0  0  0  0  0  0  0  0
  148.3178  136.8536  161.9676 N   0  0  0  0  0  0  0  0  0  0  0  0
  148.3171  136.4867  160.6679 C   0  0  0  0  0  0  0  0  0  0  0  0
  148.0356  137.8681  155.0146 C   0  0  0  0  0  0  0  0  0  0  0  0
  146.5462  139.8990  153.7738 H   0  0  0  0  0  0  0  0  0  0  0  0
  147.0706  138.7413  152.5539 H   0  0  0  0  0  0  0  0  0  0  0  0
  147.7621  140.3579  152.5845 H   0  0  0  0  0  0  0  0  0  0  0  0
  149.3384  138.7067  153.5189 H   0  0  0  0  0  0  0  0  0  0  0  0
  149.3518  141.0272  154.4453 H   0  0  0  0  0  0  0  0  0  0  0  0
  148.1836  140.5550  155.6455 H   0  0  0  0  0  0  0  0  0  0  0  0
  152.2829  139.2096  155.8841 H   0  0  0  0  0  0  0  0  0  0  0  0
  151.8391  140.5595  154.8542 H   0  0  0  0  0  0  0  0  0  0  0  0
  151.4223  138.9414  154.3769 H   0  0  0  0  0  0  0  0  0  0  0  0
  151.1824  140.6271  157.7388 H   0  0  0  0  0  0  0  0  0  0  0  0
  149.4852  141.0708  157.6283 H   0  0  0  0  0  0  0  0  0  0  0  0
  150.6570  141.8190  156.5569 H   0  0  0  0  0  0  0  0  0  0  0  0
  150.6381  138.0975  157.3285 H   0  0  0  0  0  0  0  0  0  0  0  0
  149.0562  138.7605  157.5462 H   0  0  0  0  0  0  0  0  0  0  0  0
  150.7385  137.0304  154.5125 H   0  0  0  0  0  0  0  0  0  0  0  0
  150.8658  135.9734  155.8903 H   0  0  0  0  0  0  0  0  0  0  0  0
  149.2253  135.7873  153.6350 H   0  0  0  0  0  0  0  0  0  0  0  0
  147.3821  136.3710  156.7577 H   0  0  0  0  0  0  0  0  0  0  0  0
  146.8289  135.0799  158.2914 H   0  0  0  0  0  0  0  0  0  0  0  0
  148.0268  133.8440  158.6207 H   0  0  0  0  0  0  0  0  0  0  0  0
  146.8032  133.4344  160.8477 H   0  0  0  0  0  0  0  0  0  0  0  0
  146.8005  134.1046  163.2640 H   0  0  0  0  0  0  0  0  0  0  0  0
  147.7929  136.3189  163.8971 H   0  0  0  0  0  0  0  0  0  0  0  0
  148.7524  137.1914  159.9746 H   0  0  0  0  0  0  0  0  0  0  0  0
  147.1811  138.2136  155.6000 H   0  0  0  0  0  0  0  0  0  0  0  0
  147.6441  137.0789  154.3714 H   0  0  0  0  0  0  0  0  0  0  0  0
  1  2  1  0  0  0  0
  1 22  1  0  0  0  0
  1 23  1  0  0  0  0
  1 24  1  0  0  0  0
  2 21  1  0  0  0  0
  2  3  1  0  0  0  0
  2 25  1  0  0  0  0
  3  4  1  0  0  0  0
  3 26  1  0  0  0  0
  3 27  1  0  0  0  0
  4  5  1  0  0  0  0
  4  6  1  0  0  0  0
  4  7  1  0  0  0  0
  5 28  1  0  0  0  0
  5 29  1  0  0  0  0
  5 30  1  0  0  0  0
  6 31  1  0  0  0  0
  6 32  1  0  0  0  0
  6 33  1  0  0  0  0
  7  8  1  0  0  0  0
  7 34  1  0  0  0  0
  7 35  1  0  0  0  0
  8  9  1  0  0  0  0
  8 11  1  0  0  0  0
  8 21  1  0  0  0  0
  9 10  1  0  0  0  0
  9 36  1  0  0  0  0
  9 37  1  0  0  0  0
 10 38  1  0  0  0  0
 11 12  1  0  0  0  0
 11 39  1  0  0  0  0
 12 13  2  0  0  0  0
 12 14  1  0  0  0  0
 14 15  1  0  0  0  0
 14 40  1  0  0  0  0
 14 41  1  0  0  0  0
 15 20  1  0  0  0  0
 15 16  2  0  0  0  0
 16 17  1  0  0  0  0
 16 42  1  0  0  0  0
 17 18  2  0  0  0  0
 17 43  1  0  0  0  0
 18 19  1  0  0  0  0
 18 44  1  0  0  0  0
 19 20  2  0  0  0  0
 20 45  1  0  0  0  0
 21 46  1  0  0  0  0
 21 47  1  0  0  0  0
M  END
> <s_m_source_file>
AV-unprocessed.smi

> <i_m_source_file_index>
2802

> <i_lp_mmshare_version>
43012

> <i_f3d_flags>
0

> <s_epik_input>
W0NIM11DMShbQ0gzXSlbQ0gyXVtDQEBIXShbQ0gzXSlbQ0gyXVtDQF0oW0NIMl0xKShbQ0gyXVtPSF0pW05IXUMoPU8pW0NIMl1jMltjSF1bY0hdW2NIXW5bY0hdMg==

> <s_epik_cmdline>
J2VwaWtfcHl0aG9uJywgJy1waCcsICc3LjAnLCAnLXRuJywgJzgnLCAnLW1hJywgJzIwMCcsICctbWV0YWxfYmluZGluZycsICctaW1hZScsICc8aW5maWxlLm1hZT4nLCAnLW9tYWUnLCAnPG91dGZpbGUubWFlPic=

> <r_epik_Ionization_Penalty>
0.004793

> <r_epik_Ionization_Penalty_Charging>
0

> <r_epik_Ionization_Penalty_Neutral>
0.004793

> <r_epik_State_Penalty>
0.00347421

> <r_epik_Charging_Adjusted_Penalty>
0.00347421

> <i_epik_Tot_Q>
0

> <i_epik_Tot_abs_Q>
0

> <r_epik_Metal_State_Penalty>
-0

> <b_epik_Metal_Only>
0

> <s_lp_Force_Field>
OPLS_2005

> <r_lp_Energy>
22.6817

> <b_lp_Chiralities_Consistent>
1

> <s_lp_Variant>
AV-unprocessed.smi:2802-2

> <Gold.Version>
5.8.1

> <Gold.Id.Protein>
6NUR|6NUR_protein|mol2

> <Gold.PLP.Fitness>
41.2224

> <Gold.PLP.PLP>
-32.8370

> <Gold.PLP.part.hbond>
-3.2059

> <Gold.PLP.part.metal>
0.0000

> <Gold.PLP.part.buried>
-1.3267

> <Gold.PLP.part.nonpolar>
-27.5228

> <Gold.PLP.part.repulsive>
0.0000

> <Gold.PLP.ligand.clash>
0.0000

> <Gold.PLP.ligand.torsion>
0.3017

> <Gold.PLP.Chemscore.Hbond>
2.9920

> <Gold.PLP.Chemscore.CHOScore>
0.0000

> <Gold.PLP.Chemscore.Metal>
0.0000

> <Gold.Chemscore.Hbonds>
donor molecule, donor type, donor heavy atom, donor atom, acceptor molecule, acceptor atom, score
      L1  H    10    38       P1  7948  1.00
      P1  H  6896  6907       L1    13  0.96
      P1  H  6931  6943       L1    19  1.00

> <Gold.PLP.Chemscore.Internal.Correction>
0.0127

> <Gold.Rescore>
     Score         DG    S(hbond)    S(metal)    S(lipo)     H(rot)  DE(clash)    DE(int)     intcor
     17.39     -17.94       2.28        0.00      85.29       2.00       0.21       0.34       ----

> <Gold.Chemscore.Fitness>
17.3876

> <Gold.Chemscore.DG>
-17.9394

> <Gold.Chemscore.ZeroCoef>
-5.4800

> <Gold.Chemscore.Hbond>
2.2775

> <Gold.Chemscore.Metal>
0.0000

> <Gold.Chemscore.Lipo>
85.2938

> <Gold.Chemscore.Internal_Hbond>
0.0000

> <Gold.Chemscore.DEClash>
0.2097

> <Gold.Chemscore.DEInternal>
0.3421

> <Gold.Chemscore.Rot>
2.0026

> <Gold.Chemscore.Internal.Correction>
   9.000000E+99

> <Gold.Chemscore.Hbonds>
donor molecule, donor type, donor heavy atom, donor atom, acceptor molecule, acceptor atom, score
      L1  H    10    38       P1  7948  0.70
      P1  H  6896  6907       L1    13  0.92
      P1  H  6931  6943       L1    19  0.38

> <Gold.Chemscore.Hbond.Weighted>
-7.6067

> <Gold.Chemscore.Metal.Weighted>
-0.0000

> <Gold.Chemscore.Lipo.Weighted>
-9.9794

> <Gold.Chemscore.Internal_Hbond.Weighted>
0.0000

> <Gold.Chemscore.DEClash.Weighted>
0.2097

> <Gold.Chemscore.DEInternal.Weighted>
0.3421

> <Gold.Chemscore.Rot.Weighted>
5.1267

> <Gold.Chemscore.Internal.Correction.Weighted>
   9.000000E+99

> <Gold.Protein.RotatedTorsions>
[ 6907 6896 6895 6894 ] final  -58.51 input  -60.11 | X-H torsion
[ 7974 7965 7964 7962 ] final   31.90 input  175.53 | X-H torsion
[ 8008 7997 7996 7995 ] final  -33.10 input   59.86 | X-H torsion
[ 10167 10162 10161 10158 ] final  -88.04 input  -65.29 | X-H torsion
[ 10718 10713 10712 10709 ] final  174.11 input   66.30 | X-H torsion
[ 10763 10752 10751 10750 ] final  128.64 input  -60.55 | X-H torsion
[ 11005 11000 10999 10996 ] final -136.50 input  -57.11 | X-H torsion

> <Gold.Protein.ActiveResidues>
 VAL166  LYS551  ARG553  GLY616  TRP617  ASP618  TYR619  PRO620  LYS621  CYS622 
 ASP623  PHE694  ASN695  SER759  ASP760  ASP761  ALA762  ILE779  LEU786  VAL792 
 PHE793  MET794  SER795  GLU796  ALA797  LYS798  CYS799  TRP800  GLU811  SER814 

> <Gold.Protein.RotatedAtoms>
  150.8002  134.7090  159.6592 H   0  0  0  0  0  0  0  0  0  0  0  0  # atno 6907 bound_to 6896
  152.4118  134.6108  160.0035 H   0  0  0  0  0  0  0  0  0  0  0  0  # atno 6908 bound_to 6896
  151.6349  133.3292  159.3153 H   0  0  0  0  0  0  0  0  0  0  0  0  # atno 6909 bound_to 6896
  146.1521  139.6596  142.9092 H   0  0  0  0  0  0  0  0  0  0  0  0  # atno 7974 bound_to 7965
  154.4159  140.1720  156.1834 H   0  0  0  0  0  0  0  0  0  0  0  0  # atno 8008 bound_to 7997
  155.9663  140.3389  155.6512 H   0  0  0  0  0  0  0  0  0  0  0  0  # atno 8009 bound_to 7997
  155.6683  140.0708  157.2520 H   0  0  0  0  0  0  0  0  0  0  0  0  # atno 8010 bound_to 7997
  140.3786  143.2760  151.9412 H   0  0  0  0  0  0  0  0  0  0  0  0  # atno 10167 bound_to 10162
  156.9545  131.0041  151.2941 H   0  0  0  0  0  0  0  0  0  0  0  0  # atno 10718 bound_to 10713
  153.7289  135.3242  155.3282 H   0  0  0  0  0  0  0  0  0  0  0  0  # atno 10763 bound_to 10752
  154.8332  135.4517  154.1142 H   0  0  0  0  0  0  0  0  0  0  0  0  # atno 10764 bound_to 10752
  153.2284  135.6957  153.7999 H   0  0  0  0  0  0  0  0  0  0  0  0  # atno 10765 bound_to 10752
  140.8799  134.1945  157.4598 H   0  0  0  0  0  0  0  0  0  0  0  0  # atno 11005 bound_to 11000
  145.4799  141.0438  143.2652 LP  0  0  0  0  0  0  0  0  0  0  0  0  # atno 17320 bound_to 7965
  144.7916  139.6316  143.7110 LP  0  0  0  0  0  0  0  0  0  0  0  0  # atno 17321 bound_to 7965
  139.4797  144.5840  151.7884 LP  0  0  0  0  0  0  0  0  0  0  0  0  # atno 17342 bound_to 10162
  140.4961  144.1238  150.5960 LP  0  0  0  0  0  0  0  0  0  0  0  0  # atno 17343 bound_to 10162
  157.5700  130.8304  149.8378 LP  0  0  0  0  0  0  0  0  0  0  0  0  # atno 17370 bound_to 10713
  156.0348  130.3754  150.1588 LP  0  0  0  0  0  0  0  0  0  0  0  0  # atno 17371 bound_to 10713
  139.8719  134.9812  156.5108 LP  0  0  0  0  0  0  0  0  0  0  0  0  # atno 17394 bound_to 11000
  140.8473  133.8159  155.9134 LP  0  0  0  0  0  0  0  0  0  0  0  0  # atno 17395 bound_to 11000

$$$$
