#       Name:                AV-unprocessed.smi:298
#       Creating user name   scv26
#       Creation time:       Thu Mar 26 22:14:59 2020


#       File generated by GOLD software.
#

@<TRIPOS>MOLECULE
AV-unprocessed.smi:298
    44    46     1
SMALL
NO_CHARGES


@<TRIPOS>ATOM
      1 ****        -1.8899   4.4826   1.7730 C.3            1 S1                 0.0000
      2 ****        -1.4877   3.2997   0.9100 C.ar           1 S1                 0.0000
      3 ****        -1.4981   3.4400  -0.4963 C.ar           1 S1                 0.0000
      4 ****        -1.1267   2.3659  -1.3343 C.ar           1 S1                 0.0000
      5 ****        -1.0606   2.2826  -2.7148 N.2            1 S1                 0.0000
      6 ****        -0.6447   1.0313  -2.8888 C.2            1 S1                 0.0000
      7 ****        -0.4325   0.2935  -1.7823 N.pl3          1 S1                 0.0000
      8 ****         0.0245  -1.0829  -1.7210 C.3            1 S1                 0.0000
      9 ****         1.5629  -1.1969  -1.7785 C.3            1 S1                 0.0000
     10 ****         2.1391  -0.4696  -0.7101 O.3            1 S1                 0.0000
     11 ****         2.0755  -2.6535  -1.7487 C.3            1 S1                 0.0000
     12 ****         1.6024  -3.4191  -0.6065 N.pl3          1 S1                 0.0000
     13 ****         0.5790  -4.2729  -0.4988 C.2            1 S1                 0.0000
     14 ****         0.4345  -4.7935   0.7134 N.2            1 S1                 0.0000
     15 ****         1.4793  -4.1737   1.3351 C.2            1 S1                 0.0000
     16 ****         1.7743  -4.4067   2.7388 C.1            1 S1                 0.0000
     17 ****         2.0089  -4.5921   3.8568 N.1            1 S1                 0.0000
     18 ****         2.2176  -3.3459   0.5991 N.2            1 S1                 0.0000
     19 ****        -0.7421   1.1378  -0.7216 C.ar           1 S1                 0.0000
     20 ****        -0.7291   0.9849   0.6760 C.ar           1 S1                 0.0000
     21 ****        -1.1025   2.0682   1.4986 C.ar           1 S1                 0.0000
     22 ****        -1.0822   1.8940   3.0069 C.3            1 S1                 0.0000
     23 ****        -2.1710   5.3422   1.1641 H              1 S1                 0.0000
     24 ****        -1.0629   4.7847   2.4160 H              1 S1                 0.0000
     25 ****        -2.7426   4.2256   2.4019 H              1 S1                 0.0000
     26 ****        -1.7900   4.3783  -0.9447 H              1 S1                 0.0000
     27 ****        -0.4807   0.6280  -3.8774 H              1 S1                 0.0000
     28 ****        -0.3676  -1.5296  -0.8068 H              1 S1                 0.0000
     29 ****        -0.4236  -1.6306  -2.5512 H              1 S1                 0.0000
     30 ****         1.9133  -0.7335  -2.7015 H              1 S1                 0.0000
     31 ****         1.8414   0.4260  -0.7609 H              1 S1                 0.0000
     32 ****         1.7558  -3.1709  -2.6540 H              1 S1                 0.0000
     33 ****         3.1664  -2.6730  -1.7554 H              1 S1                 0.0000
     34 ****        -0.0767  -4.5130  -1.3230 H              1 S1                 0.0000
     35 ****        -0.4301   0.0423   1.1106 H              1 S1                 0.0000
     36 ****        -0.7438   0.8962   3.2881 H              1 S1                 0.0000
     37 ****        -2.0803   2.0381   3.4214 H              1 S1                 0.0000
     38 ****        -0.4079   2.6169   3.4666 H              1 S1                 0.0000
     39 ****        -1.2704   2.9796  -3.4004 LP             1 S1                 0.0000
     40 ****         3.1361  -0.4981  -0.7820 LP             1 S1                 0.0000
     41 ****         1.8562  -0.8700   0.1615 LP             1 S1                 0.0000
     42 ****        -0.2381  -5.4445   1.0655 LP             1 S1                 0.0000
     43 ****         2.2116  -4.7523   4.8229 LP             1 S1                 0.0000
     44 ****         3.0181  -2.8095   0.8662 LP             1 S1                 0.0000
@<TRIPOS>BOND
    1    1    2 1     
    2    1   23 1     
    3    1   24 1     
    4    1   25 1     
    5    2   21 ar    
    6    2    3 ar    
    7    3    4 ar    
    8    3   26 1     
    9    4   19 ar    
   10    4    5 1     
   11    5    6 2     
   12    6    7 1     
   13    6   27 1     
   14    7    8 1     
   15    7   19 1     
   16    8    9 1     
   17    8   28 1     
   18    8   29 1     
   19    9   10 1     
   20    9   11 1     
   21    9   30 1     
   22   10   31 1     
   23   11   12 1     
   24   11   32 1     
   25   11   33 1     
   26   12   18 1     
   27   12   13 1     
   28   13   14 2     
   29   13   34 1     
   30   14   15 1     
   31   15   16 1     
   32   15   18 2     
   33   16   17 3     
   34   19   20 ar    
   35   20   21 ar    
   36   20   35 1     
   37   21   22 1     
   38   22   36 1     
   39   22   37 1     
   40   22   38 1     
   41    5   39 1     
   42   10   40 1     
   43   10   41 1     
   44   14   42 1     
   45   17   43 1     
   46   18   44 1     
@<TRIPOS>SUBSTRUCTURE
      1 S1             1
@<TRIPOS>SET
LONE_PAIRS      STATIC     ATOMS    <user>   **** ""
6 39 40 41 42 43 44
DONOR_HYDROGENS      STATIC     ATOMS    <user>   **** ""
1 31
ATOM$BLUE        STATIC     ATOMS    COLORGROUP SYSTEM
6 39 40 41 42 43 44
ATOM$RED        STATIC     ATOMS    COLORGROUP SYSTEM
1 31
