#       Name:                AV-unprocessed.smi:408
#       Creating user name   scv26
#       Creation time:       Thu Mar 26 22:45:16 2020


#       File generated by GOLD software.
#

@<TRIPOS>MOLECULE
AV-unprocessed.smi:408
    46    47     1
SMALL
NO_CHARGES


@<TRIPOS>ATOM
      1 ****        13.4870  -3.0248   8.4491 C.3            1 S1                 0.0000
      2 ****        12.4143  -1.9484   8.2129 C.3            1 S1                 0.0000
      3 ****        12.3573  -0.9797   9.4041 C.3            1 S1                 0.0000
      4 ****        11.0222  -2.5515   7.9352 C.3            1 S1                 0.0000
      5 ****        10.9253  -3.3291   6.6090 C.3            1 S1                 0.0000
      6 ****         9.5746  -3.8301   6.3814 N.am           1 S1                 0.0000
      7 ****         8.5534  -3.1049   5.8986 C.2            1 S1                 0.0000
      8 ****         8.6603  -1.9179   5.5864 O.2            1 S1                 0.0000
      9 ****         7.2095  -3.8310   5.7666 C.3            1 S1                 0.0000
     10 ****         6.4909  -3.4284   4.5099 C.2            1 S1                 0.0000
     11 ****         6.5469  -4.0541   3.2880 C.2            1 S1                 0.0000
     12 ****         5.5550  -3.2544   2.0979 S.3            1 S1                 0.0000
     13 ****         5.1091  -2.0710   3.3175 C.2            1 S1                 0.0000
     14 ****         4.2223  -0.9978   3.0298 N.am           1 S1                 0.0000
     15 ****         3.9962   0.1551   3.6934 C.2            1 S1                 0.0000
     16 ****         4.6258   0.4088   4.7191 O.2            1 S1                 0.0000
     17 ****         2.9879   1.1172   3.1500 C.3            1 S1                 0.0000
     18 ****         2.1941   1.9356   4.1510 C.3            1 S1                 0.0000
     19 ****         1.5241   0.8149   3.4012 C.3            1 S1                 0.0000
     20 ****         5.6477  -2.3129   4.5167 N.2            1 S1                 0.0000
     21 ****        13.2195  -3.6748   9.2827 H              1 S1                 0.0000
     22 ****        14.4518  -2.5717   8.6791 H              1 S1                 0.0000
     23 ****        13.6300  -3.6507   7.5688 H              1 S1                 0.0000
     24 ****        12.7109  -1.3668   7.3388 H              1 S1                 0.0000
     25 ****        12.0568  -1.4929  10.3183 H              1 S1                 0.0000
     26 ****        11.6438  -0.1751   9.2242 H              1 S1                 0.0000
     27 ****        13.3292  -0.5195   9.5851 H              1 S1                 0.0000
     28 ****        10.7301  -3.1991   8.7632 H              1 S1                 0.0000
     29 ****        10.2914  -1.7416   7.9164 H              1 S1                 0.0000
     30 ****        11.2383  -2.7027   5.7719 H              1 S1                 0.0000
     31 ****        11.5942  -4.1889   6.6216 H              1 S1                 0.0000
     32 ****         9.4019  -4.7968   6.6165 H              1 S1                 0.0000
     33 ****         7.3699  -4.9102   5.7786 H              1 S1                 0.0000
     34 ****         6.6059  -3.6003   6.6451 H              1 S1                 0.0000
     35 ****         7.1114  -4.9337   3.0168 H              1 S1                 0.0000
     36 ****         3.7054  -1.0990   2.1685 H              1 S1                 0.0000
     37 ****         3.2656   1.6410   2.2373 H              1 S1                 0.0000
     38 ****         2.3728   1.7832   5.2140 H              1 S1                 0.0000
     39 ****         1.9466   2.9567   3.8683 H              1 S1                 0.0000
     40 ****         0.8271   1.0696   2.6054 H              1 S1                 0.0000
     41 ****         1.2752  -0.0852   3.9609 H              1 S1                 0.0000
     42 ****         9.5387  -1.4511   5.6885 LP             1 S1                 0.0000
     43 ****         7.8685  -1.4211   5.2309 LP             1 S1                 0.0000
     44 ****         5.3057  -0.2395   5.0617 LP             1 S1                 0.0000
     45 ****         4.4578   1.2634   5.2105 LP             1 S1                 0.0000
     46 ****         5.4676  -1.7577   5.3287 LP             1 S1                 0.0000
@<TRIPOS>BOND
    1    1    2 1     
    2    1   21 1     
    3    1   22 1     
    4    1   23 1     
    5    2    3 1     
    6    2    4 1     
    7    2   24 1     
    8    3   25 1     
    9    3   26 1     
   10    3   27 1     
   11    4    5 1     
   12    4   28 1     
   13    4   29 1     
   14    5    6 1     
   15    5   30 1     
   16    5   31 1     
   17    6    7 am    
   18    6   32 1     
   19    7    8 2     
   20    7    9 1     
   21    9   10 1     
   22    9   33 1     
   23    9   34 1     
   24   10   20 1     
   25   10   11 2     
   26   11   12 1     
   27   11   35 1     
   28   12   13 1     
   29   13   14 1     
   30   13   20 2     
   31   14   15 am    
   32   14   36 1     
   33   15   16 2     
   34   15   17 1     
   35   17   19 1     
   36   17   18 1     
   37   17   37 1     
   38   18   19 1     
   39   18   38 1     
   40   18   39 1     
   41   19   40 1     
   42   19   41 1     
   43    8   42 1     
   44    8   43 1     
   45   16   44 1     
   46   16   45 1     
   47   20   46 1     
@<TRIPOS>SUBSTRUCTURE
      1 S1             1
@<TRIPOS>SET
LONE_PAIRS      STATIC     ATOMS    <user>   **** ""
5 42 43 44 45 46
DONOR_HYDROGENS      STATIC     ATOMS    <user>   **** ""
2 32 36
ATOM$BLUE        STATIC     ATOMS    COLORGROUP SYSTEM
5 42 43 44 45 46
ATOM$RED        STATIC     ATOMS    COLORGROUP SYSTEM
2 32 36
