AV-unprocessed.smi:2774|AV-procd|sdf|10680|dock3
  -GOLD-   2272015123D 1   1.00000     0.00000
 Structure written by MMmdl.
 35 36  0  0  0  0  0  0  0  0  2 V2000
  149.4268  141.1778  153.8001 O   0  0  0  0  0  0  0  0  0  0  0  0
  149.8360  140.8190  155.1054 C   0  0  2  0  0  0  0  0  0  0  0  0
  150.7112  141.9487  155.6757 C   0  0  0  0  0  0  0  0  0  0  0  0
  150.1646  142.4664  156.9489 N   0  3  0  0  0  0  0  0  0  0  0  0
  151.1455  143.1369  157.8308 C   0  0  2  0  0  0  0  0  0  0  0  0
  152.0442  142.0750  158.4945 C   0  0  0  0  0  0  0  0  0  0  0  0
  153.1545  142.6895  159.3631 C   0  0  0  0  0  0  0  0  0  0  0  0
  152.5964  143.5284  160.5205 C   0  0  0  0  0  0  0  0  0  0  0  0
  151.6239  144.9271  159.9023 S   0  0  0  0  0  0  0  0  0  0  0  0
  150.4349  144.0061  158.8889 C   0  0  0  0  0  0  0  0  0  0  0  0
  150.5767  139.4912  155.1123 C   0  0  0  0  0  0  0  0  0  0  0  0
  150.7631  138.7555  153.9220 C   0  0  0  0  0  0  0  0  0  0  0  0
  151.4641  137.5347  153.9868 C   0  0  0  0  0  0  0  0  0  0  0  0
  151.9692  137.0305  155.1327 N   0  0  0  0  0  0  0  0  0  0  0  0
  151.7879  137.7379  156.2684 C   0  0  0  0  0  0  0  0  0  0  0  0
  151.1025  138.9687  156.3125 C   0  0  0  0  0  0  0  0  0  0  0  0
  149.3586  140.3906  153.2806 H   0  0  0  0  0  0  0  0  0  0  0  0
  148.9360  140.7179  155.7141 H   0  0  0  0  0  0  0  0  0  0  0  0
  151.7182  141.5718  155.8603 H   0  0  0  0  0  0  0  0  0  0  0  0
  150.8021  142.7550  154.9478 H   0  0  0  0  0  0  0  0  0  0  0  0
  149.4115  143.1090  156.7473 H   0  0  0  0  0  0  0  0  0  0  0  0
  151.7780  143.7730  157.2093 H   0  0  0  0  0  0  0  0  0  0  0  0
  151.4383  141.4012  159.1022 H   0  0  0  0  0  0  0  0  0  0  0  0
  152.5059  141.4567  157.7234 H   0  0  0  0  0  0  0  0  0  0  0  0
  153.7776  141.8912  159.7675 H   0  0  0  0  0  0  0  0  0  0  0  0
  153.8104  143.3043  158.7456 H   0  0  0  0  0  0  0  0  0  0  0  0
  151.9679  142.9157  161.1677 H   0  0  0  0  0  0  0  0  0  0  0  0
  153.4103  143.9128  161.1359 H   0  0  0  0  0  0  0  0  0  0  0  0
  149.7714  144.7339  158.4229 H   0  0  0  0  0  0  0  0  0  0  0  0
  149.8182  143.3878  159.5424 H   0  0  0  0  0  0  0  0  0  0  0  0
  150.3807  139.1152  152.9780 H   0  0  0  0  0  0  0  0  0  0  0  0
  151.6239  136.9484  153.0940 H   0  0  0  0  0  0  0  0  0  0  0  0
  152.2027  137.3110  157.1696 H   0  0  0  0  0  0  0  0  0  0  0  0
  150.9867  139.4936  157.2494 H   0  0  0  0  0  0  0  0  0  0  0  0
  149.7842  141.6783  157.4531 H   0  0  0  0  0  0  0  0  0  0  0  0
  1  2  1  0  0  0  0
  1 17  1  0  0  0  0
  2  3  1  0  0  0  0
  2 11  1  0  0  0  0
  2 18  1  0  0  0  0
  3  4  1  0  0  0  0
  3 19  1  0  0  0  0
  3 20  1  0  0  0  0
  4  5  1  0  0  0  0
  4 21  1  0  0  0  0
  4 35  1  0  0  0  0
  5 10  1  0  0  0  0
  5  6  1  0  0  0  0
  5 22  1  0  0  0  0
  6  7  1  0  0  0  0
  6 23  1  0  0  0  0
  6 24  1  0  0  0  0
  7  8  1  0  0  0  0
  7 25  1  0  0  0  0
  7 26  1  0  0  0  0
  8  9  1  0  0  0  0
  8 27  1  0  0  0  0
  8 28  1  0  0  0  0
  9 10  1  0  0  0  0
 10 29  1  0  0  0  0
 10 30  1  0  0  0  0
 11 16  1  0  0  0  0
 11 12  2  0  0  0  0
 12 13  1  0  0  0  0
 12 31  1  0  0  0  0
 13 14  2  0  0  0  0
 13 32  1  0  0  0  0
 14 15  1  0  0  0  0
 15 16  2  0  0  0  0
 15 33  1  0  0  0  0
 16 34  1  0  0  0  0
M  CHG  1   4   1
M  END
> <s_m_source_file>
AV-unprocessed.smi

> <i_m_source_file_index>
2774

> <i_lp_mmshare_version>
43012

> <i_f3d_flags>
0

> <s_epik_input>
W2NIXTFbY0hdbltjSF1bY0hdYzFbQ0BIXShbT0hdKVtDSDJdW05IXVtDQEBIXTJbQ0gyXVtDSDJdW0NIMl1TW0NIMl0y

> <s_epik_cmdline>
J2VwaWtfcHl0aG9uJywgJy1waCcsICc3LjAnLCAnLXRuJywgJzgnLCAnLW1hJywgJzIwMCcsICctbWV0YWxfYmluZGluZycsICctaW1hZScsICc8aW5maWxlLm1hZT4nLCAnLW9tYWUnLCAnPG91dGZpbGUubWFlPic=

> <r_epik_Ionization_Penalty>
0.0205977

> <r_epik_Ionization_Penalty_Charging>
0.0185619

> <r_epik_Ionization_Penalty_Neutral>
0.00203589

> <r_epik_State_Penalty>
0.0147768

> <r_epik_Charging_Adjusted_Penalty>
0.0333386

> <i_epik_Tot_Q>
1

> <i_epik_Tot_abs_Q>
1

> <r_epik_Metal_State_Penalty>
0.0152254

> <b_epik_Metal_Only>
0

> <s_lp_Force_Field>
OPLS_2005

> <r_lp_Energy>
9.96587

> <b_lp_Chiralities_Consistent>
1

> <s_lp_Variant>
AV-unprocessed.smi:2774-1

> <Gold.Version>
5.8.1

> <Gold.Id.Protein>
6NUR|6NUR_protein|mol2

> <Gold.PLP.Fitness>
49.7100

> <Gold.PLP.PLP>
-35.9886

> <Gold.PLP.part.hbond>
-5.0000

> <Gold.PLP.part.metal>
0.0000

> <Gold.PLP.part.buried>
-2.9160

> <Gold.PLP.part.nonpolar>
-27.3825

> <Gold.PLP.part.repulsive>
0.0907

> <Gold.PLP.ligand.clash>
0.0000

> <Gold.PLP.ligand.torsion>
0.9973

> <Gold.PLP.Chemscore.Hbond>
4.2335

> <Gold.PLP.Chemscore.CHOScore>
1.0000

> <Gold.PLP.Chemscore.Metal>
0.0000

> <Gold.Chemscore.Hbonds>
donor molecule, donor type, donor heavy atom, donor atom, acceptor molecule, acceptor atom, score
      L1  H     1    17       P1  7957  0.42
      L1  H     4    21       P1  8028  1.79
      P1  H  8011  8017       L1     1  0.76
      P1  H 10752 10763       L1    14  0.91
      L1  C    13    32       P1  7949  0.73

> <Gold.PLP.Chemscore.Internal.Correction>
0.0156

> <Gold.Rescore>
     Score         DG    S(hbond)    S(metal)    S(lipo)     H(rot)  DE(clash)    DE(int)     intcor
     18.45     -20.67       2.12        0.00     112.41       1.97       1.32       0.90       ----

> <Gold.Chemscore.Fitness>
18.4494

> <Gold.Chemscore.DG>
-20.6707

> <Gold.Chemscore.ZeroCoef>
-5.4800

> <Gold.Chemscore.Hbond>
2.1193

> <Gold.Chemscore.Metal>
0.0000

> <Gold.Chemscore.Lipo>
112.4082

> <Gold.Chemscore.Internal_Hbond>
0.0000

> <Gold.Chemscore.DEClash>
1.3178

> <Gold.Chemscore.DEInternal>
0.9035

> <Gold.Chemscore.Rot>
1.9686

> <Gold.Chemscore.Internal.Correction>
   9.000000E+99

> <Gold.Chemscore.Hbonds>
donor molecule, donor type, donor heavy atom, donor atom, acceptor molecule, acceptor atom, score
      L1  H     1    17       P1  7957  0.41
      L1  H     4    21       P1  8028  0.84
      P1  H  8011  8017       L1     1  0.13
      P1  H 10752 10763       L1    14  0.70

> <Gold.Chemscore.Hbond.Weighted>
-7.0785

> <Gold.Chemscore.Metal.Weighted>
-0.0000

> <Gold.Chemscore.Lipo.Weighted>
-13.1518

> <Gold.Chemscore.Internal_Hbond.Weighted>
0.0000

> <Gold.Chemscore.DEClash.Weighted>
1.3178

> <Gold.Chemscore.DEInternal.Weighted>
0.9035

> <Gold.Chemscore.Rot.Weighted>
5.0396

> <Gold.Chemscore.Internal.Correction.Weighted>
   9.000000E+99

> <Gold.Protein.RotatedTorsions>
[ 6907 6896 6895 6894 ] final -176.20 input  -60.11 | X-H torsion
[ 7974 7965 7964 7962 ] final  -60.64 input  175.53 | X-H torsion
[ 8008 7997 7996 7995 ] final  -33.43 input   59.86 | X-H torsion
[ 10167 10162 10161 10158 ] final -147.01 input  -65.29 | X-H torsion
[ 10718 10713 10712 10709 ] final  106.36 input   66.30 | X-H torsion
[ 10763 10752 10751 10750 ] final   73.02 input  -60.55 | X-H torsion
[ 11005 11000 10999 10996 ] final  -84.00 input  -57.11 | X-H torsion

> <Gold.Protein.ActiveResidues>
 VAL166  LYS551  ARG553  GLY616  TRP617  ASP618  TYR619  PRO620  LYS621  CYS622 
 ASP623  PHE694  ASN695  SER759  ASP760  ASP761  ALA762  ILE779  LEU786  VAL792 
 PHE793  MET794  SER795  GLU796  ALA797  LYS798  CYS799  TRP800  GLU811  SER814 

> <Gold.Protein.RotatedAtoms>
  151.6010  133.3356  159.3047 H   0  0  0  0  0  0  0  0  0  0  0  0  # atno 6907 bound_to 6896
  150.8208  134.7418  159.6782 H   0  0  0  0  0  0  0  0  0  0  0  0  # atno 6908 bound_to 6896
  152.4301  134.5799  159.9996 H   0  0  0  0  0  0  0  0  0  0  0  0  # atno 6909 bound_to 6896
  145.8130  140.8587  143.0172 H   0  0  0  0  0  0  0  0  0  0  0  0  # atno 7974 bound_to 7965
  154.4149  140.1711  156.1886 H   0  0  0  0  0  0  0  0  0  0  0  0  # atno 8008 bound_to 7997
  155.9622  140.3392  155.6477 H   0  0  0  0  0  0  0  0  0  0  0  0  # atno 8009 bound_to 7997
  155.6734  140.0714  157.2502 H   0  0  0  0  0  0  0  0  0  0  0  0  # atno 8010 bound_to 7997
  139.7661  143.8306  152.2616 H   0  0  0  0  0  0  0  0  0  0  0  0  # atno 10167 bound_to 10162
  157.6671  131.0849  150.5995 H   0  0  0  0  0  0  0  0  0  0  0  0  # atno 10718 bound_to 10713
  153.0495  135.5078  154.7832 H   0  0  0  0  0  0  0  0  0  0  0  0  # atno 10763 bound_to 10752
  154.6705  135.2952  154.9750 H   0  0  0  0  0  0  0  0  0  0  0  0  # atno 10764 bound_to 10752
  154.0570  135.6696  153.4860 H   0  0  0  0  0  0  0  0  0  0  0  0  # atno 10765 bound_to 10752
  141.1654  133.7323  156.8804 H   0  0  0  0  0  0  0  0  0  0  0  0  # atno 11005 bound_to 11000
  144.6755  140.0423  143.7480 LP  0  0  0  0  0  0  0  0  0  0  0  0  # atno 17320 bound_to 7965
  145.9756  139.2902  143.1072 LP  0  0  0  0  0  0  0  0  0  0  0  0  # atno 17321 bound_to 7965
  139.8326  144.7247  150.9431 LP  0  0  0  0  0  0  0  0  0  0  0  0  # atno 17342 bound_to 10162
  140.7811  143.4056  151.1077 LP  0  0  0  0  0  0  0  0  0  0  0  0  # atno 17343 bound_to 10162
  156.6296  130.4428  149.5791 LP  0  0  0  0  0  0  0  0  0  0  0  0  # atno 17370 bound_to 10713
  156.2292  130.6784  151.1446 LP  0  0  0  0  0  0  0  0  0  0  0  0  # atno 17371 bound_to 10713
  140.1719  134.9094  157.2844 LP  0  0  0  0  0  0  0  0  0  0  0  0  # atno 17394 bound_to 11000
  140.2492  134.3703  155.7449 LP  0  0  0  0  0  0  0  0  0  0  0  0  # atno 17395 bound_to 11000

$$$$
