AV-unprocessed.smi:1683|AV-procd|sdf|6750|dock4
  -GOLD-   22720 7503D 1   1.00000     0.00000
 Structure written by MMmdl.
 37 38  0  0  0  0  0  0  0  0  2 V2000
  145.5893  138.0304  155.8345 O   0  0  0  0  0  0  0  0  0  0  0  0
  145.1810  138.6491  154.8514 C   0  0  0  0  0  0  0  0  0  0  0  0
  145.3274  139.9730  154.6989 N   0  0  0  0  0  0  0  0  0  0  0  0
  145.9683  140.8571  155.6668 C   0  0  0  0  0  0  0  0  0  0  0  0
  147.5052  140.7889  155.5845 C   0  0  1  0  0  0  0  0  0  0  0  0
  148.1013  141.3019  154.2763 C   0  0  0  0  0  0  0  0  0  0  0  0
  149.5518  141.5799  154.6611 C   0  0  0  0  0  0  0  0  0  0  0  0
  149.5069  142.0742  156.0562 N   0  3  2  0  0  0  0  0  0  0  0  0
  150.7002  141.7529  156.8782 C   0  0  0  0  0  0  0  0  0  0  0  0
  151.0312  142.8478  157.9085 C   0  0  0  0  0  0  0  0  0  0  0  0
  151.9341  142.3763  158.7670 F   0  0  0  0  0  0  0  0  0  0  0  0
  151.5365  143.9311  157.3195 F   0  0  0  0  0  0  0  0  0  0  0  0
  149.9338  143.1859  158.5853 F   0  0  0  0  0  0  0  0  0  0  0  0
  148.2222  141.6290  156.6495 C   0  0  0  0  0  0  0  0  0  0  0  0
  144.5460  138.1013  153.8021 N   0  0  0  0  0  0  0  0  0  0  0  0
  144.1927  136.7393  153.6267 C   0  0  0  0  0  0  0  0  0  0  0  0
  143.9033  136.1327  152.3741 C   0  0  0  0  0  0  0  0  0  0  0  0
  143.5997  134.8505  152.5162 N   0  0  0  0  0  0  0  0  0  0  0  0
  143.6905  134.6331  153.8476 N   0  0  0  0  0  0  0  0  0  0  0  0
  144.0477  135.7545  154.5632 C   0  0  0  0  0  0  0  0  0  0  0  0
  143.5062  133.7245  154.2489 H   0  0  0  0  0  0  0  0  0  0  0  0
  144.9611  140.4004  153.8606 H   0  0  0  0  0  0  0  0  0  0  0  0
  145.6267  141.8745  155.4738 H   0  0  0  0  0  0  0  0  0  0  0  0
  145.6326  140.6072  156.6747 H   0  0  0  0  0  0  0  0  0  0  0  0
  147.8242  139.7528  155.7133 H   0  0  0  0  0  0  0  0  0  0  0  0
  148.0122  140.5861  153.4585 H   0  0  0  0  0  0  0  0  0  0  0  0
  147.6112  142.2279  153.9716 H   0  0  0  0  0  0  0  0  0  0  0  0
  150.1212  140.6502  154.6118 H   0  0  0  0  0  0  0  0  0  0  0  0
  150.0256  142.3008  153.9942 H   0  0  0  0  0  0  0  0  0  0  0  0
  150.4989  140.8284  157.4217 H   0  0  0  0  0  0  0  0  0  0  0  0
  151.5587  141.5531  156.2348 H   0  0  0  0  0  0  0  0  0  0  0  0
  147.6437  142.5199  156.8967 H   0  0  0  0  0  0  0  0  0  0  0  0
  148.3542  141.0598  157.5712 H   0  0  0  0  0  0  0  0  0  0  0  0
  144.2808  138.7233  153.0526 H   0  0  0  0  0  0  0  0  0  0  0  0
  143.9037  136.5709  151.3869 H   0  0  0  0  0  0  0  0  0  0  0  0
  144.1591  135.7434  155.6373 H   0  0  0  0  0  0  0  0  0  0  0  0
  149.4496  143.0815  156.0064 H   0  0  0  0  0  0  0  0  0  0  0  0
  1  2  2  0  0  0  0
  2  3  1  0  0  0  0
  2 15  1  0  0  0  0
  3  4  1  0  0  0  0
  3 22  1  0  0  0  0
  4  5  1  0  0  0  0
  4 23  1  0  0  0  0
  4 24  1  0  0  0  0
  5 14  1  0  0  0  0
  5  6  1  0  0  0  0
  5 25  1  0  0  0  0
  6  7  1  0  0  0  0
  6 26  1  0  0  0  0
  6 27  1  0  0  0  0
  7  8  1  0  0  0  0
  7 28  1  0  0  0  0
  7 29  1  0  0  0  0
  8  9  1  0  0  0  0
  8 14  1  0  0  0  0
  8 37  1  0  0  0  0
  9 10  1  0  0  0  0
  9 30  1  0  0  0  0
  9 31  1  0  0  0  0
 10 11  1  0  0  0  0
 10 12  1  0  0  0  0
 10 13  1  0  0  0  0
 14 32  1  0  0  0  0
 14 33  1  0  0  0  0
 15 16  1  0  0  0  0
 15 34  1  0  0  0  0
 16 20  2  0  0  0  0
 16 17  1  0  0  0  0
 17 18  2  0  0  0  0
 17 35  1  0  0  0  0
 18 19  1  0  0  0  0
 19 21  1  0  0  0  0
 19 20  1  0  0  0  0
 20 36  1  0  0  0  0
M  CHG  1   8   1
M  END
> <s_m_source_file>
AV-unprocessed.smi

> <i_m_source_file_index>
1683

> <i_lp_mmshare_version>
43012

> <i_f3d_flags>
0

> <s_epik_input>
W2NIXTFbbkhdbltjSF1jMVtOSF1DKD1PKVtOSF1bQ0gyXVtDQEBIXTJbQ0gyXVtDSDJdTihbQ0gyXTIpW0NIMl1DKEYpKEYpRg==

> <s_epik_cmdline>
J2VwaWtfcHl0aG9uJywgJy1waCcsICc3LjAnLCAnLXRuJywgJzgnLCAnLW1hJywgJzIwMCcsICctbWV0YWxfYmluZGluZycsICctaW1hZScsICc8aW5maWxlLm1hZT4nLCAnLW9tYWUnLCAnPG91dGZpbGUubWFlPic=

> <r_lp_tautomer_probability>
0.5

> <r_epik_Ionization_Penalty>
0.641865

> <r_epik_Ionization_Penalty_Charging>
0.64182

> <r_epik_Ionization_Penalty_Neutral>
4.50685e-05

> <r_epik_State_Penalty>
0.65957

> <r_epik_Charging_Adjusted_Penalty>
1.30139

> <i_epik_Tot_Q>
1

> <i_epik_Tot_abs_Q>
1

> <r_epik_Metal_State_Penalty>
0.659571

> <b_epik_Metal_Only>
0

> <s_lp_Force_Field>
OPLS_2005

> <r_lp_Energy>
31.4735

> <b_lp_Chiralities_Consistent>
1

> <s_lp_Variant>
AV-unprocessed.smi:1683-4

> <Gold.Version>
5.8.1

> <Gold.Id.Protein>
6NUR|6NUR_protein|mol2

> <Gold.PLP.Fitness>
42.4939

> <Gold.PLP.PLP>
-26.8018

> <Gold.PLP.part.hbond>
-3.4353

> <Gold.PLP.part.metal>
0.0000

> <Gold.PLP.part.buried>
-3.5665

> <Gold.PLP.part.nonpolar>
-19.6375

> <Gold.PLP.part.repulsive>
0.2643

> <Gold.PLP.ligand.clash>
0.0000

> <Gold.PLP.ligand.torsion>
0.7329

> <Gold.PLP.Chemscore.Hbond>
4.5688

> <Gold.PLP.Chemscore.CHOScore>
1.0000

> <Gold.PLP.Chemscore.Metal>
0.0000

> <Gold.Chemscore.Hbonds>
donor molecule, donor type, donor heavy atom, donor atom, acceptor molecule, acceptor atom, score
      L1  H     3    22       P1 10175  1.00
      L1  H     8    37       P1  8028  2.00
      L1  H    15    34       P1 10175  0.99
      L1  H    19    21       P1 10957  0.59
      L1  C    17    35       P1 10171  0.95

> <Gold.PLP.Chemscore.Internal.Correction>
0.4517

> <Gold.Rescore>
     Score         DG    S(hbond)    S(metal)    S(lipo)     H(rot)  DE(clash)    DE(int)     intcor
     17.94     -18.93       3.86        0.00      44.49       1.81       0.05       0.94       ----

> <Gold.Chemscore.Fitness>
17.9395

> <Gold.Chemscore.DG>
-18.9277

> <Gold.Chemscore.ZeroCoef>
-5.4800

> <Gold.Chemscore.Hbond>
3.8565

> <Gold.Chemscore.Metal>
0.0000

> <Gold.Chemscore.Lipo>
44.4857

> <Gold.Chemscore.Internal_Hbond>
0.0000

> <Gold.Chemscore.DEClash>
0.0499

> <Gold.Chemscore.DEInternal>
0.9384

> <Gold.Chemscore.Rot>
1.8116

> <Gold.Chemscore.Internal.Correction>
   9.000000E+99

> <Gold.Chemscore.Hbonds>
donor molecule, donor type, donor heavy atom, donor atom, acceptor molecule, acceptor atom, score
      L1  H     3    22       P1 10175  0.95
      L1  H     8    37       P1  8028  1.00
      L1  H    15    34       P1 10175  0.94
      L1  H    19    21       P1 10957  0.58

> <Gold.Chemscore.Hbond.Weighted>
-12.8807

> <Gold.Chemscore.Metal.Weighted>
-0.0000

> <Gold.Chemscore.Lipo.Weighted>
-5.2048

> <Gold.Chemscore.Internal_Hbond.Weighted>
0.0000

> <Gold.Chemscore.DEClash.Weighted>
0.0499

> <Gold.Chemscore.DEInternal.Weighted>
0.9384

> <Gold.Chemscore.Rot.Weighted>
4.6378

> <Gold.Chemscore.Internal.Correction.Weighted>
   9.000000E+99

> <Gold.Protein.RotatedTorsions>
[ 6907 6896 6895 6894 ] final   24.02 input  -60.11 | X-H torsion
[ 7974 7965 7964 7962 ] final  -23.36 input  175.53 | X-H torsion
[ 8008 7997 7996 7995 ] final -106.38 input   59.86 | X-H torsion
[ 10167 10162 10161 10158 ] final  -64.41 input  -65.29 | X-H torsion
[ 10718 10713 10712 10709 ] final -103.01 input   66.30 | X-H torsion
[ 10763 10752 10751 10750 ] final  -63.83 input  -60.55 | X-H torsion
[ 11005 11000 10999 10996 ] final  -24.70 input  -57.11 | X-H torsion

> <Gold.Protein.ActiveResidues>
 VAL166  LYS551  ARG553  GLY616  TRP617  ASP618  TYR619  PRO620  LYS621  CYS622 
 ASP623  PHE694  ASN695  SER759  ASP760  ASP761  ALA762  ILE779  LEU786  VAL792 
 PHE793  MET794  SER795  GLU796  ALA797  LYS798  CYS799  TRP800  GLU811  SER814 

> <Gold.Protein.RotatedAtoms>
  151.9511  135.0168  160.0541 H   0  0  0  0  0  0  0  0  0  0  0  0  # atno 6907 bound_to 6896
  152.1952  133.4796  159.5037 H   0  0  0  0  0  0  0  0  0  0  0  0  # atno 6908 bound_to 6896
  150.6943  134.1579  159.4208 H   0  0  0  0  0  0  0  0  0  0  0  0  # atno 6909 bound_to 6896
  146.1621  140.4605  142.8567 H   0  0  0  0  0  0  0  0  0  0  0  0  # atno 7974 bound_to 7965
  154.9137  140.0409  157.1960 H   0  0  0  0  0  0  0  0  0  0  0  0  # atno 8008 bound_to 7997
  154.8322  140.2901  155.5693 H   0  0  0  0  0  0  0  0  0  0  0  0  # atno 8009 bound_to 7997
  156.2987  140.2498  156.3250 H   0  0  0  0  0  0  0  0  0  0  0  0  # atno 8010 bound_to 7997
  140.5803  143.2326  151.6356 H   0  0  0  0  0  0  0  0  0  0  0  0  # atno 10167 bound_to 10162
  156.0249  130.5447  150.7191 H   0  0  0  0  0  0  0  0  0  0  0  0  # atno 10718 bound_to 10713
  154.3209  135.6196  153.5507 H   0  0  0  0  0  0  0  0  0  0  0  0  # atno 10763 bound_to 10752
  152.9820  135.5724  154.5070 H   0  0  0  0  0  0  0  0  0  0  0  0  # atno 10764 bound_to 10752
  154.4739  135.2860  155.1599 H   0  0  0  0  0  0  0  0  0  0  0  0  # atno 10765 bound_to 10752
  140.8870  133.7614  156.0373 H   0  0  0  0  0  0  0  0  0  0  0  0  # atno 11005 bound_to 11000
  144.8041  140.6267  143.6458 LP  0  0  0  0  0  0  0  0  0  0  0  0  # atno 17320 bound_to 7965
  145.4562  139.1518  143.3891 LP  0  0  0  0  0  0  0  0  0  0  0  0  # atno 17321 bound_to 7965
  139.5166  144.3342  152.0799 LP  0  0  0  0  0  0  0  0  0  0  0  0  # atno 17342 bound_to 10162
  140.2491  144.4188  150.6229 LP  0  0  0  0  0  0  0  0  0  0  0  0  # atno 17343 bound_to 10162
  157.4811  131.0902  151.0535 LP  0  0  0  0  0  0  0  0  0  0  0  0  # atno 17370 bound_to 10713
  157.0968  130.5965  149.5451 LP  0  0  0  0  0  0  0  0  0  0  0  0  # atno 17371 bound_to 10713
  140.8393  134.3086  157.5319 LP  0  0  0  0  0  0  0  0  0  0  0  0  # atno 17394 bound_to 11000
  139.8725  134.9407  156.3777 LP  0  0  0  0  0  0  0  0  0  0  0  0  # atno 17395 bound_to 11000

$$$$
