#       Name:                AV-unprocessed.smi:1429
#       Creating user name   scv26
#       Creation time:       Fri Mar 27 05:47:35 2020


#       File generated by GOLD software.
#

@<TRIPOS>MOLECULE
AV-unprocessed.smi:1429
    36    37     1
SMALL
NO_CHARGES


@<TRIPOS>ATOM
      1 ****        -6.0684   2.5823   0.8888 C.3            1 S1                 0.0000
      2 ****        -4.7229   1.9412   0.9055 C.2            1 S1                 0.0000
      3 ****        -4.5496   0.6187   1.0206 N.2            1 S1                 0.0000
      4 ****        -3.2084   0.2615   1.0128 N.2            1 S1                 0.0000
      5 ****        -2.4074   1.3292   0.8922 C.2            1 S1                 0.0000
      6 ****        -0.9901   1.2526   0.8538 N.am           1 S1                 0.0000
      7 ****        -0.2131   0.1566   0.9069 C.2            1 S1                 0.0000
      8 ****        -0.6204  -0.9999   1.0181 O.2            1 S1                 0.0000
      9 ****         1.0854   0.4783   0.8153 N.am           1 S1                 0.0000
     10 ****         2.1944  -0.4711   0.8090 C.3            1 S1                 0.0000
     11 ****         2.6452  -0.8104  -0.6240 C.3            1 S1                 0.0000
     12 ****         3.8409  -1.7384  -0.6890 C.3            1 S1                 0.0000
     13 ****         3.7707  -2.2479  -2.1261 C.3            1 S1                 0.0000
     14 ****         2.3903  -2.2360  -2.4796 O.3            1 S1                 0.0000
     15 ****         1.6315  -1.5941  -1.4598 C.3            1 S1                 0.0000
     16 ****        -3.2358   2.8725   0.7782 S.3            1 S1                 0.0000
     17 ****        -6.8555   1.8276   0.8779 H              1 S1                 0.0000
     18 ****        -6.1723   3.2071   0.0017 H              1 S1                 0.0000
     19 ****        -6.1938   3.2058   1.7741 H              1 S1                 0.0000
     20 ****        -0.5121   2.1367   0.7620 H              1 S1                 0.0000
     21 ****         1.3269   1.4548   0.7291 H              1 S1                 0.0000
     22 ****         3.0228  -0.0141   1.3506 H              1 S1                 0.0000
     23 ****         1.9360  -1.3781   1.3586 H              1 S1                 0.0000
     24 ****         2.8966   0.1116  -1.1514 H              1 S1                 0.0000
     25 ****         4.7839  -1.2405  -0.4619 H              1 S1                 0.0000
     26 ****         3.7173  -2.5692   0.0074 H              1 S1                 0.0000
     27 ****         4.3044  -1.5726  -2.7959 H              1 S1                 0.0000
     28 ****         4.2018  -3.2435  -2.2352 H              1 S1                 0.0000
     29 ****         1.1467  -2.3636  -0.8571 H              1 S1                 0.0000
     30 ****         0.8546  -0.9574  -1.8838 H              1 S1                 0.0000
     31 ****        -5.3004  -0.0367   1.1028 LP             1 S1                 0.0000
     32 ****        -2.8792  -0.6797   1.0882 LP             1 S1                 0.0000
     33 ****        -1.6021  -1.1808   1.0768 LP             1 S1                 0.0000
     34 ****         0.0305  -1.7584   1.0498 LP             1 S1                 0.0000
     35 ****         2.0685  -3.1764  -2.5894 LP             1 S1                 0.0000
     36 ****         2.2733  -1.7410  -3.3405 LP             1 S1                 0.0000
@<TRIPOS>BOND
    1    1    2 1     
    2    1   17 1     
    3    1   18 1     
    4    1   19 1     
    5    2   16 1     
    6    2    3 2     
    7    3    4 1     
    8    4    5 2     
    9    5    6 1     
   10    5   16 1     
   11    6    7 am    
   12    6   20 1     
   13    7    8 2     
   14    7    9 am    
   15    9   10 1     
   16    9   21 1     
   17   10   11 1     
   18   10   22 1     
   19   10   23 1     
   20   11   15 1     
   21   11   12 1     
   22   11   24 1     
   23   12   13 1     
   24   12   25 1     
   25   12   26 1     
   26   13   14 1     
   27   13   27 1     
   28   13   28 1     
   29   14   15 1     
   30   15   29 1     
   31   15   30 1     
   32    3   31 1     
   33    4   32 1     
   34    8   33 1     
   35    8   34 1     
   36   14   35 1     
   37   14   36 1     
@<TRIPOS>SUBSTRUCTURE
      1 S1             1
@<TRIPOS>SET
LONE_PAIRS      STATIC     ATOMS    <user>   **** ""
6 31 32 33 34 35 36
DONOR_HYDROGENS      STATIC     ATOMS    <user>   **** ""
2 20 21
ATOM$BLUE        STATIC     ATOMS    COLORGROUP SYSTEM
6 31 32 33 34 35 36
ATOM$RED        STATIC     ATOMS    COLORGROUP SYSTEM
2 20 21
