AV-unprocessed.smi:109|AV-procd|sdf|1044|dock5
  -GOLD-   2262018 83D 1   1.00000     0.00000
 Structure written by MMmdl.
 58 61  0  0  0  0  0  0  0  0  1 V2000
  149.4238  141.0275  153.4772 O   0  0  0  0  0  0  0  0  0  0  0  0
  149.0917  140.5526  154.7641 C   0  0  0  0  0  0  0  0  0  0  0  0
  149.2943  141.6691  155.8035 C   0  0  0  0  0  0  0  0  0  0  0  0
  150.5266  141.4650  156.7187 C   0  0  1  0  0  0  0  0  0  0  0  0
  151.6638  141.0198  155.9090 N   0  0  0  0  0  0  0  0  0  0  0  0
  151.9694  139.7108  155.7642 C   0  0  0  0  0  0  0  0  0  0  0  0
  153.0888  139.3122  155.1064 N   0  0  0  0  0  0  0  0  0  0  0  0
  153.3656  138.0107  154.9834 C   0  0  0  0  0  0  0  0  0  0  0  0
  152.6729  136.9638  155.4380 N   0  0  0  0  0  0  0  0  0  0  0  0
  151.5483  137.3593  156.1023 C   0  0  0  0  0  0  0  0  0  0  0  0
  151.1272  138.7030  156.3011 C   0  0  0  0  0  0  0  0  0  0  0  0
  149.9359  138.7205  157.0127 N   0  0  0  0  0  0  0  0  0  0  0  0
  149.6719  137.4580  157.2172 C   0  0  0  0  0  0  0  0  0  0  0  0
  150.6010  136.5674  156.7156 N   0  0  0  0  0  0  0  0  0  0  0  0
  150.6141  135.0650  156.7396 C   0  0  2  0  0  0  0  0  0  0  0  0
  150.6519  134.6151  155.4237 O   0  0  0  0  0  0  0  0  0  0  0  0
  149.3251  134.4878  154.9337 C   0  0  1  0  0  0  0  0  0  0  0  0
  149.3185  133.5339  153.7292 C   0  0  0  0  0  0  0  0  0  0  0  0
  149.6841  132.2309  154.1306 O   0  0  0  0  0  0  0  0  0  0  0  0
  148.5334  133.9907  156.1556 C   0  0  2  0  0  0  0  0  0  0  0  0
  147.2346  134.5505  156.1553 O   0  0  0  0  0  0  0  0  0  0  0  0
  149.3332  134.4879  157.3656 C   0  0  1  0  0  0  0  0  0  0  0  0
  149.6344  133.4183  158.2388 O   0  0  0  0  0  0  0  0  0  0  0  0
  150.9288  142.7344  157.5231 C   0  0  0  0  0  0  0  0  0  0  0  0
  152.1667  142.4541  158.4136 C   0  0  0  0  0  0  0  0  0  0  0  0
  152.5950  143.6808  159.2342 C   0  0  0  0  0  0  0  0  0  0  0  0
  151.4413  144.1957  160.1030 C   0  0  0  0  0  0  0  0  0  0  0  0
  150.2147  144.5075  159.2379 C   0  0  0  0  0  0  0  0  0  0  0  0
  149.7837  143.2857  158.4096 C   0  0  0  0  0  0  0  0  0  0  0  0
  151.5241  134.8045  157.2814 H   0  0  0  0  0  0  0  0  0  0  0  0
  148.9886  135.4787  154.6241 H   0  0  0  0  0  0  0  0  0  0  0  0
  148.4635  132.9017  156.1535 H   0  0  0  0  0  0  0  0  0  0  0  0
  148.8119  135.2523  157.9435 H   0  0  0  0  0  0  0  0  0  0  0  0
  149.2899  140.3291  152.8548 H   0  0  0  0  0  0  0  0  0  0  0  0
  148.0552  140.2140  154.7603 H   0  0  0  0  0  0  0  0  0  0  0  0
  149.7179  139.6880  154.9835 H   0  0  0  0  0  0  0  0  0  0  0  0
  149.3650  142.6340  155.2993 H   0  0  0  0  0  0  0  0  0  0  0  0
  148.3886  141.7020  156.4068 H   0  0  0  0  0  0  0  0  0  0  0  0
  150.2562  140.7089  157.4551 H   0  0  0  0  0  0  0  0  0  0  0  0
  152.0879  141.7361  155.3371 H   0  0  0  0  0  0  0  0  0  0  0  0
  154.2721  137.7746  154.4457 H   0  0  0  0  0  0  0  0  0  0  0  0
  148.7832  137.1500  157.7469 H   0  0  0  0  0  0  0  0  0  0  0  0
  148.3195  133.4883  153.2945 H   0  0  0  0  0  0  0  0  0  0  0  0
  149.9945  133.8827  152.9480 H   0  0  0  0  0  0  0  0  0  0  0  0
  150.6144  132.1258  154.0011 H   0  0  0  0  0  0  0  0  0  0  0  0
  146.6322  133.9197  156.5177 H   0  0  0  0  0  0  0  0  0  0  0  0
  149.5611  132.6082  157.7577 H   0  0  0  0  0  0  0  0  0  0  0  0
  151.1969  143.5156  156.8098 H   0  0  0  0  0  0  0  0  0  0  0  0
  151.9495  141.6266  159.0903 H   0  0  0  0  0  0  0  0  0  0  0  0
  153.0142  142.1343  157.8070 H   0  0  0  0  0  0  0  0  0  0  0  0
  153.4476  143.4259  159.8643 H   0  0  0  0  0  0  0  0  0  0  0  0
  152.9316  144.4719  158.5631 H   0  0  0  0  0  0  0  0  0  0  0  0
  151.1817  143.4476  160.8531 H   0  0  0  0  0  0  0  0  0  0  0  0
  151.7514  145.0883  160.6473 H   0  0  0  0  0  0  0  0  0  0  0  0
  149.3893  144.8357  159.8701 H   0  0  0  0  0  0  0  0  0  0  0  0
  150.4414  145.3398  158.5703 H   0  0  0  0  0  0  0  0  0  0  0  0
  148.9349  143.5914  157.8000 H   0  0  0  0  0  0  0  0  0  0  0  0
  149.4233  142.5011  159.0763 H   0  0  0  0  0  0  0  0  0  0  0  0
  1  2  1  0  0  0  0
  1 34  1  0  0  0  0
  2  3  1  0  0  0  0
  2 35  1  0  0  0  0
  2 36  1  0  0  0  0
  3  4  1  0  0  0  0
  3 37  1  0  0  0  0
  3 38  1  0  0  0  0
  4  5  1  0  0  0  0
  4 24  1  0  0  0  0
  4 39  1  0  0  0  0
  5  6  1  0  0  0  0
  5 40  1  0  0  0  0
  6 11  1  0  0  0  0
  6  7  2  0  0  0  0
  7  8  1  0  0  0  0
  8  9  2  0  0  0  0
  8 41  1  0  0  0  0
  9 10  1  0  0  0  0
 10 14  1  0  0  0  0
 10 11  2  0  0  0  0
 11 12  1  0  0  0  0
 12 13  2  0  0  0  0
 13 14  1  0  0  0  0
 13 42  1  0  0  0  0
 14 15  1  0  0  0  0
 15 30  1  0  0  0  0
 15 22  1  0  0  0  0
 15 16  1  0  0  0  0
 16 17  1  0  0  0  0
 17 31  1  0  0  0  0
 17 18  1  0  0  0  0
 17 20  1  0  0  0  0
 18 19  1  0  0  0  0
 18 43  1  0  0  0  0
 18 44  1  0  0  0  0
 19 45  1  0  0  0  0
 20 32  1  0  0  0  0
 20 21  1  0  0  0  0
 20 22  1  0  0  0  0
 21 46  1  0  0  0  0
 22 33  1  0  0  0  0
 22 23  1  0  0  0  0
 23 47  1  0  0  0  0
 24 29  1  0  0  0  0
 24 25  1  0  0  0  0
 24 48  1  0  0  0  0
 25 26  1  0  0  0  0
 25 49  1  0  0  0  0
 25 50  1  0  0  0  0
 26 27  1  0  0  0  0
 26 51  1  0  0  0  0
 26 52  1  0  0  0  0
 27 28  1  0  0  0  0
 27 53  1  0  0  0  0
 27 54  1  0  0  0  0
 28 29  1  0  0  0  0
 28 55  1  0  0  0  0
 28 56  1  0  0  0  0
 29 57  1  0  0  0  0
 29 58  1  0  0  0  0
M  END
> <s_m_source_file>
AV-unprocessed.smi

> <i_m_source_file_index>
109

> <i_lp_mmshare_version>
43012

> <i_f3d_flags>
0

> <s_epik_input>
W0NIMl0xW0NIMl1bQ0gyXVtDSDJdW0NIMl1bQ0hdMVtDQEhdKFtDSDJdW0NIMl1bT0hdKVtOSF1jKG5bY0hdbjIpYyhjMjMpbltjSF1uM1tDQEBIXTRPW0NASF0oW0NIMl1bT0hdKVtDQEBIXShbT0hdKVtDQEhdNFtPSF0=

> <s_epik_cmdline>
J2VwaWtfcHl0aG9uJywgJy1waCcsICc3LjAnLCAnLXRuJywgJzgnLCAnLW1hJywgJzIwMCcsICctbWV0YWxfYmluZGluZycsICctaW1hZScsICc8aW5maWxlLm1hZT4nLCAnLW9tYWUnLCAnPG91dGZpbGUubWFlPic=

> <r_lp_tautomer_probability>
1

> <r_epik_Ionization_Penalty>
0.000793976

> <r_epik_Ionization_Penalty_Charging>
0

> <r_epik_Ionization_Penalty_Neutral>
0.000793976

> <r_epik_State_Penalty>
-0

> <r_epik_Charging_Adjusted_Penalty>
0

> <i_epik_Tot_Q>
0

> <i_epik_Tot_abs_Q>
0

> <r_epik_Metal_State_Penalty>
-0

> <b_epik_Metal_Only>
0

> <s_epik_Chemistry_Notes>
This compound contains an acetal/aminal-like group ( X-CH(R)-Y where X, Y are N, S, or O) that may be acid/base labile, releasing an aldehyde.

> <s_lp_Force_Field>
OPLS_2005

> <r_lp_Energy>
47.5037

> <b_lp_Chiralities_Consistent>
1

> <s_lp_Variant>
AV-unprocessed.smi:109-14

> <Gold.Version>
5.8.1

> <Gold.Id.Protein>
6NUR|6NUR_protein|mol2

> <Gold.PLP.Fitness>
50.9617

> <Gold.PLP.PLP>
-38.6609

> <Gold.PLP.part.hbond>
-5.4993

> <Gold.PLP.part.metal>
0.0000

> <Gold.PLP.part.buried>
-0.5829

> <Gold.PLP.part.nonpolar>
-32.5926

> <Gold.PLP.part.repulsive>
0.3275

> <Gold.PLP.ligand.clash>
0.0000

> <Gold.PLP.ligand.torsion>
0.8379

> <Gold.PLP.Chemscore.Hbond>
4.6253

> <Gold.PLP.Chemscore.CHOScore>
0.0000

> <Gold.PLP.Chemscore.Metal>
0.0000

> <Gold.Chemscore.Hbonds>
donor molecule, donor type, donor heavy atom, donor atom, acceptor molecule, acceptor atom, score
      L1  H     1    34       P1  7957  0.74
      P1  H  6896  6907       L1    23  1.00
      P1  H  7989  7998       L1     1  0.11
      P1  H  7997  8010       L1     7  1.00
      P1  H  8011  8017       L1     1  1.00
      P1  H 10752 10765       L1     9  0.66

> <Gold.PLP.Chemscore.Internal.Correction>
0.1007

> <Gold.Rescore>
     Score         DG    S(hbond)    S(metal)    S(lipo)     H(rot)  DE(clash)    DE(int)     intcor
      8.74     -12.85       3.05        0.00      95.58       5.47       1.74       2.37       ----

> <Gold.Chemscore.Fitness>
8.7386

> <Gold.Chemscore.DG>
-12.8484

> <Gold.Chemscore.ZeroCoef>
-5.4800

> <Gold.Chemscore.Hbond>
3.0477

> <Gold.Chemscore.Metal>
0.0000

> <Gold.Chemscore.Lipo>
95.5791

> <Gold.Chemscore.Internal_Hbond>
0.0000

> <Gold.Chemscore.DEClash>
1.7370

> <Gold.Chemscore.DEInternal>
2.3728

> <Gold.Chemscore.Rot>
5.4662

> <Gold.Chemscore.Internal.Correction>
   9.000000E+99

> <Gold.Chemscore.Hbonds>
donor molecule, donor type, donor heavy atom, donor atom, acceptor molecule, acceptor atom, score
      L1  H     1    34       P1  7957  0.74
      P1  H  6896  6907       L1    23  0.88
      P1  H  7989  7998       L1     1  0.01
      P1  H  7997  8010       L1     7  0.39
      P1  H  8011  8017       L1     1  0.25
      P1  H 10752 10765       L1     9  0.60

> <Gold.Chemscore.Hbond.Weighted>
-10.1792

> <Gold.Chemscore.Metal.Weighted>
-0.0000

> <Gold.Chemscore.Lipo.Weighted>
-11.1828

> <Gold.Chemscore.Internal_Hbond.Weighted>
0.0000

> <Gold.Chemscore.DEClash.Weighted>
1.7370

> <Gold.Chemscore.DEInternal.Weighted>
2.3728

> <Gold.Chemscore.Rot.Weighted>
13.9935

> <Gold.Chemscore.Internal.Correction.Weighted>
   9.000000E+99

> <Gold.Protein.RotatedTorsions>
[ 6907 6896 6895 6894 ] final -128.89 input  -60.11 | X-H torsion
[ 7974 7965 7964 7962 ] final  -22.20 input  175.53 | X-H torsion
[ 8008 7997 7996 7995 ] final  101.99 input   59.86 | X-H torsion
[ 10167 10162 10161 10158 ] final  126.71 input  -65.29 | X-H torsion
[ 10718 10713 10712 10709 ] final   89.81 input   66.30 | X-H torsion
[ 10763 10752 10751 10750 ] final -157.58 input  -60.55 | X-H torsion
[ 11005 11000 10999 10996 ] final  138.73 input  -57.11 | X-H torsion

> <Gold.Protein.ActiveResidues>
 VAL166  LYS551  ARG553  GLY616  TRP617  ASP618  TYR619  PRO620  LYS621  CYS622 
 ASP623  PHE694  ASN695  SER759  ASP760  ASP761  ALA762  ILE779  LEU786  VAL792 
 PHE793  MET794  SER795  GLU796  ALA797  LYS798  CYS799  TRP800  GLU811  SER814 

> <Gold.Protein.RotatedAtoms>
  150.9228  133.6860  159.2828 H   0  0  0  0  0  0  0  0  0  0  0  0  # atno 6907 bound_to 6896
  151.4309  135.1008  159.9651 H   0  0  0  0  0  0  0  0  0  0  0  0  # atno 6908 bound_to 6896
  152.4988  133.8658  159.7328 H   0  0  0  0  0  0  0  0  0  0  0  0  # atno 6909 bound_to 6896
  146.1689  140.4446  142.8540 H   0  0  0  0  0  0  0  0  0  0  0  0  # atno 7974 bound_to 7965
  156.1351  140.3188  155.8408 H   0  0  0  0  0  0  0  0  0  0  0  0  # atno 8008 bound_to 7997
  155.4260  140.0515  157.3039 H   0  0  0  0  0  0  0  0  0  0  0  0  # atno 8009 bound_to 7997
  154.4930  140.2100  155.9520 H   0  0  0  0  0  0  0  0  0  0  0  0  # atno 8010 bound_to 7997
  139.5616  144.6885  151.4026 H   0  0  0  0  0  0  0  0  0  0  0  0  # atno 10167 bound_to 10162
  157.6957  131.0347  150.3482 H   0  0  0  0  0  0  0  0  0  0  0  0  # atno 10718 bound_to 10713
  154.7624  135.3121  154.8351 H   0  0  0  0  0  0  0  0  0  0  0  0  # atno 10763 bound_to 10752
  153.9108  135.6806  153.4755 H   0  0  0  0  0  0  0  0  0  0  0  0  # atno 10764 bound_to 10752
  153.1227  135.4815  154.9153 H   0  0  0  0  0  0  0  0  0  0  0  0  # atno 10765 bound_to 10752
  140.0204  134.9399  157.0462 H   0  0  0  0  0  0  0  0  0  0  0  0  # atno 11005 bound_to 11000
  144.8134  140.6425  143.6400 LP  0  0  0  0  0  0  0  0  0  0  0  0  # atno 17320 bound_to 7965
  145.4392  139.1538  143.3980 LP  0  0  0  0  0  0  0  0  0  0  0  0  # atno 17321 bound_to 7965
  140.6896  143.7892  150.7236 LP  0  0  0  0  0  0  0  0  0  0  0  0  # atno 17342 bound_to 10162
  140.1370  143.4475  152.2218 LP  0  0  0  0  0  0  0  0  0  0  0  0  # atno 17343 bound_to 10162
  156.3934  130.3902  149.7013 LP  0  0  0  0  0  0  0  0  0  0  0  0  # atno 17370 bound_to 10713
  156.4355  130.7836  151.2856 LP  0  0  0  0  0  0  0  0  0  0  0  0  # atno 17371 bound_to 10713
  140.4397  134.1694  155.7173 LP  0  0  0  0  0  0  0  0  0  0  0  0  # atno 17394 bound_to 11000
  141.1770  133.8493  157.1388 LP  0  0  0  0  0  0  0  0  0  0  0  0  # atno 17395 bound_to 11000

$$$$
