AV-unprocessed.smi:3039|AV-procd|sdf|11593|dock4
  -GOLD-   2272016573D 1   1.00000     0.00000
 Structure written by MMmdl.
 38 39  0  0  0  0  0  0  0  0  1 V2000
  151.2066  140.8874  156.9873 O   0  0  0  0  0  0  0  0  0  0  0  0
  150.3760  141.5990  157.5517 C   0  0  0  0  0  0  0  0  0  0  0  0
  148.8891  141.4454  157.2307 C   0  0  0  0  0  0  0  0  0  0  0  0
  148.6790  141.4164  155.7397 C   0  0  0  0  0  0  0  0  0  0  0  0
  147.4523  141.3724  155.0182 C   0  0  0  0  0  0  0  0  0  0  0  0
  147.8499  141.3632  153.7123 C   0  0  0  0  0  0  0  0  0  0  0  0
  149.2035  141.4040  153.6274 O   0  0  0  0  0  0  0  0  0  0  0  0
  149.7237  141.4395  154.9260 N   0  0  0  0  0  0  0  0  0  0  0  0
  150.6942  142.5332  158.4616 N   0  0  0  0  0  0  0  0  0  0  0  0
  152.0401  142.8522  158.9340 C   0  0  2  0  0  0  0  0  0  0  0  0
  152.6678  141.5754  159.5417 C   0  0  0  0  0  0  0  0  0  0  0  0
  153.9068  141.7885  160.4260 C   0  0  0  0  0  0  0  0  0  0  0  0
  153.5411  142.0580  161.8961 C   0  0  0  0  0  0  0  0  0  0  0  0
  152.9549  143.4504  162.1735 C   0  0  0  0  0  0  0  0  0  0  0  0
  151.7131  143.8171  161.3393 C   0  0  0  0  0  0  0  0  0  0  0  0
  152.0412  144.1065  159.8561 C   0  0  2  0  0  0  0  0  0  0  0  0
  151.2298  145.3014  159.2962 C   0  0  0  0  0  0  0  0  0  0  0  0
  149.8451  145.0296  159.1918 O   0  0  0  0  0  0  0  0  0  0  0  0
  148.5127  140.5282  157.6854 H   0  0  0  0  0  0  0  0  0  0  0  0
  148.3348  142.2663  157.6886 H   0  0  0  0  0  0  0  0  0  0  0  0
  146.4419  141.3461  155.3989 H   0  0  0  0  0  0  0  0  0  0  0  0
  147.3158  141.3319  152.7741 H   0  0  0  0  0  0  0  0  0  0  0  0
  149.9412  143.0769  158.8588 H   0  0  0  0  0  0  0  0  0  0  0  0
  152.6372  143.1266  158.0619 H   0  0  0  0  0  0  0  0  0  0  0  0
  151.9181  141.0219  160.1096 H   0  0  0  0  0  0  0  0  0  0  0  0
  152.9428  140.9136  158.7192 H   0  0  0  0  0  0  0  0  0  0  0  0
  154.4988  140.8730  160.3982 H   0  0  0  0  0  0  0  0  0  0  0  0
  154.5520  142.5705  160.0245 H   0  0  0  0  0  0  0  0  0  0  0  0
  152.8476  141.2935  162.2480 H   0  0  0  0  0  0  0  0  0  0  0  0
  154.4384  141.9407  162.5049 H   0  0  0  0  0  0  0  0  0  0  0  0
  152.6891  143.4996  163.2300 H   0  0  0  0  0  0  0  0  0  0  0  0
  153.7281  144.2070  162.0339 H   0  0  0  0  0  0  0  0  0  0  0  0
  150.9412  143.0517  161.4265 H   0  0  0  0  0  0  0  0  0  0  0  0
  151.2873  144.7146  161.7893 H   0  0  0  0  0  0  0  0  0  0  0  0
  153.0693  144.4706  159.8373 H   0  0  0  0  0  0  0  0  0  0  0  0
  151.3485  146.1659  159.9501 H   0  0  0  0  0  0  0  0  0  0  0  0
  151.6111  145.5973  158.3183 H   0  0  0  0  0  0  0  0  0  0  0  0
  149.5200  145.4289  158.3991 H   0  0  0  0  0  0  0  0  0  0  0  0
  1  2  2  0  0  0  0
  2  3  1  0  0  0  0
  2  9  1  0  0  0  0
  3  4  1  0  0  0  0
  3 19  1  0  0  0  0
  3 20  1  0  0  0  0
  4  8  2  0  0  0  0
  4  5  1  0  0  0  0
  5  6  2  0  0  0  0
  5 21  1  0  0  0  0
  6  7  1  0  0  0  0
  6 22  1  0  0  0  0
  7  8  1  0  0  0  0
  9 10  1  0  0  0  0
  9 23  1  0  0  0  0
 10 16  1  0  0  0  0
 10 11  1  0  0  0  0
 10 24  1  0  0  0  0
 11 12  1  0  0  0  0
 11 25  1  0  0  0  0
 11 26  1  0  0  0  0
 12 13  1  0  0  0  0
 12 27  1  0  0  0  0
 12 28  1  0  0  0  0
 13 14  1  0  0  0  0
 13 29  1  0  0  0  0
 13 30  1  0  0  0  0
 14 15  1  0  0  0  0
 14 31  1  0  0  0  0
 14 32  1  0  0  0  0
 15 16  1  0  0  0  0
 15 33  1  0  0  0  0
 15 34  1  0  0  0  0
 16 17  1  0  0  0  0
 16 35  1  0  0  0  0
 17 18  1  0  0  0  0
 17 36  1  0  0  0  0
 17 37  1  0  0  0  0
 18 38  1  0  0  0  0
M  END
> <s_m_source_file>
AV-unprocessed.smi

> <i_m_source_file_index>
3039

> <i_lp_mmshare_version>
43012

> <i_f3d_flags>
0

> <s_epik_input>
bjFvW2NIXVtjSF1jMVtDSDJdQyg9TylbTkhdW0NAQEhdMltDSDJdW0NIMl1bQ0gyXVtDSDJdW0NIMl1bQ0BIXTJbQ0gyXVtPSF0=

> <s_epik_cmdline>
J2VwaWtfcHl0aG9uJywgJy1waCcsICc3LjAnLCAnLXRuJywgJzgnLCAnLW1hJywgJzIwMCcsICctbWV0YWxfYmluZGluZycsICctaW1hZScsICc8aW5maWxlLm1hZT4nLCAnLW9tYWUnLCAnPG91dGZpbGUubWFlPic=

> <r_lp_tautomer_probability>
1

> <r_epik_Ionization_Penalty>
3.05817e-07

> <r_epik_Ionization_Penalty_Charging>
0

> <r_epik_Ionization_Penalty_Neutral>
3.05817e-07

> <r_epik_State_Penalty>
-0

> <r_epik_Charging_Adjusted_Penalty>
0

> <i_epik_Tot_Q>
0

> <i_epik_Tot_abs_Q>
0

> <r_epik_Metal_State_Penalty>
-0

> <b_epik_Metal_Only>
0

> <s_lp_Force_Field>
OPLS_2005

> <r_lp_Energy>
21.1275

> <b_lp_Chiralities_Consistent>
1

> <s_lp_Variant>
AV-unprocessed.smi:3039-3

> <Gold.Version>
5.8.1

> <Gold.Id.Protein>
6NUR|6NUR_protein|mol2

> <Gold.PLP.Fitness>
45.6270

> <Gold.PLP.PLP>
-40.4584

> <Gold.PLP.part.hbond>
-3.7735

> <Gold.PLP.part.metal>
0.0000

> <Gold.PLP.part.buried>
-6.9677

> <Gold.PLP.part.nonpolar>
-32.3280

> <Gold.PLP.part.repulsive>
2.2348

> <Gold.PLP.ligand.clash>
0.0000

> <Gold.PLP.ligand.torsion>
0.1944

> <Gold.PLP.Chemscore.Hbond>
1.8240

> <Gold.PLP.Chemscore.CHOScore>
0.0000

> <Gold.PLP.Chemscore.Metal>
0.0000

> <Gold.Chemscore.Hbonds>
donor molecule, donor type, donor heavy atom, donor atom, acceptor molecule, acceptor atom, score
      L1  H    18    38       P1  8029  0.98
      P1  H  8011  8017       L1     7  0.85

> <Gold.PLP.Chemscore.Internal.Correction>
0.0853

> <Gold.Rescore>
     Score         DG    S(hbond)    S(metal)    S(lipo)     H(rot)  DE(clash)    DE(int)     intcor
     12.89     -16.95       1.39        0.00     107.86       2.26       0.78       3.28       ----

> <Gold.Chemscore.Fitness>
12.8884

> <Gold.Chemscore.DG>
-16.9521

> <Gold.Chemscore.ZeroCoef>
-5.4800

> <Gold.Chemscore.Hbond>
1.3899

> <Gold.Chemscore.Metal>
0.0000

> <Gold.Chemscore.Lipo>
107.8577

> <Gold.Chemscore.Internal_Hbond>
0.0000

> <Gold.Chemscore.DEClash>
0.7838

> <Gold.Chemscore.DEInternal>
3.2799

> <Gold.Chemscore.Rot>
2.2616

> <Gold.Chemscore.Internal.Correction>
   9.000000E+99

> <Gold.Chemscore.Hbonds>
donor molecule, donor type, donor heavy atom, donor atom, acceptor molecule, acceptor atom, score
      L1  H    18    38       P1  8029  0.64
      P1  H  8011  8017       L1     7  0.74

> <Gold.Chemscore.Hbond.Weighted>
-4.6423

> <Gold.Chemscore.Metal.Weighted>
-0.0000

> <Gold.Chemscore.Lipo.Weighted>
-12.6193

> <Gold.Chemscore.Internal_Hbond.Weighted>
0.0000

> <Gold.Chemscore.DEClash.Weighted>
0.7838

> <Gold.Chemscore.DEInternal.Weighted>
3.2799

> <Gold.Chemscore.Rot.Weighted>
5.7896

> <Gold.Chemscore.Internal.Correction.Weighted>
   9.000000E+99

> <Gold.Protein.RotatedTorsions>
[ 6907 6896 6895 6894 ] final  -10.15 input  -60.11 | X-H torsion
[ 7974 7965 7964 7962 ] final   -5.18 input  175.53 | X-H torsion
[ 8008 7997 7996 7995 ] final   10.93 input   59.86 | X-H torsion
[ 10167 10162 10161 10158 ] final  -78.10 input  -65.29 | X-H torsion
[ 10718 10713 10712 10709 ] final  -48.50 input   66.30 | X-H torsion
[ 10763 10752 10751 10750 ] final  134.82 input  -60.55 | X-H torsion
[ 11005 11000 10999 10996 ] final -172.70 input  -57.11 | X-H torsion

> <Gold.Protein.ActiveResidues>
 VAL166  LYS551  ARG553  GLY616  TRP617  ASP618  TYR619  PRO620  LYS621  CYS622 
 ASP623  PHE694  ASN695  SER759  ASP760  ASP761  ALA762  ILE779  LEU786  VAL792 
 PHE793  MET794  SER795  GLU796  ALA797  LYS798  CYS799  TRP800  GLU811  SER814 

> <Gold.Protein.RotatedAtoms>
  151.4065  135.0979  159.9571 H   0  0  0  0  0  0  0  0  0  0  0  0  # atno 6907 bound_to 6896
  152.5034  133.8838  159.7370 H   0  0  0  0  0  0  0  0  0  0  0  0  # atno 6908 bound_to 6896
  150.9324  133.6695  159.2836 H   0  0  0  0  0  0  0  0  0  0  0  0  # atno 6909 bound_to 6896
  146.2358  140.1982  142.8333 H   0  0  0  0  0  0  0  0  0  0  0  0  # atno 7974 bound_to 7965
  154.8000  140.2850  155.5928 H   0  0  0  0  0  0  0  0  0  0  0  0  # atno 8008 bound_to 7997
  156.2976  140.2588  156.2795 H   0  0  0  0  0  0  0  0  0  0  0  0  # atno 8009 bound_to 7997
  154.9569  140.0378  157.2161 H   0  0  0  0  0  0  0  0  0  0  0  0  # atno 8010 bound_to 7997
  140.4712  143.2426  151.8202 H   0  0  0  0  0  0  0  0  0  0  0  0  # atno 10167 bound_to 10162
  156.1982  130.4155  149.9278 H   0  0  0  0  0  0  0  0  0  0  0  0  # atno 10718 bound_to 10713
  153.8299  135.3105  155.3418 H   0  0  0  0  0  0  0  0  0  0  0  0  # atno 10763 bound_to 10752
  154.7977  135.4745  154.0204 H   0  0  0  0  0  0  0  0  0  0  0  0  # atno 10764 bound_to 10752
  153.1640  135.6866  153.8792 H   0  0  0  0  0  0  0  0  0  0  0  0  # atno 10765 bound_to 10752
  140.4940  134.5957  157.4964 H   0  0  0  0  0  0  0  0  0  0  0  0  # atno 11005 bound_to 11000
  144.9803  140.8453  143.5401 LP  0  0  0  0  0  0  0  0  0  0  0  0  # atno 17320 bound_to 7965
  145.1974  139.2269  143.5210 LP  0  0  0  0  0  0  0  0  0  0  0  0  # atno 17321 bound_to 7965
  139.4819  144.4890  151.9210 LP  0  0  0  0  0  0  0  0  0  0  0  0  # atno 17342 bound_to 10162
  140.3975  144.2536  150.5895 LP  0  0  0  0  0  0  0  0  0  0  0  0  # atno 17343 bound_to 10162
  156.6996  130.8928  151.3598 LP  0  0  0  0  0  0  0  0  0  0  0  0  # atno 17370 bound_to 10713
  157.6970  130.9292  150.0673 LP  0  0  0  0  0  0  0  0  0  0  0  0  # atno 17371 bound_to 10713
  139.9752  134.7227  155.9963 LP  0  0  0  0  0  0  0  0  0  0  0  0  # atno 17394 bound_to 11000
  141.1470  133.6554  156.3896 LP  0  0  0  0  0  0  0  0  0  0  0  0  # atno 17395 bound_to 11000

$$$$
