AV-unprocessed.smi:1053|AV-procd|sdf|4618|dock1
  -GOLD-   22720 3123D 1   1.00000     0.00000
 Structure written by MMmdl.
 38 39  0  0  0  0  0  0  0  0  2 V2000
  146.5289  138.7510  152.0518 C   0  0  0  0  0  0  0  0  0  0  0  0
  147.4619  139.3822  153.0950 C   0  0  0  0  0  0  0  0  0  0  0  0
  148.3371  138.3784  153.7569 N   0  3  2  0  0  0  0  0  0  0  0  0
  147.6112  137.4874  154.6945 C   0  0  0  0  0  0  0  0  0  0  0  0
  147.3309  138.1969  156.0310 C   0  0  0  0  0  0  0  0  0  0  0  0
  148.5574  138.6502  156.5898 O   0  0  0  0  0  0  0  0  0  0  0  0
  149.2170  139.6043  155.7627 C   0  0  1  0  0  0  0  0  0  0  0  0
  150.4883  140.0660  156.4876 C   0  0  0  0  0  0  0  0  0  0  0  0
  150.3504  141.4170  157.0103 N   0  0  0  0  0  0  0  0  0  0  0  0
  151.1654  141.9545  157.9879 C   0  0  0  0  0  0  0  0  0  0  0  0
  151.2196  143.2876  158.0222 N   0  0  0  0  0  0  0  0  0  0  0  0
  152.0072  143.8455  158.9674 C   0  0  0  0  0  0  0  0  0  0  0  0
  152.7412  143.0618  159.8797 C   0  0  0  0  0  0  0  0  0  0  0  0
  152.6085  141.6611  159.7508 C   0  0  0  0  0  0  0  0  0  0  0  0
  153.3397  140.6901  160.6655 C   0  0  0  0  0  0  0  0  0  0  0  0
  153.1715  141.0054  161.9502 F   0  0  0  0  0  0  0  0  0  0  0  0
  152.8786  139.4548  160.4696 F   0  0  0  0  0  0  0  0  0  0  0  0
  154.6443  140.7109  160.3920 F   0  0  0  0  0  0  0  0  0  0  0  0
  151.8167  141.1142  158.7993 N   0  0  0  0  0  0  0  0  0  0  0  0
  149.5492  138.9382  154.4090 C   0  0  0  0  0  0  0  0  0  0  0  0
  145.8332  139.4939  151.6611 H   0  0  0  0  0  0  0  0  0  0  0  0
  145.9384  137.9447  152.4877 H   0  0  0  0  0  0  0  0  0  0  0  0
  147.0769  138.3463  151.2015 H   0  0  0  0  0  0  0  0  0  0  0  0
  148.0519  140.1805  152.6451 H   0  0  0  0  0  0  0  0  0  0  0  0
  146.8348  139.8568  153.8507 H   0  0  0  0  0  0  0  0  0  0  0  0
  146.6862  137.1233  154.2460 H   0  0  0  0  0  0  0  0  0  0  0  0
  148.2286  136.6070  154.8783 H   0  0  0  0  0  0  0  0  0  0  0  0
  146.6408  139.0319  155.9024 H   0  0  0  0  0  0  0  0  0  0  0  0
  146.8622  137.5042  156.7303 H   0  0  0  0  0  0  0  0  0  0  0  0
  148.5688  140.4678  155.6052 H   0  0  0  0  0  0  0  0  0  0  0  0
  150.7313  139.3807  157.3007 H   0  0  0  0  0  0  0  0  0  0  0  0
  151.3306  140.0535  155.7948 H   0  0  0  0  0  0  0  0  0  0  0  0
  149.5825  141.9856  156.6840 H   0  0  0  0  0  0  0  0  0  0  0  0
  152.0522  144.9241  158.9959 H   0  0  0  0  0  0  0  0  0  0  0  0
  153.3680  143.5163  160.6325 H   0  0  0  0  0  0  0  0  0  0  0  0
  150.2488  138.1177  154.5751 H   0  0  0  0  0  0  0  0  0  0  0  0
  150.0603  139.6384  153.7494 H   0  0  0  0  0  0  0  0  0  0  0  0
  148.6631  137.7825  153.0090 H   0  0  0  0  0  0  0  0  0  0  0  0
  1  2  1  0  0  0  0
  1 21  1  0  0  0  0
  1 22  1  0  0  0  0
  1 23  1  0  0  0  0
  2  3  1  0  0  0  0
  2 24  1  0  0  0  0
  2 25  1  0  0  0  0
  3 20  1  0  0  0  0
  3  4  1  0  0  0  0
  3 38  1  0  0  0  0
  4  5  1  0  0  0  0
  4 26  1  0  0  0  0
  4 27  1  0  0  0  0
  5  6  1  0  0  0  0
  5 28  1  0  0  0  0
  5 29  1  0  0  0  0
  6  7  1  0  0  0  0
  7  8  1  0  0  0  0
  7 20  1  0  0  0  0
  7 30  1  0  0  0  0
  8  9  1  0  0  0  0
  8 31  1  0  0  0  0
  8 32  1  0  0  0  0
  9 10  1  0  0  0  0
  9 33  1  0  0  0  0
 10 19  1  0  0  0  0
 10 11  2  0  0  0  0
 11 12  1  0  0  0  0
 12 13  2  0  0  0  0
 12 34  1  0  0  0  0
 13 14  1  0  0  0  0
 13 35  1  0  0  0  0
 14 15  1  0  0  0  0
 14 19  2  0  0  0  0
 15 16  1  0  0  0  0
 15 17  1  0  0  0  0
 15 18  1  0  0  0  0
 20 36  1  0  0  0  0
 20 37  1  0  0  0  0
M  CHG  1   3   1
M  END
> <s_m_source_file>
AV-unprocessed.smi

> <i_m_source_file_index>
1053

> <i_lp_mmshare_version>
43012

> <i_f3d_flags>
0

> <s_epik_input>
W0NIM11bQ0gyXU4xW0NIMl1bQ0gyXU9bQ0BIXShbQ0gyXTEpW0NIMl1bTkhdYzJuW2NIXVtjSF1jKG4yKUMoRikoRilG

> <s_epik_cmdline>
J2VwaWtfcHl0aG9uJywgJy1waCcsICc3LjAnLCAnLXRuJywgJzgnLCAnLW1hJywgJzIwMCcsICctbWV0YWxfYmluZGluZycsICctaW1hZScsICc8aW5maWxlLm1hZT4nLCAnLW9tYWUnLCAnPG91dGZpbGUubWFlPic=

> <r_lp_tautomer_probability>
1

> <r_epik_Ionization_Penalty>
0.178506

> <r_epik_Ionization_Penalty_Charging>
0.178504

> <r_epik_Ionization_Penalty_Neutral>
2.47619e-06

> <r_epik_State_Penalty>
0.167974

> <r_epik_Charging_Adjusted_Penalty>
0.346478

> <i_epik_Tot_Q>
1

> <i_epik_Tot_abs_Q>
1

> <r_epik_Metal_State_Penalty>
0.167974

> <b_epik_Metal_Only>
0

> <s_lp_Force_Field>
OPLS_2005

> <r_lp_Energy>
12.5681

> <b_lp_Chiralities_Consistent>
1

> <s_lp_Variant>
AV-unprocessed.smi:1053-2

> <Gold.Version>
5.8.1

> <Gold.Id.Protein>
6NUR|6NUR_protein|mol2

> <Gold.PLP.Fitness>
42.8467

> <Gold.PLP.PLP>
-39.3283

> <Gold.PLP.part.hbond>
-1.5123

> <Gold.PLP.part.metal>
0.0000

> <Gold.PLP.part.buried>
-2.8710

> <Gold.PLP.part.nonpolar>
-36.1273

> <Gold.PLP.part.repulsive>
0.2324

> <Gold.PLP.ligand.clash>
0.0000

> <Gold.PLP.ligand.torsion>
1.3039

> <Gold.PLP.Chemscore.Hbond>
2.0000

> <Gold.PLP.Chemscore.CHOScore>
0.0000

> <Gold.PLP.Chemscore.Metal>
0.0000

> <Gold.Chemscore.Hbonds>
donor molecule, donor type, donor heavy atom, donor atom, acceptor molecule, acceptor atom, score
      L1  H     3    38       P1  7948  2.00

> <Gold.PLP.Chemscore.Internal.Correction>
0.1263

> <Gold.Rescore>
     Score         DG    S(hbond)    S(metal)    S(lipo)     H(rot)  DE(clash)    DE(int)     intcor
     13.13     -13.86       1.00        0.00      77.08       1.55       0.03       0.70       ----

> <Gold.Chemscore.Fitness>
13.1270

> <Gold.Chemscore.DG>
-13.8571

> <Gold.Chemscore.ZeroCoef>
-5.4800

> <Gold.Chemscore.Hbond>
0.9996

> <Gold.Chemscore.Metal>
0.0000

> <Gold.Chemscore.Lipo>
77.0843

> <Gold.Chemscore.Internal_Hbond>
0.0000

> <Gold.Chemscore.DEClash>
0.0261

> <Gold.Chemscore.DEInternal>
0.7040

> <Gold.Chemscore.Rot>
1.5549

> <Gold.Chemscore.Internal.Correction>
   9.000000E+99

> <Gold.Chemscore.Hbonds>
donor molecule, donor type, donor heavy atom, donor atom, acceptor molecule, acceptor atom, score
      L1  H     3    38       P1  7948  0.99

> <Gold.Chemscore.Hbond.Weighted>
-3.3388

> <Gold.Chemscore.Metal.Weighted>
-0.0000

> <Gold.Chemscore.Lipo.Weighted>
-9.0189

> <Gold.Chemscore.Internal_Hbond.Weighted>
0.0000

> <Gold.Chemscore.DEClash.Weighted>
0.0261

> <Gold.Chemscore.DEInternal.Weighted>
0.7040

> <Gold.Chemscore.Rot.Weighted>
3.9806

> <Gold.Chemscore.Internal.Correction.Weighted>
   9.000000E+99

> <Gold.Protein.RotatedTorsions>
[ 6907 6896 6895 6894 ] final   52.17 input  -60.11 | X-H torsion
[ 7974 7965 7964 7962 ] final   58.41 input  175.53 | X-H torsion
[ 8008 7997 7996 7995 ] final   23.51 input   59.86 | X-H torsion
[ 10167 10162 10161 10158 ] final  -69.20 input  -65.29 | X-H torsion
[ 10718 10713 10712 10709 ] final  -33.90 input   66.30 | X-H torsion
[ 10763 10752 10751 10750 ] final   -1.43 input  -60.55 | X-H torsion
[ 11005 11000 10999 10996 ] final   60.92 input  -57.11 | X-H torsion

> <Gold.Protein.ActiveResidues>
 VAL166  LYS551  ARG553  GLY616  TRP617  ASP618  TYR619  PRO620  LYS621  CYS622 
 ASP623  PHE694  ASN695  SER759  ASP760  ASP761  ALA762  ILE779  LEU786  VAL792 
 PHE793  MET794  SER795  GLU796  ALA797  LYS798  CYS799  TRP800  GLU811  SER814 

> <Gold.Protein.RotatedAtoms>
  152.3204  134.7387  160.0314 H   0  0  0  0  0  0  0  0  0  0  0  0  # atno 6907 bound_to 6896
  151.7837  133.3347  159.3487 H   0  0  0  0  0  0  0  0  0  0  0  0  # atno 6908 bound_to 6896
  150.7367  134.5838  159.5996 H   0  0  0  0  0  0  0  0  0  0  0  0  # atno 6909 bound_to 6896
  145.9184  139.3710  143.0493 H   0  0  0  0  0  0  0  0  0  0  0  0  # atno 7974 bound_to 7965
  154.9821  140.3103  155.4942 H   0  0  0  0  0  0  0  0  0  0  0  0  # atno 8008 bound_to 7997
  156.2952  140.2264  156.4861 H   0  0  0  0  0  0  0  0  0  0  0  0  # atno 8009 bound_to 7997
  154.7780  140.0448  157.1092 H   0  0  0  0  0  0  0  0  0  0  0  0  # atno 8010 bound_to 7997
  140.5449  143.2313  151.7020 H   0  0  0  0  0  0  0  0  0  0  0  0  # atno 10167 bound_to 10162
  156.3571  130.4317  149.7655 H   0  0  0  0  0  0  0  0  0  0  0  0  # atno 10718 bound_to 10713
  153.3448  135.6982  153.6837 H   0  0  0  0  0  0  0  0  0  0  0  0  # atno 10763 bound_to 10752
  153.5588  135.3539  155.2791 H   0  0  0  0  0  0  0  0  0  0  0  0  # atno 10764 bound_to 10752
  154.8643  135.4244  154.2669 H   0  0  0  0  0  0  0  0  0  0  0  0  # atno 10765 bound_to 10752
  140.0197  134.6171  155.9657 H   0  0  0  0  0  0  0  0  0  0  0  0  # atno 11005 bound_to 11000
  145.8581  140.9491  143.0714 LP  0  0  0  0  0  0  0  0  0  0  0  0  # atno 17320 bound_to 7965
  144.6750  140.0495  143.7479 LP  0  0  0  0  0  0  0  0  0  0  0  0  # atno 17321 bound_to 7965
  139.5003  144.3911  152.0279 LP  0  0  0  0  0  0  0  0  0  0  0  0  # atno 17342 bound_to 10162
  140.3022  144.3633  150.6057 LP  0  0  0  0  0  0  0  0  0  0  0  0  # atno 17343 bound_to 10162
  156.4833  130.8051  151.3064 LP  0  0  0  0  0  0  0  0  0  0  0  0  # atno 17370 bound_to 10713
  157.7469  130.9998  150.2905 LP  0  0  0  0  0  0  0  0  0  0  0  0  # atno 17371 bound_to 10713
  141.1766  133.6541  156.4853 LP  0  0  0  0  0  0  0  0  0  0  0  0  # atno 17394 bound_to 11000
  140.4408  134.7017  157.4991 LP  0  0  0  0  0  0  0  0  0  0  0  0  # atno 17395 bound_to 11000

$$$$
