AV-unprocessed.smi:1481|AV-procd|sdf|5987|dock1
  -GOLD-   22720 6 83D 1   1.00000     0.00000
 Structure written by MMmdl.
 39 40  0  0  0  0  0  0  0  0  1 V2000
  148.0166  139.4733  155.1412 O   0  0  0  0  0  0  0  0  0  0  0  0
  148.3209  138.6649  154.2639 C   0  0  0  0  0  0  0  0  0  0  0  0
  149.3135  138.8520  153.3825 N   0  0  0  0  0  0  0  0  0  0  0  0
  150.1835  140.0237  153.3469 C   0  0  0  0  0  0  0  0  0  0  0  0
  150.5523  140.5745  154.7176 C   0  0  0  0  0  0  0  0  0  0  0  0
  150.8254  139.7319  155.8156 C   0  0  0  0  0  0  0  0  0  0  0  0
  151.1595  140.3098  157.0549 C   0  0  0  0  0  0  0  0  0  0  0  0
  151.2153  141.7194  157.1678 C   0  0  0  0  0  0  0  0  0  0  0  0
  151.5391  142.3211  158.4037 N   0  0  0  0  0  0  0  0  0  0  0  0
  151.7663  143.7652  158.4232 C   0  0  0  0  0  0  0  0  0  0  0  0
  152.3771  144.1945  159.7677 C   0  0  0  0  0  0  0  0  0  0  0  0
  151.5429  143.7563  160.8347 O   0  0  0  0  0  0  0  0  0  0  0  0
  151.4248  142.3380  160.8647 C   0  0  0  0  0  0  0  0  0  0  0  0
  150.7838  141.8393  159.5580 C   0  0  0  0  0  0  0  0  0  0  0  0
  150.9691  142.5249  156.1050 N   0  0  0  0  0  0  0  0  0  0  0  0
  150.6473  141.9658  154.9197 C   0  0  0  0  0  0  0  0  0  0  0  0
  147.7088  137.4872  154.0819 N   0  0  0  0  0  0  0  0  0  0  0  0
  146.6246  136.9718  154.9116 C   0  0  0  0  0  0  0  0  0  0  0  0
  146.9069  135.5418  155.4032 C   0  0  0  0  0  0  0  0  0  0  0  0
  147.1630  134.7619  154.3539 F   0  0  0  0  0  0  0  0  0  0  0  0
  147.9683  135.5338  156.2099 F   0  0  0  0  0  0  0  0  0  0  0  0
  145.8564  135.0446  156.0559 F   0  0  0  0  0  0  0  0  0  0  0  0
  149.4888  138.1316  152.6975 H   0  0  0  0  0  0  0  0  0  0  0  0
  151.1037  139.7481  152.8312 H   0  0  0  0  0  0  0  0  0  0  0  0
  149.7168  140.8073  152.7474 H   0  0  0  0  0  0  0  0  0  0  0  0
  150.7837  138.6573  155.7180 H   0  0  0  0  0  0  0  0  0  0  0  0
  151.3803  139.6684  157.8948 H   0  0  0  0  0  0  0  0  0  0  0  0
  152.4385  144.0530  157.6139 H   0  0  0  0  0  0  0  0  0  0  0  0
  150.8192  144.2824  158.2617 H   0  0  0  0  0  0  0  0  0  0  0  0
  153.3826  143.7874  159.8862 H   0  0  0  0  0  0  0  0  0  0  0  0
  152.4666  145.2801  159.8097 H   0  0  0  0  0  0  0  0  0  0  0  0
  152.4058  141.8836  161.0143 H   0  0  0  0  0  0  0  0  0  0  0  0
  150.8090  142.0515  161.7172 H   0  0  0  0  0  0  0  0  0  0  0  0
  149.7582  142.2034  159.4835 H   0  0  0  0  0  0  0  0  0  0  0  0
  150.7322  140.7518  159.5831 H   0  0  0  0  0  0  0  0  0  0  0  0
  150.4568  142.6530  154.1085 H   0  0  0  0  0  0  0  0  0  0  0  0
  148.0330  136.8905  153.3350 H   0  0  0  0  0  0  0  0  0  0  0  0
  146.4394  137.6358  155.7578 H   0  0  0  0  0  0  0  0  0  0  0  0
  145.7139  136.9798  154.3123 H   0  0  0  0  0  0  0  0  0  0  0  0
  1  2  2  0  0  0  0
  2  3  1  0  0  0  0
  2 17  1  0  0  0  0
  3  4  1  0  0  0  0
  3 23  1  0  0  0  0
  4  5  1  0  0  0  0
  4 24  1  0  0  0  0
  4 25  1  0  0  0  0
  5 16  1  0  0  0  0
  5  6  2  0  0  0  0
  6  7  1  0  0  0  0
  6 26  1  0  0  0  0
  7  8  2  0  0  0  0
  7 27  1  0  0  0  0
  8  9  1  0  0  0  0
  8 15  1  0  0  0  0
  9 14  1  0  0  0  0
  9 10  1  0  0  0  0
 10 11  1  0  0  0  0
 10 28  1  0  0  0  0
 10 29  1  0  0  0  0
 11 12  1  0  0  0  0
 11 30  1  0  0  0  0
 11 31  1  0  0  0  0
 12 13  1  0  0  0  0
 13 14  1  0  0  0  0
 13 32  1  0  0  0  0
 13 33  1  0  0  0  0
 14 34  1  0  0  0  0
 14 35  1  0  0  0  0
 15 16  2  0  0  0  0
 16 36  1  0  0  0  0
 17 18  1  0  0  0  0
 17 37  1  0  0  0  0
 18 19  1  0  0  0  0
 18 38  1  0  0  0  0
 18 39  1  0  0  0  0
 19 20  1  0  0  0  0
 19 21  1  0  0  0  0
 19 22  1  0  0  0  0
M  END
> <s_m_source_file>
AV-unprocessed.smi

> <i_m_source_file_index>
1481

> <i_lp_mmshare_version>
43012

> <i_f3d_flags>
0

> <s_epik_input>
RkMoRikoRilbQ0gyXVtOSF1DKD1PKVtOSF1bQ0gyXWMxW2NIXVtjSF1jKG5bY0hdMSlOMltDSDJdW0NIMl1PW0NIMl1bQ0gyXTI=

> <s_epik_cmdline>
J2VwaWtfcHl0aG9uJywgJy1waCcsICc3LjAnLCAnLXRuJywgJzgnLCAnLW1hJywgJzIwMCcsICctbWV0YWxfYmluZGluZycsICctaW1hZScsICc8aW5maWxlLm1hZT4nLCAnLW9tYWUnLCAnPG91dGZpbGUubWFlPic=

> <r_lp_tautomer_probability>
1

> <r_epik_Ionization_Penalty>
0.00288034

> <r_epik_Ionization_Penalty_Charging>
0

> <r_epik_Ionization_Penalty_Neutral>
0.00288034

> <r_epik_State_Penalty>
0.00199456

> <r_epik_Charging_Adjusted_Penalty>
0.00199456

> <i_epik_Tot_Q>
0

> <i_epik_Tot_abs_Q>
0

> <r_epik_Metal_State_Penalty>
-0

> <b_epik_Metal_Only>
0

> <s_lp_Force_Field>
OPLS_2005

> <r_lp_Energy>
12.6538

> <b_lp_Chiralities_Consistent>
1

> <s_lp_Variant>
AV-unprocessed.smi:1481-1

> <Gold.Version>
5.8.1

> <Gold.Id.Protein>
6NUR|6NUR_protein|mol2

> <Gold.PLP.Fitness>
42.8104

> <Gold.PLP.PLP>
-35.7722

> <Gold.PLP.part.hbond>
-2.5820

> <Gold.PLP.part.metal>
0.0000

> <Gold.PLP.part.buried>
0.3218

> <Gold.PLP.part.nonpolar>
-32.9203

> <Gold.PLP.part.repulsive>
1.2011

> <Gold.PLP.ligand.clash>
0.0000

> <Gold.PLP.ligand.torsion>
0.6937

> <Gold.PLP.Chemscore.Hbond>
2.0000

> <Gold.PLP.Chemscore.CHOScore>
0.6828

> <Gold.PLP.Chemscore.Metal>
0.0000

> <Gold.Chemscore.Hbonds>
donor molecule, donor type, donor heavy atom, donor atom, acceptor molecule, acceptor atom, score
      L1  H     3    23       P1  7948  0.83
      L1  H    17    37       P1  7948  1.00

> <Gold.PLP.Chemscore.Internal.Correction>
0.3775

> <Gold.Rescore>
     Score         DG    S(hbond)    S(metal)    S(lipo)     H(rot)  DE(clash)    DE(int)     intcor
     13.13     -16.30       1.94        0.00      82.85       2.09       1.18       2.00       ----

> <Gold.Chemscore.Fitness>
13.1264

> <Gold.Chemscore.DG>
-16.3044

> <Gold.Chemscore.ZeroCoef>
-5.4800

> <Gold.Chemscore.Hbond>
1.9406

> <Gold.Chemscore.Metal>
0.0000

> <Gold.Chemscore.Lipo>
82.8473

> <Gold.Chemscore.Internal_Hbond>
0.0000

> <Gold.Chemscore.DEClash>
1.1807

> <Gold.Chemscore.DEInternal>
1.9972

> <Gold.Chemscore.Rot>
2.0899

> <Gold.Chemscore.Internal.Correction>
   9.000000E+99

> <Gold.Chemscore.Hbonds>
donor molecule, donor type, donor heavy atom, donor atom, acceptor molecule, acceptor atom, score
      L1  H     3    23       P1  7948  0.61
      L1  H    17    37       P1  7948  1.00

> <Gold.Chemscore.Hbond.Weighted>
-6.4815

> <Gold.Chemscore.Metal.Weighted>
-0.0000

> <Gold.Chemscore.Lipo.Weighted>
-9.6931

> <Gold.Chemscore.Internal_Hbond.Weighted>
0.0000

> <Gold.Chemscore.DEClash.Weighted>
1.1807

> <Gold.Chemscore.DEInternal.Weighted>
1.9972

> <Gold.Chemscore.Rot.Weighted>
5.3502

> <Gold.Chemscore.Internal.Correction.Weighted>
   9.000000E+99

> <Gold.Protein.RotatedTorsions>
[ 6907 6896 6895 6894 ] final  -33.75 input  -60.11 | X-H torsion
[ 7974 7965 7964 7962 ] final -167.23 input  175.53 | X-H torsion
[ 8008 7997 7996 7995 ] final  -50.43 input   59.86 | X-H torsion
[ 10167 10162 10161 10158 ] final -169.17 input  -65.29 | X-H torsion
[ 10718 10713 10712 10709 ] final  177.19 input   66.30 | X-H torsion
[ 10763 10752 10751 10750 ] final   84.12 input  -60.55 | X-H torsion
[ 11005 11000 10999 10996 ] final   81.90 input  -57.11 | X-H torsion

> <Gold.Protein.ActiveResidues>
 VAL166  LYS551  ARG553  GLY616  TRP617  ASP618  TYR619  PRO620  LYS621  CYS622 
 ASP623  PHE694  ASN695  SER759  ASP760  ASP761  ALA762  ILE779  LEU786  VAL792 
 PHE793  MET794  SER795  GLU796  ALA797  LYS798  CYS799  TRP800  GLU811  SER814 

> <Gold.Protein.RotatedAtoms>
  151.0615  134.9739  159.8262 H   0  0  0  0  0  0  0  0  0  0  0  0  # atno 6907 bound_to 6896
  152.5396  134.2412  159.8873 H   0  0  0  0  0  0  0  0  0  0  0  0  # atno 6908 bound_to 6896
  151.2432  133.4345  159.2642 H   0  0  0  0  0  0  0  0  0  0  0  0  # atno 6909 bound_to 6896
  144.7227  140.2549  143.6273 H   0  0  0  0  0  0  0  0  0  0  0  0  # atno 7974 bound_to 7965
  154.4062  140.1272  156.4664 H   0  0  0  0  0  0  0  0  0  0  0  0  # atno 8008 bound_to 7997
  155.7223  140.3492  155.5001 H   0  0  0  0  0  0  0  0  0  0  0  0  # atno 8009 bound_to 7997
  155.9203  140.1051  157.1202 H   0  0  0  0  0  0  0  0  0  0  0  0  # atno 8010 bound_to 7997
  139.5939  144.1153  152.1667 H   0  0  0  0  0  0  0  0  0  0  0  0  # atno 10167 bound_to 10162
  156.9090  130.9903  151.3024 H   0  0  0  0  0  0  0  0  0  0  0  0  # atno 10718 bound_to 10713
  153.1352  135.4666  154.9411 H   0  0  0  0  0  0  0  0  0  0  0  0  # atno 10763 bound_to 10752
  154.7700  135.3156  154.8212 H   0  0  0  0  0  0  0  0  0  0  0  0  # atno 10764 bound_to 10752
  153.8746  135.6900  153.4825 H   0  0  0  0  0  0  0  0  0  0  0  0  # atno 10765 bound_to 10752
  139.9082  134.8031  156.2103 H   0  0  0  0  0  0  0  0  0  0  0  0  # atno 11005 bound_to 11000
  145.8192  139.2036  143.1948 LP  0  0  0  0  0  0  0  0  0  0  0  0  # atno 17320 bound_to 7965
  146.0529  140.8051  142.9773 LP  0  0  0  0  0  0  0  0  0  0  0  0  # atno 17321 bound_to 7965
  140.0734  144.5760  150.7175 LP  0  0  0  0  0  0  0  0  0  0  0  0  # atno 17342 bound_to 10162
  140.7196  143.2576  151.4322 LP  0  0  0  0  0  0  0  0  0  0  0  0  # atno 17343 bound_to 10162
  157.5979  130.8491  149.8757 LP  0  0  0  0  0  0  0  0  0  0  0  0  # atno 17370 bound_to 10713
  156.0545  130.3711  150.1123 LP  0  0  0  0  0  0  0  0  0  0  0  0  # atno 17371 bound_to 10713
  141.0470  133.6908  156.1701 LP  0  0  0  0  0  0  0  0  0  0  0  0  # atno 17394 bound_to 11000
  140.6869  134.4707  157.5589 LP  0  0  0  0  0  0  0  0  0  0  0  0  # atno 17395 bound_to 11000

$$$$
