AV-unprocessed.smi:1436|AV-procd|sdf|5862|dock1
  -GOLD-   22720 5533D 1   1.00000     0.00000
 Structure written by MMmdl.
 44 45  0  0  0  0  0  0  0  0  2 V2000
  153.2488  137.3621  156.3540 C   0  0  0  0  0  0  0  0  0  0  0  0
  152.4862  138.6417  156.5449 C   0  0  0  0  0  0  0  0  0  0  0  0
  152.7544  139.4161  157.5825 N   0  0  0  0  0  0  0  0  0  0  0  0
  151.8998  140.5169  157.4708 O   0  0  0  0  0  0  0  0  0  0  0  0
  151.1454  140.3633  156.3535 C   0  0  0  0  0  0  0  0  0  0  0  0
  150.1765  141.4533  156.0432 C   0  0  0  0  0  0  0  0  0  0  0  0
  151.4658  139.1946  155.7192 C   0  0  0  0  0  0  0  0  0  0  0  0
  150.9011  138.6283  154.4418 C   0  0  0  0  0  0  0  0  0  0  0  0
  149.3810  138.5780  154.5665 C   0  0  0  0  0  0  0  0  0  0  0  0
  148.8572  137.8548  155.4128 O   0  0  0  0  0  0  0  0  0  0  0  0
  148.6906  139.3049  153.6736 N   0  0  0  0  0  0  0  0  0  0  0  0
  147.2447  139.2536  153.4615 C   0  0  1  0  0  0  0  0  0  0  0  0
  146.6251  140.6105  153.8218 C   0  0  0  0  0  0  0  0  0  0  0  0
  146.9297  138.8483  152.0032 C   0  0  0  0  0  0  0  0  0  0  0  0
  146.6451  137.3978  151.8451 N   0  3  0  0  0  0  0  0  0  0  0  0
  145.9013  136.8091  152.9848 C   0  0  0  0  0  0  0  0  0  0  0  0
  145.7195  135.2972  152.7734 C   0  0  0  0  0  0  0  0  0  0  0  0
  145.0328  135.0707  151.5487 O   0  0  0  0  0  0  0  0  0  0  0  0
  145.7623  135.5608  150.4304 C   0  0  0  0  0  0  0  0  0  0  0  0
  145.9683  137.0795  150.5658 C   0  0  0  0  0  0  0  0  0  0  0  0
  153.8588  137.4045  155.4514 H   0  0  0  0  0  0  0  0  0  0  0  0
  152.5698  136.5151  156.2555 H   0  0  0  0  0  0  0  0  0  0  0  0
  153.9142  137.1570  157.1936 H   0  0  0  0  0  0  0  0  0  0  0  0
  150.4592  141.9702  155.1261 H   0  0  0  0  0  0  0  0  0  0  0  0
  150.1408  142.1888  156.8473 H   0  0  0  0  0  0  0  0  0  0  0  0
  149.1719  141.0509  155.9105 H   0  0  0  0  0  0  0  0  0  0  0  0
  151.1706  139.2389  153.5792 H   0  0  0  0  0  0  0  0  0  0  0  0
  151.2852  137.6274  154.2396 H   0  0  0  0  0  0  0  0  0  0  0  0
  149.2188  139.8828  153.0355 H   0  0  0  0  0  0  0  0  0  0  0  0
  146.7983  138.5161  154.1298 H   0  0  0  0  0  0  0  0  0  0  0  0
  145.5427  140.5932  153.6917 H   0  0  0  0  0  0  0  0  0  0  0  0
  147.0227  141.4106  153.1962 H   0  0  0  0  0  0  0  0  0  0  0  0
  146.8266  140.8698  154.8619 H   0  0  0  0  0  0  0  0  0  0  0  0
  146.0999  139.4359  151.6079 H   0  0  0  0  0  0  0  0  0  0  0  0
  147.7978  139.0971  151.3905 H   0  0  0  0  0  0  0  0  0  0  0  0
  146.4339  136.9804  153.9194 H   0  0  0  0  0  0  0  0  0  0  0  0
  144.9284  137.2935  153.0789 H   0  0  0  0  0  0  0  0  0  0  0  0
  146.6832  134.7853  152.7672 H   0  0  0  0  0  0  0  0  0  0  0  0
  145.1370  134.8705  153.5898 H   0  0  0  0  0  0  0  0  0  0  0  0
  146.7186  135.0439  150.3531 H   0  0  0  0  0  0  0  0  0  0  0  0
  145.2063  135.3366  149.5199 H   0  0  0  0  0  0  0  0  0  0  0  0
  145.0069  137.5938  150.5226 H   0  0  0  0  0  0  0  0  0  0  0  0
  146.5662  137.4418  149.7288 H   0  0  0  0  0  0  0  0  0  0  0  0
  147.5420  136.9341  151.8117 H   0  0  0  0  0  0  0  0  0  0  0  0
  1  2  1  0  0  0  0
  1 21  1  0  0  0  0
  1 22  1  0  0  0  0
  1 23  1  0  0  0  0
  2  7  1  0  0  0  0
  2  3  2  0  0  0  0
  3  4  1  0  0  0  0
  4  5  1  0  0  0  0
  5  6  1  0  0  0  0
  5  7  2  0  0  0  0
  6 24  1  0  0  0  0
  6 25  1  0  0  0  0
  6 26  1  0  0  0  0
  7  8  1  0  0  0  0
  8  9  1  0  0  0  0
  8 27  1  0  0  0  0
  8 28  1  0  0  0  0
  9 10  2  0  0  0  0
  9 11  1  0  0  0  0
 11 12  1  0  0  0  0
 11 29  1  0  0  0  0
 12 13  1  0  0  0  0
 12 14  1  0  0  0  0
 12 30  1  0  0  0  0
 13 31  1  0  0  0  0
 13 32  1  0  0  0  0
 13 33  1  0  0  0  0
 14 15  1  0  0  0  0
 14 34  1  0  0  0  0
 14 35  1  0  0  0  0
 15 20  1  0  0  0  0
 15 16  1  0  0  0  0
 15 44  1  0  0  0  0
 16 17  1  0  0  0  0
 16 36  1  0  0  0  0
 16 37  1  0  0  0  0
 17 18  1  0  0  0  0
 17 38  1  0  0  0  0
 17 39  1  0  0  0  0
 18 19  1  0  0  0  0
 19 20  1  0  0  0  0
 19 40  1  0  0  0  0
 19 41  1  0  0  0  0
 20 42  1  0  0  0  0
 20 43  1  0  0  0  0
M  CHG  1  15   1
M  END
> <s_m_source_file>
AV-unprocessed.smi

> <i_m_source_file_index>
1436

> <i_lp_mmshare_version>
43012

> <i_f3d_flags>
0

> <s_epik_input>
W0NIM11jMW5vYyhbQ0gzXSljMVtDSDJdQyg9TylbTkhdW0NASF0oW0NIM10pW0NIMl1OMltDSDJdW0NIMl1PW0NIMl1bQ0gyXTI=

> <s_epik_cmdline>
J2VwaWtfcHl0aG9uJywgJy1waCcsICc3LjAnLCAnLXRuJywgJzgnLCAnLW1hJywgJzIwMCcsICctbWV0YWxfYmluZGluZycsICctaW1hZScsICc8aW5maWxlLm1hZT4nLCAnLW9tYWUnLCAnPG91dGZpbGUubWFlPic=

> <r_epik_Ionization_Penalty>
0.663207

> <r_epik_Ionization_Penalty_Charging>
0.663207

> <r_epik_Ionization_Penalty_Neutral>
1.07515e-07

> <r_epik_State_Penalty>
0.682743

> <r_epik_Charging_Adjusted_Penalty>
1.34595

> <i_epik_Tot_Q>
1

> <i_epik_Tot_abs_Q>
1

> <r_epik_Metal_State_Penalty>
0.682743

> <b_epik_Metal_Only>
0

> <s_lp_Force_Field>
OPLS_2005

> <r_lp_Energy>
13.3676

> <b_lp_Chiralities_Consistent>
1

> <s_lp_Variant>
AV-unprocessed.smi:1436-4

> <Gold.Version>
5.8.1

> <Gold.Id.Protein>
6NUR|6NUR_protein|mol2

> <Gold.PLP.Fitness>
40.4484

> <Gold.PLP.PLP>
-29.9850

> <Gold.PLP.part.hbond>
-3.0000

> <Gold.PLP.part.metal>
0.0000

> <Gold.PLP.part.buried>
4.5118

> <Gold.PLP.part.nonpolar>
-30.8980

> <Gold.PLP.part.repulsive>
0.3474

> <Gold.PLP.ligand.clash>
0.0000

> <Gold.PLP.ligand.torsion>
0.7874

> <Gold.PLP.Chemscore.Hbond>
4.0000

> <Gold.PLP.Chemscore.CHOScore>
0.0000

> <Gold.PLP.Chemscore.Metal>
0.0000

> <Gold.Chemscore.Hbonds>
donor molecule, donor type, donor heavy atom, donor atom, acceptor molecule, acceptor atom, score
      L1  H    11    29       P1  7957  0.80
      L1  H    15    44       P1  7948  2.00
      P1  H  7997  8010       L1     3  0.80

> <Gold.PLP.Chemscore.Internal.Correction>
0.0382

> <Gold.Rescore>
     Score         DG    S(hbond)    S(metal)    S(lipo)     H(rot)  DE(clash)    DE(int)     intcor
     16.15     -18.26       2.29        0.00      83.19       1.79       1.32       0.79       ----

> <Gold.Chemscore.Fitness>
16.1458

> <Gold.Chemscore.DG>
-18.2584

> <Gold.Chemscore.ZeroCoef>
-5.4800

> <Gold.Chemscore.Hbond>
2.2864

> <Gold.Chemscore.Metal>
0.0000

> <Gold.Chemscore.Lipo>
83.1914

> <Gold.Chemscore.Internal_Hbond>
0.0000

> <Gold.Chemscore.DEClash>
1.3194

> <Gold.Chemscore.DEInternal>
0.7932

> <Gold.Chemscore.Rot>
1.7936

> <Gold.Chemscore.Internal.Correction>
   9.000000E+99

> <Gold.Chemscore.Hbonds>
donor molecule, donor type, donor heavy atom, donor atom, acceptor molecule, acceptor atom, score
      L1  H    11    29       P1  7957  0.79
      L1  H    15    44       P1  7948  0.95
      P1  H  7997  8010       L1     3  0.06

> <Gold.Chemscore.Hbond.Weighted>
-7.6366

> <Gold.Chemscore.Metal.Weighted>
-0.0000

> <Gold.Chemscore.Lipo.Weighted>
-9.7334

> <Gold.Chemscore.Internal_Hbond.Weighted>
0.0000

> <Gold.Chemscore.DEClash.Weighted>
1.3194

> <Gold.Chemscore.DEInternal.Weighted>
0.7932

> <Gold.Chemscore.Rot.Weighted>
4.5916

> <Gold.Chemscore.Internal.Correction.Weighted>
   9.000000E+99

> <Gold.Protein.RotatedTorsions>
[ 6907 6896 6895 6894 ] final  103.59 input  -60.11 | X-H torsion
[ 7974 7965 7964 7962 ] final  -74.83 input  175.53 | X-H torsion
[ 8008 7997 7996 7995 ] final   40.29 input   59.86 | X-H torsion
[ 10167 10162 10161 10158 ] final   -5.39 input  -65.29 | X-H torsion
[ 10718 10713 10712 10709 ] final  172.11 input   66.30 | X-H torsion
[ 10763 10752 10751 10750 ] final  142.70 input  -60.55 | X-H torsion
[ 11005 11000 10999 10996 ] final -160.81 input  -57.11 | X-H torsion

> <Gold.Protein.ActiveResidues>
 VAL166  LYS551  ARG553  GLY616  TRP617  ASP618  TYR619  PRO620  LYS621  CYS622 
 ASP623  PHE694  ASN695  SER759  ASP760  ASP761  ALA762  ILE779  LEU786  VAL792 
 PHE793  MET794  SER795  GLU796  ALA797  LYS798  CYS799  TRP800  GLU811  SER814 

> <Gold.Protein.RotatedAtoms>
  152.5291  133.9803  159.7803 H   0  0  0  0  0  0  0  0  0  0  0  0  # atno 6907 bound_to 6896
  151.0058  133.6004  159.2696 H   0  0  0  0  0  0  0  0  0  0  0  0  # atno 6908 bound_to 6896
  151.3097  135.0797  159.9321 H   0  0  0  0  0  0  0  0  0  0  0  0  # atno 6909 bound_to 6896
  145.6340  140.9330  143.1072 H   0  0  0  0  0  0  0  0  0  0  0  0  # atno 7974 bound_to 7965
  155.2507  140.3352  155.4282 H   0  0  0  0  0  0  0  0  0  0  0  0  # atno 8008 bound_to 7997
  156.2217  140.1812  156.7505 H   0  0  0  0  0  0  0  0  0  0  0  0  # atno 8009 bound_to 7997
  154.5835  140.0649  156.9123 H   0  0  0  0  0  0  0  0  0  0  0  0  # atno 8010 bound_to 7997
  140.6961  143.6314  150.8520 H   0  0  0  0  0  0  0  0  0  0  0  0  # atno 10167 bound_to 10162
  156.9837  131.0126  151.2875 H   0  0  0  0  0  0  0  0  0  0  0  0  # atno 10718 bound_to 10713
  153.9602  135.2961  155.3434 H   0  0  0  0  0  0  0  0  0  0  0  0  # atno 10763 bound_to 10752
  154.7379  135.5038  153.9075 H   0  0  0  0  0  0  0  0  0  0  0  0  # atno 10764 bound_to 10752
  153.0950  135.6718  153.9890 H   0  0  0  0  0  0  0  0  0  0  0  0  # atno 10765 bound_to 10752
  140.6274  134.4687  157.5227 H   0  0  0  0  0  0  0  0  0  0  0  0  # atno 11005 bound_to 11000
  144.7183  139.8120  143.7391 LP  0  0  0  0  0  0  0  0  0  0  0  0  # atno 17320 bound_to 7965
  146.1334  139.4374  143.0154 LP  0  0  0  0  0  0  0  0  0  0  0  0  # atno 17321 bound_to 7965
  140.0032  143.5722  152.2868 LP  0  0  0  0  0  0  0  0  0  0  0  0  # atno 17342 bound_to 10162
  139.6419  144.7655  151.2322 LP  0  0  0  0  0  0  0  0  0  0  0  0  # atno 17343 bound_to 10162
  157.5508  130.8181  149.8143 LP  0  0  0  0  0  0  0  0  0  0  0  0  # atno 17370 bound_to 10713
  156.0234  130.3787  150.1893 LP  0  0  0  0  0  0  0  0  0  0  0  0  # atno 17371 bound_to 10713
  139.9129  134.8306  156.1464 LP  0  0  0  0  0  0  0  0  0  0  0  0  # atno 17394 bound_to 11000
  141.0700  133.6801  156.2120 LP  0  0  0  0  0  0  0  0  0  0  0  0  # atno 17395 bound_to 11000

$$$$
