AV-unprocessed.smi:2976|AV-procd|sdf|11362|dock9
  -GOLD-   2272016283D 1   1.00000     0.00000
 Structure written by MMmdl.
 40 41  0  0  0  0  0  0  0  0  1 V2000
  153.2513  143.2265  159.7562 C   0  0  0  0  0  0  0  0  0  0  0  0
  152.6329  144.0258  158.5908 C   0  0  1  0  0  0  0  0  0  0  0  0
  152.3045  143.1167  157.3890 C   0  0  0  0  0  0  0  0  0  0  0  0
  151.0797  142.2265  157.6514 C   0  0  0  0  0  0  0  0  0  0  0  0
  149.8570  143.0684  158.0409 C   0  0  0  0  0  0  0  0  0  0  0  0
  150.1482  143.9797  159.2485 C   0  0  2  0  0  0  0  0  0  0  0  0
  148.9655  144.7983  159.5122 N   0  0  0  0  0  0  0  0  0  0  0  0
  148.2317  144.7851  160.6359 C   0  0  0  0  0  0  0  0  0  0  0  0
  148.4605  144.0393  161.5890 O   0  0  0  0  0  0  0  0  0  0  0  0
  147.0503  145.7645  160.6786 C   0  0  0  0  0  0  0  0  0  0  0  0
  145.7427  145.0926  160.6473 N   0  0  0  0  0  0  0  0  0  0  0  0
  145.5642  144.1561  161.6502 N   0  0  0  0  0  0  0  0  0  0  0  0
  144.4517  143.5103  161.7241 C   0  0  0  0  0  0  0  0  0  0  0  0
  143.3714  143.7263  160.7873 C   0  0  0  0  0  0  0  0  0  0  0  0
  141.9016  142.8293  160.9363 Cl  0  0  0  0  0  0  0  0  0  0  0  0
  143.5581  144.6440  159.8056 C   0  0  0  0  0  0  0  0  0  0  0  0
  142.3116  144.9576  158.6471 Cl  0  0  0  0  0  0  0  0  0  0  0  0
  144.8139  145.3979  159.6889 C   0  0  0  0  0  0  0  0  0  0  0  0
  145.0246  146.2336  158.8088 O   0  0  0  0  0  0  0  0  0  0  0  0
  151.3927  144.8711  158.9879 C   0  0  1  0  0  0  0  0  0  0  0  0
  151.6963  145.8482  160.1417 C   0  0  0  0  0  0  0  0  0  0  0  0
  152.5401  142.5331  160.2040 H   0  0  0  0  0  0  0  0  0  0  0  0
  153.6128  143.8844  160.5460 H   0  0  0  0  0  0  0  0  0  0  0  0
  154.1066  142.6428  159.4150 H   0  0  0  0  0  0  0  0  0  0  0  0
  153.4050  144.7201  158.2560 H   0  0  0  0  0  0  0  0  0  0  0  0
  152.1103  143.7371  156.5132 H   0  0  0  0  0  0  0  0  0  0  0  0
  153.1666  142.4994  157.1341 H   0  0  0  0  0  0  0  0  0  0  0  0
  150.8537  141.6384  156.7616 H   0  0  0  0  0  0  0  0  0  0  0  0
  151.3005  141.5092  158.4422 H   0  0  0  0  0  0  0  0  0  0  0  0
  149.5538  143.6743  157.1857 H   0  0  0  0  0  0  0  0  0  0  0  0
  149.0167  142.4099  158.2639 H   0  0  0  0  0  0  0  0  0  0  0  0
  150.3500  143.3386  160.1077 H   0  0  0  0  0  0  0  0  0  0  0  0
  148.6955  145.4446  158.7851 H   0  0  0  0  0  0  0  0  0  0  0  0
  147.1197  146.3917  161.5696 H   0  0  0  0  0  0  0  0  0  0  0  0
  147.1490  146.4464  159.8322 H   0  0  0  0  0  0  0  0  0  0  0  0
  144.2653  142.7651  162.4976 H   0  0  0  0  0  0  0  0  0  0  0  0
  151.1596  145.4935  158.1222 H   0  0  0  0  0  0  0  0  0  0  0  0
  151.8036  145.3258  161.0926 H   0  0  0  0  0  0  0  0  0  0  0  0
  150.9011  146.5840  160.2619 H   0  0  0  0  0  0  0  0  0  0  0  0
  152.6174  146.4014  159.9568 H   0  0  0  0  0  0  0  0  0  0  0  0
  1  2  1  0  0  0  0
  1 22  1  0  0  0  0
  1 23  1  0  0  0  0
  1 24  1  0  0  0  0
  2 20  1  0  0  0  0
  2  3  1  0  0  0  0
  2 25  1  0  0  0  0
  3  4  1  0  0  0  0
  3 26  1  0  0  0  0
  3 27  1  0  0  0  0
  4  5  1  0  0  0  0
  4 28  1  0  0  0  0
  4 29  1  0  0  0  0
  5  6  1  0  0  0  0
  5 30  1  0  0  0  0
  5 31  1  0  0  0  0
  6  7  1  0  0  0  0
  6 20  1  0  0  0  0
  6 32  1  0  0  0  0
  7  8  1  0  0  0  0
  7 33  1  0  0  0  0
  8  9  2  0  0  0  0
  8 10  1  0  0  0  0
 10 11  1  0  0  0  0
 10 34  1  0  0  0  0
 10 35  1  0  0  0  0
 11 18  1  0  0  0  0
 11 12  1  0  0  0  0
 12 13  2  0  0  0  0
 13 14  1  0  0  0  0
 13 36  1  0  0  0  0
 14 15  1  0  0  0  0
 14 16  2  0  0  0  0
 16 17  1  0  0  0  0
 16 18  1  0  0  0  0
 18 19  2  0  0  0  0
 20 21  1  0  0  0  0
 20 37  1  0  0  0  0
 21 38  1  0  0  0  0
 21 39  1  0  0  0  0
 21 40  1  0  0  0  0
M  END
> <s_m_source_file>
AV-unprocessed.smi

> <i_m_source_file_index>
2976

> <i_lp_mmshare_version>
43012

> <i_f3d_flags>
0

> <s_epik_input>
W0NIM11bQ0BASF0xW0NIMl1bQ0gyXVtDSDJdW0NASF0oW0NASF0xW0NIM10pW05IXUMoPU8pW0NIMl1uMm5bY0hdYyhDbCljKENsKWMyPU8=

> <s_epik_cmdline>
J2VwaWtfcHl0aG9uJywgJy1waCcsICc3LjAnLCAnLXRuJywgJzgnLCAnLW1hJywgJzIwMCcsICctbWV0YWxfYmluZGluZycsICctaW1hZScsICc8aW5maWxlLm1hZT4nLCAnLW9tYWUnLCAnPG91dGZpbGUubWFlPic=

> <r_lp_tautomer_probability>
1

> <r_epik_Ionization_Penalty>
1.90777e-08

> <r_epik_Ionization_Penalty_Charging>
3.07942e-11

> <r_epik_Ionization_Penalty_Neutral>
1.90469e-08

> <r_epik_State_Penalty>
-0

> <r_epik_Charging_Adjusted_Penalty>
3.07942e-11

> <i_epik_Tot_Q>
0

> <i_epik_Tot_abs_Q>
0

> <r_epik_Metal_State_Penalty>
-0

> <b_epik_Metal_Only>
0

> <s_lp_Force_Field>
OPLS_2005

> <r_lp_Energy>
28.0936

> <b_lp_Chiralities_Consistent>
1

> <s_lp_Variant>
AV-unprocessed.smi:2976-4

> <Gold.Version>
5.8.1

> <Gold.Id.Protein>
6NUR|6NUR_protein|mol2

> <Gold.PLP.Fitness>
43.1668

> <Gold.PLP.PLP>
-37.9399

> <Gold.PLP.part.hbond>
-2.0000

> <Gold.PLP.part.metal>
0.0000

> <Gold.PLP.part.buried>
-5.9459

> <Gold.PLP.part.nonpolar>
-30.6441

> <Gold.PLP.part.repulsive>
0.6138

> <Gold.PLP.ligand.clash>
0.0000

> <Gold.PLP.ligand.torsion>
0.0891

> <Gold.PLP.Chemscore.Hbond>
1.8000

> <Gold.PLP.Chemscore.CHOScore>
0.0000

> <Gold.PLP.Chemscore.Metal>
0.0000

> <Gold.Chemscore.Hbonds>
donor molecule, donor type, donor heavy atom, donor atom, acceptor molecule, acceptor atom, score
      L1  H     7    33       P1  8029  1.00
      P1  H  6933  6944       L1     9  0.80

> <Gold.PLP.Chemscore.Internal.Correction>
0.0051

> <Gold.Rescore>
     Score         DG    S(hbond)    S(metal)    S(lipo)     H(rot)  DE(clash)    DE(int)     intcor
     17.87     -20.76       1.79        0.00     111.89       1.49       1.49       1.39       ----

> <Gold.Chemscore.Fitness>
17.8741

> <Gold.Chemscore.DG>
-20.7556

> <Gold.Chemscore.ZeroCoef>
-5.4800

> <Gold.Chemscore.Hbond>
1.7935

> <Gold.Chemscore.Metal>
0.0000

> <Gold.Chemscore.Lipo>
111.8896

> <Gold.Chemscore.Internal_Hbond>
0.0000

> <Gold.Chemscore.DEClash>
1.4894

> <Gold.Chemscore.DEInternal>
1.3921

> <Gold.Chemscore.Rot>
1.4866

> <Gold.Chemscore.Internal.Correction>
   9.000000E+99

> <Gold.Chemscore.Hbonds>
donor molecule, donor type, donor heavy atom, donor atom, acceptor molecule, acceptor atom, score
      L1  H     7    33       P1  8029  0.99
      P1  H  6933  6944       L1     9  0.79

> <Gold.Chemscore.Hbond.Weighted>
-5.9902

> <Gold.Chemscore.Metal.Weighted>
-0.0000

> <Gold.Chemscore.Lipo.Weighted>
-13.0911

> <Gold.Chemscore.Internal_Hbond.Weighted>
0.0000

> <Gold.Chemscore.DEClash.Weighted>
1.4894

> <Gold.Chemscore.DEInternal.Weighted>
1.3921

> <Gold.Chemscore.Rot.Weighted>
3.8057

> <Gold.Chemscore.Internal.Correction.Weighted>
   9.000000E+99

> <Gold.Protein.RotatedTorsions>
[ 6907 6896 6895 6894 ] final   -0.05 input  -60.11 | X-H torsion
[ 7974 7965 7964 7962 ] final  -24.72 input  175.53 | X-H torsion
[ 8008 7997 7996 7995 ] final   77.96 input   59.86 | X-H torsion
[ 10167 10162 10161 10158 ] final  179.77 input  -65.29 | X-H torsion
[ 10718 10713 10712 10709 ] final  -80.84 input   66.30 | X-H torsion
[ 10763 10752 10751 10750 ] final   80.61 input  -60.55 | X-H torsion
[ 11005 11000 10999 10996 ] final -145.64 input  -57.11 | X-H torsion

> <Gold.Protein.ActiveResidues>
 VAL166  LYS551  ARG553  GLY616  TRP617  ASP618  TYR619  PRO620  LYS621  CYS622 
 ASP623  PHE694  ASN695  SER759  ASP760  ASP761  ALA762  ILE779  LEU786  VAL792 
 PHE793  MET794  SER795  GLU796  ALA797  LYS798  CYS799  TRP800  GLU811  SER814 

> <Gold.Protein.RotatedAtoms>
  151.5685  135.1063  159.9989 H   0  0  0  0  0  0  0  0  0  0  0  0  # atno 6907 bound_to 6896
  152.4412  133.7448  159.6671 H   0  0  0  0  0  0  0  0  0  0  0  0  # atno 6908 bound_to 6896
  150.8318  133.8009  159.3119 H   0  0  0  0  0  0  0  0  0  0  0  0  # atno 6909 bound_to 6896
  146.1537  140.4790  142.8600 H   0  0  0  0  0  0  0  0  0  0  0  0  # atno 7974 bound_to 7965
  155.8490  140.3459  155.5681 H   0  0  0  0  0  0  0  0  0  0  0  0  # atno 8008 bound_to 7997
  155.8058  140.0891  157.1951 H   0  0  0  0  0  0  0  0  0  0  0  0  # atno 8009 bound_to 7997
  154.4007  140.1457  156.3315 H   0  0  0  0  0  0  0  0  0  0  0  0  # atno 8010 bound_to 7997
  139.5351  144.2521  152.0776 H   0  0  0  0  0  0  0  0  0  0  0  0  # atno 10167 bound_to 10162
  156.0062  130.4586  150.3861 H   0  0  0  0  0  0  0  0  0  0  0  0  # atno 10718 bound_to 10713
  153.1047  135.4796  154.8931 H   0  0  0  0  0  0  0  0  0  0  0  0  # atno 10763 bound_to 10752
  154.7418  135.3084  154.8718 H   0  0  0  0  0  0  0  0  0  0  0  0  # atno 10764 bound_to 10752
  153.9324  135.6843  153.4799 H   0  0  0  0  0  0  0  0  0  0  0  0  # atno 10765 bound_to 10752
  140.7901  134.2978  157.5016 H   0  0  0  0  0  0  0  0  0  0  0  0  # atno 11005 bound_to 11000
  144.7936  140.6079  143.6525 LP  0  0  0  0  0  0  0  0  0  0  0  0  # atno 17320 bound_to 7965
  145.4762  139.1499  143.3787 LP  0  0  0  0  0  0  0  0  0  0  0  0  # atno 17321 bound_to 7965
  140.1990  144.4676  150.6441 LP  0  0  0  0  0  0  0  0  0  0  0  0  # atno 17342 bound_to 10162
  140.6553  143.2236  151.5984 LP  0  0  0  0  0  0  0  0  0  0  0  0  # atno 17343 bound_to 10162
  157.1938  131.0422  151.2686 LP  0  0  0  0  0  0  0  0  0  0  0  0  # atno 17370 bound_to 10713
  157.4037  130.7347  149.6786 LP  0  0  0  0  0  0  0  0  0  0  0  0  # atno 17371 bound_to 10713
  139.8732  134.9370  156.3674 LP  0  0  0  0  0  0  0  0  0  0  0  0  # atno 17394 bound_to 11000
  140.9397  133.7522  156.0131 LP  0  0  0  0  0  0  0  0  0  0  0  0  # atno 17395 bound_to 11000

$$$$
