AV-unprocessed.smi:1471|AV-procd|sdf|5962|dock4
  -GOLD-   22720 6 53D 1   1.00000     0.00000
 Structure written by MMmdl.
 42 43  0  0  0  0  0  0  0  0  1 V2000
  146.6980  146.3944  152.7065 C   0  0  0  0  0  0  0  0  0  0  0  0
  146.6090  145.2995  153.7346 C   0  0  0  0  0  0  0  0  0  0  0  0
  147.0836  144.1460  153.3970 N   0  0  0  0  0  0  0  0  0  0  0  0
  147.0849  143.0779  154.2752 N   0  0  0  0  0  0  0  0  0  0  0  0
  147.7050  141.8543  153.7361 C   0  0  0  0  0  0  0  0  0  0  0  0
  149.1173  141.5685  154.3006 C   0  0  2  0  0  0  0  0  0  0  0  0
  149.6332  140.3819  153.7343 O   0  0  0  0  0  0  0  0  0  0  0  0
  149.2054  141.4698  155.8343 C   0  0  0  0  0  0  0  0  0  0  0  0
  150.5521  141.2827  156.2471 O   0  0  0  0  0  0  0  0  0  0  0  0
  150.6790  140.7986  157.5769 C   0  0  0  0  0  0  0  0  0  0  0  0
  151.5409  141.6954  158.4516 C   0  0  0  0  0  0  0  0  0  0  0  0
  151.4584  143.0989  158.3272 C   0  0  0  0  0  0  0  0  0  0  0  0
  152.2493  143.9324  159.1415 C   0  0  0  0  0  0  0  0  0  0  0  0
  153.1377  143.3665  160.0752 C   0  0  0  0  0  0  0  0  0  0  0  0
  153.2325  141.9671  160.1950 C   0  0  0  0  0  0  0  0  0  0  0  0
  152.4318  141.1321  159.3914 C   0  0  0  0  0  0  0  0  0  0  0  0
  152.5197  139.7876  159.5314 F   0  0  0  0  0  0  0  0  0  0  0  0
  146.5489  143.1120  155.5304 C   0  0  0  0  0  0  0  0  0  0  0  0
  146.5385  142.1358  156.2811 O   0  0  0  0  0  0  0  0  0  0  0  0
  145.9938  144.4165  155.8983 C   0  0  0  0  0  0  0  0  0  0  0  0
  145.4257  144.4942  157.2055 C   0  0  0  0  0  0  0  0  0  0  0  0
  144.9440  144.5580  158.2564 N   0  0  0  0  0  0  0  0  0  0  0  0
  146.0240  145.4801  155.0578 C   0  0  0  0  0  0  0  0  0  0  0  0
  145.4789  146.8596  155.4008 C   0  0  0  0  0  0  0  0  0  0  0  0
  145.7035  146.7215  152.4030 H   0  0  0  0  0  0  0  0  0  0  0  0
  147.2265  146.0678  151.8093 H   0  0  0  0  0  0  0  0  0  0  0  0
  147.2324  147.2569  153.1048 H   0  0  0  0  0  0  0  0  0  0  0  0
  147.0850  140.9753  153.9184 H   0  0  0  0  0  0  0  0  0  0  0  0
  147.7591  141.9488  152.6506 H   0  0  0  0  0  0  0  0  0  0  0  0
  149.7906  142.3644  153.9807 H   0  0  0  0  0  0  0  0  0  0  0  0
  149.2796  140.2901  152.8625 H   0  0  0  0  0  0  0  0  0  0  0  0
  148.7792  142.3567  156.3063 H   0  0  0  0  0  0  0  0  0  0  0  0
  148.6014  140.6239  156.1612 H   0  0  0  0  0  0  0  0  0  0  0  0
  149.6800  140.7485  158.0103 H   0  0  0  0  0  0  0  0  0  0  0  0
  151.0590  139.7755  157.5857 H   0  0  0  0  0  0  0  0  0  0  0  0
  150.7817  143.5407  157.6106 H   0  0  0  0  0  0  0  0  0  0  0  0
  152.1768  145.0059  159.0480 H   0  0  0  0  0  0  0  0  0  0  0  0
  153.7460  144.0047  160.6992 H   0  0  0  0  0  0  0  0  0  0  0  0
  153.9128  141.5327  160.9126 H   0  0  0  0  0  0  0  0  0  0  0  0
  145.0297  146.8914  156.3928 H   0  0  0  0  0  0  0  0  0  0  0  0
  144.7130  147.1593  154.6848 H   0  0  0  0  0  0  0  0  0  0  0  0
  146.2792  147.6001  155.3806 H   0  0  0  0  0  0  0  0  0  0  0  0
  1  2  1  0  0  0  0
  1 25  1  0  0  0  0
  1 26  1  0  0  0  0
  1 27  1  0  0  0  0
  2 23  1  0  0  0  0
  2  3  2  0  0  0  0
  3  4  1  0  0  0  0
  4  5  1  0  0  0  0
  4 18  1  0  0  0  0
  5  6  1  0  0  0  0
  5 28  1  0  0  0  0
  5 29  1  0  0  0  0
  6  7  1  0  0  0  0
  6  8  1  0  0  0  0
  6 30  1  0  0  0  0
  7 31  1  0  0  0  0
  8  9  1  0  0  0  0
  8 32  1  0  0  0  0
  8 33  1  0  0  0  0
  9 10  1  0  0  0  0
 10 11  1  0  0  0  0
 10 34  1  0  0  0  0
 10 35  1  0  0  0  0
 11 16  1  0  0  0  0
 11 12  2  0  0  0  0
 12 13  1  0  0  0  0
 12 36  1  0  0  0  0
 13 14  2  0  0  0  0
 13 37  1  0  0  0  0
 14 15  1  0  0  0  0
 14 38  1  0  0  0  0
 15 16  2  0  0  0  0
 15 39  1  0  0  0  0
 16 17  1  0  0  0  0
 18 19  2  0  0  0  0
 18 20  1  0  0  0  0
 20 21  1  0  0  0  0
 20 23  2  0  0  0  0
 21 22  3  0  0  0  0
 23 24  1  0  0  0  0
 24 40  1  0  0  0  0
 24 41  1  0  0  0  0
 24 42  1  0  0  0  0
M  END
> <s_m_source_file>
AV-unprocessed.smi

> <i_m_source_file_index>
1471

> <i_lp_mmshare_version>
43012

> <i_f3d_flags>
0

> <s_epik_input>
TiNDYyhjMVtDSDNdKWMoPU8pbihuYzFbQ0gzXSlbQ0gyXVtDQEhdKFtPSF0pW0NIMl1PW0NIMl1jMltjSF1bY0hdW2NIXVtjSF1jMkY=

> <s_epik_cmdline>
J2VwaWtfcHl0aG9uJywgJy1waCcsICc3LjAnLCAnLXRuJywgJzgnLCAnLW1hJywgJzIwMCcsICctbWV0YWxfYmluZGluZycsICctaW1hZScsICc8aW5maWxlLm1hZT4nLCAnLW9tYWUnLCAnPG91dGZpbGUubWFlPic=

> <r_lp_tautomer_probability>
1

> <r_epik_Ionization_Penalty>
6.13319e-08

> <r_epik_Ionization_Penalty_Charging>
2.19172e-10

> <r_epik_Ionization_Penalty_Neutral>
6.11128e-08

> <r_epik_State_Penalty>
-0

> <r_epik_Charging_Adjusted_Penalty>
2.19172e-10

> <i_epik_Tot_Q>
0

> <i_epik_Tot_abs_Q>
0

> <r_epik_Metal_State_Penalty>
-0

> <b_epik_Metal_Only>
0

> <s_lp_Force_Field>
OPLS_2005

> <r_lp_Energy>
27.5477

> <b_lp_Chiralities_Consistent>
1

> <s_lp_Variant>
AV-unprocessed.smi:1471-1

> <Gold.Version>
5.8.1

> <Gold.Id.Protein>
6NUR|6NUR_protein|mol2

> <Gold.PLP.Fitness>
54.6155

> <Gold.PLP.PLP>
-51.5205

> <Gold.PLP.part.hbond>
-2.0000

> <Gold.PLP.part.metal>
0.0000

> <Gold.PLP.part.buried>
-6.2273

> <Gold.PLP.part.nonpolar>
-44.5051

> <Gold.PLP.part.repulsive>
0.3395

> <Gold.PLP.ligand.clash>
0.0000

> <Gold.PLP.ligand.torsion>
0.9555

> <Gold.PLP.Chemscore.Hbond>
1.6400

> <Gold.PLP.Chemscore.CHOScore>
0.0000

> <Gold.PLP.Chemscore.Metal>
0.0000

> <Gold.Chemscore.Hbonds>
donor molecule, donor type, donor heavy atom, donor atom, acceptor molecule, acceptor atom, score
      L1  H     7    31       P1  7957  0.94
      P1  H  7989  7998       L1     7  0.57

> <Gold.PLP.Chemscore.Internal.Correction>
0.0861

> <Gold.Rescore>
     Score         DG    S(hbond)    S(metal)    S(lipo)     H(rot)  DE(clash)    DE(int)     intcor
     16.05     -17.26       1.29        0.00     121.79       2.65       0.10       1.10       ----

> <Gold.Chemscore.Fitness>
16.0541

> <Gold.Chemscore.DG>
-17.2552

> <Gold.Chemscore.ZeroCoef>
-5.4800

> <Gold.Chemscore.Hbond>
1.2881

> <Gold.Chemscore.Metal>
0.0000

> <Gold.Chemscore.Lipo>
121.7879

> <Gold.Chemscore.Internal_Hbond>
0.0000

> <Gold.Chemscore.DEClash>
0.1020

> <Gold.Chemscore.DEInternal>
1.0991

> <Gold.Chemscore.Rot>
2.6470

> <Gold.Chemscore.Internal.Correction>
   9.000000E+99

> <Gold.Chemscore.Hbonds>
donor molecule, donor type, donor heavy atom, donor atom, acceptor molecule, acceptor atom, score
      L1  H     7    31       P1  7957  0.91
      P1  H  7989  7998       L1     7  0.08

> <Gold.Chemscore.Hbond.Weighted>
-4.3022

> <Gold.Chemscore.Metal.Weighted>
-0.0000

> <Gold.Chemscore.Lipo.Weighted>
-14.2492

> <Gold.Chemscore.Internal_Hbond.Weighted>
0.0000

> <Gold.Chemscore.DEClash.Weighted>
0.1020

> <Gold.Chemscore.DEInternal.Weighted>
1.0991

> <Gold.Chemscore.Rot.Weighted>
6.7762

> <Gold.Chemscore.Internal.Correction.Weighted>
   9.000000E+99

> <Gold.Protein.RotatedTorsions>
[ 6907 6896 6895 6894 ] final  174.76 input  -60.11 | X-H torsion
[ 7974 7965 7964 7962 ] final  159.87 input  175.53 | X-H torsion
[ 8008 7997 7996 7995 ] final   67.19 input   59.86 | X-H torsion
[ 10167 10162 10161 10158 ] final   25.91 input  -65.29 | X-H torsion
[ 10718 10713 10712 10709 ] final    9.28 input   66.30 | X-H torsion
[ 10763 10752 10751 10750 ] final  158.54 input  -60.55 | X-H torsion
[ 11005 11000 10999 10996 ] final   56.40 input  -57.11 | X-H torsion

> <Gold.Protein.ActiveResidues>
 VAL166  LYS551  ARG553  GLY616  TRP617  ASP618  TYR619  PRO620  LYS621  CYS622 
 ASP623  PHE694  ASN695  SER759  ASP760  ASP761  ALA762  ILE779  LEU786  VAL792 
 PHE793  MET794  SER795  GLU796  ALA797  LYS798  CYS799  TRP800  GLU811  SER814 

> <Gold.Protein.RotatedAtoms>
  151.7471  133.3325  159.3381 H   0  0  0  0  0  0  0  0  0  0  0  0  # atno 6907 bound_to 6896
  150.7550  134.6225  159.6153 H   0  0  0  0  0  0  0  0  0  0  0  0  # atno 6908 bound_to 6896
  152.3493  134.7030  160.0293 H   0  0  0  0  0  0  0  0  0  0  0  0  # atno 6909 bound_to 6896
  144.7767  139.7678  143.6276 H   0  0  0  0  0  0  0  0  0  0  0  0  # atno 7974 bound_to 7965
  155.6890  140.3496  155.4886 H   0  0  0  0  0  0  0  0  0  0  0  0  # atno 8008 bound_to 7997
  155.9541  140.1125  157.0974 H   0  0  0  0  0  0  0  0  0  0  0  0  # atno 8009 bound_to 7997
  154.4128  140.1188  156.5078 H   0  0  0  0  0  0  0  0  0  0  0  0  # atno 8010 bound_to 7997
  140.5067  144.0227  150.6355 H   0  0  0  0  0  0  0  0  0  0  0  0  # atno 10167 bound_to 10162
  156.9641  130.5944  149.5664 H   0  0  0  0  0  0  0  0  0  0  0  0  # atno 10718 bound_to 10713
  154.2177  135.2783  155.2936 H   0  0  0  0  0  0  0  0  0  0  0  0  # atno 10763 bound_to 10752
  154.5727  135.5613  153.7113 H   0  0  0  0  0  0  0  0  0  0  0  0  # atno 10764 bound_to 10752
  153.0049  135.6325  154.2317 H   0  0  0  0  0  0  0  0  0  0  0  0  # atno 10765 bound_to 10752
  140.0532  134.5707  155.9239 H   0  0  0  0  0  0  0  0  0  0  0  0  # atno 11005 bound_to 11000
  146.1950  139.5212  142.9780 LP  0  0  0  0  0  0  0  0  0  0  0  0  # atno 17320 bound_to 7965
  145.6167  141.0330  143.1937 LP  0  0  0  0  0  0  0  0  0  0  0  0  # atno 17321 bound_to 7965
  140.3538  143.2947  152.0458 LP  0  0  0  0  0  0  0  0  0  0  0  0  # atno 17342 bound_to 10162
  139.4885  144.6354  151.6986 LP  0  0  0  0  0  0  0  0  0  0  0  0  # atno 17343 bound_to 10162
  156.0310  130.5401  150.8534 LP  0  0  0  0  0  0  0  0  0  0  0  0  # atno 17370 bound_to 10713
  157.5638  131.0946  150.9520 LP  0  0  0  0  0  0  0  0  0  0  0  0  # atno 17371 bound_to 10713
  141.1940  133.6581  156.5574 LP  0  0  0  0  0  0  0  0  0  0  0  0  # atno 17394 bound_to 11000
  140.3885  134.7461  157.4706 LP  0  0  0  0  0  0  0  0  0  0  0  0  # atno 17395 bound_to 11000

$$$$
