AV-unprocessed.smi:1705|AV-procd|sdf|6884|dock2
  -GOLD-   22720 8 93D 1   1.00000     0.00000
 Structure written by MMmdl.
 38 39  0  0  0  0  0  0  0  0  1 V2000
  149.2574  139.6067  156.9905 C   0  0  0  0  0  0  0  0  0  0  0  0
  150.0254  140.7596  156.3290 C   0  0  2  0  0  0  0  0  0  0  0  0
  150.3754  141.7611  157.3281 N   0  0  0  0  0  0  0  0  0  0  0  0
  151.2676  141.7405  158.4004 C   0  0  0  0  0  0  0  0  0  0  0  0
  152.0491  140.6632  158.7111 C   0  0  0  0  0  0  0  0  0  0  0  0
  152.0889  139.4425  157.9689 C   0  0  0  0  0  0  0  0  0  0  0  0
  152.1418  138.4811  157.3244 N   0  0  0  0  0  0  0  0  0  0  0  0
  152.9670  140.6736  159.8502 C   0  0  0  0  0  0  0  0  0  0  0  0
  153.7048  139.7292  160.1428 O   0  0  0  0  0  0  0  0  0  0  0  0
  152.9642  141.8628  160.6057 N   0  0  0  0  0  0  0  0  0  0  0  0
  153.8640  141.9295  161.7413 C   0  0  0  0  0  0  0  0  0  0  0  0
  152.1884  142.9962  160.2957 C   0  0  0  0  0  0  0  0  0  0  0  0
  152.2482  144.0241  160.9778 O   0  0  0  0  0  0  0  0  0  0  0  0
  151.3421  142.9131  159.1627 N   0  0  0  0  0  0  0  0  0  0  0  0
  150.5782  144.1189  158.9006 C   0  0  0  0  0  0  0  0  0  0  0  0
  149.2316  141.3864  155.1630 C   0  0  1  0  0  0  0  0  0  0  0  0
  148.7973  140.4246  154.0500 C   0  0  0  0  0  0  0  0  0  0  0  0
  147.5684  141.1174  153.5068 C   0  0  0  0  0  0  0  0  0  0  0  0
  146.9411  141.6659  154.7835 C   0  0  0  0  0  0  0  0  0  0  0  0
  148.0352  142.0078  155.6283 O   0  0  0  0  0  0  0  0  0  0  0  0
  149.0007  138.8381  156.2611 H   0  0  0  0  0  0  0  0  0  0  0  0
  148.3312  139.9520  157.4509 H   0  0  0  0  0  0  0  0  0  0  0  0
  149.8575  139.1339  157.7687 H   0  0  0  0  0  0  0  0  0  0  0  0
  150.9305  140.3111  155.9292 H   0  0  0  0  0  0  0  0  0  0  0  0
  149.6993  142.5101  157.3674 H   0  0  0  0  0  0  0  0  0  0  0  0
  153.5199  142.6755  162.4583 H   0  0  0  0  0  0  0  0  0  0  0  0
  154.8502  142.1826  161.3493 H   0  0  0  0  0  0  0  0  0  0  0  0
  153.8703  140.9616  162.2453 H   0  0  0  0  0  0  0  0  0  0  0  0
  149.8587  144.2276  159.7137 H   0  0  0  0  0  0  0  0  0  0  0  0
  150.0620  144.0534  157.9459 H   0  0  0  0  0  0  0  0  0  0  0  0
  151.2750  144.9585  158.8598 H   0  0  0  0  0  0  0  0  0  0  0  0
  149.8304  142.1804  154.7138 H   0  0  0  0  0  0  0  0  0  0  0  0
  149.5694  140.2720  153.2956 H   0  0  0  0  0  0  0  0  0  0  0  0
  148.5180  139.4495  154.4506 H   0  0  0  0  0  0  0  0  0  0  0  0
  147.8581  141.9357  152.8464 H   0  0  0  0  0  0  0  0  0  0  0  0
  146.9045  140.4493  152.9578 H   0  0  0  0  0  0  0  0  0  0  0  0
  146.2940  142.5239  154.5994 H   0  0  0  0  0  0  0  0  0  0  0  0
  146.3500  140.8942  155.2781 H   0  0  0  0  0  0  0  0  0  0  0  0
  1  2  1  0  0  0  0
  1 21  1  0  0  0  0
  1 22  1  0  0  0  0
  1 23  1  0  0  0  0
  2  3  1  0  0  0  0
  2 16  1  0  0  0  0
  2 24  1  0  0  0  0
  3  4  1  0  0  0  0
  3 25  1  0  0  0  0
  4 14  1  0  0  0  0
  4  5  2  0  0  0  0
  5  6  1  0  0  0  0
  5  8  1  0  0  0  0
  6  7  3  0  0  0  0
  8  9  2  0  0  0  0
  8 10  1  0  0  0  0
 10 11  1  0  0  0  0
 10 12  1  0  0  0  0
 11 26  1  0  0  0  0
 11 27  1  0  0  0  0
 11 28  1  0  0  0  0
 12 13  2  0  0  0  0
 12 14  1  0  0  0  0
 14 15  1  0  0  0  0
 15 29  1  0  0  0  0
 15 30  1  0  0  0  0
 15 31  1  0  0  0  0
 16 20  1  0  0  0  0
 16 17  1  0  0  0  0
 16 32  1  0  0  0  0
 17 18  1  0  0  0  0
 17 33  1  0  0  0  0
 17 34  1  0  0  0  0
 18 19  1  0  0  0  0
 18 35  1  0  0  0  0
 18 36  1  0  0  0  0
 19 20  1  0  0  0  0
 19 37  1  0  0  0  0
 19 38  1  0  0  0  0
M  END
> <s_m_source_file>
AV-unprocessed.smi

> <i_m_source_file_index>
1705

> <i_lp_mmshare_version>
43012

> <i_f3d_flags>
0

> <s_epik_input>
TzFbQ0gyXVtDSDJdW0NIMl1bQ0BIXTFbQ0BIXShbQ0gzXSlbTkhdYzJjKEMjTiljKD1PKW4oW0NIM10pYyg9TyluMltDSDNd

> <s_epik_cmdline>
J2VwaWtfcHl0aG9uJywgJy1waCcsICc3LjAnLCAnLXRuJywgJzgnLCAnLW1hJywgJzIwMCcsICctbWV0YWxfYmluZGluZycsICctaW1hZScsICc8aW5maWxlLm1hZT4nLCAnLW9tYWUnLCAnPG91dGZpbGUubWFlPic=

> <r_epik_Ionization_Penalty>
0.000446268

> <r_epik_Ionization_Penalty_Charging>
9.41922e-10

> <r_epik_Ionization_Penalty_Neutral>
0.000446267

> <r_epik_State_Penalty>
0.000275531

> <r_epik_Charging_Adjusted_Penalty>
0.000275532

> <i_epik_Tot_Q>
0

> <i_epik_Tot_abs_Q>
0

> <r_epik_Metal_State_Penalty>
-0

> <b_epik_Metal_Only>
0

> <s_lp_Force_Field>
OPLS_2005

> <r_lp_Energy>
40.5078

> <b_lp_Chiralities_Consistent>
1

> <s_lp_Variant>
AV-unprocessed.smi:1705-3

> <Gold.Version>
5.8.1

> <Gold.Id.Protein>
6NUR|6NUR_protein|mol2

> <Gold.PLP.Fitness>
33.9719

> <Gold.PLP.PLP>
-34.2099

> <Gold.PLP.part.hbond>
0.0000

> <Gold.PLP.part.metal>
0.0000

> <Gold.PLP.part.buried>
-4.4633

> <Gold.PLP.part.nonpolar>
-31.4695

> <Gold.PLP.part.repulsive>
2.1397

> <Gold.PLP.ligand.clash>
1.7701

> <Gold.PLP.ligand.torsion>
0.1276

> <Gold.PLP.Chemscore.Hbond>
0.0000

> <Gold.PLP.Chemscore.CHOScore>
0.0000

> <Gold.PLP.Chemscore.Metal>
0.0000

> <Gold.PLP.Chemscore.Internal.Correction>
1.7873

> <Gold.Rescore>
     Score         DG    S(hbond)    S(metal)    S(lipo)     H(rot)  DE(clash)    DE(int)     intcor
      7.07      -8.99       0.00        0.00      57.97       1.28       0.50       1.43       ----

> <Gold.Chemscore.Fitness>
7.0652

> <Gold.Chemscore.DG>
-8.9909

> <Gold.Chemscore.ZeroCoef>
-5.4800

> <Gold.Chemscore.Hbond>
0.0000

> <Gold.Chemscore.Metal>
0.0000

> <Gold.Chemscore.Lipo>
57.9707

> <Gold.Chemscore.Internal_Hbond>
0.0000

> <Gold.Chemscore.DEClash>
0.4986

> <Gold.Chemscore.DEInternal>
1.4271

> <Gold.Chemscore.Rot>
1.2780

> <Gold.Chemscore.Internal.Correction>
   9.000000E+99

> <Gold.Chemscore.Hbond.Weighted>
-0.0000

> <Gold.Chemscore.Metal.Weighted>
-0.0000

> <Gold.Chemscore.Lipo.Weighted>
-6.7826

> <Gold.Chemscore.Internal_Hbond.Weighted>
0.0000

> <Gold.Chemscore.DEClash.Weighted>
0.4986

> <Gold.Chemscore.DEInternal.Weighted>
1.4271

> <Gold.Chemscore.Rot.Weighted>
3.2717

> <Gold.Chemscore.Internal.Correction.Weighted>
   9.000000E+99

> <Gold.Protein.RotatedTorsions>
[ 6907 6896 6895 6894 ] final  -10.42 input  -60.11 | X-H torsion
[ 7974 7965 7964 7962 ] final   -6.56 input  175.53 | X-H torsion
[ 8008 7997 7996 7995 ] final  169.48 input   59.86 | X-H torsion
[ 10167 10162 10161 10158 ] final  -60.07 input  -65.29 | X-H torsion
[ 10718 10713 10712 10709 ] final   32.19 input   66.30 | X-H torsion
[ 10763 10752 10751 10750 ] final -116.28 input  -60.55 | X-H torsion
[ 11005 11000 10999 10996 ] final   -1.43 input  -57.11 | X-H torsion

> <Gold.Protein.ActiveResidues>
 VAL166  LYS551  ARG553  GLY616  TRP617  ASP618  TYR619  PRO620  LYS621  CYS622 
 ASP623  PHE694  ASN695  SER759  ASP760  ASP761  ALA762  ILE779  LEU786  VAL792 
 PHE793  MET794  SER795  GLU796  ALA797  LYS798  CYS799  TRP800  GLU811  SER814 

> <Gold.Protein.RotatedAtoms>
  151.4023  135.0973  159.9559 H   0  0  0  0  0  0  0  0  0  0  0  0  # atno 6907 bound_to 6896
  152.5046  133.8877  159.7388 H   0  0  0  0  0  0  0  0  0  0  0  0  # atno 6908 bound_to 6896
  150.9353  133.6662  159.2830 H   0  0  0  0  0  0  0  0  0  0  0  0  # atno 6909 bound_to 6896
  146.2328  140.2188  142.8337 H   0  0  0  0  0  0  0  0  0  0  0  0  # atno 7974 bound_to 7965
  156.1453  140.1563  156.8856 H   0  0  0  0  0  0  0  0  0  0  0  0  # atno 8008 bound_to 7997
  154.5023  140.0822  156.7861 H   0  0  0  0  0  0  0  0  0  0  0  0  # atno 8009 bound_to 7997
  155.4000  140.3414  155.4258 H   0  0  0  0  0  0  0  0  0  0  0  0  # atno 8010 bound_to 7997
  140.6095  143.2383  151.5743 H   0  0  0  0  0  0  0  0  0  0  0  0  # atno 10167 bound_to 10162
  157.2820  130.7260  149.6562 H   0  0  0  0  0  0  0  0  0  0  0  0  # atno 10718 bound_to 10713
  154.8513  135.4351  154.1796 H   0  0  0  0  0  0  0  0  0  0  0  0  # atno 10763 bound_to 10752
  153.2890  135.6960  153.7317 H   0  0  0  0  0  0  0  0  0  0  0  0  # atno 10764 bound_to 10752
  153.6492  135.3454  155.3069 H   0  0  0  0  0  0  0  0  0  0  0  0  # atno 10765 bound_to 10752
  140.6472  133.9436  155.8359 H   0  0  0  0  0  0  0  0  0  0  0  0  # atno 11005 bound_to 11000
  144.9648  140.8311  143.5491 LP  0  0  0  0  0  0  0  0  0  0  0  0  # atno 17320 bound_to 7965
  145.2163  139.2180  143.5116 LP  0  0  0  0  0  0  0  0  0  0  0  0  # atno 17321 bound_to 7965
  139.5350  144.2807  152.1231 LP  0  0  0  0  0  0  0  0  0  0  0  0  # atno 17342 bound_to 10162
  140.2003  144.4664  150.6435 LP  0  0  0  0  0  0  0  0  0  0  0  0  # atno 17343 bound_to 10162
  155.9664  130.4335  150.5009 LP  0  0  0  0  0  0  0  0  0  0  0  0  # atno 17370 bound_to 10713
  157.2955  131.0635  151.2105 LP  0  0  0  0  0  0  0  0  0  0  0  0  # atno 17371 bound_to 10713
  141.0563  134.0411  157.3718 LP  0  0  0  0  0  0  0  0  0  0  0  0  # atno 17394 bound_to 11000
  139.9058  135.0179  156.7480 LP  0  0  0  0  0  0  0  0  0  0  0  0  # atno 17395 bound_to 11000

$$$$
