#       Name:                AV-unprocessed.smi:3163
#       Creating user name   scv26
#       Creation time:       Fri Mar 27 17:50:32 2020


#       File generated by GOLD software.
#

@<TRIPOS>MOLECULE
AV-unprocessed.smi:3163
    39    40     1
SMALL
NO_CHARGES


@<TRIPOS>ATOM
      1 ****        -3.1918  -3.5782   2.3999 C.3            1 S1                 0.0000
      2 ****        -2.6441  -2.3507   1.7858 N.4            1 S1                 1.0000
      3 ****        -2.6364  -2.3536   0.3038 C.3            1 S1                 0.0000
      4 ****        -1.2468  -1.8717  -0.1312 C.3            1 S1                 0.0000
      5 ****        -0.6852  -1.1711   1.1065 C.3            1 S1                 0.0000
      6 ****         0.8517  -1.0682   1.1507 C.3            1 S1                 0.0000
      7 ****         1.3849  -0.3196   0.0172 N.am           1 S1                 0.0000
      8 ****         1.3655   1.0159  -0.1012 C.2            1 S1                 0.0000
      9 ****         0.8904   1.7606   0.7556 O.2            1 S1                 0.0000
     10 ****         1.9317   1.4073  -1.2564 N.am           1 S1                 0.0000
     11 ****         2.1059   2.7192  -1.7787 C.ar           1 S1                 0.0000
     12 ****         2.9511   2.8633  -2.8987 C.ar           1 S1                 0.0000
     13 ****         3.1386   4.1462  -3.4507 C.ar           1 S1                 0.0000
     14 ****         2.5445   5.2561  -2.9652 N.ar           1 S1                 0.0000
     15 ****         1.7287   5.1167  -1.8992 C.ar           1 S1                 0.0000
     16 ****         1.4720   3.8804  -1.2726 C.ar           1 S1                 0.0000
     17 ****        -1.2844  -1.9981   2.2432 C.3            1 S1                 0.0000
     18 ****        -2.5949  -4.4512   2.1327 H              1 S1                 0.0000
     19 ****        -4.2159  -3.7472   2.0655 H              1 S1                 0.0000
     20 ****        -3.2020  -3.4886   3.4866 H              1 S1                 0.0000
     21 ****        -2.8535  -3.3388  -0.1120 H              1 S1                 0.0000
     22 ****        -3.4106  -1.6702  -0.0468 H              1 S1                 0.0000
     23 ****        -0.6266  -2.7323  -0.3864 H              1 S1                 0.0000
     24 ****        -1.2838  -1.2194  -1.0043 H              1 S1                 0.0000
     25 ****        -1.1154  -0.1692   1.1577 H              1 S1                 0.0000
     26 ****         1.1731  -0.6039   2.0845 H              1 S1                 0.0000
     27 ****         1.2957  -2.0639   1.1342 H              1 S1                 0.0000
     28 ****         1.8006  -0.8577  -0.7293 H              1 S1                 0.0000
     29 ****         2.3181   0.6690  -1.8261 H              1 S1                 0.0000
     30 ****         3.4520   2.0090  -3.3304 H              1 S1                 0.0000
     31 ****         3.7822   4.2833  -4.3070 H              1 S1                 0.0000
     32 ****         1.2607   6.0193  -1.5353 H              1 S1                 0.0000
     33 ****         0.7952   3.8558  -0.4336 H              1 S1                 0.0000
     34 ****        -1.3093  -1.4559   3.1889 H              1 S1                 0.0000
     35 ****        -0.6983  -2.9070   2.3914 H              1 S1                 0.0000
     36 ****        -3.2428  -1.5845   2.0600 H              1 S1                 0.0000
     37 ****         0.4939   1.3752   1.5889 LP             1 S1                 0.0000
     38 ****         0.9007   2.7511   0.6186 LP             1 S1                 0.0000
     39 ****         2.7033   6.1515  -3.3811 LP             1 S1                 0.0000
@<TRIPOS>BOND
    1    1    2 1     
    2    1   18 1     
    3    1   19 1     
    4    1   20 1     
    5    2   17 1     
    6    2    3 1     
    7    2   36 1     
    8    3    4 1     
    9    3   21 1     
   10    3   22 1     
   11    4    5 1     
   12    4   23 1     
   13    4   24 1     
   14    5    6 1     
   15    5   17 1     
   16    5   25 1     
   17    6    7 1     
   18    6   26 1     
   19    6   27 1     
   20    7    8 am    
   21    7   28 1     
   22    8    9 2     
   23    8   10 am    
   24   10   11 1     
   25   10   29 1     
   26   11   16 ar    
   27   11   12 ar    
   28   12   13 ar    
   29   12   30 1     
   30   13   14 ar    
   31   13   31 1     
   32   14   15 ar    
   33   15   16 ar    
   34   15   32 1     
   35   16   33 1     
   36   17   34 1     
   37   17   35 1     
   38    9   37 1     
   39    9   38 1     
   40   14   39 1     
@<TRIPOS>SUBSTRUCTURE
      1 S1             1
@<TRIPOS>SET
LONE_PAIRS      STATIC     ATOMS    <user>   **** ""
3 37 38 39
DONOR_HYDROGENS      STATIC     ATOMS    <user>   **** ""
3 36 28 29
ATOM$BLUE        STATIC     ATOMS    COLORGROUP SYSTEM
3 37 38 39
ATOM$RED        STATIC     ATOMS    COLORGROUP SYSTEM
3 36 28 29
