AV-unprocessed.smi:2997|AV-procd|sdf|11414|dock7
  -GOLD-   2272016333D 1   1.00000     0.00000
 Structure written by MMmdl.
 39 41  0  0  0  0  0  0  0  0  2 V2000
  152.1480  144.8830  160.2299 C   0  0  0  0  0  0  0  0  0  0  0  0
  151.9998  143.6709  159.3260 C   0  0  0  0  0  0  0  0  0  0  0  0
  151.2179  143.7942  158.1552 C   0  0  0  0  0  0  0  0  0  0  0  0
  151.0990  142.6672  157.3504 C   0  0  0  0  0  0  0  0  0  0  0  0
  150.4110  142.4663  156.1516 N   0  3  0  0  0  0  0  0  0  0  0  0
  150.5918  141.1827  155.7336 C   0  0  0  0  0  0  0  0  0  0  0  0
  151.3838  140.5617  156.6492 N   0  0  0  0  0  0  0  0  0  0  0  0
  151.8886  139.1828  156.6794 C   0  0  0  0  0  0  0  0  0  0  0  0
  152.4322  138.7168  155.3154 C   0  0  2  0  0  0  0  0  0  0  0  0
  153.2785  139.7171  154.7793 O   0  0  0  0  0  0  0  0  0  0  0  0
  151.2980  138.4008  154.3224 C   0  0  0  0  0  0  0  0  0  0  0  0
  150.6537  137.1295  154.6021 N   0  0  0  0  0  0  0  0  0  0  0  0
  149.3244  136.8873  154.8776 C   0  0  0  0  0  0  0  0  0  0  0  0
  149.1893  135.5437  155.0800 C   0  0  0  0  0  0  0  0  0  0  0  0
  150.5085  135.0409  154.9023 C   0  0  0  0  0  0  0  0  0  0  0  0
  151.3828  135.9925  154.6173 N   0  0  0  0  0  0  0  0  0  0  0  0
  151.7262  141.4487  157.6744 C   0  0  0  0  0  0  0  0  0  0  0  0
  152.5027  141.3102  158.8219 C   0  0  0  0  0  0  0  0  0  0  0  0
  152.6346  142.4448  159.6545 C   0  0  0  0  0  0  0  0  0  0  0  0
  153.4724  142.3237  160.9162 C   0  0  0  0  0  0  0  0  0  0  0  0
  151.5848  145.7359  159.8500 H   0  0  0  0  0  0  0  0  0  0  0  0
  153.1943  145.1808  160.3028 H   0  0  0  0  0  0  0  0  0  0  0  0
  151.7796  144.6614  161.2317 H   0  0  0  0  0  0  0  0  0  0  0  0
  150.7333  144.7246  157.8980 H   0  0  0  0  0  0  0  0  0  0  0  0
  150.1858  140.7386  154.8362 H   0  0  0  0  0  0  0  0  0  0  0  0
  152.6544  139.1107  157.4528 H   0  0  0  0  0  0  0  0  0  0  0  0
  151.0665  138.5404  156.9984 H   0  0  0  0  0  0  0  0  0  0  0  0
  153.0341  137.8186  155.4589 H   0  0  0  0  0  0  0  0  0  0  0  0
  153.6599  139.3889  153.9787 H   0  0  0  0  0  0  0  0  0  0  0  0
  150.5359  139.1797  154.3652 H   0  0  0  0  0  0  0  0  0  0  0  0
  151.6760  138.3918  153.2985 H   0  0  0  0  0  0  0  0  0  0  0  0
  148.5943  137.6825  154.9081 H   0  0  0  0  0  0  0  0  0  0  0  0
  148.2859  135.0019  155.3180 H   0  0  0  0  0  0  0  0  0  0  0  0
  150.8545  134.0202  154.9720 H   0  0  0  0  0  0  0  0  0  0  0  0
  152.9854  140.3768  159.0706 H   0  0  0  0  0  0  0  0  0  0  0  0
  153.9134  141.3308  161.0087 H   0  0  0  0  0  0  0  0  0  0  0  0
  152.8589  142.4998  161.7999 H   0  0  0  0  0  0  0  0  0  0  0  0
  154.2860  143.0492  160.9079 H   0  0  0  0  0  0  0  0  0  0  0  0
  149.8601  143.1529  155.6522 H   0  0  0  0  0  0  0  0  0  0  0  0
  1  2  1  0  0  0  0
  1 21  1  0  0  0  0
  1 22  1  0  0  0  0
  1 23  1  0  0  0  0
  2 19  1  0  0  0  0
  2  3  2  0  0  0  0
  3  4  1  0  0  0  0
  3 24  1  0  0  0  0
  4 17  2  0  0  0  0
  4  5  1  0  0  0  0
  5  6  2  0  0  0  0
  5 39  1  0  0  0  0
  6  7  1  0  0  0  0
  6 25  1  0  0  0  0
  7  8  1  0  0  0  0
  7 17  1  0  0  0  0
  8  9  1  0  0  0  0
  8 26  1  0  0  0  0
  8 27  1  0  0  0  0
  9 10  1  0  0  0  0
  9 11  1  0  0  0  0
  9 28  1  0  0  0  0
 10 29  1  0  0  0  0
 11 12  1  0  0  0  0
 11 30  1  0  0  0  0
 11 31  1  0  0  0  0
 12 16  1  0  0  0  0
 12 13  1  0  0  0  0
 13 14  2  0  0  0  0
 13 32  1  0  0  0  0
 14 15  1  0  0  0  0
 14 33  1  0  0  0  0
 15 16  2  0  0  0  0
 15 34  1  0  0  0  0
 17 18  1  0  0  0  0
 18 19  2  0  0  0  0
 18 35  1  0  0  0  0
 19 20  1  0  0  0  0
 20 36  1  0  0  0  0
 20 37  1  0  0  0  0
 20 38  1  0  0  0  0
M  CHG  1   5   1
M  END
> <s_m_source_file>
AV-unprocessed.smi

> <i_m_source_file_index>
2997

> <i_lp_mmshare_version>
43012

> <i_f3d_flags>
0

> <s_epik_input>
W0NIM11jKFtjSF0xKWMoW0NIM10pW2NIXWMoYzEyKW4oW2NIXW4yKVtDSDJdW0NASF0oW09IXSlbQ0gyXW4zW2NIXVtjSF1bY0hdbjM=

> <s_epik_cmdline>
J2VwaWtfcHl0aG9uJywgJy1waCcsICc3LjAnLCAnLXRuJywgJzgnLCAnLW1hJywgJzIwMCcsICctbWV0YWxfYmluZGluZycsICctaW1hZScsICc8aW5maWxlLm1hZT4nLCAnLW9tYWUnLCAnPG91dGZpbGUubWFlPic=

> <r_lp_tautomer_probability>
1

> <r_epik_Ionization_Penalty>
1.09215

> <r_epik_Ionization_Penalty_Charging>
1.09214

> <r_epik_Ionization_Penalty_Neutral>
1.42327e-05

> <r_epik_State_Penalty>
1.14852

> <r_epik_Charging_Adjusted_Penalty>
2.24066

> <i_epik_Tot_Q>
1

> <i_epik_Tot_abs_Q>
1

> <r_epik_Metal_State_Penalty>
1.23686

> <b_epik_Metal_Only>
0

> <s_lp_Force_Field>
OPLS_2005

> <r_lp_Energy>
13.1956

> <b_lp_Chiralities_Consistent>
1

> <s_lp_Variant>
AV-unprocessed.smi:2997-3

> <Gold.Version>
5.8.1

> <Gold.Id.Protein>
6NUR|6NUR_protein|mol2

> <Gold.PLP.Fitness>
57.0117

> <Gold.PLP.PLP>
-46.1640

> <Gold.PLP.part.hbond>
-4.0000

> <Gold.PLP.part.metal>
0.0000

> <Gold.PLP.part.buried>
-5.8564

> <Gold.PLP.part.nonpolar>
-37.6733

> <Gold.PLP.part.repulsive>
0.2791

> <Gold.PLP.ligand.clash>
0.0000

> <Gold.PLP.ligand.torsion>
0.4302

> <Gold.PLP.Chemscore.Hbond>
3.8989

> <Gold.PLP.Chemscore.CHOScore>
0.0000

> <Gold.PLP.Chemscore.Metal>
0.0000

> <Gold.Chemscore.Hbonds>
donor molecule, donor type, donor heavy atom, donor atom, acceptor molecule, acceptor atom, score
      L1  H     5    39       P1  8028  1.98
      P1  H  7989  7998       L1    10  0.02
      P1  H  7997  8009       L1    10  0.74
      P1  H 10752 10764       L1    16  1.00

> <Gold.PLP.Chemscore.Internal.Correction>
0.0112

> <Gold.Rescore>
     Score         DG    S(hbond)    S(metal)    S(lipo)     H(rot)  DE(clash)    DE(int)     intcor
     21.71     -22.18       2.80        0.00     111.32       2.21       0.07       0.40       ----

> <Gold.Chemscore.Fitness>
21.7082

> <Gold.Chemscore.DG>
-22.1805

> <Gold.Chemscore.ZeroCoef>
-5.4800

> <Gold.Chemscore.Hbond>
2.7967

> <Gold.Chemscore.Metal>
0.0000

> <Gold.Chemscore.Lipo>
111.3204

> <Gold.Chemscore.Internal_Hbond>
0.0000

> <Gold.Chemscore.DEClash>
0.0737

> <Gold.Chemscore.DEInternal>
0.3986

> <Gold.Chemscore.Rot>
2.2129

> <Gold.Chemscore.Internal.Correction>
   9.000000E+99

> <Gold.Chemscore.Hbonds>
donor molecule, donor type, donor heavy atom, donor atom, acceptor molecule, acceptor atom, score
      L1  H     5    39       P1  8028  0.94
      P1  H  7997  8009       L1    10  0.25
      P1  H 10752 10764       L1    16  0.94

> <Gold.Chemscore.Hbond.Weighted>
-9.3410

> <Gold.Chemscore.Metal.Weighted>
-0.0000

> <Gold.Chemscore.Lipo.Weighted>
-13.0245

> <Gold.Chemscore.Internal_Hbond.Weighted>
0.0000

> <Gold.Chemscore.DEClash.Weighted>
0.0737

> <Gold.Chemscore.DEInternal.Weighted>
0.3986

> <Gold.Chemscore.Rot.Weighted>
5.6649

> <Gold.Chemscore.Internal.Correction.Weighted>
   9.000000E+99

> <Gold.Protein.RotatedTorsions>
[ 6907 6896 6895 6894 ] final  175.27 input  -60.11 | X-H torsion
[ 7974 7965 7964 7962 ] final  -77.42 input  175.53 | X-H torsion
[ 8008 7997 7996 7995 ] final -158.53 input   59.86 | X-H torsion
[ 10167 10162 10161 10158 ] final  -94.56 input  -65.29 | X-H torsion
[ 10718 10713 10712 10709 ] final  124.63 input   66.30 | X-H torsion
[ 10763 10752 10751 10750 ] final  -64.66 input  -60.55 | X-H torsion
[ 11005 11000 10999 10996 ] final -109.84 input  -57.11 | X-H torsion

> <Gold.Protein.ActiveResidues>
 VAL166  LYS551  ARG553  GLY616  TRP617  ASP618  TYR619  PRO620  LYS621  CYS622 
 ASP623  PHE694  ASN695  SER759  ASP760  ASP761  ALA762  ILE779  LEU786  VAL792 
 PHE793  MET794  SER795  GLU796  ALA797  LYS798  CYS799  TRP800  GLU811  SER814 

> <Gold.Protein.RotatedAtoms>
  151.7388  133.3321  159.3359 H   0  0  0  0  0  0  0  0  0  0  0  0  # atno 6907 bound_to 6896
  150.7582  134.6296  159.6189 H   0  0  0  0  0  0  0  0  0  0  0  0  # atno 6908 bound_to 6896
  152.3544  134.6963  160.0278 H   0  0  0  0  0  0  0  0  0  0  0  0  # atno 6909 bound_to 6896
  145.5999  140.9411  143.1246 H   0  0  0  0  0  0  0  0  0  0  0  0  # atno 7974 bound_to 7965
  155.7490  140.0824  157.2210 H   0  0  0  0  0  0  0  0  0  0  0  0  # atno 8008 bound_to 7997
  154.4014  140.1564  156.2758 H   0  0  0  0  0  0  0  0  0  0  0  0  # atno 8009 bound_to 7997
  155.8948  140.3413  155.5985 H   0  0  0  0  0  0  0  0  0  0  0  0  # atno 8010 bound_to 7997
  140.3132  143.3093  152.0126 H   0  0  0  0  0  0  0  0  0  0  0  0  # atno 10167 bound_to 10162
  157.5569  131.1091  150.8606 H   0  0  0  0  0  0  0  0  0  0  0  0  # atno 10718 bound_to 10713
  154.3333  135.6172  153.5562 H   0  0  0  0  0  0  0  0  0  0  0  0  # atno 10763 bound_to 10752
  152.9809  135.5752  154.4936 H   0  0  0  0  0  0  0  0  0  0  0  0  # atno 10764 bound_to 10752
  154.4627  135.2856  155.1678 H   0  0  0  0  0  0  0  0  0  0  0  0  # atno 10765 bound_to 10752
  141.0825  133.9195  157.2257 H   0  0  0  0  0  0  0  0  0  0  0  0  # atno 11005 bound_to 11000
  144.7314  139.7713  143.7345 LP  0  0  0  0  0  0  0  0  0  0  0  0  # atno 17320 bound_to 7965
  146.1584  139.4690  143.0004 LP  0  0  0  0  0  0  0  0  0  0  0  0  # atno 17321 bound_to 7965
  139.4889  144.6369  151.6958 LP  0  0  0  0  0  0  0  0  0  0  0  0  # atno 17342 bound_to 10162
  140.5550  144.0363  150.6143 LP  0  0  0  0  0  0  0  0  0  0  0  0  # atno 17343 bound_to 10162
  156.9115  130.5282  149.5280 LP  0  0  0  0  0  0  0  0  0  0  0  0  # atno 17370 bound_to 10713
  156.0627  130.5676  150.9225 LP  0  0  0  0  0  0  0  0  0  0  0  0  # atno 17371 bound_to 10713
  139.9640  135.0147  156.9338 LP  0  0  0  0  0  0  0  0  0  0  0  0  # atno 17394 bound_to 11000
  140.5436  134.0696  155.7348 LP  0  0  0  0  0  0  0  0  0  0  0  0  # atno 17395 bound_to 11000

$$$$
