AV-unprocessed.smi:1047|AV-procd|sdf|4580|dock3
  -GOLD-   22720 3 43D 1   1.00000     0.00000
 Structure written by MMmdl.
 58 60  0  0  0  0  0  0  0  0  4 V2000
  144.2330  133.6185  150.5556 C   0  0  0  0  0  0  0  0  0  0  0  0
  144.7050  134.6647  151.5755 C   0  0  0  0  0  0  0  0  0  0  0  0
  145.6554  134.1059  152.5697 N   0  3  1  0  0  0  0  0  0  0  0  0
  146.7755  133.3763  151.9284 C   0  0  0  0  0  0  0  0  0  0  0  0
  147.6990  132.7604  152.9928 C   0  0  0  0  0  0  0  0  0  0  0  0
  148.1829  133.7814  153.8575 O   0  0  0  0  0  0  0  0  0  0  0  0
  147.1296  134.4486  154.5447 C   0  0  1  0  0  0  0  0  0  0  0  0
  147.7386  135.4403  155.5510 C   0  0  0  0  0  0  0  0  0  0  0  0
  148.3309  136.6184  154.8838 N   0  3  0  0  0  0  0  0  0  0  0  0
  149.3203  137.3433  155.7058 C   0  0  0  0  0  0  0  0  0  0  0  0
  150.4497  137.9227  154.8339 C   0  0  2  0  0  0  0  0  0  0  0  0
  151.1519  136.8554  154.2303 O   0  0  0  0  0  0  0  0  0  0  0  0
  151.4710  138.7762  155.6120 C   0  0  0  0  0  0  0  0  0  0  0  0
  150.9688  140.1201  155.9318 N   0  0  0  0  0  0  0  0  0  0  0  0
  150.0761  140.8921  155.2535 C   0  0  0  0  0  0  0  0  0  0  0  0
  149.9380  142.0603  155.9387 N   0  3  0  0  0  0  0  0  0  0  0  0
  150.7577  142.0377  157.0687 C   0  0  0  0  0  0  0  0  0  0  0  0
  150.9593  142.9868  158.0635 C   0  0  0  0  0  0  0  0  0  0  0  0
  151.8711  142.6596  159.0921 C   0  0  0  0  0  0  0  0  0  0  0  0
  152.1160  143.6767  160.1941 C   0  0  0  0  0  0  0  0  0  0  0  0
  152.5445  141.4108  159.0999 C   0  0  0  0  0  0  0  0  0  0  0  0
  153.5221  141.0687  160.2115 C   0  0  0  0  0  0  0  0  0  0  0  0
  152.3267  140.4590  158.0779 C   0  0  0  0  0  0  0  0  0  0  0  0
  151.4255  140.7971  157.0702 C   0  0  0  0  0  0  0  0  0  0  0  0
  146.1776  135.1129  153.5270 C   0  0  0  0  0  0  0  0  0  0  0  0
  143.6193  134.0857  149.7851 H   0  0  0  0  0  0  0  0  0  0  0  0
  143.6285  132.8386  151.0178 H   0  0  0  0  0  0  0  0  0  0  0  0
  145.0782  133.1414  150.0586 H   0  0  0  0  0  0  0  0  0  0  0  0
  145.1993  135.4672  151.0264 H   0  0  0  0  0  0  0  0  0  0  0  0
  143.8525  135.1177  152.0837 H   0  0  0  0  0  0  0  0  0  0  0  0
  146.3840  132.5873  151.2849 H   0  0  0  0  0  0  0  0  0  0  0  0
  147.3411  134.0584  151.2915 H   0  0  0  0  0  0  0  0  0  0  0  0
  147.1744  131.9963  153.5689 H   0  0  0  0  0  0  0  0  0  0  0  0
  148.5480  132.2706  152.5157 H   0  0  0  0  0  0  0  0  0  0  0  0
  146.5674  133.7069  155.1155 H   0  0  0  0  0  0  0  0  0  0  0  0
  146.9708  135.7699  156.2522 H   0  0  0  0  0  0  0  0  0  0  0  0
  148.5113  134.9415  156.1378 H   0  0  0  0  0  0  0  0  0  0  0  0
  148.7864  136.3133  154.0346 H   0  0  0  0  0  0  0  0  0  0  0  0
  148.7941  138.1450  156.2241 H   0  0  0  0  0  0  0  0  0  0  0  0
  149.7286  136.6810  156.4708 H   0  0  0  0  0  0  0  0  0  0  0  0
  150.0168  138.5310  154.0384 H   0  0  0  0  0  0  0  0  0  0  0  0
  150.9894  136.8700  153.2988 H   0  0  0  0  0  0  0  0  0  0  0  0
  151.7918  138.2780  156.5269 H   0  0  0  0  0  0  0  0  0  0  0  0
  152.3714  138.9138  155.0112 H   0  0  0  0  0  0  0  0  0  0  0  0
  149.5702  140.6271  154.3360 H   0  0  0  0  0  0  0  0  0  0  0  0
  150.4423  143.9355  158.0514 H   0  0  0  0  0  0  0  0  0  0  0  0
  153.1764  143.9204  160.2648 H   0  0  0  0  0  0  0  0  0  0  0  0
  151.7853  143.2848  161.1562 H   0  0  0  0  0  0  0  0  0  0  0  0
  151.5745  144.6047  160.0080 H   0  0  0  0  0  0  0  0  0  0  0  0
  153.8973  140.0494  160.1140 H   0  0  0  0  0  0  0  0  0  0  0  0
  153.0429  141.1532  161.1869 H   0  0  0  0  0  0  0  0  0  0  0  0
  154.3780  141.7436  160.1859 H   0  0  0  0  0  0  0  0  0  0  0  0
  152.8432  139.5109  158.0883 H   0  0  0  0  0  0  0  0  0  0  0  0
  146.6941  135.8983  152.9731 H   0  0  0  0  0  0  0  0  0  0  0  0
  145.3557  135.5870  154.0628 H   0  0  0  0  0  0  0  0  0  0  0  0
  147.5913  137.2605  154.6381 H   0  0  0  0  0  0  0  0  0  0  0  0
  145.1414  133.4216  153.1067 H   0  0  0  0  0  0  0  0  0  0  0  0
  149.3323  142.8187  155.6508 H   0  0  0  0  0  0  0  0  0  0  0  0
  1  2  1  0  0  0  0
  1 26  1  0  0  0  0
  1 27  1  0  0  0  0
  1 28  1  0  0  0  0
  2  3  1  0  0  0  0
  2 29  1  0  0  0  0
  2 30  1  0  0  0  0
  3 25  1  0  0  0  0
  3  4  1  0  0  0  0
  3 57  1  0  0  0  0
  4  5  1  0  0  0  0
  4 31  1  0  0  0  0
  4 32  1  0  0  0  0
  5  6  1  0  0  0  0
  5 33  1  0  0  0  0
  5 34  1  0  0  0  0
  6  7  1  0  0  0  0
  7  8  1  0  0  0  0
  7 25  1  0  0  0  0
  7 35  1  0  0  0  0
  8  9  1  0  0  0  0
  8 36  1  0  0  0  0
  8 37  1  0  0  0  0
  9 10  1  0  0  0  0
  9 38  1  0  0  0  0
  9 56  1  0  0  0  0
 10 11  1  0  0  0  0
 10 39  1  0  0  0  0
 10 40  1  0  0  0  0
 11 12  1  0  0  0  0
 11 13  1  0  0  0  0
 11 41  1  0  0  0  0
 12 42  1  0  0  0  0
 13 14  1  0  0  0  0
 13 43  1  0  0  0  0
 13 44  1  0  0  0  0
 14 24  1  0  0  0  0
 14 15  1  0  0  0  0
 15 16  2  0  0  0  0
 15 45  1  0  0  0  0
 16 17  1  0  0  0  0
 16 58  1  0  0  0  0
 17 24  2  0  0  0  0
 17 18  1  0  0  0  0
 18 19  2  0  0  0  0
 18 46  1  0  0  0  0
 19 20  1  0  0  0  0
 19 21  1  0  0  0  0
 20 47  1  0  0  0  0
 20 48  1  0  0  0  0
 20 49  1  0  0  0  0
 21 22  1  0  0  0  0
 21 23  2  0  0  0  0
 22 50  1  0  0  0  0
 22 51  1  0  0  0  0
 22 52  1  0  0  0  0
 23 24  1  0  0  0  0
 23 53  1  0  0  0  0
 25 54  1  0  0  0  0
 25 55  1  0  0  0  0
M  CHG  1   3   1
M  CHG  1   9   1
M  CHG  1  16   1
M  END
> <s_m_source_file>
AV-unprocessed.smi

> <i_m_source_file_index>
1047

> <i_lp_mmshare_version>
43012

> <i_f3d_flags>
0

> <s_epik_input>
W0NIM11bQ0gyXU4xW0NIMl1bQ0gyXU9bQ0BIXShbQ0gyXTEpW0NIMl1bTkhdW0NIMl1bQ0BIXShbT0hdKVtDSDJdbihbY0hdbjIpYyhjMjMpW2NIXWMoW0NIM10pYyhbY0hdMylbQ0gzXQ==

> <s_epik_cmdline>
J2VwaWtfcHl0aG9uJywgJy1waCcsICc3LjAnLCAnLXRuJywgJzgnLCAnLW1hJywgJzIwMCcsICctbWV0YWxfYmluZGluZycsICctaW1hZScsICc8aW5maWxlLm1hZT4nLCAnLW9tYWUnLCAnPG91dGZpbGUubWFlPic=

> <r_epik_Ionization_Penalty>
1.6114

> <r_epik_Ionization_Penalty_Charging>
1.61139

> <r_epik_Ionization_Penalty_Neutral>
5.04732e-06

> <r_epik_State_Penalty>
1.63724

> <r_epik_Charging_Adjusted_Penalty>
3.24864

> <i_epik_Tot_Q>
3

> <i_epik_Tot_abs_Q>
3

> <r_epik_Metal_State_Penalty>
5.64594

> <b_epik_Metal_Only>
0

> <s_lp_Force_Field>
OPLS_2005

> <r_lp_Energy>
43.5462

> <b_lp_Chiralities_Consistent>
1

> <s_lp_Variant>
AV-unprocessed.smi:1047-21

> <Gold.Version>
5.8.1

> <Gold.Id.Protein>
6NUR|6NUR_protein|mol2

> <Gold.PLP.Fitness>
62.6347

> <Gold.PLP.PLP>
-46.6009

> <Gold.PLP.part.hbond>
-4.1072

> <Gold.PLP.part.metal>
0.0000

> <Gold.PLP.part.buried>
-4.6406

> <Gold.PLP.part.nonpolar>
-38.2537

> <Gold.PLP.part.repulsive>
0.7661

> <Gold.PLP.ligand.clash>
0.0000

> <Gold.PLP.ligand.torsion>
0.9426

> <Gold.PLP.Chemscore.Hbond>
5.8946

> <Gold.PLP.Chemscore.CHOScore>
0.0000

> <Gold.PLP.Chemscore.Metal>
0.0000

> <Gold.Chemscore.Hbonds>
donor molecule, donor type, donor heavy atom, donor atom, acceptor molecule, acceptor atom, score
      L1  H     9    38       P1  7948  1.30
      L1  H    12    42       P1  7949  0.99
      L1  H    16    58       P1  8028  2.00
      P1  H 10752 10763       L1    12  0.63

> <Gold.PLP.Chemscore.Internal.Correction>
0.2351

> <Gold.Rescore>
     Score         DG    S(hbond)    S(metal)    S(lipo)     H(rot)  DE(clash)    DE(int)     intcor
     19.77     -21.57       2.84        0.00     117.24       2.78       0.94       0.86       ----

> <Gold.Chemscore.Fitness>
19.7719

> <Gold.Chemscore.DG>
-21.5659

> <Gold.Chemscore.ZeroCoef>
-5.4800

> <Gold.Chemscore.Hbond>
2.8435

> <Gold.Chemscore.Metal>
0.0000

> <Gold.Chemscore.Lipo>
117.2450

> <Gold.Chemscore.Internal_Hbond>
0.0000

> <Gold.Chemscore.DEClash>
0.9367

> <Gold.Chemscore.DEInternal>
0.8572

> <Gold.Chemscore.Rot>
2.7848

> <Gold.Chemscore.Internal.Correction>
   9.000000E+99

> <Gold.Chemscore.Hbonds>
donor molecule, donor type, donor heavy atom, donor atom, acceptor molecule, acceptor atom, score
      L1  H     9    38       P1  7948  0.63
      L1  H    12    42       P1  7949  0.23
      L1  H    16    58       P1  8028  0.93
      P1  H 10752 10763       L1    12  0.12

> <Gold.Chemscore.Hbond.Weighted>
-9.4973

> <Gold.Chemscore.Metal.Weighted>
-0.0000

> <Gold.Chemscore.Lipo.Weighted>
-13.7177

> <Gold.Chemscore.Internal_Hbond.Weighted>
0.0000

> <Gold.Chemscore.DEClash.Weighted>
0.9367

> <Gold.Chemscore.DEInternal.Weighted>
0.8572

> <Gold.Chemscore.Rot.Weighted>
7.1291

> <Gold.Chemscore.Internal.Correction.Weighted>
   9.000000E+99

> <Gold.Protein.RotatedTorsions>
[ 6907 6896 6895 6894 ] final   52.33 input  -60.11 | X-H torsion
[ 7974 7965 7964 7962 ] final -129.97 input  175.53 | X-H torsion
[ 8008 7997 7996 7995 ] final   23.71 input   59.86 | X-H torsion
[ 10167 10162 10161 10158 ] final   81.17 input  -65.29 | X-H torsion
[ 10718 10713 10712 10709 ] final  178.01 input   66.30 | X-H torsion
[ 10763 10752 10751 10750 ] final   37.53 input  -60.55 | X-H torsion
[ 11005 11000 10999 10996 ] final    9.99 input  -57.11 | X-H torsion

> <Gold.Protein.ActiveResidues>
 VAL166  LYS551  ARG553  GLY616  TRP617  ASP618  TYR619  PRO620  LYS621  CYS622 
 ASP623  PHE694  ASN695  SER759  ASP760  ASP761  ALA762  ILE779  LEU786  VAL792 
 PHE793  MET794  SER795  GLU796  ALA797  LYS798  CYS799  TRP800  GLU811  SER814 

> <Gold.Protein.RotatedAtoms>
  152.3221  134.7367  160.0310 H   0  0  0  0  0  0  0  0  0  0  0  0  # atno 6907 bound_to 6896
  151.7812  133.3344  159.3480 H   0  0  0  0  0  0  0  0  0  0  0  0  # atno 6908 bound_to 6896
  150.7375  134.5860  159.6007 H   0  0  0  0  0  0  0  0  0  0  0  0  # atno 6909 bound_to 6896
  144.9520  140.7354  143.4782 H   0  0  0  0  0  0  0  0  0  0  0  0  # atno 7974 bound_to 7965
  154.9852  140.3107  155.4929 H   0  0  0  0  0  0  0  0  0  0  0  0  # atno 8008 bound_to 7997
  156.2948  140.2259  156.4893 H   0  0  0  0  0  0  0  0  0  0  0  0  # atno 8009 bound_to 7997
  154.7753  140.0449  157.1072 H   0  0  0  0  0  0  0  0  0  0  0  0  # atno 8010 bound_to 7997
  139.9421  144.6083  150.8242 H   0  0  0  0  0  0  0  0  0  0  0  0  # atno 10167 bound_to 10162
  156.8969  130.9866  151.3041 H   0  0  0  0  0  0  0  0  0  0  0  0  # atno 10718 bound_to 10713
  153.0034  135.6275  154.2159 H   0  0  0  0  0  0  0  0  0  0  0  0  # atno 10763 bound_to 10752
  154.1902  135.2809  155.3026 H   0  0  0  0  0  0  0  0  0  0  0  0  # atno 10764 bound_to 10752
  154.5765  135.5660  153.7204 H   0  0  0  0  0  0  0  0  0  0  0  0  # atno 10765 bound_to 10752
  140.5195  134.0572  155.7841 H   0  0  0  0  0  0  0  0  0  0  0  0  # atno 11005 bound_to 11000
  145.2830  139.1911  143.4781 LP  0  0  0  0  0  0  0  0  0  0  0  0  # atno 17320 bound_to 7965
  146.3324  140.2795  142.8609 LP  0  0  0  0  0  0  0  0  0  0  0  0  # atno 17321 bound_to 7965
  140.7608  143.3159  151.2735 LP  0  0  0  0  0  0  0  0  0  0  0  0  # atno 17342 bound_to 10162
  139.6696  144.0044  152.2744 LP  0  0  0  0  0  0  0  0  0  0  0  0  # atno 17343 bound_to 10162
  157.6050  130.8540  149.8860 LP  0  0  0  0  0  0  0  0  0  0  0  0  # atno 17370 bound_to 10713
  156.0601  130.3701  150.1001 LP  0  0  0  0  0  0  0  0  0  0  0  0  # atno 17371 bound_to 10713
  141.1342  133.9251  157.2471 LP  0  0  0  0  0  0  0  0  0  0  0  0  # atno 17394 bound_to 11000
  139.9613  135.0153  156.9269 LP  0  0  0  0  0  0  0  0  0  0  0  0  # atno 17395 bound_to 11000

$$$$
