AV-unprocessed.smi:2164|AV-procd|sdf|8809|dock5
  -GOLD-   2272011593D 1   1.00000     0.00000
 Structure written by MMmdl.
 40 42  0  0  0  0  0  0  0  0  2 V2000
  147.7133  131.4949  153.4743 O   0  0  0  0  0  0  0  0  0  0  0  0
  148.1152  132.6594  153.4962 C   0  0  0  0  0  0  0  0  0  0  0  0
  147.7101  133.5666  152.5892 N   0  0  0  0  0  0  0  0  0  0  0  0
  146.7820  133.3220  151.4870 C   0  0  0  0  0  0  0  0  0  0  0  0
  145.3146  133.2537  151.9539 C   0  0  0  0  0  0  0  0  0  0  0  0
  144.6734  134.6156  152.1572 C   0  0  0  0  0  0  0  0  0  0  0  0
  144.1206  134.9673  153.4087 C   0  0  0  0  0  0  0  0  0  0  0  0
  143.5549  136.2478  153.5801 C   0  0  0  0  0  0  0  0  0  0  0  0
  143.5531  137.1480  152.4951 C   0  0  0  0  0  0  0  0  0  0  0  0
  144.0872  136.7752  151.3112 N   0  3  0  0  0  0  0  0  0  0  0  0
  144.6375  135.5584  151.1066 C   0  0  0  0  0  0  0  0  0  0  0  0
  149.0464  133.1952  154.4916 C   0  0  0  0  0  0  0  0  0  0  0  0
  149.2920  134.5187  154.5325 C   0  0  0  0  0  0  0  0  0  0  0  0
  150.1626  135.1155  155.4467 N   0  0  0  0  0  0  0  0  0  0  0  0
  150.4117  136.5471  155.3211 C   0  0  0  0  0  0  0  0  0  0  0  0
  150.4652  137.1976  156.6939 C   0  0  0  0  0  0  0  0  0  0  0  0
  151.8908  136.4436  157.5655 S   0  0  0  0  0  0  0  0  0  0  0  0
  153.1048  136.7305  156.7852 O   0  0  0  0  0  0  0  0  0  0  0  0
  151.8286  136.8477  158.9781 O   0  0  0  0  0  0  0  0  0  0  0  0
  151.5168  134.8158  157.4210 N   0  0  0  0  0  0  0  0  0  0  0  0
  150.7928  134.3401  156.4537 C   0  0  0  0  0  0  0  0  0  0  0  0
  150.5618  132.9058  156.3869 C   0  0  0  0  0  0  0  0  0  0  0  0
  149.7398  132.3624  155.4657 C   0  0  0  0  0  0  0  0  0  0  0  0
  148.0821  134.5023  152.6660 H   0  0  0  0  0  0  0  0  0  0  0  0
  146.8944  134.1365  150.7709 H   0  0  0  0  0  0  0  0  0  0  0  0
  147.0527  132.4109  150.9506 H   0  0  0  0  0  0  0  0  0  0  0  0
  144.7268  132.6847  151.2323 H   0  0  0  0  0  0  0  0  0  0  0  0
  145.2568  132.7010  152.8924 H   0  0  0  0  0  0  0  0  0  0  0  0
  144.1390  134.2682  154.2322 H   0  0  0  0  0  0  0  0  0  0  0  0
  143.1319  136.5358  154.5314 H   0  0  0  0  0  0  0  0  0  0  0  0
  143.1445  138.1472  152.5381 H   0  0  0  0  0  0  0  0  0  0  0  0
  145.0385  135.3824  150.1190 H   0  0  0  0  0  0  0  0  0  0  0  0
  148.8236  135.2134  153.8490 H   0  0  0  0  0  0  0  0  0  0  0  0
  151.3456  136.7042  154.7805 H   0  0  0  0  0  0  0  0  0  0  0  0
  149.6260  137.0235  154.7337 H   0  0  0  0  0  0  0  0  0  0  0  0
  150.6260  138.2734  156.6251 H   0  0  0  0  0  0  0  0  0  0  0  0
  149.5544  137.0203  157.2673 H   0  0  0  0  0  0  0  0  0  0  0  0
  151.0381  132.2328  157.0855 H   0  0  0  0  0  0  0  0  0  0  0  0
  149.6116  131.2902  155.4762 H   0  0  0  0  0  0  0  0  0  0  0  0
  144.0756  137.4420  150.5387 H   0  0  0  0  0  0  0  0  0  0  0  0
  1  2  2  0  0  0  0
  2  3  1  0  0  0  0
  2 12  1  0  0  0  0
  3  4  1  0  0  0  0
  3 24  1  0  0  0  0
  4  5  1  0  0  0  0
  4 25  1  0  0  0  0
  4 26  1  0  0  0  0
  5  6  1  0  0  0  0
  5 27  1  0  0  0  0
  5 28  1  0  0  0  0
  6 11  1  0  0  0  0
  6  7  2  0  0  0  0
  7  8  1  0  0  0  0
  7 29  1  0  0  0  0
  8  9  2  0  0  0  0
  8 30  1  0  0  0  0
  9 10  1  0  0  0  0
  9 31  1  0  0  0  0
 10 11  2  0  0  0  0
 10 40  1  0  0  0  0
 11 32  1  0  0  0  0
 12 23  1  0  0  0  0
 12 13  2  0  0  0  0
 13 14  1  0  0  0  0
 13 33  1  0  0  0  0
 14 21  1  0  0  0  0
 14 15  1  0  0  0  0
 15 16  1  0  0  0  0
 15 34  1  0  0  0  0
 15 35  1  0  0  0  0
 16 17  1  0  0  0  0
 16 36  1  0  0  0  0
 16 37  1  0  0  0  0
 17 18  2  0  0  0  0
 17 19  2  0  0  0  0
 17 20  1  0  0  0  0
 20 21  2  0  0  0  0
 21 22  1  0  0  0  0
 22 23  2  0  0  0  0
 22 38  1  0  0  0  0
 23 39  1  0  0  0  0
M  CHG  1  10   1
M  END
> <s_m_source_file>
AV-unprocessed.smi

> <i_m_source_file_index>
2164

> <i_lp_mmshare_version>
43012

> <i_f3d_flags>
0

> <s_epik_input>
W0NIMl0xW0NIMl1TKD1PKSg9TylOPUMoTjEyKVtDSF09W0NIXUMoPVtDSF0yKUMoPU8pW05IXVtDSDJdW0NIMl1jM1tjSF1bY0hdW2NIXW5bY0hdMw==

> <s_epik_cmdline>
J2VwaWtfcHl0aG9uJywgJy1waCcsICc3LjAnLCAnLXRuJywgJzgnLCAnLW1hJywgJzIwMCcsICctbWV0YWxfYmluZGluZycsICctaW1hZScsICc8aW5maWxlLm1hZT4nLCAnLW9tYWUnLCAnPG91dGZpbGUubWFlPic=

> <r_epik_Ionization_Penalty>
2.45963

> <r_epik_Ionization_Penalty_Charging>
2.45946

> <r_epik_Ionization_Penalty_Neutral>
0.000170278

> <r_epik_State_Penalty>
2.62155

> <r_epik_Charging_Adjusted_Penalty>
5.08101

> <i_epik_Tot_Q>
1

> <i_epik_Tot_abs_Q>
1

> <r_epik_Metal_State_Penalty>
2.85721

> <b_epik_Metal_Only>
0

> <s_lp_Force_Field>
OPLS_2005

> <r_lp_Energy>
29.3092

> <b_lp_Chiralities_Consistent>
1

> <s_lp_Variant>
AV-unprocessed.smi:2164-2

> <Gold.Version>
5.8.1

> <Gold.Id.Protein>
6NUR|6NUR_protein|mol2

> <Gold.PLP.Fitness>
46.7658

> <Gold.PLP.PLP>
-35.7444

> <Gold.PLP.part.hbond>
-5.0000

> <Gold.PLP.part.metal>
0.0000

> <Gold.PLP.part.buried>
-5.4296

> <Gold.PLP.part.nonpolar>
-26.2491

> <Gold.PLP.part.repulsive>
0.1568

> <Gold.PLP.ligand.clash>
2.4925

> <Gold.PLP.ligand.torsion>
0.2485

> <Gold.PLP.Chemscore.Hbond>
3.6640

> <Gold.PLP.Chemscore.CHOScore>
1.0000

> <Gold.PLP.Chemscore.Metal>
0.0000

> <Gold.Chemscore.Hbonds>
donor molecule, donor type, donor heavy atom, donor atom, acceptor molecule, acceptor atom, score
      L1  H     3    24       P1  7948  0.94
      L1  H    10    40       P1 10171  0.59
      P1  H  6896  6908       L1    20  0.02
      P1  H  6896  6909       L1    19  0.88
      P1  H 10752 10763       L1    18  0.99
      L1  C    13    33       P1  7948  1.00

> <Gold.PLP.Chemscore.Internal.Correction>
0.0190

> <Gold.Rescore>
     Score         DG    S(hbond)    S(metal)    S(lipo)     H(rot)  DE(clash)    DE(int)     intcor
     18.15     -18.38       3.09        0.00      55.68       1.54       0.03       0.20       ----

> <Gold.Chemscore.Fitness>
18.1503

> <Gold.Chemscore.DG>
-18.3756

> <Gold.Chemscore.ZeroCoef>
-5.4800

> <Gold.Chemscore.Hbond>
3.0875

> <Gold.Chemscore.Metal>
0.0000

> <Gold.Chemscore.Lipo>
55.6774

> <Gold.Chemscore.Internal_Hbond>
0.0000

> <Gold.Chemscore.DEClash>
0.0270

> <Gold.Chemscore.DEInternal>
0.1983

> <Gold.Chemscore.Rot>
1.5355

> <Gold.Chemscore.Internal.Correction>
   9.000000E+99

> <Gold.Chemscore.Hbonds>
donor molecule, donor type, donor heavy atom, donor atom, acceptor molecule, acceptor atom, score
      L1  H     3    24       P1  7948  0.38
      L1  H    10    40       P1 10171  0.58
      P1  H  6896  6908       L1    20  0.03
      P1  H  6896  6909       L1    19  0.42
      P1  H 10752 10763       L1    18  0.82

> <Gold.Chemscore.Hbond.Weighted>
-10.3123

> <Gold.Chemscore.Metal.Weighted>
-0.0000

> <Gold.Chemscore.Lipo.Weighted>
-6.5143

> <Gold.Chemscore.Internal_Hbond.Weighted>
0.0000

> <Gold.Chemscore.DEClash.Weighted>
0.0270

> <Gold.Chemscore.DEInternal.Weighted>
0.1983

> <Gold.Chemscore.Rot.Weighted>
3.9309

> <Gold.Chemscore.Internal.Correction.Weighted>
   9.000000E+99

> <Gold.Protein.RotatedTorsions>
[ 6907 6896 6895 6894 ] final  130.01 input  -60.11 | X-H torsion
[ 7974 7965 7964 7962 ] final  -67.94 input  175.53 | X-H torsion
[ 8008 7997 7996 7995 ] final   52.44 input   59.86 | X-H torsion
[ 10167 10162 10161 10158 ] final   71.56 input  -65.29 | X-H torsion
[ 10718 10713 10712 10709 ] final -112.12 input   66.30 | X-H torsion
[ 10763 10752 10751 10750 ] final  118.67 input  -60.55 | X-H torsion
[ 11005 11000 10999 10996 ] final  170.99 input  -57.11 | X-H torsion

> <Gold.Protein.ActiveResidues>
 VAL166  LYS551  ARG553  GLY616  TRP617  ASP618  TYR619  PRO620  LYS621  CYS622 
 ASP623  PHE694  ASN695  SER759  ASP760  ASP761  ALA762  ILE779  LEU786  VAL792 
 PHE793  MET794  SER795  GLU796  ALA797  LYS798  CYS799  TRP800  GLU811  SER814 

> <Gold.Protein.RotatedAtoms>
  152.3568  133.6247  159.5985 H   0  0  0  0  0  0  0  0  0  0  0  0  # atno 6907 bound_to 6896
  150.7574  133.9487  159.3487 H   0  0  0  0  0  0  0  0  0  0  0  0  # atno 6908 bound_to 6896
  151.7330  135.0871  160.0354 H   0  0  0  0  0  0  0  0  0  0  0  0  # atno 6909 bound_to 6896
  145.7229  140.9031  143.0621 H   0  0  0  0  0  0  0  0  0  0  0  0  # atno 7974 bound_to 7965
  155.4519  140.3458  155.4302 H   0  0  0  0  0  0  0  0  0  0  0  0  # atno 8008 bound_to 7997
  156.1215  140.1488  156.9227 H   0  0  0  0  0  0  0  0  0  0  0  0  # atno 8009 bound_to 7997
  154.4827  140.0865  156.7394 H   0  0  0  0  0  0  0  0  0  0  0  0  # atno 8010 bound_to 7997
  140.0448  144.5360  150.7407 H   0  0  0  0  0  0  0  0  0  0  0  0  # atno 10167 bound_to 10162
  156.0687  130.5903  150.8466 H   0  0  0  0  0  0  0  0  0  0  0  0  # atno 10718 bound_to 10713
  153.5713  135.3502  155.2839 H   0  0  0  0  0  0  0  0  0  0  0  0  # atno 10763 bound_to 10752
  154.8681  135.4160  154.2722 H   0  0  0  0  0  0  0  0  0  0  0  0  # atno 10764 bound_to 10752
  153.3489  135.7054  153.6875 H   0  0  0  0  0  0  0  0  0  0  0  0  # atno 10765 bound_to 10752
  140.3142  134.7491  157.4015 H   0  0  0  0  0  0  0  0  0  0  0  0  # atno 11005 bound_to 11000
  144.6912  139.9226  143.7468 LP  0  0  0  0  0  0  0  0  0  0  0  0  # atno 17320 bound_to 7965
  146.0609  139.3603  143.0582 LP  0  0  0  0  0  0  0  0  0  0  0  0  # atno 17321 bound_to 7965
  140.7244  143.2620  151.4172 LP  0  0  0  0  0  0  0  0  0  0  0  0  # atno 17342 bound_to 10162
  139.5990  144.1335  152.2177 LP  0  0  0  0  0  0  0  0  0  0  0  0  # atno 17343 bound_to 10162
  157.5744  131.0946  150.9368 LP  0  0  0  0  0  0  0  0  0  0  0  0  # atno 17370 bound_to 10713
  156.9577  130.5443  149.5284 LP  0  0  0  0  0  0  0  0  0  0  0  0  # atno 17371 bound_to 10713
  140.0998  134.5488  155.8364 LP  0  0  0  0  0  0  0  0  0  0  0  0  # atno 17394 bound_to 11000
  141.2101  133.6691  156.6488 LP  0  0  0  0  0  0  0  0  0  0  0  0  # atno 17395 bound_to 11000

$$$$
