AV-unprocessed.smi:2373|AV-procd|sdf|9440|dock9
  -GOLD-   2272013 73D 1   1.00000     0.00000
 Structure written by MMmdl.
 46 47  0  0  0  0  0  0  0  0  1 V2000
  145.6313  131.7064  151.7444 C   0  0  0  0  0  0  0  0  0  0  0  0
  144.7971  132.7506  151.1579 N   0  0  0  0  0  0  0  0  0  0  0  0
  143.8464  132.4154  150.1051 C   0  0  0  0  0  0  0  0  0  0  0  0
  144.9421  134.0902  151.5861 C   0  0  0  0  0  0  0  0  0  0  0  0
  145.9490  134.4674  152.5089 C   0  0  0  0  0  0  0  0  0  0  0  0
  146.0482  135.8145  152.9057 C   0  0  0  0  0  0  0  0  0  0  0  0
  145.1406  136.7566  152.3854 C   0  0  0  0  0  0  0  0  0  0  0  0
  145.2752  138.1120  152.7907 N   0  0  0  0  0  0  0  0  0  0  0  0
  146.2844  138.6855  153.4683 C   0  0  0  0  0  0  0  0  0  0  0  0
  147.3124  138.1125  153.8262 O   0  0  0  0  0  0  0  0  0  0  0  0
  146.0356  139.9876  153.6884 N   0  0  0  0  0  0  0  0  0  0  0  0
  146.8775  140.9712  154.3867 C   0  0  0  0  0  0  0  0  0  0  0  0
  146.4933  142.4255  153.9765 C   0  0  0  0  0  0  0  0  0  0  0  0
  145.1788  142.9685  154.5707 C   0  0  0  0  0  0  0  0  0  0  0  0
  144.6745  143.9946  153.7432 O   0  0  0  0  0  0  0  0  0  0  0  0
  146.6692  140.7232  155.9020 C   0  0  0  0  0  0  0  0  0  0  0  0
  147.7156  141.4317  156.7797 C   0  0  0  0  0  0  0  0  0  0  0  0
  149.0224  141.0299  156.3931 O   0  0  0  0  0  0  0  0  0  0  0  0
  149.3301  141.3922  155.0543 C   0  0  0  0  0  0  0  0  0  0  0  0
  148.3719  140.6857  154.0788 C   0  0  0  0  0  0  0  0  0  0  0  0
  144.1778  136.2932  151.4586 C   0  0  0  0  0  0  0  0  0  0  0  0
  144.0809  135.0032  151.0746 N   0  0  0  0  0  0  0  0  0  0  0  0
  145.4976  131.6710  152.8261 H   0  0  0  0  0  0  0  0  0  0  0  0
  146.6844  131.8929  151.5315 H   0  0  0  0  0  0  0  0  0  0  0  0
  145.3778  130.7234  151.3469 H   0  0  0  0  0  0  0  0  0  0  0  0
  144.0659  132.9773  149.1965 H   0  0  0  0  0  0  0  0  0  0  0  0
  142.8286  132.6444  150.4217 H   0  0  0  0  0  0  0  0  0  0  0  0
  143.8869  131.3549  149.8558 H   0  0  0  0  0  0  0  0  0  0  0  0
  146.6471  133.7531  152.9182 H   0  0  0  0  0  0  0  0  0  0  0  0
  146.8129  136.1162  153.6068 H   0  0  0  0  0  0  0  0  0  0  0  0
  144.5357  138.7289  152.4883 H   0  0  0  0  0  0  0  0  0  0  0  0
  145.1581  140.3433  153.3386 H   0  0  0  0  0  0  0  0  0  0  0  0
  147.2990  143.1096  154.2405 H   0  0  0  0  0  0  0  0  0  0  0  0
  146.4234  142.4841  152.8899 H   0  0  0  0  0  0  0  0  0  0  0  0
  144.4242  142.1860  154.6467 H   0  0  0  0  0  0  0  0  0  0  0  0
  145.3312  143.3771  155.5689 H   0  0  0  0  0  0  0  0  0  0  0  0
  143.9821  143.6373  153.2085 H   0  0  0  0  0  0  0  0  0  0  0  0
  145.6655  141.0077  156.2163 H   0  0  0  0  0  0  0  0  0  0  0  0
  146.7445  139.6533  156.1036 H   0  0  0  0  0  0  0  0  0  0  0  0
  147.6190  142.5163  156.7226 H   0  0  0  0  0  0  0  0  0  0  0  0
  147.5653  141.1607  157.8248 H   0  0  0  0  0  0  0  0  0  0  0  0
  149.2879  142.4756  154.9377 H   0  0  0  0  0  0  0  0  0  0  0  0
  150.3577  141.0966  154.8421 H   0  0  0  0  0  0  0  0  0  0  0  0
  148.5578  139.6124  154.1426 H   0  0  0  0  0  0  0  0  0  0  0  0
  148.6230  140.9745  153.0580 H   0  0  0  0  0  0  0  0  0  0  0  0
  143.4720  136.9569  150.9846 H   0  0  0  0  0  0  0  0  0  0  0  0
  1  2  1  0  0  0  0
  1 23  1  0  0  0  0
  1 24  1  0  0  0  0
  1 25  1  0  0  0  0
  2  3  1  0  0  0  0
  2  4  1  0  0  0  0
  3 26  1  0  0  0  0
  3 27  1  0  0  0  0
  3 28  1  0  0  0  0
  4 22  1  0  0  0  0
  4  5  2  0  0  0  0
  5  6  1  0  0  0  0
  5 29  1  0  0  0  0
  6  7  2  0  0  0  0
  6 30  1  0  0  0  0
  7  8  1  0  0  0  0
  7 21  1  0  0  0  0
  8  9  1  0  0  0  0
  8 31  1  0  0  0  0
  9 10  2  0  0  0  0
  9 11  1  0  0  0  0
 11 12  1  0  0  0  0
 11 32  1  0  0  0  0
 12 20  1  0  0  0  0
 12 13  1  0  0  0  0
 12 16  1  0  0  0  0
 13 14  1  0  0  0  0
 13 33  1  0  0  0  0
 13 34  1  0  0  0  0
 14 15  1  0  0  0  0
 14 35  1  0  0  0  0
 14 36  1  0  0  0  0
 15 37  1  0  0  0  0
 16 17  1  0  0  0  0
 16 38  1  0  0  0  0
 16 39  1  0  0  0  0
 17 18  1  0  0  0  0
 17 40  1  0  0  0  0
 17 41  1  0  0  0  0
 18 19  1  0  0  0  0
 19 20  1  0  0  0  0
 19 42  1  0  0  0  0
 19 43  1  0  0  0  0
 20 44  1  0  0  0  0
 20 45  1  0  0  0  0
 21 22  2  0  0  0  0
 21 46  1  0  0  0  0
M  END
> <s_m_source_file>
AV-unprocessed.smi

> <i_m_source_file_index>
2373

> <i_lp_mmshare_version>
43012

> <i_f3d_flags>
0

> <s_epik_input>
W0NIM11OKFtDSDNdKWMxW2NIXVtjSF1jKFtjSF1uMSlbTkhdQyg9TylbTkhdQzIoW0NIMl1bQ0gyXVtPSF0pW0NIMl1bQ0gyXU9bQ0gyXVtDSDJdMg==

> <s_epik_cmdline>
J2VwaWtfcHl0aG9uJywgJy1waCcsICc3LjAnLCAnLXRuJywgJzgnLCAnLW1hJywgJzIwMCcsICctbWV0YWxfYmluZGluZycsICctaW1hZScsICc8aW5maWxlLm1hZT4nLCAnLW9tYWUnLCAnPG91dGZpbGUubWFlPic=

> <r_lp_tautomer_probability>
1

> <r_epik_Ionization_Penalty>
0.631973

> <r_epik_Ionization_Penalty_Charging>
0

> <r_epik_Ionization_Penalty_Neutral>
0.631973

> <r_epik_State_Penalty>
0.647706

> <r_epik_Charging_Adjusted_Penalty>
0.647706

> <i_epik_Tot_Q>
0

> <i_epik_Tot_abs_Q>
0

> <r_epik_Metal_State_Penalty>
0.309159

> <b_epik_Metal_Only>
0

> <s_lp_Force_Field>
OPLS_2005

> <r_lp_Energy>
18.939

> <b_lp_Chiralities_Consistent>
1

> <s_lp_Variant>
AV-unprocessed.smi:2373-2

> <Gold.Version>
5.8.1

> <Gold.Id.Protein>
6NUR|6NUR_protein|mol2

> <Gold.PLP.Fitness>
43.4752

> <Gold.PLP.PLP>
-33.1540

> <Gold.PLP.part.hbond>
-3.0571

> <Gold.PLP.part.metal>
0.0000

> <Gold.PLP.part.buried>
-3.5210

> <Gold.PLP.part.nonpolar>
-28.3533

> <Gold.PLP.part.repulsive>
0.4423

> <Gold.PLP.ligand.clash>
0.0000

> <Gold.PLP.ligand.torsion>
0.7998

> <Gold.PLP.Chemscore.Hbond>
2.9913

> <Gold.PLP.Chemscore.CHOScore>
0.9734

> <Gold.PLP.Chemscore.Metal>
0.0000

> <Gold.Chemscore.Hbonds>
donor molecule, donor type, donor heavy atom, donor atom, acceptor molecule, acceptor atom, score
      L1  H     8    31       P1 10175  1.00
      L1  H    11    32       P1 10175  1.00
      L1  H    15    37       P1 10174  0.98
      L1  C    21    46       P1 10171  0.98

> <Gold.PLP.Chemscore.Internal.Correction>
0.0269

> <Gold.Rescore>
     Score         DG    S(hbond)    S(metal)    S(lipo)     H(rot)  DE(clash)    DE(int)     intcor
     13.29     -17.60       2.71        0.00      71.78       2.09       0.86       3.45       ----

> <Gold.Chemscore.Fitness>
13.2941

> <Gold.Chemscore.DG>
-17.6027

> <Gold.Chemscore.ZeroCoef>
-5.4800

> <Gold.Chemscore.Hbond>
2.7138

> <Gold.Chemscore.Metal>
0.0000

> <Gold.Chemscore.Lipo>
71.7822

> <Gold.Chemscore.Internal_Hbond>
0.0000

> <Gold.Chemscore.DEClash>
0.8577

> <Gold.Chemscore.DEInternal>
3.4508

> <Gold.Chemscore.Rot>
2.0859

> <Gold.Chemscore.Internal.Correction>
   9.000000E+99

> <Gold.Chemscore.Hbonds>
donor molecule, donor type, donor heavy atom, donor atom, acceptor molecule, acceptor atom, score
      L1  H     8    31       P1 10175  0.96
      L1  H    11    32       P1 10175  1.00
      L1  H    15    37       P1 10174  0.41

> <Gold.Chemscore.Hbond.Weighted>
-9.0640

> <Gold.Chemscore.Metal.Weighted>
-0.0000

> <Gold.Chemscore.Lipo.Weighted>
-8.3985

> <Gold.Chemscore.Internal_Hbond.Weighted>
0.0000

> <Gold.Chemscore.DEClash.Weighted>
0.8577

> <Gold.Chemscore.DEInternal.Weighted>
3.4508

> <Gold.Chemscore.Rot.Weighted>
5.3399

> <Gold.Chemscore.Internal.Correction.Weighted>
   9.000000E+99

> <Gold.Protein.RotatedTorsions>
[ 6907 6896 6895 6894 ] final    9.42 input  -60.11 | X-H torsion
[ 7974 7965 7964 7962 ] final -108.41 input  175.53 | X-H torsion
[ 8008 7997 7996 7995 ] final -133.43 input   59.86 | X-H torsion
[ 10167 10162 10161 10158 ] final  144.88 input  -65.29 | X-H torsion
[ 10718 10713 10712 10709 ] final  -47.82 input   66.30 | X-H torsion
[ 10763 10752 10751 10750 ] final   77.96 input  -60.55 | X-H torsion
[ 11005 11000 10999 10996 ] final   73.79 input  -57.11 | X-H torsion

> <Gold.Protein.ActiveResidues>
 VAL166  LYS551  ARG553  GLY616  TRP617  ASP618  TYR619  PRO620  LYS621  CYS622 
 ASP623  PHE694  ASN695  SER759  ASP760  ASP761  ALA762  ILE779  LEU786  VAL792 
 PHE793  MET794  SER795  GLU796  ALA797  LYS798  CYS799  TRP800  GLU811  SER814 

> <Gold.Protein.RotatedAtoms>
  151.7219  135.0892  160.0285 H   0  0  0  0  0  0  0  0  0  0  0  0  # atno 6907 bound_to 6896
  152.3596  133.6276  159.6014 H   0  0  0  0  0  0  0  0  0  0  0  0  # atno 6908 bound_to 6896
  150.7595  133.9361  159.3483 H   0  0  0  0  0  0  0  0  0  0  0  0  # atno 6909 bound_to 6896
  145.1932  140.9024  143.3412 H   0  0  0  0  0  0  0  0  0  0  0  0  # atno 7974 bound_to 7965
  155.3453  140.0474  157.3045 H   0  0  0  0  0  0  0  0  0  0  0  0  # atno 8008 bound_to 7997
  154.5256  140.2239  155.8861 H   0  0  0  0  0  0  0  0  0  0  0  0  # atno 8009 bound_to 7997
  156.1735  140.3090  155.9023 H   0  0  0  0  0  0  0  0  0  0  0  0  # atno 8010 bound_to 7997
  139.4937  144.5941  151.6619 H   0  0  0  0  0  0  0  0  0  0  0  0  # atno 10167 bound_to 10162
  156.2047  130.4158  149.9193 H   0  0  0  0  0  0  0  0  0  0  0  0  # atno 10718 bound_to 10713
  153.0838  135.4895  154.8556 H   0  0  0  0  0  0  0  0  0  0  0  0  # atno 10763 bound_to 10752
  154.7184  135.3034  154.9088 H   0  0  0  0  0  0  0  0  0  0  0  0  # atno 10764 bound_to 10752
  153.9760  135.6795  153.4801 H   0  0  0  0  0  0  0  0  0  0  0  0  # atno 10765 bound_to 10752
  139.9422  134.7377  156.1069 H   0  0  0  0  0  0  0  0  0  0  0  0  # atno 11005 bound_to 11000
  145.0020  139.3589  143.6162 LP  0  0  0  0  0  0  0  0  0  0  0  0  # atno 17320 bound_to 7965
  146.3432  139.9248  142.8761 LP  0  0  0  0  0  0  0  0  0  0  0  0  # atno 17321 bound_to 7965
  140.5575  144.0324  150.6154 LP  0  0  0  0  0  0  0  0  0  0  0  0  # atno 17342 bound_to 10162
  140.3399  143.3026  152.0599 LP  0  0  0  0  0  0  0  0  0  0  0  0  # atno 17343 bound_to 10162
  156.6891  130.8888  151.3586 LP  0  0  0  0  0  0  0  0  0  0  0  0  # atno 17370 bound_to 10713
  157.7006  130.9328  150.0773 LP  0  0  0  0  0  0  0  0  0  0  0  0  # atno 17371 bound_to 10713
  141.1061  133.6659  156.2867 LP  0  0  0  0  0  0  0  0  0  0  0  0  # atno 17394 bound_to 11000
  140.5922  134.5639  157.5502 LP  0  0  0  0  0  0  0  0  0  0  0  0  # atno 17395 bound_to 11000

$$$$
