AV-unprocessed.smi:3157|AV-procd|sdf|12039|dock1
  -GOLD-   2272017463D 1   1.00000     0.00000
 Structure written by MMmdl.
 40 41  0  0  0  0  0  0  0  0  2 V2000
  149.5777  139.1908  157.0758 C   0  0  0  0  0  0  0  0  0  0  0  0
  150.6296  139.8999  156.1967 C   0  0  2  0  0  0  0  0  0  0  0  0
  150.7969  141.3036  156.6382 N   0  3  0  0  0  0  0  0  0  0  0  0
  151.6185  141.4924  157.8524 C   0  0  0  0  0  0  0  0  0  0  0  0
  151.3132  142.8421  158.5212 C   0  0  0  0  0  0  0  0  0  0  0  0
  151.7406  144.0480  157.6825 C   0  0  0  0  0  0  0  0  0  0  0  0
  151.7780  145.2094  158.6777 C   0  0  0  0  0  0  0  0  0  0  0  0
  152.1249  144.5857  160.0371 C   0  0  0  0  0  0  0  0  0  0  0  0
  152.0471  143.0638  159.8500 C   0  0  0  0  0  0  0  0  0  0  0  0
  150.2758  139.8671  154.6854 C   0  0  1  0  0  0  0  0  0  0  0  0
  150.3848  138.4515  154.0858 C   0  0  0  0  0  0  0  0  0  0  0  0
  148.9565  140.4239  154.4126 N   0  0  0  0  0  0  0  0  0  0  0  0
  148.5061  141.7069  154.6470 C   0  0  0  0  0  0  0  0  0  0  0  0
  147.2053  141.7649  154.2362 C   0  0  0  0  0  0  0  0  0  0  0  0
  146.9441  140.4525  153.7538 C   0  0  0  0  0  0  0  0  0  0  0  0
  147.9924  139.6524  153.8608 N   0  0  0  0  0  0  0  0  0  0  0  0
  149.4919  138.1321  156.8308 H   0  0  0  0  0  0  0  0  0  0  0  0
  148.5921  139.6401  156.9503 H   0  0  0  0  0  0  0  0  0  0  0  0
  149.8317  139.2419  158.1341 H   0  0  0  0  0  0  0  0  0  0  0  0
  151.5836  139.3859  156.3272 H   0  0  0  0  0  0  0  0  0  0  0  0
  151.2541  141.8063  155.8909 H   0  0  0  0  0  0  0  0  0  0  0  0
  151.4499  140.6791  158.5583 H   0  0  0  0  0  0  0  0  0  0  0  0
  152.6712  141.4543  157.5690 H   0  0  0  0  0  0  0  0  0  0  0  0
  150.2392  142.9223  158.6984 H   0  0  0  0  0  0  0  0  0  0  0  0
  152.7391  143.8856  157.2732 H   0  0  0  0  0  0  0  0  0  0  0  0
  151.0666  144.2383  156.8466 H   0  0  0  0  0  0  0  0  0  0  0  0
  152.4889  145.9809  158.3805 H   0  0  0  0  0  0  0  0  0  0  0  0
  150.7935  145.6760  158.7325 H   0  0  0  0  0  0  0  0  0  0  0  0
  153.1221  144.8810  160.3659 H   0  0  0  0  0  0  0  0  0  0  0  0
  151.4198  144.9226  160.7979 H   0  0  0  0  0  0  0  0  0  0  0  0
  151.5488  142.5711  160.6856 H   0  0  0  0  0  0  0  0  0  0  0  0
  153.0586  142.6594  159.7902 H   0  0  0  0  0  0  0  0  0  0  0  0
  150.9923  140.5013  154.1606 H   0  0  0  0  0  0  0  0  0  0  0  0
  151.3982  138.0577  154.1646 H   0  0  0  0  0  0  0  0  0  0  0  0
  150.1215  138.4548  153.0276 H   0  0  0  0  0  0  0  0  0  0  0  0
  149.7180  137.7507  154.5897 H   0  0  0  0  0  0  0  0  0  0  0  0
  149.1404  142.4641  155.0839 H   0  0  0  0  0  0  0  0  0  0  0  0
  146.5413  142.6158  154.2735 H   0  0  0  0  0  0  0  0  0  0  0  0
  146.0300  140.0599  153.3331 H   0  0  0  0  0  0  0  0  0  0  0  0
  149.8840  141.7100  156.7846 H   0  0  0  0  0  0  0  0  0  0  0  0
  1  2  1  0  0  0  0
  1 17  1  0  0  0  0
  1 18  1  0  0  0  0
  1 19  1  0  0  0  0
  2  3  1  0  0  0  0
  2 10  1  0  0  0  0
  2 20  1  0  0  0  0
  3  4  1  0  0  0  0
  3 21  1  0  0  0  0
  3 40  1  0  0  0  0
  4  5  1  0  0  0  0
  4 22  1  0  0  0  0
  4 23  1  0  0  0  0
  5  9  1  0  0  0  0
  5  6  1  0  0  0  0
  5 24  1  0  0  0  0
  6  7  1  0  0  0  0
  6 25  1  0  0  0  0
  6 26  1  0  0  0  0
  7  8  1  0  0  0  0
  7 27  1  0  0  0  0
  7 28  1  0  0  0  0
  8  9  1  0  0  0  0
  8 29  1  0  0  0  0
  8 30  1  0  0  0  0
  9 31  1  0  0  0  0
  9 32  1  0  0  0  0
 10 11  1  0  0  0  0
 10 12  1  0  0  0  0
 10 33  1  0  0  0  0
 11 34  1  0  0  0  0
 11 35  1  0  0  0  0
 11 36  1  0  0  0  0
 12 16  1  0  0  0  0
 12 13  1  0  0  0  0
 13 14  2  0  0  0  0
 13 37  1  0  0  0  0
 14 15  1  0  0  0  0
 14 38  1  0  0  0  0
 15 16  2  0  0  0  0
 15 39  1  0  0  0  0
M  CHG  1   3   1
M  END
> <s_m_source_file>
AV-unprocessed.smi

> <i_m_source_file_index>
3157

> <i_lp_mmshare_version>
43012

> <i_f3d_flags>
0

> <s_epik_input>
bjFbY0hdW2NIXVtjSF1uMVtDQEBIXShbQ0gzXSlbQ0BIXShbQ0gzXSlbTkhdW0NIMl1bQ0hdMltDSDJdW0NIMl1bQ0gyXVtDSDJdMg==

> <s_epik_cmdline>
J2VwaWtfcHl0aG9uJywgJy1waCcsICc3LjAnLCAnLXRuJywgJzgnLCAnLW1hJywgJzIwMCcsICctbWV0YWxfYmluZGluZycsICctaW1hZScsICc8aW5maWxlLm1hZT4nLCAnLW9tYWUnLCAnPG91dGZpbGUubWFlPic=

> <r_lp_tautomer_probability>
1

> <r_epik_Ionization_Penalty>
0.00132192

> <r_epik_Ionization_Penalty_Charging>
0.0013111

> <r_epik_Ionization_Penalty_Neutral>
1.08112e-05

> <r_epik_State_Penalty>
-0

> <r_epik_Charging_Adjusted_Penalty>
0.0013111

> <i_epik_Tot_Q>
1

> <i_epik_Tot_abs_Q>
1

> <r_epik_Metal_State_Penalty>
-0

> <b_epik_Metal_Only>
0

> <s_lp_Force_Field>
OPLS_2005

> <r_lp_Energy>
31.1874

> <b_lp_Chiralities_Consistent>
1

> <s_lp_Variant>
AV-unprocessed.smi:3157-3

> <Gold.Version>
5.8.1

> <Gold.Id.Protein>
6NUR|6NUR_protein|mol2

> <Gold.PLP.Fitness>
43.1936

> <Gold.PLP.PLP>
-38.0020

> <Gold.PLP.part.hbond>
0.0000

> <Gold.PLP.part.metal>
0.0000

> <Gold.PLP.part.buried>
-3.1374

> <Gold.PLP.part.nonpolar>
-35.6956

> <Gold.PLP.part.repulsive>
0.4264

> <Gold.PLP.ligand.clash>
0.0000

> <Gold.PLP.ligand.torsion>
0.4550

> <Gold.PLP.Chemscore.Hbond>
0.0000

> <Gold.PLP.Chemscore.CHOScore>
1.9977

> <Gold.PLP.Chemscore.Metal>
0.0000

> <Gold.Chemscore.Hbonds>
donor molecule, donor type, donor heavy atom, donor atom, acceptor molecule, acceptor atom, score
      L1  C    13    37       P1  8028  1.00
      L1  C    15    39       P1 10175  0.99

> <Gold.PLP.Chemscore.Internal.Correction>
0.1086

> <Gold.Rescore>
     Score         DG    S(hbond)    S(metal)    S(lipo)     H(rot)  DE(clash)    DE(int)     intcor
     13.70     -14.46       0.00        0.00     109.65       1.50       0.05       0.71       ----

> <Gold.Chemscore.Fitness>
13.7004

> <Gold.Chemscore.DG>
-14.4566

> <Gold.Chemscore.ZeroCoef>
-5.4800

> <Gold.Chemscore.Hbond>
0.0000

> <Gold.Chemscore.Metal>
0.0000

> <Gold.Chemscore.Lipo>
109.6456

> <Gold.Chemscore.Internal_Hbond>
0.0000

> <Gold.Chemscore.DEClash>
0.0486

> <Gold.Chemscore.DEInternal>
0.7075

> <Gold.Chemscore.Rot>
1.5047

> <Gold.Chemscore.Internal.Correction>
   9.000000E+99

> <Gold.Chemscore.Hbond.Weighted>
-0.0000

> <Gold.Chemscore.Metal.Weighted>
-0.0000

> <Gold.Chemscore.Lipo.Weighted>
-12.8285

> <Gold.Chemscore.Internal_Hbond.Weighted>
0.0000

> <Gold.Chemscore.DEClash.Weighted>
0.0486

> <Gold.Chemscore.DEInternal.Weighted>
0.7075

> <Gold.Chemscore.Rot.Weighted>
3.8520

> <Gold.Chemscore.Internal.Correction.Weighted>
   9.000000E+99

> <Gold.Protein.RotatedTorsions>
[ 6907 6896 6895 6894 ] final -133.85 input  -60.11 | X-H torsion
[ 7974 7965 7964 7962 ] final -155.53 input  175.53 | X-H torsion
[ 8008 7997 7996 7995 ] final   45.33 input   59.86 | X-H torsion
[ 10167 10162 10161 10158 ] final    6.01 input  -65.29 | X-H torsion
[ 10718 10713 10712 10709 ] final  113.20 input   66.30 | X-H torsion
[ 10763 10752 10751 10750 ] final  -15.47 input  -60.55 | X-H torsion
[ 11005 11000 10999 10996 ] final  -11.31 input  -57.11 | X-H torsion

> <Gold.Protein.ActiveResidues>
 VAL166  LYS551  ARG553  GLY616  TRP617  ASP618  TYR619  PRO620  LYS621  CYS622 
 ASP623  PHE694  ASN695  SER759  ASP760  ASP761  ALA762  ILE779  LEU786  VAL792 
 PHE793  MET794  SER795  GLU796  ALA797  LYS798  CYS799  TRP800  GLU811  SER814 

> <Gold.Protein.RotatedAtoms>
  150.9789  133.6266  159.2725 H   0  0  0  0  0  0  0  0  0  0  0  0  # atno 6907 bound_to 6896
  151.3528  135.0887  159.9418 H   0  0  0  0  0  0  0  0  0  0  0  0  # atno 6908 bound_to 6896
  152.5209  133.9378  159.7666 H   0  0  0  0  0  0  0  0  0  0  0  0  # atno 6909 bound_to 6896
  144.7636  140.4237  143.5958 H   0  0  0  0  0  0  0  0  0  0  0  0  # atno 7974 bound_to 7965
  155.3341  140.3404  155.4239 H   0  0  0  0  0  0  0  0  0  0  0  0  # atno 8008 bound_to 7997
  156.1847  140.1676  156.8245 H   0  0  0  0  0  0  0  0  0  0  0  0  # atno 8009 bound_to 7997
  154.5372  140.0732  156.8432 H   0  0  0  0  0  0  0  0  0  0  0  0  # atno 8010 bound_to 7997
  140.6451  143.7682  150.7486 H   0  0  0  0  0  0  0  0  0  0  0  0  # atno 10167 bound_to 10162
  157.6351  131.0980  150.7006 H   0  0  0  0  0  0  0  0  0  0  0  0  # atno 10718 bound_to 10713
  153.5438  135.7013  153.5624 H   0  0  0  0  0  0  0  0  0  0  0  0  # atno 10763 bound_to 10752
  153.3578  135.3978  155.1695 H   0  0  0  0  0  0  0  0  0  0  0  0  # atno 10764 bound_to 10752
  154.8670  135.3781  154.4944 H   0  0  0  0  0  0  0  0  0  0  0  0  # atno 10765 bound_to 10752
  140.7539  133.8569  155.9068 H   0  0  0  0  0  0  0  0  0  0  0  0  # atno 11005 bound_to 11000
  145.6541  139.1570  143.2845 LP  0  0  0  0  0  0  0  0  0  0  0  0  # atno 17320 bound_to 7965
  146.1722  140.6627  142.9228 LP  0  0  0  0  0  0  0  0  0  0  0  0  # atno 17321 bound_to 7965
  140.1321  143.4516  152.2248 LP  0  0  0  0  0  0  0  0  0  0  0  0  # atno 17342 bound_to 10162
  139.5661  144.7436  151.4018 LP  0  0  0  0  0  0  0  0  0  0  0  0  # atno 17343 bound_to 10162
  156.7339  130.4718  149.5493 LP  0  0  0  0  0  0  0  0  0  0  0  0  # atno 17370 bound_to 10713
  156.1584  130.6357  151.0687 LP  0  0  0  0  0  0  0  0  0  0  0  0  # atno 17371 bound_to 10713
  140.9725  134.1512  157.4564 LP  0  0  0  0  0  0  0  0  0  0  0  0  # atno 17394 bound_to 11000
  139.8782  134.9983  156.5894 LP  0  0  0  0  0  0  0  0  0  0  0  0  # atno 17395 bound_to 11000

$$$$
