AV-unprocessed.smi:2928|AV-procd|sdf|11232|dock5
  -GOLD-   2272016123D 1   1.00000     0.00000
 Structure written by MMmdl.
 55 58  0  0  0  0  0  0  0  0  2 V2000
  146.3947  142.9342  153.8711 C   0  0  0  0  0  0  0  0  0  0  0  0
  147.2362  142.3430  154.9390 N   0  3  2  0  0  0  0  0  0  0  0  0
  148.3829  141.5363  154.4548 C   0  0  1  0  0  0  0  0  0  0  0  0
  149.3939  141.3601  155.6117 C   0  0  0  0  0  0  0  0  0  0  0  0
  148.7704  140.7876  156.9007 C   0  0  0  0  0  0  0  0  0  0  0  0
  147.3974  141.4148  157.2185 C   0  0  0  0  0  0  0  0  0  0  0  0
  146.4892  141.5951  155.9793 C   0  0  2  0  0  0  0  0  0  0  0  0
  145.8984  140.2814  155.4107 C   0  0  0  0  0  0  0  0  0  0  0  0
  146.9121  139.3917  154.6555 C   0  0  1  0  0  0  0  0  0  0  0  0
  146.1803  138.4690  153.7899 N   0  0  0  0  0  0  0  0  0  0  0  0
  145.1345  137.7107  154.1489 C   0  0  0  0  0  0  0  0  0  0  0  0
  144.6568  137.6953  155.2832 O   0  0  0  0  0  0  0  0  0  0  0  0
  144.7049  136.9672  153.1164 N   0  0  0  0  0  0  0  0  0  0  0  0
  143.6145  136.0531  153.0767 C   0  0  0  0  0  0  0  0  0  0  0  0
  142.3772  136.3063  153.7173 C   0  0  0  0  0  0  0  0  0  0  0  0
  141.3414  135.3609  153.6047 C   0  0  0  0  0  0  0  0  0  0  0  0
  141.5758  134.1993  152.8476 C   0  0  0  0  0  0  0  0  0  0  0  0
  142.7428  133.9503  152.2189 N   0  0  0  0  0  0  0  0  0  0  0  0
  143.7444  134.8576  152.3246 C   0  0  0  0  0  0  0  0  0  0  0  0
  144.9530  134.5767  151.6624 N   0  0  0  0  0  0  0  0  0  0  0  0
  145.9908  133.9766  152.4840 C   0  0  0  0  0  0  0  0  0  0  0  0
  147.0267  133.4326  151.4969 C   0  0  0  0  0  0  0  0  0  0  0  0
  146.2650  133.2693  150.1757 C   0  0  0  0  0  0  0  0  0  0  0  0
  144.8396  133.7376  150.4813 C   0  0  0  0  0  0  0  0  0  0  0  0
  147.9063  140.2143  153.8020 C   0  0  0  0  0  0  0  0  0  0  0  0
  145.8944  142.1757  153.2696 H   0  0  0  0  0  0  0  0  0  0  0  0
  147.0024  143.5461  153.2041 H   0  0  0  0  0  0  0  0  0  0  0  0
  145.6299  143.5795  154.3040 H   0  0  0  0  0  0  0  0  0  0  0  0
  148.8942  142.1140  153.6833 H   0  0  0  0  0  0  0  0  0  0  0  0
  150.2332  140.7401  155.2943 H   0  0  0  0  0  0  0  0  0  0  0  0
  149.8184  142.3378  155.8445 H   0  0  0  0  0  0  0  0  0  0  0  0
  148.6879  139.7061  156.8334 H   0  0  0  0  0  0  0  0  0  0  0  0
  149.4488  140.9567  157.7377 H   0  0  0  0  0  0  0  0  0  0  0  0
  146.8871  140.8293  157.9840 H   0  0  0  0  0  0  0  0  0  0  0  0
  147.5673  142.3974  157.6609 H   0  0  0  0  0  0  0  0  0  0  0  0
  145.6507  142.2159  156.2987 H   0  0  0  0  0  0  0  0  0  0  0  0
  145.4289  139.7064  156.2100 H   0  0  0  0  0  0  0  0  0  0  0  0
  145.0850  140.5444  154.7333 H   0  0  0  0  0  0  0  0  0  0  0  0
  147.4708  138.8156  155.3888 H   0  0  0  0  0  0  0  0  0  0  0  0
  146.4971  138.4012  152.8337 H   0  0  0  0  0  0  0  0  0  0  0  0
  145.2637  137.0039  152.2763 H   0  0  0  0  0  0  0  0  0  0  0  0
  142.1990  137.2115  154.2770 H   0  0  0  0  0  0  0  0  0  0  0  0
  140.3877  135.5258  154.0835 H   0  0  0  0  0  0  0  0  0  0  0  0
  140.8038  133.4521  152.7382 H   0  0  0  0  0  0  0  0  0  0  0  0
  146.4276  134.7097  153.1628 H   0  0  0  0  0  0  0  0  0  0  0  0
  145.5830  133.1621  153.0846 H   0  0  0  0  0  0  0  0  0  0  0  0
  147.8412  134.1468  151.3699 H   0  0  0  0  0  0  0  0  0  0  0  0
  147.4589  132.4945  151.8461 H   0  0  0  0  0  0  0  0  0  0  0  0
  146.7154  133.8988  149.4074 H   0  0  0  0  0  0  0  0  0  0  0  0
  146.2790  132.2408  149.8136 H   0  0  0  0  0  0  0  0  0  0  0  0
  144.1972  132.8789  150.6809 H   0  0  0  0  0  0  0  0  0  0  0  0
  144.4111  134.2920  149.6460 H   0  0  0  0  0  0  0  0  0  0  0  0
  147.4337  140.4623  152.8506 H   0  0  0  0  0  0  0  0  0  0  0  0
  148.7660  139.5962  153.5401 H   0  0  0  0  0  0  0  0  0  0  0  0
  147.6427  143.1363  155.4140 H   0  0  0  0  0  0  0  0  0  0  0  0
  1  2  1  0  0  0  0
  1 26  1  0  0  0  0
  1 27  1  0  0  0  0
  1 28  1  0  0  0  0
  2  7  1  0  0  0  0
  2  3  1  0  0  0  0
  2 55  1  0  0  0  0
  3 25  1  0  0  0  0
  3  4  1  0  0  0  0
  3 29  1  0  0  0  0
  4  5  1  0  0  0  0
  4 30  1  0  0  0  0
  4 31  1  0  0  0  0
  5  6  1  0  0  0  0
  5 32  1  0  0  0  0
  5 33  1  0  0  0  0
  6  7  1  0  0  0  0
  6 34  1  0  0  0  0
  6 35  1  0  0  0  0
  7  8  1  0  0  0  0
  7 36  1  0  0  0  0
  8  9  1  0  0  0  0
  8 37  1  0  0  0  0
  8 38  1  0  0  0  0
  9 10  1  0  0  0  0
  9 25  1  0  0  0  0
  9 39  1  0  0  0  0
 10 11  1  0  0  0  0
 10 40  1  0  0  0  0
 11 12  2  0  0  0  0
 11 13  1  0  0  0  0
 13 14  1  0  0  0  0
 13 41  1  0  0  0  0
 14 19  1  0  0  0  0
 14 15  2  0  0  0  0
 15 16  1  0  0  0  0
 15 42  1  0  0  0  0
 16 17  2  0  0  0  0
 16 43  1  0  0  0  0
 17 18  1  0  0  0  0
 17 44  1  0  0  0  0
 18 19  2  0  0  0  0
 19 20  1  0  0  0  0
 20 24  1  0  0  0  0
 20 21  1  0  0  0  0
 21 22  1  0  0  0  0
 21 45  1  0  0  0  0
 21 46  1  0  0  0  0
 22 23  1  0  0  0  0
 22 47  1  0  0  0  0
 22 48  1  0  0  0  0
 23 24  1  0  0  0  0
 23 49  1  0  0  0  0
 23 50  1  0  0  0  0
 24 51  1  0  0  0  0
 24 52  1  0  0  0  0
 25 53  1  0  0  0  0
 25 54  1  0  0  0  0
M  CHG  1   2   1
M  END
> <s_m_source_file>
AV-unprocessed.smi

> <i_m_source_file_index>
2928

> <i_lp_mmshare_version>
43012

> <i_f3d_flags>
0

> <s_epik_input>
W0NIMl0xW0NIMl1bQ0gyXVtDQEhdKE4oW0NIM10pW0NIXTEyKVtDSDJdW0NASF0oW0NIMl0yKVtOSF1DKD1PKVtOSF1jM1tjSF1bY0hdW2NIXW5jM040W0NIMl1bQ0gyXVtDSDJdW0NIMl00

> <s_epik_cmdline>
J2VwaWtfcHl0aG9uJywgJy1waCcsICc3LjAnLCAnLXRuJywgJzgnLCAnLW1hJywgJzIwMCcsICctbWV0YWxfYmluZGluZycsICctaW1hZScsICc8aW5maWxlLm1hZT4nLCAnLW9tYWUnLCAnPG91dGZpbGUubWFlPic=

> <r_lp_tautomer_probability>
1

> <r_epik_Ionization_Penalty>
0.07954

> <r_epik_Ionization_Penalty_Charging>
0.00089841

> <r_epik_Ionization_Penalty_Neutral>
0.0786416

> <r_epik_State_Penalty>
0.0689917

> <r_epik_Charging_Adjusted_Penalty>
0.0698901

> <i_epik_Tot_Q>
1

> <i_epik_Tot_abs_Q>
1

> <r_epik_Metal_State_Penalty>
0.0608947

> <b_epik_Metal_Only>
0

> <s_lp_Force_Field>
OPLS_2005

> <r_lp_Energy>
65.7965

> <b_lp_Chiralities_Consistent>
1

> <s_lp_Variant>
AV-unprocessed.smi:2928-2

> <Gold.Version>
5.8.1

> <Gold.Id.Protein>
6NUR|6NUR_protein|mol2

> <Gold.PLP.Fitness>
39.4255

> <Gold.PLP.PLP>
-35.5547

> <Gold.PLP.part.hbond>
-1.0000

> <Gold.PLP.part.metal>
0.0000

> <Gold.PLP.part.buried>
-6.9678

> <Gold.PLP.part.nonpolar>
-28.5398

> <Gold.PLP.part.repulsive>
0.5195

> <Gold.PLP.ligand.clash>
0.0000

> <Gold.PLP.ligand.torsion>
1.0797

> <Gold.PLP.Chemscore.Hbond>
2.0000

> <Gold.PLP.Chemscore.CHOScore>
0.0000

> <Gold.PLP.Chemscore.Metal>
0.0000

> <Gold.Chemscore.Hbonds>
donor molecule, donor type, donor heavy atom, donor atom, acceptor molecule, acceptor atom, score
      L1  H     2    55       P1  8028  2.00

> <Gold.PLP.Chemscore.Internal.Correction>
0.0301

> <Gold.Rescore>
     Score         DG    S(hbond)    S(metal)    S(lipo)     H(rot)  DE(clash)    DE(int)     intcor
     12.23     -15.28       0.94        0.00      82.77       1.18       0.03       3.02       ----

> <Gold.Chemscore.Fitness>
12.2293

> <Gold.Chemscore.DG>
-15.2816

> <Gold.Chemscore.ZeroCoef>
-5.4800

> <Gold.Chemscore.Hbond>
0.9378

> <Gold.Chemscore.Metal>
0.0000

> <Gold.Chemscore.Lipo>
82.7698

> <Gold.Chemscore.Internal_Hbond>
0.0000

> <Gold.Chemscore.DEClash>
0.0323

> <Gold.Chemscore.DEInternal>
3.0199

> <Gold.Chemscore.Rot>
1.1776

> <Gold.Chemscore.Internal.Correction>
   9.000000E+99

> <Gold.Chemscore.Hbonds>
donor molecule, donor type, donor heavy atom, donor atom, acceptor molecule, acceptor atom, score
      L1  H     2    55       P1  8028  0.33

> <Gold.Chemscore.Hbond.Weighted>
-3.1322

> <Gold.Chemscore.Metal.Weighted>
-0.0000

> <Gold.Chemscore.Lipo.Weighted>
-9.6841

> <Gold.Chemscore.Internal_Hbond.Weighted>
0.0000

> <Gold.Chemscore.DEClash.Weighted>
0.0323

> <Gold.Chemscore.DEInternal.Weighted>
3.0199

> <Gold.Chemscore.Rot.Weighted>
3.0147

> <Gold.Chemscore.Internal.Correction.Weighted>
   9.000000E+99

> <Gold.Protein.RotatedTorsions>
[ 6907 6896 6895 6894 ] final  154.97 input  -60.11 | X-H torsion
[ 7974 7965 7964 7962 ] final  165.56 input  175.53 | X-H torsion
[ 8008 7997 7996 7995 ] final -166.79 input   59.86 | X-H torsion
[ 10167 10162 10161 10158 ] final  -85.06 input  -65.29 | X-H torsion
[ 10718 10713 10712 10709 ] final  -93.59 input   66.30 | X-H torsion
[ 10763 10752 10751 10750 ] final  -42.18 input  -60.55 | X-H torsion
[ 11005 11000 10999 10996 ] final   97.70 input  -57.11 | X-H torsion

> <Gold.Protein.ActiveResidues>
 VAL166  LYS551  ARG553  GLY616  TRP617  ASP618  TYR619  PRO620  LYS621  CYS622 
 ASP623  PHE694  ASN695  SER759  ASP760  ASP761  ALA762  ILE779  LEU786  VAL792 
 PHE793  MET794  SER795  GLU796  ALA797  LYS798  CYS799  TRP800  GLU811  SER814 

> <Gold.Protein.RotatedAtoms>
  152.0508  133.4018  159.4375 H   0  0  0  0  0  0  0  0  0  0  0  0  # atno 6907 bound_to 6896
  150.6870  134.3310  159.4836 H   0  0  0  0  0  0  0  0  0  0  0  0  # atno 6908 bound_to 6896
  152.1120  134.9267  160.0617 H   0  0  0  0  0  0  0  0  0  0  0  0  # atno 6909 bound_to 6896
  144.7498  139.8487  143.6370 H   0  0  0  0  0  0  0  0  0  0  0  0  # atno 7974 bound_to 7965
  155.8688  140.0990  157.1564 H   0  0  0  0  0  0  0  0  0  0  0  0  # atno 8008 bound_to 7997
  154.3995  140.1351  156.4115 H   0  0  0  0  0  0  0  0  0  0  0  0  # atno 8009 bound_to 7997
  155.7774  140.3459  155.5281 H   0  0  0  0  0  0  0  0  0  0  0  0  # atno 8010 bound_to 7997
  140.4074  143.2637  151.9063 H   0  0  0  0  0  0  0  0  0  0  0  0  # atno 10167 bound_to 10162
  156.0015  130.5033  150.5799 H   0  0  0  0  0  0  0  0  0  0  0  0  # atno 10718 bound_to 10713
  153.9748  135.6724  153.4748 H   0  0  0  0  0  0  0  0  0  0  0  0  # atno 10763 bound_to 10752
  153.0776  135.4940  154.8433 H   0  0  0  0  0  0  0  0  0  0  0  0  # atno 10764 bound_to 10752
  154.7198  135.3115  154.9026 H   0  0  0  0  0  0  0  0  0  0  0  0  # atno 10765 bound_to 10752
  139.8775  134.9013  156.4346 H   0  0  0  0  0  0  0  0  0  0  0  0  # atno 11005 bound_to 11000
  146.1431  139.4493  143.0096 LP  0  0  0  0  0  0  0  0  0  0  0  0  # atno 17320 bound_to 7965
  145.6987  141.0142  143.1516 LP  0  0  0  0  0  0  0  0  0  0  0  0  # atno 17321 bound_to 7965
  139.4783  144.5572  151.8295 LP  0  0  0  0  0  0  0  0  0  0  0  0  # atno 17342 bound_to 10162
  140.4675  144.1634  150.5913 LP  0  0  0  0  0  0  0  0  0  0  0  0  # atno 17343 bound_to 10162
  157.3680  131.0761  151.1581 LP  0  0  0  0  0  0  0  0  0  0  0  0  # atno 17370 bound_to 10713
  157.2344  130.6540  149.5863 LP  0  0  0  0  0  0  0  0  0  0  0  0  # atno 17371 bound_to 10713
  140.9042  133.7757  155.9716 LP  0  0  0  0  0  0  0  0  0  0  0  0  # atno 17394 bound_to 11000
  140.8617  134.2832  157.5231 LP  0  0  0  0  0  0  0  0  0  0  0  0  # atno 17395 bound_to 11000

$$$$
