AV-unprocessed.smi:2710|AV-procd|sdf|10471|dock5
  -GOLD-   2272014513D 1   1.00000     0.00000
 Structure written by MMmdl.
 53 54  0  0  0  0  0  0  0  0  2 V2000
  145.5098  134.7297  151.8175 C   0  0  0  0  0  0  0  0  0  0  0  0
  146.3339  133.9455  152.8521 C   0  0  0  0  0  0  0  0  0  0  0  0
  147.3455  134.7800  153.5639 N   0  3  1  0  0  0  0  0  0  0  0  0
  146.7092  135.8993  154.3171 C   0  0  0  0  0  0  0  0  0  0  0  0
  147.7473  136.8363  154.9506 C   0  0  0  0  0  0  0  0  0  0  0  0
  148.6843  136.0623  155.8817 C   0  0  2  0  0  0  0  0  0  0  0  0
  149.6941  136.9628  156.4309 N   0  0  0  0  0  0  0  0  0  0  0  0
  149.4572  138.1980  156.8954 C   0  0  0  0  0  0  0  0  0  0  0  0
  148.3360  138.7031  156.9309 O   0  0  0  0  0  0  0  0  0  0  0  0
  150.5907  138.7820  157.3190 N   0  0  0  0  0  0  0  0  0  0  0  0
  150.7727  140.0831  157.8613 C   0  0  0  0  0  0  0  0  0  0  0  0
  149.7562  141.0536  158.0307 C   0  0  0  0  0  0  0  0  0  0  0  0
  150.0214  142.2753  158.5402 N   0  0  0  0  0  0  0  0  0  0  0  0
  151.2804  142.5386  158.9135 C   0  0  0  0  0  0  0  0  0  0  0  0
  151.5965  143.9794  159.3517 C   0  0  0  0  0  0  0  0  0  0  0  0
  152.5486  144.6712  158.3477 C   0  0  0  0  0  0  0  0  0  0  0  0
  152.3263  143.9985  160.7156 C   0  0  0  0  0  0  0  0  0  0  0  0
  150.2869  144.7823  159.4563 C   0  0  0  0  0  0  0  0  0  0  0  0
  152.3194  141.7092  158.7496 N   0  0  0  0  0  0  0  0  0  0  0  0
  152.0690  140.4846  158.2411 C   0  0  0  0  0  0  0  0  0  0  0  0
  149.3310  134.9170  155.0878 C   0  0  0  0  0  0  0  0  0  0  0  0
  148.2777  133.9935  154.4370 C   0  0  2  0  0  0  0  0  0  0  0  0
  149.0116  132.8626  153.6866 C   0  0  0  0  0  0  0  0  0  0  0  0
  144.9098  134.0475  151.2146 H   0  0  0  0  0  0  0  0  0  0  0  0
  146.1550  135.2866  151.1373 H   0  0  0  0  0  0  0  0  0  0  0  0
  144.8159  135.4298  152.2814 H   0  0  0  0  0  0  0  0  0  0  0  0
  145.6762  133.4598  153.5744 H   0  0  0  0  0  0  0  0  0  0  0  0
  146.8232  133.1503  152.2948 H   0  0  0  0  0  0  0  0  0  0  0  0
  146.0840  136.5008  153.6597 H   0  0  0  0  0  0  0  0  0  0  0  0
  146.0539  135.4917  155.0886 H   0  0  0  0  0  0  0  0  0  0  0  0
  148.3216  137.3291  154.1643 H   0  0  0  0  0  0  0  0  0  0  0  0
  147.2386  137.6265  155.5045 H   0  0  0  0  0  0  0  0  0  0  0  0
  148.0959  135.6464  156.7022 H   0  0  0  0  0  0  0  0  0  0  0  0
  150.6461  136.6268  156.4446 H   0  0  0  0  0  0  0  0  0  0  0  0
  151.4249  138.2151  157.2738 H   0  0  0  0  0  0  0  0  0  0  0  0
  148.7296  140.8864  157.7460 H   0  0  0  0  0  0  0  0  0  0  0  0
  152.8136  145.6757  158.6795 H   0  0  0  0  0  0  0  0  0  0  0  0
  152.0965  144.7760  157.3608 H   0  0  0  0  0  0  0  0  0  0  0  0
  153.4763  144.1101  158.2289 H   0  0  0  0  0  0  0  0  0  0  0  0
  153.2484  143.4170  160.6812 H   0  0  0  0  0  0  0  0  0  0  0  0
  151.7078  143.5911  161.5163 H   0  0  0  0  0  0  0  0  0  0  0  0
  152.5909  145.0146  161.0102 H   0  0  0  0  0  0  0  0  0  0  0  0
  150.4739  145.8112  159.7656 H   0  0  0  0  0  0  0  0  0  0  0  0
  149.6074  144.3379  160.1846 H   0  0  0  0  0  0  0  0  0  0  0  0
  149.7657  144.8160  158.4989 H   0  0  0  0  0  0  0  0  0  0  0  0
  152.9154  139.8224  158.1321 H   0  0  0  0  0  0  0  0  0  0  0  0
  149.9839  135.3279  154.3157 H   0  0  0  0  0  0  0  0  0  0  0  0
  149.9712  134.3313  155.7490 H   0  0  0  0  0  0  0  0  0  0  0  0
  147.6865  133.5387  155.2337 H   0  0  0  0  0  0  0  0  0  0  0  0
  149.7909  132.4241  154.3109 H   0  0  0  0  0  0  0  0  0  0  0  0
  149.4885  133.2298  152.7772 H   0  0  0  0  0  0  0  0  0  0  0  0
  148.3473  132.0416  153.4193 H   0  0  0  0  0  0  0  0  0  0  0  0
  147.9193  135.2013  152.8473 H   0  0  0  0  0  0  0  0  0  0  0  0
  1  2  1  0  0  0  0
  1 24  1  0  0  0  0
  1 25  1  0  0  0  0
  1 26  1  0  0  0  0
  2  3  1  0  0  0  0
  2 27  1  0  0  0  0
  2 28  1  0  0  0  0
  3 22  1  0  0  0  0
  3  4  1  0  0  0  0
  3 53  1  0  0  0  0
  4  5  1  0  0  0  0
  4 29  1  0  0  0  0
  4 30  1  0  0  0  0
  5  6  1  0  0  0  0
  5 31  1  0  0  0  0
  5 32  1  0  0  0  0
  6  7  1  0  0  0  0
  6 21  1  0  0  0  0
  6 33  1  0  0  0  0
  7  8  1  0  0  0  0
  7 34  1  0  0  0  0
  8  9  2  0  0  0  0
  8 10  1  0  0  0  0
 10 11  1  0  0  0  0
 10 35  1  0  0  0  0
 11 20  1  0  0  0  0
 11 12  2  0  0  0  0
 12 13  1  0  0  0  0
 12 36  1  0  0  0  0
 13 14  2  0  0  0  0
 14 15  1  0  0  0  0
 14 19  1  0  0  0  0
 15 16  1  0  0  0  0
 15 17  1  0  0  0  0
 15 18  1  0  0  0  0
 16 37  1  0  0  0  0
 16 38  1  0  0  0  0
 16 39  1  0  0  0  0
 17 40  1  0  0  0  0
 17 41  1  0  0  0  0
 17 42  1  0  0  0  0
 18 43  1  0  0  0  0
 18 44  1  0  0  0  0
 18 45  1  0  0  0  0
 19 20  2  0  0  0  0
 20 46  1  0  0  0  0
 21 22  1  0  0  0  0
 21 47  1  0  0  0  0
 21 48  1  0  0  0  0
 22 23  1  0  0  0  0
 22 49  1  0  0  0  0
 23 50  1  0  0  0  0
 23 51  1  0  0  0  0
 23 52  1  0  0  0  0
M  CHG  1   3   1
M  END
> <s_m_source_file>
AV-unprocessed.smi

> <i_m_source_file_index>
2710

> <i_lp_mmshare_version>
43012

> <i_f3d_flags>
0

> <s_epik_input>
W0NIM11bQ0gyXU4xW0NIMl1bQ0gyXVtDQEhdKFtDSDJdW0NASF0xW0NIM10pW05IXUMoPU8pW05IXWMyW2NIXW5jKEMoW0NIM10pKFtDSDNdKVtDSDNdKW5bY0hdMg==

> <s_epik_cmdline>
J2VwaWtfcHl0aG9uJywgJy1waCcsICc3LjAnLCAnLXRuJywgJzgnLCAnLW1hJywgJzIwMCcsICctbWV0YWxfYmluZGluZycsICctaW1hZScsICc8aW5maWxlLm1hZT4nLCAnLW9tYWUnLCAnPG91dGZpbGUubWFlPic=

> <r_lp_tautomer_probability>
1

> <r_epik_Ionization_Penalty>
0.00396003

> <r_epik_Ionization_Penalty_Charging>
0.0039379

> <r_epik_Ionization_Penalty_Neutral>
2.21316e-05

> <r_epik_State_Penalty>
0.00281651

> <r_epik_Charging_Adjusted_Penalty>
0.00675441

> <i_epik_Tot_Q>
1

> <i_epik_Tot_abs_Q>
1

> <r_epik_Metal_State_Penalty>
-0

> <b_epik_Metal_Only>
0

> <s_lp_Force_Field>
OPLS_2005

> <r_lp_Energy>
20.1014

> <b_lp_Chiralities_Consistent>
1

> <s_lp_Variant>
AV-unprocessed.smi:2710-8

> <Gold.Version>
5.8.1

> <Gold.Id.Protein>
6NUR|6NUR_protein|mol2

> <Gold.PLP.Fitness>
39.9753

> <Gold.PLP.PLP>
-34.4807

> <Gold.PLP.part.hbond>
-1.0000

> <Gold.PLP.part.metal>
0.0000

> <Gold.PLP.part.buried>
-5.9631

> <Gold.PLP.part.nonpolar>
-27.9344

> <Gold.PLP.part.repulsive>
0.0914

> <Gold.PLP.ligand.clash>
0.0000

> <Gold.PLP.ligand.torsion>
0.3360

> <Gold.PLP.Chemscore.Hbond>
2.0000

> <Gold.PLP.Chemscore.CHOScore>
0.0000

> <Gold.PLP.Chemscore.Metal>
0.0000

> <Gold.Chemscore.Hbonds>
donor molecule, donor type, donor heavy atom, donor atom, acceptor molecule, acceptor atom, score
      L1  H     3    53       P1  7948  2.00

> <Gold.PLP.Chemscore.Internal.Correction>
0.1667

> <Gold.Rescore>
     Score         DG    S(hbond)    S(metal)    S(lipo)     H(rot)  DE(clash)    DE(int)     intcor
     13.37     -16.00       0.98        0.00      90.52       1.31       0.01       2.62       ----

> <Gold.Chemscore.Fitness>
13.3726

> <Gold.Chemscore.DG>
-16.0022

> <Gold.Chemscore.ZeroCoef>
-5.4800

> <Gold.Chemscore.Hbond>
0.9820

> <Gold.Chemscore.Metal>
0.0000

> <Gold.Chemscore.Lipo>
90.5233

> <Gold.Chemscore.Internal_Hbond>
0.0000

> <Gold.Chemscore.DEClash>
0.0096

> <Gold.Chemscore.DEInternal>
2.6199

> <Gold.Chemscore.Rot>
1.3081

> <Gold.Chemscore.Internal.Correction>
   9.000000E+99

> <Gold.Chemscore.Hbonds>
donor molecule, donor type, donor heavy atom, donor atom, acceptor molecule, acceptor atom, score
      L1  H     3    53       P1  7948  1.00

> <Gold.Chemscore.Hbond.Weighted>
-3.2798

> <Gold.Chemscore.Metal.Weighted>
-0.0000

> <Gold.Chemscore.Lipo.Weighted>
-10.5912

> <Gold.Chemscore.Internal_Hbond.Weighted>
0.0000

> <Gold.Chemscore.DEClash.Weighted>
0.0096

> <Gold.Chemscore.DEInternal.Weighted>
2.6199

> <Gold.Chemscore.Rot.Weighted>
3.3488

> <Gold.Chemscore.Internal.Correction.Weighted>
   9.000000E+99

> <Gold.Protein.RotatedTorsions>
[ 6907 6896 6895 6894 ] final  145.51 input  -60.11 | X-H torsion
[ 7974 7965 7964 7962 ] final  -34.45 input  175.53 | X-H torsion
[ 8008 7997 7996 7995 ] final  126.12 input   59.86 | X-H torsion
[ 10167 10162 10161 10158 ] final  129.70 input  -65.29 | X-H torsion
[ 10718 10713 10712 10709 ] final -120.50 input   66.30 | X-H torsion
[ 10763 10752 10751 10750 ] final  -90.03 input  -60.55 | X-H torsion
[ 11005 11000 10999 10996 ] final  109.63 input  -57.11 | X-H torsion

> <Gold.Protein.ActiveResidues>
 VAL166  LYS551  ARG553  GLY616  TRP617  ASP618  TYR619  PRO620  LYS621  CYS622 
 ASP623  PHE694  ASN695  SER759  ASP760  ASP761  ALA762  ILE779  LEU786  VAL792 
 PHE793  MET794  SER795  GLU796  ALA797  LYS798  CYS799  TRP800  GLU811  SER814 

> <Gold.Protein.RotatedAtoms>
  152.1800  133.4701  159.4952 H   0  0  0  0  0  0  0  0  0  0  0  0  # atno 6907 bound_to 6896
  150.6933  134.1845  159.4270 H   0  0  0  0  0  0  0  0  0  0  0  0  # atno 6908 bound_to 6896
  151.9756  135.0054  160.0605 H   0  0  0  0  0  0  0  0  0  0  0  0  # atno 6909 bound_to 6896
  146.0828  140.6040  142.8900 H   0  0  0  0  0  0  0  0  0  0  0  0  # atno 7974 bound_to 7965
  156.2854  140.2700  156.2059 H   0  0  0  0  0  0  0  0  0  0  0  0  # atno 8008 bound_to 7997
  155.0313  140.0386  157.2493 H   0  0  0  0  0  0  0  0  0  0  0  0  # atno 8009 bound_to 7997
  154.7352  140.2714  155.6426 H   0  0  0  0  0  0  0  0  0  0  0  0  # atno 8010 bound_to 7997
  139.5465  144.6777  151.4457 H   0  0  0  0  0  0  0  0  0  0  0  0  # atno 10167 bound_to 10162
  156.1263  130.6361  150.9548 H   0  0  0  0  0  0  0  0  0  0  0  0  # atno 10718 bound_to 10713
  154.6615  135.5319  153.8024 H   0  0  0  0  0  0  0  0  0  0  0  0  # atno 10763 bound_to 10752
  153.0445  135.6507  154.0864 H   0  0  0  0  0  0  0  0  0  0  0  0  # atno 10764 bound_to 10752
  154.0773  135.2949  155.3277 H   0  0  0  0  0  0  0  0  0  0  0  0  # atno 10765 bound_to 10752
  139.8866  134.9463  156.6156 H   0  0  0  0  0  0  0  0  0  0  0  0  # atno 11005 bound_to 11000
  144.7305  140.4656  143.6941 LP  0  0  0  0  0  0  0  0  0  0  0  0  # atno 17320 bound_to 7965
  145.6186  139.1521  143.3035 LP  0  0  0  0  0  0  0  0  0  0  0  0  # atno 17321 bound_to 7965
  140.6714  143.8284  150.7005 LP  0  0  0  0  0  0  0  0  0  0  0  0  # atno 17342 bound_to 10162
  140.1710  143.4195  152.2001 LP  0  0  0  0  0  0  0  0  0  0  0  0  # atno 17343 bound_to 10162
  157.6444  131.0906  150.8184 LP  0  0  0  0  0  0  0  0  0  0  0  0  # atno 17370 bound_to 10713
  156.8274  130.5004  149.5335 LP  0  0  0  0  0  0  0  0  0  0  0  0  # atno 17371 bound_to 10713
  140.7778  133.8685  155.8543 LP  0  0  0  0  0  0  0  0  0  0  0  0  # atno 17394 bound_to 11000
  140.9786  134.1435  157.4514 LP  0  0  0  0  0  0  0  0  0  0  0  0  # atno 17395 bound_to 11000

$$$$
