AV-unprocessed.smi:54|AV-procd|sdf|534|dock1
  -GOLD-   2262016413D 1   1.00000     0.00000
 Structure written by MMmdl.
 44 46  0  0  0  0  0  0  0  0  1 V2000
  152.4875  142.2719  161.0766 C   0  0  0  0  0  0  0  0  0  0  0  0
  152.7000  142.9398  159.7082 C   0  0  0  0  0  0  0  0  0  0  0  0
  152.0988  144.3545  159.6785 C   0  0  0  0  0  0  0  0  0  0  0  0
  152.1085  142.0754  158.5887 C   0  0  0  0  0  0  0  0  0  0  0  0
  151.2778  142.5168  157.7936 O   0  0  0  0  0  0  0  0  0  0  0  0
  152.5903  140.7059  158.5390 N   0  0  0  0  0  0  0  0  0  0  0  0
  152.2274  139.7355  157.6679 C   0  0  0  0  0  0  0  0  0  0  0  0
  151.1496  139.8138  156.8999 N   0  0  0  0  0  0  0  0  0  0  0  0
  150.9493  138.7314  156.0893 C   0  0  0  0  0  0  0  0  0  0  0  0
  151.7450  137.6088  156.0029 C   0  0  0  0  0  0  0  0  0  0  0  0
  151.2193  136.7208  155.0711 N   0  0  0  0  0  0  0  0  0  0  0  0
  150.1449  137.3180  154.6346 C   0  0  0  0  0  0  0  0  0  0  0  0
  149.9046  138.5444  155.2105 N   0  0  0  0  0  0  0  0  0  0  0  0
  148.7894  139.5172  154.9660 C   0  0  1  0  0  0  0  0  0  0  0  0
  148.5622  139.5943  153.5910 O   0  0  0  0  0  0  0  0  0  0  0  0
  147.4203  138.8171  153.2497 C   0  0  2  0  0  0  0  0  0  0  0  0
  146.8559  139.2238  151.8779 C   0  0  0  0  0  0  0  0  0  0  0  0
  146.4377  138.0772  151.1688 O   0  0  0  0  0  0  0  0  0  0  0  0
  146.4926  139.0608  154.4461 C   0  0  2  0  0  0  0  0  0  0  0  0
  145.8287  140.3060  154.3263 O   0  0  0  0  0  0  0  0  0  0  0  0
  147.4576  139.0789  155.6260 C   0  0  1  0  0  0  0  0  0  0  0  0
  147.5015  137.7952  156.2258 O   0  0  0  0  0  0  0  0  0  0  0  0
  152.9188  137.5118  156.8217 C   0  0  0  0  0  0  0  0  0  0  0  0
  153.7376  136.5968  156.8745 O   0  0  0  0  0  0  0  0  0  0  0  0
  153.0875  138.6374  157.6391 N   0  0  0  0  0  0  0  0  0  0  0  0
  149.1707  140.4693  155.3375 H   0  0  0  0  0  0  0  0  0  0  0  0
  147.6937  137.7602  153.2427 H   0  0  0  0  0  0  0  0  0  0  0  0
  145.7330  138.2824  154.5347 H   0  0  0  0  0  0  0  0  0  0  0  0
  147.1684  139.8050  156.3871 H   0  0  0  0  0  0  0  0  0  0  0  0
  152.9026  141.2634  161.0945 H   0  0  0  0  0  0  0  0  0  0  0  0
  151.4287  142.2011  161.3289 H   0  0  0  0  0  0  0  0  0  0  0  0
  152.9776  142.8403  161.8675 H   0  0  0  0  0  0  0  0  0  0  0  0
  153.7745  143.0261  159.5401 H   0  0  0  0  0  0  0  0  0  0  0  0
  152.2512  144.8303  158.7091 H   0  0  0  0  0  0  0  0  0  0  0  0
  152.5645  144.9913  160.4312 H   0  0  0  0  0  0  0  0  0  0  0  0
  151.0264  144.3397  159.8782 H   0  0  0  0  0  0  0  0  0  0  0  0
  153.2641  140.4500  159.2456 H   0  0  0  0  0  0  0  0  0  0  0  0
  149.5070  136.8769  153.8826 H   0  0  0  0  0  0  0  0  0  0  0  0
  145.9838  139.8656  152.0063 H   0  0  0  0  0  0  0  0  0  0  0  0
  147.5889  139.7817  151.2943 H   0  0  0  0  0  0  0  0  0  0  0  0
  145.6851  138.3060  150.6453 H   0  0  0  0  0  0  0  0  0  0  0  0
  145.1179  140.2089  153.7112 H   0  0  0  0  0  0  0  0  0  0  0  0
  147.0328  137.1916  155.6697 H   0  0  0  0  0  0  0  0  0  0  0  0
  153.8933  138.6350  158.2471 H   0  0  0  0  0  0  0  0  0  0  0  0
  1  2  1  0  0  0  0
  1 30  1  0  0  0  0
  1 31  1  0  0  0  0
  1 32  1  0  0  0  0
  2  3  1  0  0  0  0
  2  4  1  0  0  0  0
  2 33  1  0  0  0  0
  3 34  1  0  0  0  0
  3 35  1  0  0  0  0
  3 36  1  0  0  0  0
  4  5  2  0  0  0  0
  4  6  1  0  0  0  0
  6 37  1  0  0  0  0
  6  7  1  0  0  0  0
  7 25  1  0  0  0  0
  7  8  2  0  0  0  0
  8  9  1  0  0  0  0
  9 13  1  0  0  0  0
  9 10  2  0  0  0  0
 10 11  1  0  0  0  0
 10 23  1  0  0  0  0
 11 12  2  0  0  0  0
 12 13  1  0  0  0  0
 12 38  1  0  0  0  0
 13 14  1  0  0  0  0
 14 26  1  0  0  0  0
 14 21  1  0  0  0  0
 14 15  1  0  0  0  0
 15 16  1  0  0  0  0
 16 27  1  0  0  0  0
 16 17  1  0  0  0  0
 16 19  1  0  0  0  0
 17 18  1  0  0  0  0
 17 39  1  0  0  0  0
 17 40  1  0  0  0  0
 18 41  1  0  0  0  0
 19 28  1  0  0  0  0
 19 20  1  0  0  0  0
 19 21  1  0  0  0  0
 20 42  1  0  0  0  0
 21 29  1  0  0  0  0
 21 22  1  0  0  0  0
 22 43  1  0  0  0  0
 23 24  2  0  0  0  0
 23 25  1  0  0  0  0
 25 44  1  0  0  0  0
M  END
> <s_m_source_file>
AV-unprocessed.smi

> <i_m_source_file_index>
54

> <i_lp_mmshare_version>
43012

> <i_f3d_flags>
0

> <s_epik_input>
W0NIM11bQ0hdKFtDSDNdKUMoPU8pW05IXWMobjEpW25IXWMoPU8pYyhjMTIpbltjSF1uMltDQEBIXTNPW0NASF0oW0NIMl1bT0hdKVtDQEBIXShbT0hdKVtDQEhdM1tPSF0=

> <s_epik_cmdline>
J2VwaWtfcHl0aG9uJywgJy1waCcsICc3LjAnLCAnLXRuJywgJzgnLCAnLW1hJywgJzIwMCcsICctbWV0YWxfYmluZGluZycsICctaW1hZScsICc8aW5maWxlLm1hZT4nLCAnLW9tYWUnLCAnPG91dGZpbGUubWFlPic=

> <r_lp_tautomer_probability>
0.85571

> <r_epik_Ionization_Penalty>
0.0316551

> <r_epik_Ionization_Penalty_Charging>
0.0316043

> <r_epik_Ionization_Penalty_Neutral>
5.07097e-05

> <r_epik_State_Penalty>
3.15494e-07

> <r_epik_Charging_Adjusted_Penalty>
0.0316047

> <i_epik_Tot_Q>
0

> <i_epik_Tot_abs_Q>
0

> <r_epik_Metal_State_Penalty>
0.421206

> <b_epik_Metal_Only>
0

> <s_epik_Chemistry_Notes>
This compound contains an acetal/aminal-like group ( X-CH(R)-Y where X, Y are N, S, or O) that may be acid/base labile, releasing an aldehyde.

> <s_lp_Force_Field>
OPLS_2005

> <r_lp_Energy>
41.1485

> <b_lp_Chiralities_Consistent>
1

> <s_lp_Variant>
AV-unprocessed.smi:54-6

> <Gold.Version>
5.8.1

> <Gold.Id.Protein>
6NUR|6NUR_protein|mol2

> <Gold.PLP.Fitness>
45.3692

> <Gold.PLP.PLP>
-30.7592

> <Gold.PLP.part.hbond>
-5.6847

> <Gold.PLP.part.metal>
0.0000

> <Gold.PLP.part.buried>
-2.6945

> <Gold.PLP.part.nonpolar>
-27.6515

> <Gold.PLP.part.repulsive>
4.9439

> <Gold.PLP.ligand.clash>
0.0000

> <Gold.PLP.ligand.torsion>
1.0834

> <Gold.PLP.Chemscore.Hbond>
4.5475

> <Gold.PLP.Chemscore.CHOScore>
1.0000

> <Gold.PLP.Chemscore.Metal>
0.0000

> <Gold.Chemscore.Hbonds>
donor molecule, donor type, donor heavy atom, donor atom, acceptor molecule, acceptor atom, score
      L1  H    18    41       P1 10171  1.00
      L1  H    20    42       P1 10175  1.00
      P1  H  7954  7966       L1    18  0.61
      P1  H 10752 10763       L1    24  0.74
      P1  H 10752 10765       L1    11  0.55
      L1  C    12    38       P1  7948  1.00

> <Gold.PLP.Chemscore.Internal.Correction>
0.1343

> <Gold.Rescore>
     Score         DG    S(hbond)    S(metal)    S(lipo)     H(rot)  DE(clash)    DE(int)     intcor
      8.13     -12.33       3.06        0.00      59.74       4.05       1.77       2.44       ----

> <Gold.Chemscore.Fitness>
8.1257

> <Gold.Chemscore.DG>
-12.3343

> <Gold.Chemscore.ZeroCoef>
-5.4800

> <Gold.Chemscore.Hbond>
3.0631

> <Gold.Chemscore.Metal>
0.0000

> <Gold.Chemscore.Lipo>
59.7424

> <Gold.Chemscore.Internal_Hbond>
0.0000

> <Gold.Chemscore.DEClash>
1.7700

> <Gold.Chemscore.DEInternal>
2.4385

> <Gold.Chemscore.Rot>
4.0493

> <Gold.Chemscore.Internal.Correction>
   9.000000E+99

> <Gold.Chemscore.Hbonds>
donor molecule, donor type, donor heavy atom, donor atom, acceptor molecule, acceptor atom, score
      L1  H    18    41       P1 10171  0.96
      L1  H    20    42       P1 10175  1.00
      P1  H  7954  7966       L1    18  0.09
      P1  H 10752 10763       L1    24  0.69
      P1  H 10752 10765       L1    11  0.26

> <Gold.Chemscore.Hbond.Weighted>
-10.2306

> <Gold.Chemscore.Metal.Weighted>
-0.0000

> <Gold.Chemscore.Lipo.Weighted>
-6.9899

> <Gold.Chemscore.Internal_Hbond.Weighted>
0.0000

> <Gold.Chemscore.DEClash.Weighted>
1.7700

> <Gold.Chemscore.DEInternal.Weighted>
2.4385

> <Gold.Chemscore.Rot.Weighted>
10.3662

> <Gold.Chemscore.Internal.Correction.Weighted>
   9.000000E+99

> <Gold.Protein.RotatedTorsions>
[ 6907 6896 6895 6894 ] final  -32.27 input  -60.11 | X-H torsion
[ 7974 7965 7964 7962 ] final -147.04 input  175.53 | X-H torsion
[ 8008 7997 7996 7995 ] final  -24.97 input   59.86 | X-H torsion
[ 10167 10162 10161 10158 ] final  142.31 input  -65.29 | X-H torsion
[ 10718 10713 10712 10709 ] final   -2.73 input   66.30 | X-H torsion
[ 10763 10752 10751 10750 ] final  155.96 input  -60.55 | X-H torsion
[ 11005 11000 10999 10996 ] final    4.22 input  -57.11 | X-H torsion

> <Gold.Protein.ActiveResidues>
 VAL166  LYS551  ARG553  GLY616  TRP617  ASP618  TYR619  PRO620  LYS621  CYS622 
 ASP623  PHE694  ASN695  SER759  ASP760  ASP761  ALA762  ILE779  LEU786  VAL792 
 PHE793  MET794  SER795  GLU796  ALA797  LYS798  CYS799  TRP800  GLU811  SER814 

> <Gold.Protein.RotatedAtoms>
  151.0810  134.9858  159.8355 H   0  0  0  0  0  0  0  0  0  0  0  0  # atno 6907 bound_to 6896
  152.5419  134.2182  159.8787 H   0  0  0  0  0  0  0  0  0  0  0  0  # atno 6908 bound_to 6896
  151.2212  133.4458  159.2634 H   0  0  0  0  0  0  0  0  0  0  0  0  # atno 6909 bound_to 6896
  144.8119  140.5378  143.5636 H   0  0  0  0  0  0  0  0  0  0  0  0  # atno 7974 bound_to 7965
  154.4500  140.1939  156.0547 H   0  0  0  0  0  0  0  0  0  0  0  0  # atno 8008 bound_to 7997
  156.0628  140.3294  155.7455 H   0  0  0  0  0  0  0  0  0  0  0  0  # atno 8009 bound_to 7997
  155.5385  140.0584  157.2865 H   0  0  0  0  0  0  0  0  0  0  0  0  # atno 8010 bound_to 7997
  139.4997  144.6115  151.6260 H   0  0  0  0  0  0  0  0  0  0  0  0  # atno 10167 bound_to 10162
  156.7865  130.5347  149.5742 H   0  0  0  0  0  0  0  0  0  0  0  0  # atno 10718 bound_to 10713
  154.1767  135.2801  155.3065 H   0  0  0  0  0  0  0  0  0  0  0  0  # atno 10763 bound_to 10752
  154.6034  135.5522  153.7401 H   0  0  0  0  0  0  0  0  0  0  0  0  # atno 10764 bound_to 10752
  153.0149  135.6397  154.1906 H   0  0  0  0  0  0  0  0  0  0  0  0  # atno 10765 bound_to 10752
  140.5844  133.9983  155.8061 H   0  0  0  0  0  0  0  0  0  0  0  0  # atno 11005 bound_to 11000
  145.5303  139.1475  143.3503 LP  0  0  0  0  0  0  0  0  0  0  0  0  # atno 17320 bound_to 7965
  146.2419  140.5444  142.8930 LP  0  0  0  0  0  0  0  0  0  0  0  0  # atno 17321 bound_to 7965
  140.5791  143.9976  150.6258 LP  0  0  0  0  0  0  0  0  0  0  0  0  # atno 17342 bound_to 10162
  140.3120  143.3192  152.0870 LP  0  0  0  0  0  0  0  0  0  0  0  0  # atno 17343 bound_to 10162
  156.1186  130.6093  151.0158 LP  0  0  0  0  0  0  0  0  0  0  0  0  # atno 17370 bound_to 10713
  157.6621  131.0879  150.7813 LP  0  0  0  0  0  0  0  0  0  0  0  0  # atno 17371 bound_to 10713
  141.0976  133.9819  157.3134 LP  0  0  0  0  0  0  0  0  0  0  0  0  # atno 17394 bound_to 11000
  139.9302  135.0200  156.8375 LP  0  0  0  0  0  0  0  0  0  0  0  0  # atno 17395 bound_to 11000

$$$$
