AV-unprocessed.smi:1607|AV-procd|sdf|6463|dock1
  -GOLD-   22720 7113D 1   1.00000     0.00000
 Structure written by MMmdl.
 39 40  0  0  0  0  0  0  0  0  2 V2000
  147.1969  140.8928  153.5012 C   0  0  0  0  0  0  0  0  0  0  0  0
  148.1672  141.5371  154.5016 C   0  0  2  0  0  0  0  0  0  0  0  0
  149.4908  140.7578  154.5810 C   0  0  0  0  0  0  0  0  0  0  0  0
  150.4278  141.4058  155.6074 C   0  0  0  0  0  0  0  0  0  0  0  0
  149.7411  141.5274  156.9765 C   0  0  0  0  0  0  0  0  0  0  0  0
  148.4707  142.2906  156.8721 N   0  3  2  0  0  0  0  0  0  0  0  0
  147.8568  142.5378  158.2010 C   0  0  0  0  0  0  0  0  0  0  0  0
  146.3382  142.7847  158.1113 C   0  0  0  0  0  0  0  0  0  0  0  0
  145.8359  143.4672  159.2980 N   0  0  0  0  0  0  0  0  0  0  0  0
  145.5330  142.8663  160.4594 C   0  0  0  0  0  0  0  0  0  0  0  0
  145.6527  141.6558  160.6467 O   0  0  0  0  0  0  0  0  0  0  0  0
  145.0187  143.7667  161.5825 C   0  0  0  0  0  0  0  0  0  0  0  0
  143.5867  143.6158  161.7542 N   0  0  0  0  0  0  0  0  0  0  0  0
  142.5810  144.4615  161.5196 C   0  0  0  0  0  0  0  0  0  0  0  0
  141.4097  143.9236  161.8231 N   0  0  0  0  0  0  0  0  0  0  0  0
  141.7510  142.6592  162.2739 N   0  0  0  0  0  0  0  0  0  0  0  0
  143.0418  142.4712  162.2364 N   0  0  0  0  0  0  0  0  0  0  0  0
  147.5338  141.6604  155.9027 C   0  0  0  0  0  0  0  0  0  0  0  0
  146.9276  139.8808  153.8049 H   0  0  0  0  0  0  0  0  0  0  0  0
  147.6394  140.8347  152.5063 H   0  0  0  0  0  0  0  0  0  0  0  0
  146.2764  141.4711  153.4174 H   0  0  0  0  0  0  0  0  0  0  0  0
  148.3891  142.5433  154.1421 H   0  0  0  0  0  0  0  0  0  0  0  0
  149.2984  139.7218  154.8637 H   0  0  0  0  0  0  0  0  0  0  0  0
  149.9740  140.7297  153.6036 H   0  0  0  0  0  0  0  0  0  0  0  0
  151.3422  140.8192  155.6998 H   0  0  0  0  0  0  0  0  0  0  0  0
  150.7283  142.3947  155.2585 H   0  0  0  0  0  0  0  0  0  0  0  0
  149.5404  140.5366  157.3877 H   0  0  0  0  0  0  0  0  0  0  0  0
  150.4182  142.0284  157.6695 H   0  0  0  0  0  0  0  0  0  0  0  0
  148.0842  141.7040  158.8673 H   0  0  0  0  0  0  0  0  0  0  0  0
  148.3130  143.4208  158.6507 H   0  0  0  0  0  0  0  0  0  0  0  0
  146.1146  143.4066  157.2440 H   0  0  0  0  0  0  0  0  0  0  0  0
  145.7861  141.8543  157.9759 H   0  0  0  0  0  0  0  0  0  0  0  0
  145.6984  144.4658  159.2294 H   0  0  0  0  0  0  0  0  0  0  0  0
  145.5137  143.5087  162.5196 H   0  0  0  0  0  0  0  0  0  0  0  0
  145.2521  144.8119  161.3730 H   0  0  0  0  0  0  0  0  0  0  0  0
  142.7065  145.4619  161.1322 H   0  0  0  0  0  0  0  0  0  0  0  0
  146.6219  142.2514  155.8267 H   0  0  0  0  0  0  0  0  0  0  0  0
  147.2389  140.6764  156.2711 H   0  0  0  0  0  0  0  0  0  0  0  0
  148.7180  143.1956  156.4983 H   0  0  0  0  0  0  0  0  0  0  0  0
  1  2  1  0  0  0  0
  1 19  1  0  0  0  0
  1 20  1  0  0  0  0
  1 21  1  0  0  0  0
  2 18  1  0  0  0  0
  2  3  1  0  0  0  0
  2 22  1  0  0  0  0
  3  4  1  0  0  0  0
  3 23  1  0  0  0  0
  3 24  1  0  0  0  0
  4  5  1  0  0  0  0
  4 25  1  0  0  0  0
  4 26  1  0  0  0  0
  5  6  1  0  0  0  0
  5 27  1  0  0  0  0
  5 28  1  0  0  0  0
  6  7  1  0  0  0  0
  6 18  1  0  0  0  0
  6 39  1  0  0  0  0
  7  8  1  0  0  0  0
  7 29  1  0  0  0  0
  7 30  1  0  0  0  0
  8  9  1  0  0  0  0
  8 31  1  0  0  0  0
  8 32  1  0  0  0  0
  9 10  1  0  0  0  0
  9 33  1  0  0  0  0
 10 11  2  0  0  0  0
 10 12  1  0  0  0  0
 12 13  1  0  0  0  0
 12 34  1  0  0  0  0
 12 35  1  0  0  0  0
 13 17  1  0  0  0  0
 13 14  1  0  0  0  0
 14 15  2  0  0  0  0
 14 36  1  0  0  0  0
 15 16  1  0  0  0  0
 16 17  2  0  0  0  0
 18 37  1  0  0  0  0
 18 38  1  0  0  0  0
M  CHG  1   6   1
M  END
> <s_m_source_file>
AV-unprocessed.smi

> <i_m_source_file_index>
1607

> <i_lp_mmshare_version>
43012

> <i_f3d_flags>
0

> <s_epik_input>
W0NIM11bQ0BASF0xW0NIMl1bQ0gyXVtDSDJdTihbQ0gyXTEpW0NIMl1bQ0gyXVtOSF1DKD1PKVtDSDJdbjJbY0hdbm5uMg==

> <s_epik_cmdline>
J2VwaWtfcHl0aG9uJywgJy1waCcsICc3LjAnLCAnLXRuJywgJzgnLCAnLW1hJywgJzIwMCcsICctbWV0YWxfYmluZGluZycsICctaW1hZScsICc8aW5maWxlLm1hZT4nLCAnLW9tYWUnLCAnPG91dGZpbGUubWFlPic=

> <r_lp_tautomer_probability>
1

> <r_epik_Ionization_Penalty>
0.00268321

> <r_epik_Ionization_Penalty_Charging>
0.00267875

> <r_epik_Ionization_Penalty_Neutral>
4.46125e-06

> <r_epik_State_Penalty>
0.00186642

> <r_epik_Charging_Adjusted_Penalty>
0.00454517

> <i_epik_Tot_Q>
1

> <i_epik_Tot_abs_Q>
1

> <r_epik_Metal_State_Penalty>
-0

> <b_epik_Metal_Only>
0

> <s_lp_Force_Field>
OPLS_2005

> <r_lp_Energy>
18.3574

> <b_lp_Chiralities_Consistent>
1

> <s_lp_Variant>
AV-unprocessed.smi:1607-1

> <Gold.Version>
5.8.1

> <Gold.Id.Protein>
6NUR|6NUR_protein|mol2

> <Gold.PLP.Fitness>
40.0059

> <Gold.PLP.PLP>
-32.6058

> <Gold.PLP.part.hbond>
-5.7541

> <Gold.PLP.part.metal>
0.0000

> <Gold.PLP.part.buried>
-4.3163

> <Gold.PLP.part.nonpolar>
-21.9498

> <Gold.PLP.part.repulsive>
0.1264

> <Gold.PLP.ligand.clash>
0.0000

> <Gold.PLP.ligand.torsion>
0.8286

> <Gold.PLP.Chemscore.Hbond>
3.0000

> <Gold.PLP.Chemscore.CHOScore>
0.0000

> <Gold.PLP.Chemscore.Metal>
0.0000

> <Gold.Chemscore.Hbonds>
donor molecule, donor type, donor heavy atom, donor atom, acceptor molecule, acceptor atom, score
      L1  H     6    39       P1  8028  2.00
      P1  H  6934  6946       L1    11  0.86

> <Gold.PLP.Chemscore.Internal.Correction>
0.0573

> <Gold.Rescore>
     Score         DG    S(hbond)    S(metal)    S(lipo)     H(rot)  DE(clash)    DE(int)     intcor
      8.75     -10.82       1.99        0.00      47.87       2.69       1.32       0.75       ----

> <Gold.Chemscore.Fitness>
8.7472

> <Gold.Chemscore.DG>
-10.8185

> <Gold.Chemscore.ZeroCoef>
-5.4800

> <Gold.Chemscore.Hbond>
1.9855

> <Gold.Chemscore.Metal>
0.0000

> <Gold.Chemscore.Lipo>
47.8743

> <Gold.Chemscore.Internal_Hbond>
0.0000

> <Gold.Chemscore.DEClash>
1.3241

> <Gold.Chemscore.DEInternal>
0.7472

> <Gold.Chemscore.Rot>
2.6932

> <Gold.Chemscore.Internal.Correction>
   9.000000E+99

> <Gold.Chemscore.Hbonds>
donor molecule, donor type, donor heavy atom, donor atom, acceptor molecule, acceptor atom, score
      L1  H     6    39       P1  8028  0.91
      P1  H  6934  6946       L1    11  0.82

> <Gold.Chemscore.Hbond.Weighted>
-6.6317

> <Gold.Chemscore.Metal.Weighted>
-0.0000

> <Gold.Chemscore.Lipo.Weighted>
-5.6013

> <Gold.Chemscore.Internal_Hbond.Weighted>
0.0000

> <Gold.Chemscore.DEClash.Weighted>
1.3241

> <Gold.Chemscore.DEInternal.Weighted>
0.7472

> <Gold.Chemscore.Rot.Weighted>
6.8945

> <Gold.Chemscore.Internal.Correction.Weighted>
   9.000000E+99

> <Gold.Protein.RotatedTorsions>
[ 6907 6896 6895 6894 ] final  139.24 input  -60.11 | X-H torsion
[ 7974 7965 7964 7962 ] final  -60.85 input  175.53 | X-H torsion
[ 8008 7997 7996 7995 ] final   48.35 input   59.86 | X-H torsion
[ 10167 10162 10161 10158 ] final -172.14 input  -65.29 | X-H torsion
[ 10718 10713 10712 10709 ] final  -72.98 input   66.30 | X-H torsion
[ 10763 10752 10751 10750 ] final  118.45 input  -60.55 | X-H torsion
[ 11005 11000 10999 10996 ] final -150.36 input  -57.11 | X-H torsion

> <Gold.Protein.ActiveResidues>
 VAL166  LYS551  ARG553  GLY616  TRP617  ASP618  TYR619  PRO620  LYS621  CYS622 
 ASP623  PHE694  ASN695  SER759  ASP760  ASP761  ALA762  ILE779  LEU786  VAL792 
 PHE793  MET794  SER795  GLU796  ALA797  LYS798  CYS799  TRP800  GLU811  SER814 

> <Gold.Protein.RotatedAtoms>
  152.2572  133.5265  159.5359 H   0  0  0  0  0  0  0  0  0  0  0  0  # atno 6907 bound_to 6896
  150.7113  134.0880  159.3930 H   0  0  0  0  0  0  0  0  0  0  0  0  # atno 6908 bound_to 6896
  151.8798  135.0458  160.0538 H   0  0  0  0  0  0  0  0  0  0  0  0  # atno 6909 bound_to 6896
  145.8106  140.8601  143.0184 H   0  0  0  0  0  0  0  0  0  0  0  0  # atno 7974 bound_to 7965
  155.3841  140.3430  155.4248 H   0  0  0  0  0  0  0  0  0  0  0  0  # atno 8008 bound_to 7997
  156.1594  140.1596  156.8671 H   0  0  0  0  0  0  0  0  0  0  0  0  # atno 8009 bound_to 7997
  154.5125  140.0786  156.7999 H   0  0  0  0  0  0  0  0  0  0  0  0  # atno 8010 bound_to 7997
  139.5762  144.1528  152.1453 H   0  0  0  0  0  0  0  0  0  0  0  0  # atno 10167 bound_to 10162
  156.0298  130.4384  150.2674 H   0  0  0  0  0  0  0  0  0  0  0  0  # atno 10718 bound_to 10713
  153.5678  135.3508  155.2825 H   0  0  0  0  0  0  0  0  0  0  0  0  # atno 10763 bound_to 10752
  154.8686  135.4152  154.2759 H   0  0  0  0  0  0  0  0  0  0  0  0  # atno 10764 bound_to 10752
  153.3518  135.7055  153.6852 H   0  0  0  0  0  0  0  0  0  0  0  0  # atno 10765 bound_to 10752
  140.7410  134.3514  157.5147 H   0  0  0  0  0  0  0  0  0  0  0  0  # atno 11005 bound_to 11000
  144.6758  140.0390  143.7481 LP  0  0  0  0  0  0  0  0  0  0  0  0  # atno 17320 bound_to 7965
  145.9781  139.2920  143.1058 LP  0  0  0  0  0  0  0  0  0  0  0  0  # atno 17321 bound_to 7965
  140.1071  144.5489  150.6950 LP  0  0  0  0  0  0  0  0  0  0  0  0  # atno 17342 bound_to 10162
  140.7044  143.2457  151.4770 LP  0  0  0  0  0  0  0  0  0  0  0  0  # atno 17343 bound_to 10162
  157.0776  131.0134  151.3168 LP  0  0  0  0  0  0  0  0  0  0  0  0  # atno 17370 bound_to 10713
  157.4952  130.7846  149.7548 LP  0  0  0  0  0  0  0  0  0  0  0  0  # atno 17371 bound_to 10713
  139.8806  134.9080  156.2959 LP  0  0  0  0  0  0  0  0  0  0  0  0  # atno 17394 bound_to 11000
  140.9837  133.7251  156.0710 LP  0  0  0  0  0  0  0  0  0  0  0  0  # atno 17395 bound_to 11000

$$$$
