#       Name:                AV-unprocessed.smi:2195
#       Creating user name   scv26
#       Creation time:       Fri Mar 27 12:12:25 2020


#       File generated by GOLD software.
#

@<TRIPOS>MOLECULE
AV-unprocessed.smi:2195
    44    46     1
SMALL
NO_CHARGES


@<TRIPOS>ATOM
      1 ****        -7.0228   1.3195   1.0777 C.3            1 S1                 0.0000
      2 ****        -5.5270   1.0826   1.0429 C.ar           1 S1                 0.0000
      3 ****        -4.6348   2.1189   1.3816 C.ar           1 S1                 0.0000
      4 ****        -3.2452   1.8930   1.3495 C.ar           1 S1                 0.0000
      5 ****        -2.7255   0.6342   0.9842 C.ar           1 S1                 0.0000
      6 ****        -1.3534   0.5004   0.9813 O.3            1 S1                 0.0000
      7 ****        -0.8004  -0.7540   0.6053 C.3            1 S1                 0.0000
      8 ****         0.7320  -0.6637   0.6638 C.3            1 S1                 0.0000
      9 ****         1.2616  -1.9645   0.4998 O.3            1 S1                 0.0000
     10 ****         1.3067   0.2837  -0.4084 C.3            1 S1                 0.0000
     11 ****         2.7712   0.3957  -0.3455 N.pl3          1 S1                 0.0000
     12 ****         3.5463   1.2082   0.4228 C.2            1 S1                 0.0000
     13 ****         4.8474   0.9426   0.1210 N.pl3          1 S1                 1.0000
     14 ****         4.9055  -0.0551  -0.8544 C.ar           1 S1                 0.0000
     15 ****         5.9947  -0.6573  -1.4769 C.ar           1 S1                 0.0000
     16 ****         5.7060  -1.6515  -2.4348 C.ar           1 S1                 0.0000
     17 ****         4.3780  -2.0136  -2.7402 C.ar           1 S1                 0.0000
     18 ****         3.2816  -1.3958  -2.1034 C.ar           1 S1                 0.0000
     19 ****         3.5747  -0.4122  -1.1592 C.ar           1 S1                 0.0000
     20 ****        -3.6292  -0.4053   0.6478 C.ar           1 S1                 0.0000
     21 ****        -5.0193  -0.1798   0.6775 C.ar           1 S1                 0.0000
     22 ****        -7.2553   2.3782   0.9580 H              1 S1                 0.0000
     23 ****        -7.4341   0.9832   2.0297 H              1 S1                 0.0000
     24 ****        -7.5194   0.7725   0.2757 H              1 S1                 0.0000
     25 ****        -5.0118   3.0902   1.6670 H              1 S1                 0.0000
     26 ****        -2.5706   2.6955   1.6089 H              1 S1                 0.0000
     27 ****        -1.1485  -1.5231   1.2972 H              1 S1                 0.0000
     28 ****        -1.1208  -1.0328  -0.4001 H              1 S1                 0.0000
     29 ****         1.0296  -0.3142   1.6534 H              1 S1                 0.0000
     30 ****         0.9195  -2.5163   1.1869 H              1 S1                 0.0000
     31 ****         1.0106  -0.0240  -1.4115 H              1 S1                 0.0000
     32 ****         0.9058   1.2884  -0.2695 H              1 S1                 0.0000
     33 ****         3.1928   1.9331   1.1420 H              1 S1                 0.0000
     34 ****         7.0131  -0.3836  -1.2433 H              1 S1                 0.0000
     35 ****         6.5192  -2.1475  -2.9446 H              1 S1                 0.0000
     36 ****         4.1957  -2.7823  -3.4771 H              1 S1                 0.0000
     37 ****         2.2686  -1.6853  -2.3405 H              1 S1                 0.0000
     38 ****        -3.2822  -1.3871   0.3639 H              1 S1                 0.0000
     39 ****        -5.6952  -0.9815   0.4187 H              1 S1                 0.0000
     40 ****         5.6359   1.4089   0.5512 H              1 S1                 0.0000
     41 ****        -1.0344   0.6990   1.9081 LP             1 S1                 0.0000
     42 ****        -0.9903   1.1855   0.3499 LP             1 S1                 0.0000
     43 ****         2.2593  -1.9323   0.5583 LP             1 S1                 0.0000
     44 ****         0.9915  -2.3288  -0.3914 LP             1 S1                 0.0000
@<TRIPOS>BOND
    1    1    2 1     
    2    1   22 1     
    3    1   23 1     
    4    1   24 1     
    5    2   21 ar    
    6    2    3 ar    
    7    3    4 ar    
    8    3   25 1     
    9    4    5 ar    
   10    4   26 1     
   11    5    6 1     
   12    5   20 ar    
   13    6    7 1     
   14    7    8 1     
   15    7   27 1     
   16    7   28 1     
   17    8    9 1     
   18    8   10 1     
   19    8   29 1     
   20    9   30 1     
   21   10   11 1     
   22   10   31 1     
   23   10   32 1     
   24   11   19 1     
   25   11   12 1     
   26   12   13 2     
   27   12   33 1     
   28   13   14 1     
   29   13   40 1     
   30   14   19 ar    
   31   14   15 ar    
   32   15   16 ar    
   33   15   34 1     
   34   16   17 ar    
   35   16   35 1     
   36   17   18 ar    
   37   17   36 1     
   38   18   19 ar    
   39   18   37 1     
   40   20   21 ar    
   41   20   38 1     
   42   21   39 1     
   43    6   41 1     
   44    6   42 1     
   45    9   43 1     
   46    9   44 1     
@<TRIPOS>SUBSTRUCTURE
      1 S1             1
@<TRIPOS>SET
LONE_PAIRS      STATIC     ATOMS    <user>   **** ""
4 41 42 43 44
DONOR_HYDROGENS      STATIC     ATOMS    <user>   **** ""
2 30 40
ATOM$BLUE        STATIC     ATOMS    COLORGROUP SYSTEM
4 41 42 43 44
ATOM$RED        STATIC     ATOMS    COLORGROUP SYSTEM
2 30 40
