#       Name:                AV-unprocessed.smi:1606
#       Creating user name   scv26
#       Creation time:       Fri Mar 27 07:11:48 2020


#       File generated by GOLD software.
#

@<TRIPOS>MOLECULE
AV-unprocessed.smi:1606
    40    41     1
SMALL
NO_CHARGES


@<TRIPOS>ATOM
      1 ****         0.7005   2.0745  -0.8609 O.2            1 S1                 0.0000
      2 ****         0.2339   0.9645  -1.1173 C.2            1 S1                 0.0000
      3 ****         0.9947  -0.1232  -1.3143 N.am           1 S1                 0.0000
      4 ****         2.4539  -0.1538  -1.2626 C.3            1 S1                 0.0000
      5 ****         3.0317   0.0323   0.1571 C.3            1 S1                 0.0000
      6 ****         2.4147  -0.8815   1.2024 C.ar           1 S1                 0.0000
      7 ****         2.9342  -2.1652   1.4768 C.ar           1 S1                 0.0000
      8 ****         2.3061  -2.9687   2.4515 C.ar           1 S1                 0.0000
      9 ****         1.1724  -2.4735   3.1291 C.ar           1 S1                 0.0000
     10 ****         0.6950  -1.1847   2.8152 C.ar           1 S1                 0.0000
     11 ****         1.3251  -0.4454   1.8765 N.pl3          1 S1                 1.0000
     12 ****        -1.2841   0.7610  -1.2040 C.3            1 S1                 0.0000
     13 ****        -1.9216   1.7008  -2.2436 C.3            1 S1                 0.0000
     14 ****        -3.4517   1.5499  -2.2399 C.3            1 S1                 0.0000
     15 ****        -3.9623   1.8036  -0.9351 O.3            1 S1                 0.0000
     16 ****        -3.4818   0.8843   0.0398 C.3            1 S1                 0.0000
     17 ****        -1.9536   0.9992   0.1613 C.3            1 S1                 0.0000
     18 ****         0.5284  -0.9941  -1.5244 H              1 S1                 0.0000
     19 ****         2.7673  -1.1229  -1.6518 H              1 S1                 0.0000
     20 ****         2.8659   0.5958  -1.9401 H              1 S1                 0.0000
     21 ****         4.1095  -0.1326   0.1349 H              1 S1                 0.0000
     22 ****         2.8980   1.0666   0.4770 H              1 S1                 0.0000
     23 ****         3.8011  -2.5320   0.9465 H              1 S1                 0.0000
     24 ****         2.6885  -3.9538   2.6757 H              1 S1                 0.0000
     25 ****         0.6768  -3.0738   3.8782 H              1 S1                 0.0000
     26 ****        -0.1647  -0.7261   3.2818 H              1 S1                 0.0000
     27 ****        -1.4820  -0.2689  -1.5078 H              1 S1                 0.0000
     28 ****        -1.6673   2.7396  -2.0264 H              1 S1                 0.0000
     29 ****        -1.5315   1.4859  -3.2394 H              1 S1                 0.0000
     30 ****        -3.8989   2.2594  -2.9362 H              1 S1                 0.0000
     31 ****        -3.7457   0.5521  -2.5695 H              1 S1                 0.0000
     32 ****        -3.9515   1.1096   0.9974 H              1 S1                 0.0000
     33 ****        -3.7762  -0.1320  -0.2269 H              1 S1                 0.0000
     34 ****        -1.5874   0.2788   0.8939 H              1 S1                 0.0000
     35 ****        -1.6996   1.9897   0.5427 H              1 S1                 0.0000
     36 ****         0.9619   0.4842   1.6633 H              1 S1                 0.0000
     37 ****         1.6905   2.1967  -0.7909 LP             1 S1                 0.0000
     38 ****         0.0895   2.8540  -0.7227 LP             1 S1                 0.0000
     39 ****        -4.9599   1.7425  -0.9661 LP             1 S1                 0.0000
     40 ****        -3.6933   2.7272  -0.6619 LP             1 S1                 0.0000
@<TRIPOS>BOND
    1    1    2 2     
    2    2    3 am    
    3    2   12 1     
    4    3    4 1     
    5    3   18 1     
    6    4    5 1     
    7    4   19 1     
    8    4   20 1     
    9    5    6 1     
   10    5   21 1     
   11    5   22 1     
   12    6   11 ar    
   13    6    7 ar    
   14    7    8 ar    
   15    7   23 1     
   16    8    9 ar    
   17    8   24 1     
   18    9   10 ar    
   19    9   25 1     
   20   10   11 ar    
   21   10   26 1     
   22   11   36 1     
   23   12   17 1     
   24   12   13 1     
   25   12   27 1     
   26   13   14 1     
   27   13   28 1     
   28   13   29 1     
   29   14   15 1     
   30   14   30 1     
   31   14   31 1     
   32   15   16 1     
   33   16   17 1     
   34   16   32 1     
   35   16   33 1     
   36   17   34 1     
   37   17   35 1     
   38    1   37 1     
   39    1   38 1     
   40   15   39 1     
   41   15   40 1     
@<TRIPOS>SUBSTRUCTURE
      1 S1             1
@<TRIPOS>SET
LONE_PAIRS      STATIC     ATOMS    <user>   **** ""
4 37 38 39 40
DONOR_HYDROGENS      STATIC     ATOMS    <user>   **** ""
2 18 36
ATOM$BLUE        STATIC     ATOMS    COLORGROUP SYSTEM
4 37 38 39 40
ATOM$RED        STATIC     ATOMS    COLORGROUP SYSTEM
2 18 36
