AV-unprocessed.smi:1784|AV-procd|sdf|7197|dock3
  -GOLD-   22720 8433D 1   1.00000     0.00000
 Structure written by MMmdl.
 43 45  0  0  0  0  0  0  0  0  1 V2000
  148.8115  144.3532  161.4313 O   0  0  0  0  0  0  0  0  0  0  0  0
  148.5420  144.7651  160.3028 C   0  0  0  0  0  0  0  0  0  0  0  0
  149.4656  145.1868  159.4283 N   0  0  0  0  0  0  0  0  0  0  0  0
  150.8977  145.2567  159.6935 C   0  0  0  0  0  0  0  0  0  0  0  0
  151.5234  143.8536  159.7389 C   0  0  1  0  0  0  0  0  0  0  0  0
  152.9552  143.7938  159.2123 C   0  0  0  0  0  0  0  0  0  0  0  0
  153.5419  142.5812  159.9194 C   0  0  0  0  0  0  0  0  0  0  0  0
  152.5604  142.3013  161.0618 C   0  0  0  0  0  0  0  0  0  0  0  0
  151.6798  143.4159  161.0792 O   0  0  0  0  0  0  0  0  0  0  0  0
  147.3046  144.8792  159.7931 N   0  0  0  0  0  0  0  0  0  0  0  0
  146.0618  144.5662  160.4144 C   0  0  0  0  0  0  0  0  0  0  0  0
  145.9761  144.0995  161.7487 C   0  0  0  0  0  0  0  0  0  0  0  0
  144.7143  143.7960  162.2904 C   0  0  0  0  0  0  0  0  0  0  0  0
  143.5810  143.9619  161.4757 C   0  0  0  0  0  0  0  0  0  0  0  0
  143.6472  144.3887  160.1985 N   0  0  0  0  0  0  0  0  0  0  0  0
  144.8586  144.6873  159.6681 C   0  0  0  0  0  0  0  0  0  0  0  0
  144.8998  145.0961  158.3185 N   0  0  0  0  0  0  0  0  0  0  0  0
  144.5386  144.0341  157.3824 C   0  0  0  0  0  0  0  0  0  0  0  0
  143.6623  144.6776  156.3043 C   0  0  0  0  0  0  0  0  0  0  0  0
  143.0639  145.8851  157.0153 C   0  0  0  0  0  0  0  0  0  0  0  0
  144.2052  146.3220  157.9301 C   0  0  0  0  0  0  0  0  0  0  0  0
  149.1540  145.5159  158.5263 H   0  0  0  0  0  0  0  0  0  0  0  0
  151.3887  145.8656  158.9326 H   0  0  0  0  0  0  0  0  0  0  0  0
  151.0491  145.7682  160.6443 H   0  0  0  0  0  0  0  0  0  0  0  0
  150.9039  143.1356  159.1975 H   0  0  0  0  0  0  0  0  0  0  0  0
  152.9996  143.7159  158.1257 H   0  0  0  0  0  0  0  0  0  0  0  0
  153.5040  144.6887  159.5085 H   0  0  0  0  0  0  0  0  0  0  0  0
  153.6062  141.7218  159.2512 H   0  0  0  0  0  0  0  0  0  0  0  0
  154.5449  142.7942  160.2903 H   0  0  0  0  0  0  0  0  0  0  0  0
  151.9867  141.3951  160.8616 H   0  0  0  0  0  0  0  0  0  0  0  0
  153.0596  142.1825  162.0238 H   0  0  0  0  0  0  0  0  0  0  0  0
  147.2350  145.3321  158.8936 H   0  0  0  0  0  0  0  0  0  0  0  0
  146.8539  143.9552  162.3594 H   0  0  0  0  0  0  0  0  0  0  0  0
  144.6188  143.4398  163.3052 H   0  0  0  0  0  0  0  0  0  0  0  0
  142.5954  143.7374  161.8558 H   0  0  0  0  0  0  0  0  0  0  0  0
  145.4286  143.5780  156.9486 H   0  0  0  0  0  0  0  0  0  0  0  0
  143.9801  143.2490  157.8951 H   0  0  0  0  0  0  0  0  0  0  0  0
  144.2840  145.0117  155.4726 H   0  0  0  0  0  0  0  0  0  0  0  0
  142.9075  143.9970  155.9096 H   0  0  0  0  0  0  0  0  0  0  0  0
  142.7424  146.6706  156.3310 H   0  0  0  0  0  0  0  0  0  0  0  0
  142.2040  145.5783  157.6122 H   0  0  0  0  0  0  0  0  0  0  0  0
  143.8499  146.9218  158.7684 H   0  0  0  0  0  0  0  0  0  0  0  0
  144.9104  146.9416  157.3752 H   0  0  0  0  0  0  0  0  0  0  0  0
  1  2  2  0  0  0  0
  2  3  1  0  0  0  0
  2 10  1  0  0  0  0
  3  4  1  0  0  0  0
  3 22  1  0  0  0  0
  4  5  1  0  0  0  0
  4 23  1  0  0  0  0
  4 24  1  0  0  0  0
  5  9  1  0  0  0  0
  5  6  1  0  0  0  0
  5 25  1  0  0  0  0
  6  7  1  0  0  0  0
  6 26  1  0  0  0  0
  6 27  1  0  0  0  0
  7  8  1  0  0  0  0
  7 28  1  0  0  0  0
  7 29  1  0  0  0  0
  8  9  1  0  0  0  0
  8 30  1  0  0  0  0
  8 31  1  0  0  0  0
 10 11  1  0  0  0  0
 10 32  1  0  0  0  0
 11 16  1  0  0  0  0
 11 12  2  0  0  0  0
 12 13  1  0  0  0  0
 12 33  1  0  0  0  0
 13 14  2  0  0  0  0
 13 34  1  0  0  0  0
 14 15  1  0  0  0  0
 14 35  1  0  0  0  0
 15 16  2  0  0  0  0
 16 17  1  0  0  0  0
 17 21  1  0  0  0  0
 17 18  1  0  0  0  0
 18 19  1  0  0  0  0
 18 36  1  0  0  0  0
 18 37  1  0  0  0  0
 19 20  1  0  0  0  0
 19 38  1  0  0  0  0
 19 39  1  0  0  0  0
 20 21  1  0  0  0  0
 20 40  1  0  0  0  0
 20 41  1  0  0  0  0
 21 42  1  0  0  0  0
 21 43  1  0  0  0  0
M  END
> <s_m_source_file>
AV-unprocessed.smi

> <i_m_source_file_index>
1784

> <i_lp_mmshare_version>
43012

> <i_f3d_flags>
0

> <s_epik_input>
TzFbQ0gyXVtDSDJdW0NIMl1bQ0BIXTFbQ0gyXVtOSF1DKD1PKVtOSF1jMltjSF1bY0hdW2NIXW5jMk4zW0NIMl1bQ0gyXVtDSDJdW0NIMl0z

> <s_epik_cmdline>
J2VwaWtfcHl0aG9uJywgJy1waCcsICc3LjAnLCAnLXRuJywgJzgnLCAnLW1hJywgJzIwMCcsICctbWV0YWxfYmluZGluZycsICctaW1hZScsICc8aW5maWxlLm1hZT4nLCAnLW9tYWUnLCAnPG91dGZpbGUubWFlPic=

> <r_lp_tautomer_probability>
1

> <r_epik_Ionization_Penalty>
0.0982482

> <r_epik_Ionization_Penalty_Charging>
0

> <r_epik_Ionization_Penalty_Neutral>
0.0982482

> <r_epik_State_Penalty>
0.0877864

> <r_epik_Charging_Adjusted_Penalty>
0.0877864

> <i_epik_Tot_Q>
0

> <i_epik_Tot_abs_Q>
0

> <r_epik_Metal_State_Penalty>
0.0752567

> <b_epik_Metal_Only>
0

> <s_lp_Force_Field>
OPLS_2005

> <r_lp_Energy>
44.9043

> <b_lp_Chiralities_Consistent>
1

> <s_lp_Variant>
AV-unprocessed.smi:1784-2

> <Gold.Version>
5.8.1

> <Gold.Id.Protein>
6NUR|6NUR_protein|mol2

> <Gold.PLP.Fitness>
49.6111

> <Gold.PLP.PLP>
-42.7381

> <Gold.PLP.part.hbond>
-3.4120

> <Gold.PLP.part.metal>
0.0000

> <Gold.PLP.part.buried>
-8.6154

> <Gold.PLP.part.nonpolar>
-32.5774

> <Gold.PLP.part.repulsive>
0.8575

> <Gold.PLP.ligand.clash>
0.0000

> <Gold.PLP.ligand.torsion>
0.6322

> <Gold.PLP.Chemscore.Hbond>
2.6720

> <Gold.PLP.Chemscore.CHOScore>
0.0000

> <Gold.PLP.Chemscore.Metal>
0.0000

> <Gold.Chemscore.Hbonds>
donor molecule, donor type, donor heavy atom, donor atom, acceptor molecule, acceptor atom, score
      L1  H     3    22       P1  8029  1.00
      L1  H    10    32       P1  8029  1.00
      P1  H  6933  6944       L1     1  0.67

> <Gold.PLP.Chemscore.Internal.Correction>
0.1213

> <Gold.Rescore>
     Score         DG    S(hbond)    S(metal)    S(lipo)     H(rot)  DE(clash)    DE(int)     intcor
     20.10     -22.12       2.58        0.00      98.86       1.38       0.01       2.01       ----

> <Gold.Chemscore.Fitness>
20.1011

> <Gold.Chemscore.DG>
-22.1201

> <Gold.Chemscore.ZeroCoef>
-5.4800

> <Gold.Chemscore.Hbond>
2.5765

> <Gold.Chemscore.Metal>
0.0000

> <Gold.Chemscore.Lipo>
98.8560

> <Gold.Chemscore.Internal_Hbond>
0.0000

> <Gold.Chemscore.DEClash>
0.0063

> <Gold.Chemscore.DEInternal>
2.0127

> <Gold.Chemscore.Rot>
1.3796

> <Gold.Chemscore.Internal.Correction>
   9.000000E+99

> <Gold.Chemscore.Hbonds>
donor molecule, donor type, donor heavy atom, donor atom, acceptor molecule, acceptor atom, score
      L1  H     3    22       P1  8029  0.96
      L1  H    10    32       P1  8029  0.99
      P1  H  6933  6944       L1     1  0.46

> <Gold.Chemscore.Hbond.Weighted>
-8.6056

> <Gold.Chemscore.Metal.Weighted>
-0.0000

> <Gold.Chemscore.Lipo.Weighted>
-11.5661

> <Gold.Chemscore.Internal_Hbond.Weighted>
0.0000

> <Gold.Chemscore.DEClash.Weighted>
0.0063

> <Gold.Chemscore.DEInternal.Weighted>
2.0127

> <Gold.Chemscore.Rot.Weighted>
3.5317

> <Gold.Chemscore.Internal.Correction.Weighted>
   9.000000E+99

> <Gold.Protein.RotatedTorsions>
[ 6907 6896 6895 6894 ] final   40.33 input  -60.11 | X-H torsion
[ 7974 7965 7964 7962 ] final -107.50 input  175.53 | X-H torsion
[ 8008 7997 7996 7995 ] final  -41.30 input   59.86 | X-H torsion
[ 10167 10162 10161 10158 ] final -102.33 input  -65.29 | X-H torsion
[ 10718 10713 10712 10709 ] final   47.41 input   66.30 | X-H torsion
[ 10763 10752 10751 10750 ] final   95.86 input  -60.55 | X-H torsion
[ 11005 11000 10999 10996 ] final  139.19 input  -57.11 | X-H torsion

> <Gold.Protein.ActiveResidues>
 VAL166  LYS551  ARG553  GLY616  TRP617  ASP618  TYR619  PRO620  LYS621  CYS622 
 ASP623  PHE694  ASN695  SER759  ASP760  ASP761  ALA762  ILE779  LEU786  VAL792 
 PHE793  MET794  SER795  GLU796  ALA797  LYS798  CYS799  TRP800  GLU811  SER814 

> <Gold.Protein.RotatedAtoms>
  152.1811  134.8753  160.0526 H   0  0  0  0  0  0  0  0  0  0  0  0  # atno 6907 bound_to 6896
  151.9677  133.3710  159.4067 H   0  0  0  0  0  0  0  0  0  0  0  0  # atno 6908 bound_to 6896
  150.6918  134.4097  159.5200 H   0  0  0  0  0  0  0  0  0  0  0  0  # atno 6909 bound_to 6896
  145.2045  140.9070  143.3350 H   0  0  0  0  0  0  0  0  0  0  0  0  # atno 7974 bound_to 7965
  154.4005  140.1503  156.3169 H   0  0  0  0  0  0  0  0  0  0  0  0  # atno 8008 bound_to 7997
  155.8565  140.3455  155.5706 H   0  0  0  0  0  0  0  0  0  0  0  0  # atno 8009 bound_to 7997
  155.7927  140.0859  157.1990 H   0  0  0  0  0  0  0  0  0  0  0  0  # atno 8010 bound_to 7997
  140.2318  143.3601  152.0880 H   0  0  0  0  0  0  0  0  0  0  0  0  # atno 10167 bound_to 10162
  157.4581  130.8180  149.7858 H   0  0  0  0  0  0  0  0  0  0  0  0  # atno 10718 bound_to 10713
  153.2582  135.4239  155.0867 H   0  0  0  0  0  0  0  0  0  0  0  0  # atno 10763 bound_to 10752
  154.8409  135.3442  154.6416 H   0  0  0  0  0  0  0  0  0  0  0  0  # atno 10764 bound_to 10752
  153.6836  135.7037  153.5167 H   0  0  0  0  0  0  0  0  0  0  0  0  # atno 10765 bound_to 10752
  140.0237  134.9385  157.0525 H   0  0  0  0  0  0  0  0  0  0  0  0  # atno 11005 bound_to 11000
  144.9915  139.3685  143.6212 LP  0  0  0  0  0  0  0  0  0  0  0  0  # atno 17320 bound_to 7965
  146.3410  139.9100  142.8782 LP  0  0  0  0  0  0  0  0  0  0  0  0  # atno 17321 bound_to 7965
  139.5107  144.6889  151.5813 LP  0  0  0  0  0  0  0  0  0  0  0  0  # atno 17342 bound_to 10162
  140.6179  143.9313  150.6503 LP  0  0  0  0  0  0  0  0  0  0  0  0  # atno 17343 bound_to 10162
  156.0016  130.3877  150.2583 LP  0  0  0  0  0  0  0  0  0  0  0  0  # atno 17370 bound_to 10713
  157.0759  131.0130  151.3174 LP  0  0  0  0  0  0  0  0  0  0  0  0  # atno 17371 bound_to 10713
  140.4344  134.1747  155.7170 LP  0  0  0  0  0  0  0  0  0  0  0  0  # atno 17394 bound_to 11000
  141.1789  133.8455  157.1326 LP  0  0  0  0  0  0  0  0  0  0  0  0  # atno 17395 bound_to 11000

$$$$
