#       Name:                AV-unprocessed.smi:1022
#       Creating user name   scv26
#       Creation time:       Fri Mar 27 02:43:38 2020


#       File generated by GOLD software.
#

@<TRIPOS>MOLECULE
AV-unprocessed.smi:1022
    39    40     1
SMALL
NO_CHARGES


@<TRIPOS>ATOM
      1 ****        -3.0366   1.8519  -3.1958 C.3            1 S1                 0.0000
      2 ****        -1.7420   1.2914  -3.3210 O.3            1 S1                 0.0000
      3 ****        -1.7261  -0.1046  -3.0644 C.3            1 S1                 0.0000
      4 ****        -0.2895  -0.6477  -3.1757 C.3            1 S1                 0.0000
      5 ****         0.2984  -0.4583  -4.5813 C.3            1 S1                 0.0000
      6 ****         0.5830  -0.0227  -2.1837 N.am           1 S1                 0.0000
      7 ****         0.6740  -0.3550  -0.8876 C.2            1 S1                 0.0000
      8 ****        -0.0177  -1.2709  -0.4361 O.2            1 S1                 0.0000
      9 ****         1.5579   0.3974  -0.1934 N.pl3          1 S1                -1.0000
     10 ****         1.7420   0.1767   1.1187 C.2            1 S1                 0.0000
     11 ****         2.7751  -0.5359   1.5897 N.2            1 S1                 0.0000
     12 ****         2.7780  -0.6413   2.9730 N.2            1 S1                 0.0000
     13 ****         1.7482   0.0010   3.5293 C.2            1 S1                 0.0000
     14 ****         1.5282   0.0312   5.0048 C.3            1 S1                 0.0000
     15 ****         1.0172  -1.1901   5.7342 C.3            1 S1                 0.0000
     16 ****         0.1366   0.0261   5.5993 C.3            1 S1                 0.0000
     17 ****         0.6857   0.8036   2.3837 S.3            1 S1                 0.0000
     18 ****        -2.9947   2.9205  -3.4062 H              1 S1                 0.0000
     19 ****        -3.4252   1.7231  -2.1848 H              1 S1                 0.0000
     20 ****        -3.7336   1.3965  -3.9004 H              1 S1                 0.0000
     21 ****        -2.1280  -0.3054  -2.0699 H              1 S1                 0.0000
     22 ****        -2.3721  -0.6177  -3.7785 H              1 S1                 0.0000
     23 ****        -0.3179  -1.7215  -2.9827 H              1 S1                 0.0000
     24 ****        -0.3241  -0.9420  -5.3342 H              1 S1                 0.0000
     25 ****         1.2961  -0.8932  -4.6498 H              1 S1                 0.0000
     26 ****         0.3777   0.5975  -4.8426 H              1 S1                 0.0000
     27 ****         1.1645   0.7367  -2.5061 H              1 S1                 0.0000
     28 ****         2.2881   0.6377   5.4941 H              1 S1                 0.0000
     29 ****         0.7608  -2.0639   5.1382 H              1 S1                 0.0000
     30 ****         1.4380  -1.4014   6.7152 H              1 S1                 0.0000
     31 ****        -0.0293   0.6277   6.4904 H              1 S1                 0.0000
     32 ****        -0.7126  -0.0483   4.9229 H              1 S1                 0.0000
     33 ****        -1.1324   1.7440  -2.6701 LP             1 S1                 0.0000
     34 ****        -1.4127   1.4500  -4.2518 LP             1 S1                 0.0000
     35 ****        -0.6462  -1.7655  -1.0364 LP             1 S1                 0.0000
     36 ****         0.0499  -1.5189   0.5303 LP             1 S1                 0.0000
     37 ****         2.0741   1.1177  -0.6567 LP             1 S1                 0.0000
     38 ****         3.4723  -0.9492   1.0040 LP             1 S1                 0.0000
     39 ****         3.4710  -1.1404   3.4931 LP             1 S1                 0.0000
@<TRIPOS>BOND
    1    1    2 1     
    2    1   18 1     
    3    1   19 1     
    4    1   20 1     
    5    2    3 1     
    6    3    4 1     
    7    3   21 1     
    8    3   22 1     
    9    4    5 1     
   10    4    6 1     
   11    4   23 1     
   12    5   24 1     
   13    5   25 1     
   14    5   26 1     
   15    6    7 am    
   16    6   27 1     
   17    7    8 2     
   18    7    9 1     
   19    9   10 1     
   20   10   17 1     
   21   10   11 2     
   22   11   12 1     
   23   12   13 2     
   24   13   14 1     
   25   13   17 1     
   26   14   16 1     
   27   14   15 1     
   28   14   28 1     
   29   15   16 1     
   30   15   29 1     
   31   15   30 1     
   32   16   31 1     
   33   16   32 1     
   34    2   33 1     
   35    2   34 1     
   36    8   35 1     
   37    8   36 1     
   38    9   37 1     
   39   11   38 1     
   40   12   39 1     
@<TRIPOS>SUBSTRUCTURE
      1 S1             1
@<TRIPOS>SET
LONE_PAIRS      STATIC     ATOMS    <user>   **** ""
7 33 34 35 36 37 38 39
DONOR_HYDROGENS      STATIC     ATOMS    <user>   **** ""
1 27
ATOM$BLUE        STATIC     ATOMS    COLORGROUP SYSTEM
7 33 34 35 36 37 38 39
ATOM$RED        STATIC     ATOMS    COLORGROUP SYSTEM
1 27
