AV-unprocessed.smi:3111|AV-procd|sdf|11835|dock4
  -GOLD-   2272017213D 1   1.00000     0.00000
 Structure written by MMmdl.
 30 30  0  0  0  0  0  0  0  0  2 V2000
  147.0629  142.5038  154.3404 C   0  0  0  0  0  0  0  0  0  0  0  0
  148.0247  142.0075  155.3127 N   0  0  0  0  0  0  0  0  0  0  0  0
  149.1667  141.3828  154.9936 C   0  0  0  0  0  0  0  0  0  0  0  0
  149.5172  141.1746  153.8303 O   0  0  0  0  0  0  0  0  0  0  0  0
  150.0425  140.9417  156.1746 C   0  0  0  0  0  0  0  0  0  0  0  0
  150.8729  142.0219  156.7016 N   0  0  0  0  0  0  0  0  0  0  0  0
  151.0745  142.2777  158.0043 C   0  0  0  0  0  0  0  0  0  0  0  0
  150.5215  141.6496  158.9079 O   0  0  0  0  0  0  0  0  0  0  0  0
  152.0780  143.3952  158.3280 C   0  0  1  0  0  0  0  0  0  0  0  0
  151.7247  144.7353  157.6546 C   0  0  0  0  0  0  0  0  0  0  0  0
  152.2291  143.5426  159.7855 N   0  0  0  0  0  0  0  0  0  0  0  0
  152.6622  142.5863  160.6694 C   0  0  0  0  0  0  0  0  0  0  0  0
  152.6286  143.1575  161.9154 C   0  0  0  0  0  0  0  0  0  0  0  0
  152.1764  144.4378  161.7433 N   0  3  0  0  0  0  0  0  0  0  0  0
  151.9343  144.6710  160.4496 C   0  0  0  0  0  0  0  0  0  0  0  0
  146.2256  142.9768  154.8537 H   0  0  0  0  0  0  0  0  0  0  0  0
  146.6723  141.6888  153.7297 H   0  0  0  0  0  0  0  0  0  0  0  0
  147.5210  143.2436  153.6828 H   0  0  0  0  0  0  0  0  0  0  0  0
  147.8079  142.1463  156.2893 H   0  0  0  0  0  0  0  0  0  0  0  0
  149.3933  140.5879  156.9758 H   0  0  0  0  0  0  0  0  0  0  0  0
  150.6658  140.0959  155.8783 H   0  0  0  0  0  0  0  0  0  0  0  0
  151.3670  142.5842  156.0241 H   0  0  0  0  0  0  0  0  0  0  0  0
  153.0498  143.0823  157.9419 H   0  0  0  0  0  0  0  0  0  0  0  0
  151.6463  144.6231  156.5726 H   0  0  0  0  0  0  0  0  0  0  0  0
  152.4951  145.4820  157.8493 H   0  0  0  0  0  0  0  0  0  0  0  0
  150.7774  145.1379  158.0151 H   0  0  0  0  0  0  0  0  0  0  0  0
  152.9529  141.5943  160.3557 H   0  0  0  0  0  0  0  0  0  0  0  0
  152.8844  142.7587  162.8863 H   0  0  0  0  0  0  0  0  0  0  0  0
  151.5658  145.5882  160.0253 H   0  0  0  0  0  0  0  0  0  0  0  0
  152.0403  145.1121  162.4861 H   0  0  0  0  0  0  0  0  0  0  0  0
  1  2  1  0  0  0  0
  1 16  1  0  0  0  0
  1 17  1  0  0  0  0
  1 18  1  0  0  0  0
  2  3  1  0  0  0  0
  2 19  1  0  0  0  0
  3  4  2  0  0  0  0
  3  5  1  0  0  0  0
  5  6  1  0  0  0  0
  5 20  1  0  0  0  0
  5 21  1  0  0  0  0
  6  7  1  0  0  0  0
  6 22  1  0  0  0  0
  7  8  2  0  0  0  0
  7  9  1  0  0  0  0
  9 10  1  0  0  0  0
  9 11  1  0  0  0  0
  9 23  1  0  0  0  0
 10 24  1  0  0  0  0
 10 25  1  0  0  0  0
 10 26  1  0  0  0  0
 11 15  1  0  0  0  0
 11 12  1  0  0  0  0
 12 13  2  0  0  0  0
 12 27  1  0  0  0  0
 13 14  1  0  0  0  0
 13 28  1  0  0  0  0
 14 15  2  0  0  0  0
 14 30  1  0  0  0  0
 15 29  1  0  0  0  0
M  CHG  1  14   1
M  END
> <s_m_source_file>
AV-unprocessed.smi

> <i_m_source_file_index>
3111

> <i_lp_mmshare_version>
43012

> <i_f3d_flags>
0

> <s_epik_input>
W0NIM11bTkhdQyg9TylbQ0gyXVtOSF1DKD1PKVtDQEhdKFtDSDNdKW4xW2NIXVtjSF1uW2NIXTE=

> <s_epik_cmdline>
J2VwaWtfcHl0aG9uJywgJy1waCcsICc3LjAnLCAnLXRuJywgJzgnLCAnLW1hJywgJzIwMCcsICctbWV0YWxfYmluZGluZycsICctaW1hZScsICc8aW5maWxlLm1hZT4nLCAnLW9tYWUnLCAnPG91dGZpbGUubWFlPic=

> <r_lp_tautomer_probability>
1

> <r_epik_Ionization_Penalty>
0.581414

> <r_epik_Ionization_Penalty_Charging>
0

> <r_epik_Ionization_Penalty_Neutral>
0.581414

> <r_epik_State_Penalty>
0.594207

> <r_epik_Charging_Adjusted_Penalty>
0.594207

> <i_epik_Tot_Q>
1

> <i_epik_Tot_abs_Q>
1

> <r_epik_Metal_State_Penalty>
0.784638

> <b_epik_Metal_Only>
0

> <s_lp_Force_Field>
OPLS_2005

> <r_lp_Energy>
5.66591

> <b_lp_Chiralities_Consistent>
1

> <s_lp_Variant>
AV-unprocessed.smi:3111-4

> <Gold.Version>
5.8.1

> <Gold.Id.Protein>
6NUR|6NUR_protein|mol2

> <Gold.PLP.Fitness>
41.2712

> <Gold.PLP.PLP>
-38.4857

> <Gold.PLP.part.hbond>
-4.6530

> <Gold.PLP.part.metal>
0.0000

> <Gold.PLP.part.buried>
-5.1628

> <Gold.PLP.part.nonpolar>
-30.3332

> <Gold.PLP.part.repulsive>
2.1725

> <Gold.PLP.ligand.clash>
0.0000

> <Gold.PLP.ligand.torsion>
0.5067

> <Gold.PLP.Chemscore.Hbond>
1.2341

> <Gold.PLP.Chemscore.CHOScore>
0.0000

> <Gold.PLP.Chemscore.Metal>
0.0000

> <Gold.Chemscore.Hbonds>
donor molecule, donor type, donor heavy atom, donor atom, acceptor molecule, acceptor atom, score
      P1  H  7989  7998       L1     4  0.23
      P1  H  8011  8017       L1     4  0.88

> <Gold.PLP.Chemscore.Internal.Correction>
0.0965

> <Gold.Rescore>
     Score         DG    S(hbond)    S(metal)    S(lipo)     H(rot)  DE(clash)    DE(int)     intcor
      7.69      -9.81       0.93        0.00      61.39       2.33       1.33       0.79       ----

> <Gold.Chemscore.Fitness>
7.6918

> <Gold.Chemscore.DG>
-9.8067

> <Gold.Chemscore.ZeroCoef>
-5.4800

> <Gold.Chemscore.Hbond>
0.9316

> <Gold.Chemscore.Metal>
0.0000

> <Gold.Chemscore.Lipo>
61.3899

> <Gold.Chemscore.Internal_Hbond>
0.0000

> <Gold.Chemscore.DEClash>
1.3275

> <Gold.Chemscore.DEInternal>
0.7874

> <Gold.Chemscore.Rot>
2.3311

> <Gold.Chemscore.Internal.Correction>
   9.000000E+99

> <Gold.Chemscore.Hbonds>
donor molecule, donor type, donor heavy atom, donor atom, acceptor molecule, acceptor atom, score
      P1  H  7989  7998       L1     4  0.22
      P1  H  8011  8017       L1     4  0.85

> <Gold.Chemscore.Hbond.Weighted>
-3.1117

> <Gold.Chemscore.Metal.Weighted>
-0.0000

> <Gold.Chemscore.Lipo.Weighted>
-7.1826

> <Gold.Chemscore.Internal_Hbond.Weighted>
0.0000

> <Gold.Chemscore.DEClash.Weighted>
1.3275

> <Gold.Chemscore.DEInternal.Weighted>
0.7874

> <Gold.Chemscore.Rot.Weighted>
5.9676

> <Gold.Chemscore.Internal.Correction.Weighted>
   9.000000E+99

> <Gold.Protein.RotatedTorsions>
[ 6907 6896 6895 6894 ] final -103.80 input  -60.11 | X-H torsion
[ 7974 7965 7964 7962 ] final   77.14 input  175.53 | X-H torsion
[ 8008 7997 7996 7995 ] final  151.79 input   59.86 | X-H torsion
[ 10167 10162 10161 10158 ] final -149.57 input  -65.29 | X-H torsion
[ 10718 10713 10712 10709 ] final -103.02 input   66.30 | X-H torsion
[ 10763 10752 10751 10750 ] final  -59.71 input  -60.55 | X-H torsion
[ 11005 11000 10999 10996 ] final  -61.74 input  -57.11 | X-H torsion

> <Gold.Protein.ActiveResidues>
 VAL166  LYS551  ARG553  GLY616  TRP617  ASP618  TYR619  PRO620  LYS621  CYS622 
 ASP623  PHE694  ASN695  SER759  ASP760  ASP761  ALA762  ILE779  LEU786  VAL792 
 PHE793  MET794  SER795  GLU796  ALA797  LYS798  CYS799  TRP800  GLU811  SER814 

> <Gold.Protein.RotatedAtoms>
  150.7257  134.0375  159.3753 H   0  0  0  0  0  0  0  0  0  0  0  0  # atno 6907 bound_to 6896
  151.8347  135.0608  160.0450 H   0  0  0  0  0  0  0  0  0  0  0  0  # atno 6908 bound_to 6896
  152.2907  133.5523  159.5592 H   0  0  0  0  0  0  0  0  0  0  0  0  # atno 6909 bound_to 6896
  145.6938  139.2561  143.1744 H   0  0  0  0  0  0  0  0  0  0  0  0  # atno 7974 bound_to 7965
  156.2658  140.2038  156.6231 H   0  0  0  0  0  0  0  0  0  0  0  0  # atno 8008 bound_to 7997
  154.6741  140.0547  157.0221 H   0  0  0  0  0  0  0  0  0  0  0  0  # atno 8009 bound_to 7997
  155.1094  140.3214  155.4528 H   0  0  0  0  0  0  0  0  0  0  0  0  # atno 8010 bound_to 7997
  139.7431  143.8631  152.2567 H   0  0  0  0  0  0  0  0  0  0  0  0  # atno 10167 bound_to 10162
  156.0250  130.5447  150.7192 H   0  0  0  0  0  0  0  0  0  0  0  0  # atno 10718 bound_to 10713
  154.2579  135.6313  153.5264 H   0  0  0  0  0  0  0  0  0  0  0  0  # atno 10763 bound_to 10752
  152.9901  135.5580  154.5736 H   0  0  0  0  0  0  0  0  0  0  0  0  # atno 10764 bound_to 10752
  154.5278  135.2886  155.1181 H   0  0  0  0  0  0  0  0  0  0  0  0  # atno 10765 bound_to 10752
  141.1335  133.6633  156.5421 H   0  0  0  0  0  0  0  0  0  0  0  0  # atno 11005 bound_to 11000
  146.0858  140.7712  142.9619 LP  0  0  0  0  0  0  0  0  0  0  0  0  # atno 17320 bound_to 7965
  144.6988  140.3560  143.7173 LP  0  0  0  0  0  0  0  0  0  0  0  0  # atno 17321 bound_to 7965
  139.8588  144.7128  150.9125 LP  0  0  0  0  0  0  0  0  0  0  0  0  # atno 17342 bound_to 10162
  140.7788  143.3835  151.1434 LP  0  0  0  0  0  0  0  0  0  0  0  0  # atno 17343 bound_to 10162
  157.4812  131.0902  151.0534 LP  0  0  0  0  0  0  0  0  0  0  0  0  # atno 17370 bound_to 10713
  157.0967  130.5965  149.5451 LP  0  0  0  0  0  0  0  0  0  0  0  0  # atno 17371 bound_to 10713
  140.4131  134.7254  157.4847 LP  0  0  0  0  0  0  0  0  0  0  0  0  # atno 17394 bound_to 11000
  140.0413  134.6263  155.8977 LP  0  0  0  0  0  0  0  0  0  0  0  0  # atno 17395 bound_to 11000

$$$$
