AV-unprocessed.smi:615|AV-procd|sdf|3070|dock1
  -GOLD-   2262023593D 1   1.00000     0.00000
 Structure written by MMmdl.
 26 27  0  0  0  0  0  0  0  0  1 V2000
  145.9401  136.9235  153.0089 C   0  0  0  0  0  0  0  0  0  0  0  0
  146.2138  138.0898  152.0500 C   0  0  0  0  0  0  0  0  0  0  0  0
  147.4580  138.7758  152.3797 N   0  0  0  0  0  0  0  0  0  0  0  0
  147.8134  139.1784  153.6086 C   0  0  0  0  0  0  0  0  0  0  0  0
  147.1139  139.0059  154.6071 O   0  0  0  0  0  0  0  0  0  0  0  0
  149.0147  139.7830  153.5951 N   0  0  0  0  0  0  0  0  0  0  0  0
  149.7212  140.3606  154.6836 C   0  0  0  0  0  0  0  0  0  0  0  0
  151.0348  140.1941  154.8902 N   0  0  0  0  0  0  0  0  0  0  0  0
  151.4692  140.8604  156.0271 N   0  0  0  0  0  0  0  0  0  0  0  0
  150.4767  141.5114  156.6453 C   0  0  0  0  0  0  0  0  0  0  0  0
  150.6993  142.3002  157.8927 C   0  0  0  0  0  0  0  0  0  0  0  0
  151.5601  143.5446  157.9017 C   0  0  0  0  0  0  0  0  0  0  0  0
  152.0443  142.2899  158.5827 C   0  0  0  0  0  0  0  0  0  0  0  0
  148.9016  141.3580  155.8731 S   0  0  0  0  0  0  0  0  0  0  0  0
  144.9901  136.4440  152.7724 H   0  0  0  0  0  0  0  0  0  0  0  0
  145.8913  137.2656  154.0430 H   0  0  0  0  0  0  0  0  0  0  0  0
  146.7187  136.1629  152.9430 H   0  0  0  0  0  0  0  0  0  0  0  0
  146.2383  137.7361  151.0178 H   0  0  0  0  0  0  0  0  0  0  0  0
  145.4007  138.8134  152.1104 H   0  0  0  0  0  0  0  0  0  0  0  0
  148.0926  138.9577  151.6159 H   0  0  0  0  0  0  0  0  0  0  0  0
  149.4748  139.8448  152.6990 H   0  0  0  0  0  0  0  0  0  0  0  0
  149.8064  142.2957  158.5149 H   0  0  0  0  0  0  0  0  0  0  0  0
  152.0594  143.8331  156.9790 H   0  0  0  0  0  0  0  0  0  0  0  0
  151.2416  144.3693  158.5362 H   0  0  0  0  0  0  0  0  0  0  0  0
  152.0496  142.2768  159.6707 H   0  0  0  0  0  0  0  0  0  0  0  0
  152.8532  141.7402  158.1053 H   0  0  0  0  0  0  0  0  0  0  0  0
  1  2  1  0  0  0  0
  1 15  1  0  0  0  0
  1 16  1  0  0  0  0
  1 17  1  0  0  0  0
  2  3  1  0  0  0  0
  2 18  1  0  0  0  0
  2 19  1  0  0  0  0
  3  4  1  0  0  0  0
  3 20  1  0  0  0  0
  4  5  2  0  0  0  0
  4  6  1  0  0  0  0
  6  7  1  0  0  0  0
  6 21  1  0  0  0  0
  7 14  1  0  0  0  0
  7  8  2  0  0  0  0
  8  9  1  0  0  0  0
  9 10  2  0  0  0  0
 10 11  1  0  0  0  0
 10 14  1  0  0  0  0
 11 13  1  0  0  0  0
 11 12  1  0  0  0  0
 11 22  1  0  0  0  0
 12 13  1  0  0  0  0
 12 23  1  0  0  0  0
 12 24  1  0  0  0  0
 13 25  1  0  0  0  0
 13 26  1  0  0  0  0
M  END
> <s_m_source_file>
AV-unprocessed.smi

> <i_m_source_file_index>
615

> <i_lp_mmshare_version>
43012

> <i_f3d_flags>
0

> <s_epik_input>
W0NIM11bQ0gyXVtOSF1DKD1PKVtOSF1jMW5uYyhzMSlbQ0hdMltDSDJdW0NIMl0y

> <s_epik_cmdline>
J2VwaWtfcHl0aG9uJywgJy1waCcsICc3LjAnLCAnLXRuJywgJzgnLCAnLW1hJywgJzIwMCcsICctbWV0YWxfYmluZGluZycsICctaW1hZScsICc8aW5maWxlLm1hZT4nLCAnLW9tYWUnLCAnPG91dGZpbGUubWFlPic=

> <r_lp_tautomer_probability>
1

> <r_epik_Ionization_Penalty>
0.000941979

> <r_epik_Ionization_Penalty_Charging>
0

> <r_epik_Ionization_Penalty_Neutral>
0.000941979

> <r_epik_State_Penalty>
-0

> <r_epik_Charging_Adjusted_Penalty>
0

> <i_epik_Tot_Q>
0

> <i_epik_Tot_abs_Q>
0

> <r_epik_Metal_State_Penalty>
0.281647

> <b_epik_Metal_Only>
0

> <s_lp_Force_Field>
OPLS_2005

> <r_lp_Energy>
0.300577

> <b_lp_Chiralities_Consistent>
1

> <s_lp_Variant>
AV-unprocessed.smi:615-1

> <Gold.Version>
5.8.1

> <Gold.Id.Protein>
6NUR|6NUR_protein|mol2

> <Gold.PLP.Fitness>
32.6801

> <Gold.PLP.PLP>
-24.9707

> <Gold.PLP.part.hbond>
-4.1456

> <Gold.PLP.part.metal>
0.0000

> <Gold.PLP.part.buried>
-2.5635

> <Gold.PLP.part.nonpolar>
-18.9245

> <Gold.PLP.part.repulsive>
0.3876

> <Gold.PLP.ligand.clash>
0.0000

> <Gold.PLP.ligand.torsion>
0.4817

> <Gold.PLP.Chemscore.Hbond>
2.8480

> <Gold.PLP.Chemscore.CHOScore>
0.0000

> <Gold.PLP.Chemscore.Metal>
0.0000

> <Gold.Chemscore.Hbonds>
donor molecule, donor type, donor heavy atom, donor atom, acceptor molecule, acceptor atom, score
      L1  H     3    20       P1  7957  0.86
      L1  H     6    21       P1  7957  1.00
      P1  H  7989  7998       L1     8  1.00

> <Gold.PLP.Chemscore.Internal.Correction>
0.1288

> <Gold.Rescore>
     Score         DG    S(hbond)    S(metal)    S(lipo)     H(rot)  DE(clash)    DE(int)     intcor
     15.38     -17.06       2.74        0.00      47.83       1.24       0.24       1.43       ----

> <Gold.Chemscore.Fitness>
15.3840

> <Gold.Chemscore.DG>
-17.0554

> <Gold.Chemscore.ZeroCoef>
-5.4800

> <Gold.Chemscore.Hbond>
2.7432

> <Gold.Chemscore.Metal>
0.0000

> <Gold.Chemscore.Lipo>
47.8321

> <Gold.Chemscore.Internal_Hbond>
0.0000

> <Gold.Chemscore.DEClash>
0.2421

> <Gold.Chemscore.DEInternal>
1.4293

> <Gold.Chemscore.Rot>
1.2434

> <Gold.Chemscore.Internal.Correction>
   9.000000E+99

> <Gold.Chemscore.Hbonds>
donor molecule, donor type, donor heavy atom, donor atom, acceptor molecule, acceptor atom, score
      L1  H     3    20       P1  7957  0.70
      L1  H     6    21       P1  7957  0.95
      P1  H  7989  7998       L1     8  0.21

> <Gold.Chemscore.Hbond.Weighted>
-9.1622

> <Gold.Chemscore.Metal.Weighted>
-0.0000

> <Gold.Chemscore.Lipo.Weighted>
-5.5964

> <Gold.Chemscore.Internal_Hbond.Weighted>
0.0000

> <Gold.Chemscore.DEClash.Weighted>
0.2421

> <Gold.Chemscore.DEInternal.Weighted>
1.4293

> <Gold.Chemscore.Rot.Weighted>
3.1832

> <Gold.Chemscore.Internal.Correction.Weighted>
   9.000000E+99

> <Gold.Protein.RotatedTorsions>
[ 6907 6896 6895 6894 ] final -165.57 input  -60.11 | X-H torsion
[ 7974 7965 7964 7962 ] final   41.93 input  175.53 | X-H torsion
[ 8008 7997 7996 7995 ] final   76.74 input   59.86 | X-H torsion
[ 10167 10162 10161 10158 ] final -136.76 input  -65.29 | X-H torsion
[ 10718 10713 10712 10709 ] final -153.71 input   66.30 | X-H torsion
[ 10763 10752 10751 10750 ] final -151.66 input  -60.55 | X-H torsion
[ 11005 11000 10999 10996 ] final   83.49 input  -57.11 | X-H torsion

> <Gold.Protein.ActiveResidues>
 VAL166  LYS551  ARG553  GLY616  TRP617  ASP618  TYR619  PRO620  LYS621  CYS622 
 ASP623  PHE694  ASN695  SER759  ASP760  ASP761  ALA762  ILE779  LEU786  VAL792 
 PHE793  MET794  SER795  GLU796  ALA797  LYS798  CYS799  TRP800  GLU811  SER814 

> <Gold.Protein.RotatedAtoms>
  151.4298  133.3673  159.2766 H   0  0  0  0  0  0  0  0  0  0  0  0  # atno 6907 bound_to 6896
  150.9233  134.8652  159.7514 H   0  0  0  0  0  0  0  0  0  0  0  0  # atno 6908 bound_to 6896
  152.4993  134.4237  159.9541 H   0  0  0  0  0  0  0  0  0  0  0  0  # atno 6909 bound_to 6896
  146.0783  139.5359  142.9554 H   0  0  0  0  0  0  0  0  0  0  0  0  # atno 7974 bound_to 7965
  155.8316  140.3466  155.5576 H   0  0  0  0  0  0  0  0  0  0  0  0  # atno 8008 bound_to 7997
  155.8236  140.0916  157.1854 H   0  0  0  0  0  0  0  0  0  0  0  0  # atno 8009 bound_to 7997
  154.4004  140.1425  156.3517 H   0  0  0  0  0  0  0  0  0  0  0  0  # atno 8010 bound_to 7997
  139.8646  143.7034  152.2646 H   0  0  0  0  0  0  0  0  0  0  0  0  # atno 10167 bound_to 10162
  156.4895  130.8341  151.2564 H   0  0  0  0  0  0  0  0  0  0  0  0  # atno 10718 bound_to 10713
  154.8044  135.3255  154.7469 H   0  0  0  0  0  0  0  0  0  0  0  0  # atno 10763 bound_to 10752
  153.8130  135.6894  153.4842 H   0  0  0  0  0  0  0  0  0  0  0  0  # atno 10764 bound_to 10752
  153.1780  135.4597  154.9935 H   0  0  0  0  0  0  0  0  0  0  0  0  # atno 10765 bound_to 10752
  139.9029  134.8148  156.2316 H   0  0  0  0  0  0  0  0  0  0  0  0  # atno 11005 bound_to 11000
  145.6266  141.0312  143.1886 LP  0  0  0  0  0  0  0  0  0  0  0  0  # atno 17320 bound_to 7965
  144.7276  139.7827  143.7359 LP  0  0  0  0  0  0  0  0  0  0  0  0  # atno 17321 bound_to 7965
  139.7341  144.7575  151.0755 LP  0  0  0  0  0  0  0  0  0  0  0  0  # atno 17342 bound_to 10162
  140.7770  143.5052  150.9722 LP  0  0  0  0  0  0  0  0  0  0  0  0  # atno 17343 bound_to 10162
  157.7475  131.0018  150.2977 LP  0  0  0  0  0  0  0  0  0  0  0  0  # atno 17370 bound_to 10713
  156.3440  130.3820  149.7385 LP  0  0  0  0  0  0  0  0  0  0  0  0  # atno 17371 bound_to 10713
  141.0341  133.6972  156.1482 LP  0  0  0  0  0  0  0  0  0  0  0  0  # atno 17394 bound_to 11000
  140.7052  134.4521  157.5584 LP  0  0  0  0  0  0  0  0  0  0  0  0  # atno 17395 bound_to 11000

$$$$
