AV-unprocessed.smi:685|AV-procd|sdf|3335|dock4
  -GOLD-   22720 0303D 1   1.00000     0.00000
 Structure written by MMmdl.
 51 52  0  0  0  0  0  0  0  0  2 V2000
  147.9389  141.1523  153.5283 C   0  0  0  0  0  0  0  0  0  0  0  0
  148.9799  141.0312  154.5905 C   0  0  0  0  0  0  0  0  0  0  0  0
  149.3014  142.0196  155.4673 N   0  3  0  0  0  0  0  0  0  0  0  0
  150.2728  141.6073  156.2948 N   0  0  0  0  0  0  0  0  0  0  0  0
  150.7675  142.5257  157.3208 C   0  0  0  0  0  0  0  0  0  0  0  0
  150.6297  140.3246  156.0004 C   0  0  0  0  0  0  0  0  0  0  0  0
  151.6817  139.5463  156.7218 C   0  0  0  0  0  0  0  0  0  0  0  0
  149.8133  139.9570  154.9229 C   0  0  0  0  0  0  0  0  0  0  0  0
  149.8212  138.6266  154.2238 C   0  0  0  0  0  0  0  0  0  0  0  0
  149.5179  137.4441  155.1692 C   0  0  2  0  0  0  0  0  0  0  0  0
  150.7879  136.7302  155.6575 C   0  0  0  0  0  0  0  0  0  0  0  0
  148.6502  136.4749  154.5062 N   0  0  0  0  0  0  0  0  0  0  0  0
  148.2005  135.3359  155.0568 C   0  0  0  0  0  0  0  0  0  0  0  0
  148.4645  134.9964  156.2110 O   0  0  0  0  0  0  0  0  0  0  0  0
  147.3141  134.4595  154.1664 C   0  0  0  0  0  0  0  0  0  0  0  0
  147.9564  133.1022  153.8198 C   0  0  0  0  0  0  0  0  0  0  0  0
  147.2626  132.3852  152.6480 C   0  0  0  0  0  0  0  0  0  0  0  0
  146.9954  133.2983  151.4491 C   0  0  0  0  0  0  0  0  0  0  0  0
  145.9166  132.5788  150.6335 C   0  0  0  0  0  0  0  0  0  0  0  0
  145.1821  131.6533  151.6155 C   0  0  0  0  0  0  0  0  0  0  0  0
  145.8717  131.8309  152.9732 C   0  0  0  0  0  0  0  0  0  0  0  0
  148.3154  140.7614  152.5830 H   0  0  0  0  0  0  0  0  0  0  0  0
  147.6577  142.1956  153.3832 H   0  0  0  0  0  0  0  0  0  0  0  0
  147.0492  140.5881  153.8081 H   0  0  0  0  0  0  0  0  0  0  0  0
  151.8517  142.4347  157.3921 H   0  0  0  0  0  0  0  0  0  0  0  0
  150.3150  142.2654  158.2779 H   0  0  0  0  0  0  0  0  0  0  0  0
  150.5100  143.5531  157.0606 H   0  0  0  0  0  0  0  0  0  0  0  0
  151.4356  138.4850  156.7301 H   0  0  0  0  0  0  0  0  0  0  0  0
  151.7691  139.8812  157.7555 H   0  0  0  0  0  0  0  0  0  0  0  0
  152.6456  139.6760  156.2301 H   0  0  0  0  0  0  0  0  0  0  0  0
  149.0845  138.6482  153.4198 H   0  0  0  0  0  0  0  0  0  0  0  0
  150.7781  138.4611  153.7276 H   0  0  0  0  0  0  0  0  0  0  0  0
  148.9942  137.8198  156.0500 H   0  0  0  0  0  0  0  0  0  0  0  0
  151.4301  137.4030  156.2260 H   0  0  0  0  0  0  0  0  0  0  0  0
  151.3699  136.3391  154.8223 H   0  0  0  0  0  0  0  0  0  0  0  0
  150.5396  135.8924  156.3101 H   0  0  0  0  0  0  0  0  0  0  0  0
  148.3807  136.6788  153.5545 H   0  0  0  0  0  0  0  0  0  0  0  0
  146.3645  134.3018  154.6786 H   0  0  0  0  0  0  0  0  0  0  0  0
  147.0891  135.0049  153.2491 H   0  0  0  0  0  0  0  0  0  0  0  0
  149.0142  133.2404  153.5910 H   0  0  0  0  0  0  0  0  0  0  0  0
  147.9166  132.4506  154.6940 H   0  0  0  0  0  0  0  0  0  0  0  0
  147.8933  131.5611  152.3098 H   0  0  0  0  0  0  0  0  0  0  0  0
  146.6083  134.2587  151.7930 H   0  0  0  0  0  0  0  0  0  0  0  0
  147.8949  133.4963  150.8652 H   0  0  0  0  0  0  0  0  0  0  0  0
  145.2399  133.2874  150.1548 H   0  0  0  0  0  0  0  0  0  0  0  0
  146.3786  131.9848  149.8439 H   0  0  0  0  0  0  0  0  0  0  0  0
  144.1190  131.8878  151.6778 H   0  0  0  0  0  0  0  0  0  0  0  0
  145.2681  130.6184  151.2816 H   0  0  0  0  0  0  0  0  0  0  0  0
  145.9129  130.8994  153.5385 H   0  0  0  0  0  0  0  0  0  0  0  0
  145.3139  132.5538  153.5702 H   0  0  0  0  0  0  0  0  0  0  0  0
  148.9106  142.9504  155.5414 H   0  0  0  0  0  0  0  0  0  0  0  0
  1  2  1  0  0  0  0
  1 22  1  0  0  0  0
  1 23  1  0  0  0  0
  1 24  1  0  0  0  0
  2  8  1  0  0  0  0
  2  3  2  0  0  0  0
  3  4  1  0  0  0  0
  3 51  1  0  0  0  0
  4  5  1  0  0  0  0
  4  6  1  0  0  0  0
  5 25  1  0  0  0  0
  5 26  1  0  0  0  0
  5 27  1  0  0  0  0
  6  7  1  0  0  0  0
  6  8  2  0  0  0  0
  7 28  1  0  0  0  0
  7 29  1  0  0  0  0
  7 30  1  0  0  0  0
  8  9  1  0  0  0  0
  9 10  1  0  0  0  0
  9 31  1  0  0  0  0
  9 32  1  0  0  0  0
 10 11  1  0  0  0  0
 10 12  1  0  0  0  0
 10 33  1  0  0  0  0
 11 34  1  0  0  0  0
 11 35  1  0  0  0  0
 11 36  1  0  0  0  0
 12 13  1  0  0  0  0
 12 37  1  0  0  0  0
 13 14  2  0  0  0  0
 13 15  1  0  0  0  0
 15 16  1  0  0  0  0
 15 38  1  0  0  0  0
 15 39  1  0  0  0  0
 16 17  1  0  0  0  0
 16 40  1  0  0  0  0
 16 41  1  0  0  0  0
 17 21  1  0  0  0  0
 17 18  1  0  0  0  0
 17 42  1  0  0  0  0
 18 19  1  0  0  0  0
 18 43  1  0  0  0  0
 18 44  1  0  0  0  0
 19 20  1  0  0  0  0
 19 45  1  0  0  0  0
 19 46  1  0  0  0  0
 20 21  1  0  0  0  0
 20 47  1  0  0  0  0
 20 48  1  0  0  0  0
 21 49  1  0  0  0  0
 21 50  1  0  0  0  0
M  CHG  1   3   1
M  END
> <s_m_source_file>
AV-unprocessed.smi

> <i_m_source_file_index>
685

> <i_lp_mmshare_version>
43012

> <i_f3d_flags>
0

> <s_epik_input>
W0NIM11jMW5uKFtDSDNdKWMoW0NIM10pYzFbQ0gyXVtDQEhdKFtDSDNdKVtOSF1DKD1PKVtDSDJdW0NIMl1bQ0hdMltDSDJdW0NIMl1bQ0gyXVtDSDJdMg==

> <s_epik_cmdline>
J2VwaWtfcHl0aG9uJywgJy1waCcsICc3LjAnLCAnLXRuJywgJzgnLCAnLW1hJywgJzIwMCcsICctbWV0YWxfYmluZGluZycsICctaW1hZScsICc8aW5maWxlLm1hZT4nLCAnLW9tYWUnLCAnPG91dGZpbGUubWFlPic=

> <r_lp_tautomer_probability>
1

> <r_epik_Ionization_Penalty>
2.26429

> <r_epik_Ionization_Penalty_Charging>
2.26429

> <r_epik_Ionization_Penalty_Neutral>
2.3289e-07

> <r_epik_State_Penalty>
2.41237

> <r_epik_Charging_Adjusted_Penalty>
4.67666

> <i_epik_Tot_Q>
1

> <i_epik_Tot_abs_Q>
1

> <r_epik_Metal_State_Penalty>
2.42525

> <b_epik_Metal_Only>
0

> <s_lp_Force_Field>
OPLS_2005

> <r_lp_Energy>
28.552

> <b_lp_Chiralities_Consistent>
1

> <s_lp_Variant>
AV-unprocessed.smi:685-3

> <Gold.Version>
5.8.1

> <Gold.Id.Protein>
6NUR|6NUR_protein|mol2

> <Gold.PLP.Fitness>
47.7739

> <Gold.PLP.PLP>
-40.9525

> <Gold.PLP.part.hbond>
-2.0000

> <Gold.PLP.part.metal>
0.0000

> <Gold.PLP.part.buried>
-2.9140

> <Gold.PLP.part.nonpolar>
-36.3062

> <Gold.PLP.part.repulsive>
0.1890

> <Gold.PLP.ligand.clash>
0.0000

> <Gold.PLP.ligand.torsion>
0.7199

> <Gold.PLP.Chemscore.Hbond>
2.7360

> <Gold.PLP.Chemscore.CHOScore>
0.0000

> <Gold.PLP.Chemscore.Metal>
0.0000

> <Gold.Chemscore.Hbonds>
donor molecule, donor type, donor heavy atom, donor atom, acceptor molecule, acceptor atom, score
      L1  H     3    51       P1  8028  2.00
      L1  H    12    37       P1  7948  0.74

> <Gold.PLP.Chemscore.Internal.Correction>
0.0532

> <Gold.Rescore>
     Score         DG    S(hbond)    S(metal)    S(lipo)     H(rot)  DE(clash)    DE(int)     intcor
     19.17     -20.17       1.97        0.00     104.62       1.61       0.06       0.94       ----

> <Gold.Chemscore.Fitness>
19.1700

> <Gold.Chemscore.DG>
-20.1704

> <Gold.Chemscore.ZeroCoef>
-5.4800

> <Gold.Chemscore.Hbond>
1.9669

> <Gold.Chemscore.Metal>
0.0000

> <Gold.Chemscore.Lipo>
104.6248

> <Gold.Chemscore.Internal_Hbond>
0.0000

> <Gold.Chemscore.DEClash>
0.0636

> <Gold.Chemscore.DEInternal>
0.9368

> <Gold.Chemscore.Rot>
1.6095

> <Gold.Chemscore.Internal.Correction>
   9.000000E+99

> <Gold.Chemscore.Hbonds>
donor molecule, donor type, donor heavy atom, donor atom, acceptor molecule, acceptor atom, score
      L1  H     3    51       P1  8028  0.99
      L1  H    12    37       P1  7948  0.74

> <Gold.Chemscore.Hbond.Weighted>
-6.5696

> <Gold.Chemscore.Metal.Weighted>
-0.0000

> <Gold.Chemscore.Lipo.Weighted>
-12.2411

> <Gold.Chemscore.Internal_Hbond.Weighted>
0.0000

> <Gold.Chemscore.DEClash.Weighted>
0.0636

> <Gold.Chemscore.DEInternal.Weighted>
0.9368

> <Gold.Chemscore.Rot.Weighted>
4.1202

> <Gold.Chemscore.Internal.Correction.Weighted>
   9.000000E+99

> <Gold.Protein.RotatedTorsions>
[ 6907 6896 6895 6894 ] final -106.71 input  -60.11 | X-H torsion
[ 7974 7965 7964 7962 ] final   38.08 input  175.53 | X-H torsion
[ 8008 7997 7996 7995 ] final -147.67 input   59.86 | X-H torsion
[ 10167 10162 10161 10158 ] final  144.04 input  -65.29 | X-H torsion
[ 10718 10713 10712 10709 ] final -107.05 input   66.30 | X-H torsion
[ 10763 10752 10751 10750 ] final -128.45 input  -60.55 | X-H torsion
[ 11005 11000 10999 10996 ] final   51.15 input  -57.11 | X-H torsion

> <Gold.Protein.ActiveResidues>
 VAL166  LYS551  ARG553  GLY616  TRP617  ASP618  TYR619  PRO620  LYS621  CYS622 
 ASP623  PHE694  ASN695  SER759  ASP760  ASP761  ALA762  ILE779  LEU786  VAL792 
 PHE793  MET794  SER795  GLU796  ALA797  LYS798  CYS799  TRP800  GLU811  SER814 

> <Gold.Protein.RotatedAtoms>
  150.7404  133.9935  159.3614 H   0  0  0  0  0  0  0  0  0  0  0  0  # atno 6907 bound_to 6896
  151.7884  135.0740  160.0393 H   0  0  0  0  0  0  0  0  0  0  0  0  # atno 6908 bound_to 6896
  152.3225  133.5832  159.5790 H   0  0  0  0  0  0  0  0  0  0  0  0  # atno 6909 bound_to 6896
  146.1089  139.5815  142.9365 H   0  0  0  0  0  0  0  0  0  0  0  0  # atno 7974 bound_to 7965
  155.5794  140.0642  157.2787 H   0  0  0  0  0  0  0  0  0  0  0  0  # atno 8008 bound_to 7997
  154.4337  140.1855  156.1007 H   0  0  0  0  0  0  0  0  0  0  0  0  # atno 8009 bound_to 7997
  156.0317  140.3305  155.7150 H   0  0  0  0  0  0  0  0  0  0  0  0  # atno 8010 bound_to 7997
  139.4956  144.5999  151.6502 H   0  0  0  0  0  0  0  0  0  0  0  0  # atno 10167 bound_to 10162
  156.0418  130.5643  150.7768 H   0  0  0  0  0  0  0  0  0  0  0  0  # atno 10718 bound_to 10713
  154.8756  135.3928  154.3758 H   0  0  0  0  0  0  0  0  0  0  0  0  # atno 10763 bound_to 10752
  153.4512  135.7028  153.6113 H   0  0  0  0  0  0  0  0  0  0  0  0  # atno 10764 bound_to 10752
  153.4652  135.3803  155.2329 H   0  0  0  0  0  0  0  0  0  0  0  0  # atno 10765 bound_to 10752
  140.0957  134.5149  155.8810 H   0  0  0  0  0  0  0  0  0  0  0  0  # atno 11005 bound_to 11000
  145.5705  141.0394  143.2177 LP  0  0  0  0  0  0  0  0  0  0  0  0  # atno 17320 bound_to 7965
  144.7494  139.7233  143.7279 LP  0  0  0  0  0  0  0  0  0  0  0  0  # atno 17321 bound_to 7965
  140.5647  144.0210  150.6186 LP  0  0  0  0  0  0  0  0  0  0  0  0  # atno 17342 bound_to 10162
  140.3308  143.3079  152.0689 LP  0  0  0  0  0  0  0  0  0  0  0  0  # atno 17343 bound_to 10162
  157.5246  131.0933  151.0034 LP  0  0  0  0  0  0  0  0  0  0  0  0  # atno 17370 bound_to 10713
  157.0356  130.5728  149.5349 LP  0  0  0  0  0  0  0  0  0  0  0  0  # atno 17371 bound_to 10713
  141.2091  133.6680  156.6417 LP  0  0  0  0  0  0  0  0  0  0  0  0  # atno 17394 bound_to 11000
  140.3290  134.7944  157.4311 LP  0  0  0  0  0  0  0  0  0  0  0  0  # atno 17395 bound_to 11000

$$$$
