AV-unprocessed.smi:1166|AV-procd|sdf|4936|dock7
  -GOLD-   22720 3523D 1   1.00000     0.00000
 Structure written by MMmdl.
 46 47  0  0  0  0  0  0  0  0  1 V2000
  145.1323  130.9937  151.0810 C   0  0  0  0  0  0  0  0  0  0  0  0
  144.6192  132.1236  150.3129 N   0  0  0  0  0  0  0  0  0  0  0  0
  143.8083  131.8851  149.1254 C   0  0  0  0  0  0  0  0  0  0  0  0
  144.8323  133.4427  150.7748 C   0  0  0  0  0  0  0  0  0  0  0  0
  145.6104  133.7054  151.9296 C   0  0  0  0  0  0  0  0  0  0  0  0
  145.7919  135.0371  152.3479 C   0  0  0  0  0  0  0  0  0  0  0  0
  145.1899  136.0786  151.6171 C   0  0  0  0  0  0  0  0  0  0  0  0
  145.4075  137.4134  152.0525 N   0  0  0  0  0  0  0  0  0  0  0  0
  146.2117  137.8510  153.0360 C   0  0  0  0  0  0  0  0  0  0  0  0
  146.9376  137.1416  153.7323 O   0  0  0  0  0  0  0  0  0  0  0  0
  146.1447  139.1842  153.1568 N   0  0  0  0  0  0  0  0  0  0  0  0
  146.9169  139.9845  154.1016 C   0  0  2  0  0  0  0  0  0  0  0  0
  146.3244  141.3967  154.2366 C   0  0  0  0  0  0  0  0  0  0  0  0
  147.1852  142.2285  155.1942 C   0  0  0  0  0  0  0  0  0  0  0  0
  148.6540  142.2678  154.7365 C   0  0  0  0  0  0  0  0  0  0  0  0
  149.1967  140.9103  154.5239 N   0  0  0  0  0  0  0  0  0  0  0  0
  150.2263  140.1851  155.7250 S   0  0  0  0  0  0  0  0  0  0  0  0
  149.5537  138.4851  155.9308 C   0  0  0  0  0  0  0  0  0  0  0  0
  151.5769  140.0767  155.1525 O   0  0  0  0  0  0  0  0  0  0  0  0
  150.0262  140.9134  156.9873 O   0  0  0  0  0  0  0  0  0  0  0  0
  148.3846  140.0539  153.6371 C   0  0  0  0  0  0  0  0  0  0  0  0
  144.4397  135.7251  150.4713 C   0  0  0  0  0  0  0  0  0  0  0  0
  144.2648  134.4496  150.0665 N   0  0  0  0  0  0  0  0  0  0  0  0
  146.2138  131.0682  151.1982 H   0  0  0  0  0  0  0  0  0  0  0  0
  144.9169  130.0458  150.5874 H   0  0  0  0  0  0  0  0  0  0  0  0
  144.6771  130.9665  152.0715 H   0  0  0  0  0  0  0  0  0  0  0  0
  142.8066  132.2957  149.2566 H   0  0  0  0  0  0  0  0  0  0  0  0
  143.7060  130.8190  148.9221 H   0  0  0  0  0  0  0  0  0  0  0  0
  144.2649  132.3475  148.2500 H   0  0  0  0  0  0  0  0  0  0  0  0
  146.0709  132.9146  152.5022 H   0  0  0  0  0  0  0  0  0  0  0  0
  146.3849  135.2521  153.2249 H   0  0  0  0  0  0  0  0  0  0  0  0
  144.9368  138.1255  151.5138 H   0  0  0  0  0  0  0  0  0  0  0  0
  145.5226  139.6862  152.5404 H   0  0  0  0  0  0  0  0  0  0  0  0
  146.8839  139.4971  155.0759 H   0  0  0  0  0  0  0  0  0  0  0  0
  146.2832  141.8829  153.2608 H   0  0  0  0  0  0  0  0  0  0  0  0
  145.2998  141.3489  154.6078 H   0  0  0  0  0  0  0  0  0  0  0  0
  146.7926  143.2437  155.2563 H   0  0  0  0  0  0  0  0  0  0  0  0
  147.1166  141.8153  156.1997 H   0  0  0  0  0  0  0  0  0  0  0  0
  148.7282  142.8173  153.7975 H   0  0  0  0  0  0  0  0  0  0  0  0
  149.2616  142.8117  155.4591 H   0  0  0  0  0  0  0  0  0  0  0  0
  150.1335  137.9643  156.6924 H   0  0  0  0  0  0  0  0  0  0  0  0
  149.6333  137.9373  154.9936 H   0  0  0  0  0  0  0  0  0  0  0  0
  148.5140  138.5321  156.2497 H   0  0  0  0  0  0  0  0  0  0  0  0
  148.8151  139.0541  153.5830 H   0  0  0  0  0  0  0  0  0  0  0  0
  148.4345  140.4643  152.6275 H   0  0  0  0  0  0  0  0  0  0  0  0
  143.9783  136.4658  149.8374 H   0  0  0  0  0  0  0  0  0  0  0  0
  1  2  1  0  0  0  0
  1 24  1  0  0  0  0
  1 25  1  0  0  0  0
  1 26  1  0  0  0  0
  2  3  1  0  0  0  0
  2  4  1  0  0  0  0
  3 27  1  0  0  0  0
  3 28  1  0  0  0  0
  3 29  1  0  0  0  0
  4 23  1  0  0  0  0
  4  5  2  0  0  0  0
  5  6  1  0  0  0  0
  5 30  1  0  0  0  0
  6  7  2  0  0  0  0
  6 31  1  0  0  0  0
  7  8  1  0  0  0  0
  7 22  1  0  0  0  0
  8  9  1  0  0  0  0
  8 32  1  0  0  0  0
  9 10  2  0  0  0  0
  9 11  1  0  0  0  0
 11 12  1  0  0  0  0
 11 33  1  0  0  0  0
 12 21  1  0  0  0  0
 12 13  1  0  0  0  0
 12 34  1  0  0  0  0
 13 14  1  0  0  0  0
 13 35  1  0  0  0  0
 13 36  1  0  0  0  0
 14 15  1  0  0  0  0
 14 37  1  0  0  0  0
 14 38  1  0  0  0  0
 15 16  1  0  0  0  0
 15 39  1  0  0  0  0
 15 40  1  0  0  0  0
 16 17  1  0  0  0  0
 16 21  1  0  0  0  0
 17 18  1  0  0  0  0
 17 19  2  0  0  0  0
 17 20  2  0  0  0  0
 18 41  1  0  0  0  0
 18 42  1  0  0  0  0
 18 43  1  0  0  0  0
 21 44  1  0  0  0  0
 21 45  1  0  0  0  0
 22 23  2  0  0  0  0
 22 46  1  0  0  0  0
M  END
> <s_m_source_file>
AV-unprocessed.smi

> <i_m_source_file_index>
1166

> <i_lp_mmshare_version>
43012

> <i_f3d_flags>
0

> <s_epik_input>
W0NIM11OKFtDSDNdKWMxW2NIXVtjSF1jKFtjSF1uMSlbTkhdQyg9TylbTkhdW0NAQEhdMltDSDJdW0NIMl1bQ0gyXU4oW0NIMl0yKVMoPU8pKD1PKVtDSDNd

> <s_epik_cmdline>
J2VwaWtfcHl0aG9uJywgJy1waCcsICc3LjAnLCAnLXRuJywgJzgnLCAnLW1hJywgJzIwMCcsICctbWV0YWxfYmluZGluZycsICctaW1hZScsICc8aW5maWxlLm1hZT4nLCAnLW9tYWUnLCAnPG91dGZpbGUubWFlPic=

> <r_lp_tautomer_probability>
1

> <r_epik_Ionization_Penalty>
0.585334

> <r_epik_Ionization_Penalty_Charging>
0

> <r_epik_Ionization_Penalty_Neutral>
0.585334

> <r_epik_State_Penalty>
0.597345

> <r_epik_Charging_Adjusted_Penalty>
0.597345

> <i_epik_Tot_Q>
0

> <i_epik_Tot_abs_Q>
0

> <r_epik_Metal_State_Penalty>
0.29678

> <b_epik_Metal_Only>
0

> <s_lp_Force_Field>
OPLS_2005

> <r_lp_Energy>
0.833523

> <b_lp_Chiralities_Consistent>
1

> <s_lp_Variant>
AV-unprocessed.smi:1166-3

> <Gold.Version>
5.8.1

> <Gold.Id.Protein>
6NUR|6NUR_protein|mol2

> <Gold.PLP.Fitness>
40.0936

> <Gold.PLP.PLP>
-29.3848

> <Gold.PLP.part.hbond>
-3.0000

> <Gold.PLP.part.metal>
0.0000

> <Gold.PLP.part.buried>
6.7576

> <Gold.PLP.part.nonpolar>
-36.4378

> <Gold.PLP.part.repulsive>
2.1260

> <Gold.PLP.ligand.clash>
0.0000

> <Gold.PLP.ligand.torsion>
1.3525

> <Gold.PLP.Chemscore.Hbond>
2.7836

> <Gold.PLP.Chemscore.CHOScore>
1.0000

> <Gold.PLP.Chemscore.Metal>
0.0000

> <Gold.Chemscore.Hbonds>
donor molecule, donor type, donor heavy atom, donor atom, acceptor molecule, acceptor atom, score
      L1  H     8    32       P1 10171  0.89
      L1  H    11    33       P1 10175  0.85
      P1  H  7989  7998       L1    19  1.00
      L1  C    22    46       P1 10171  1.00

> <Gold.PLP.Chemscore.Internal.Correction>
2.0629

> <Gold.Rescore>
     Score         DG    S(hbond)    S(metal)    S(lipo)     H(rot)  DE(clash)    DE(int)     intcor
     14.58     -20.58       2.75        0.00      72.47       1.00       3.20       2.80       ----

> <Gold.Chemscore.Fitness>
14.5776

> <Gold.Chemscore.DG>
-20.5803

> <Gold.Chemscore.ZeroCoef>
-5.4800

> <Gold.Chemscore.Hbond>
2.7487

> <Gold.Chemscore.Metal>
0.0000

> <Gold.Chemscore.Lipo>
72.4744

> <Gold.Chemscore.Internal_Hbond>
0.0000

> <Gold.Chemscore.DEClash>
3.1999

> <Gold.Chemscore.DEInternal>
2.8028

> <Gold.Chemscore.Rot>
1.0000

> <Gold.Chemscore.Internal.Correction>
   9.000000E+99

> <Gold.Chemscore.Hbonds>
donor molecule, donor type, donor heavy atom, donor atom, acceptor molecule, acceptor atom, score
      L1  H     8    32       P1 10171  0.82
      L1  H    11    33       P1 10175  0.80
      P1  H  7989  7998       L1    19  0.75

> <Gold.Chemscore.Hbond.Weighted>
-9.1808

> <Gold.Chemscore.Metal.Weighted>
-0.0000

> <Gold.Chemscore.Lipo.Weighted>
-8.4795

> <Gold.Chemscore.Internal_Hbond.Weighted>
0.0000

> <Gold.Chemscore.DEClash.Weighted>
3.1999

> <Gold.Chemscore.DEInternal.Weighted>
2.8028

> <Gold.Chemscore.Rot.Weighted>
2.5600

> <Gold.Chemscore.Internal.Correction.Weighted>
   9.000000E+99

> <Gold.Protein.RotatedTorsions>
[ 6907 6896 6895 6894 ] final  162.89 input  -60.11 | X-H torsion
[ 7974 7965 7964 7962 ] final   50.15 input  175.53 | X-H torsion
[ 8008 7997 7996 7995 ] final -152.43 input   59.86 | X-H torsion
[ 10167 10162 10161 10158 ] final  138.65 input  -65.29 | X-H torsion
[ 10718 10713 10712 10709 ] final  170.06 input   66.30 | X-H torsion
[ 10763 10752 10751 10750 ] final   13.51 input  -60.55 | X-H torsion
[ 11005 11000 10999 10996 ] final -159.99 input  -57.11 | X-H torsion

> <Gold.Protein.ActiveResidues>
 VAL166  LYS551  ARG553  GLY616  TRP617  ASP618  TYR619  PRO620  LYS621  CYS622 
 ASP623  PHE694  ASN695  SER759  ASP760  ASP761  ALA762  ILE779  LEU786  VAL792 
 PHE793  MET794  SER795  GLU796  ALA797  LYS798  CYS799  TRP800  GLU811  SER814 

> <Gold.Protein.RotatedAtoms>
  151.9335  133.3618  159.3939 H   0  0  0  0  0  0  0  0  0  0  0  0  # atno 6907 bound_to 6896
  150.7012  134.4513  159.5347 H   0  0  0  0  0  0  0  0  0  0  0  0  # atno 6908 bound_to 6896
  152.2157  134.8460  160.0543 H   0  0  0  0  0  0  0  0  0  0  0  0  # atno 6909 bound_to 6896
  146.0040  139.4470  142.9997 H   0  0  0  0  0  0  0  0  0  0  0  0  # atno 7974 bound_to 7965
  155.6551  140.0716  157.2573 H   0  0  0  0  0  0  0  0  0  0  0  0  # atno 8008 bound_to 7997
  154.4154  140.1726  156.1766 H   0  0  0  0  0  0  0  0  0  0  0  0  # atno 8009 bound_to 7997
  155.9744  140.3359  155.6609 H   0  0  0  0  0  0  0  0  0  0  0  0  # atno 8010 bound_to 7997
  139.5104  144.6341  151.5742 H   0  0  0  0  0  0  0  0  0  0  0  0  # atno 10167 bound_to 10162
  157.0136  131.0211  151.2796 H   0  0  0  0  0  0  0  0  0  0  0  0  # atno 10718 bound_to 10713
  153.1714  135.6813  153.8603 H   0  0  0  0  0  0  0  0  0  0  0  0  # atno 10763 bound_to 10752
  153.7966  135.3161  155.3386 H   0  0  0  0  0  0  0  0  0  0  0  0  # atno 10764 bound_to 10752
  154.8000  135.4783  154.0345 H   0  0  0  0  0  0  0  0  0  0  0  0  # atno 10765 bound_to 10752
  140.6364  134.4597  157.5232 H   0  0  0  0  0  0  0  0  0  0  0  0  # atno 11005 bound_to 11000
  145.7444  140.9996  143.1283 LP  0  0  0  0  0  0  0  0  0  0  0  0  # atno 17320 bound_to 7965
  144.6929  139.9138  143.7465 LP  0  0  0  0  0  0  0  0  0  0  0  0  # atno 17321 bound_to 7965
  140.6084  143.9482  150.6435 LP  0  0  0  0  0  0  0  0  0  0  0  0  # atno 17342 bound_to 10162
  140.2716  143.3452  152.1232 LP  0  0  0  0  0  0  0  0  0  0  0  0  # atno 17343 bound_to 10162
  157.5302  130.8053  149.7908 LP  0  0  0  0  0  0  0  0  0  0  0  0  # atno 17370 bound_to 10713
  156.0127  130.3826  150.2211 LP  0  0  0  0  0  0  0  0  0  0  0  0  # atno 17371 bound_to 10713
  139.9096  134.8373  156.1576 LP  0  0  0  0  0  0  0  0  0  0  0  0  # atno 17394 bound_to 11000
  141.0638  133.6829  156.2005 LP  0  0  0  0  0  0  0  0  0  0  0  0  # atno 17395 bound_to 11000

$$$$
