#       Name:                AV-unprocessed.smi:5
#       Creating user name   scv26
#       Creation time:       Thu Mar 26 15:15:18 2020


#       File generated by GOLD software.
#

@<TRIPOS>MOLECULE
AV-unprocessed.smi:5
    50    51     1
SMALL
NO_CHARGES


@<TRIPOS>ATOM
      1 ****        -3.8679   3.3277  -3.4682 C.3            1 S1                 0.0000
      2 ****        -3.4350   2.5354  -2.2515 C.2            1 S1                 0.0000
      3 ****        -4.2780   2.2436  -1.2437 C.2            1 S1                 0.0000
      4 ****        -3.8493   1.4705  -0.0121 C.3            1 S1                 0.0000
      5 ****        -2.3164   1.3902   0.0925 C.3            1 S1                 0.0000
      6 ****        -1.7288   1.0422  -1.2148 N.am           1 S1                 0.0000
      7 ****        -0.9399  -0.0332  -1.4651 C.2            1 S1                 0.0000
      8 ****        -0.2969  -0.1708  -2.5066 O.2            1 S1                 0.0000
      9 ****        -0.9540  -0.9760  -0.5072 N.am           1 S1                 0.0000
     10 ****        -0.1993  -2.2244  -0.5373 C.3            1 S1                 0.0000
     11 ****         1.2773  -1.9995  -0.2341 C.2            1 S1                 0.0000
     12 ****         1.6978  -1.6272   1.0010 C.2            1 S1                 0.0000
     13 ****         3.0254  -1.4049   1.3396 N.am           1 S1                 0.0000
     14 ****         3.4105  -1.0052   2.6831 C.3            1 S1                 0.0000
     15 ****         3.1845  -2.1513   3.6831 C.3            1 S1                 0.0000
     16 ****         2.7096   0.2965   3.1137 C.3            1 S1                 0.0000
     17 ****         4.0263  -1.5964   0.3537 C.2            1 S1                 0.0000
     18 ****         5.2315  -1.4457   0.5537 O.2            1 S1                 0.0000
     19 ****         3.5937  -1.9842  -0.9136 N.am           1 S1                 0.0000
     20 ****         2.2686  -2.2050  -1.2949 C.2            1 S1                 0.0000
     21 ****         2.0224  -2.5465  -2.4503 O.2            1 S1                 0.0000
     22 ****        -1.9848   2.0602  -2.2501 C.3            1 S1                 0.0000
     23 ****         4.3028  -2.1192  -1.6196 H              1 S1                 0.0000
     24 ****        -3.2463   4.2162  -3.5802 H              1 S1                 0.0000
     25 ****        -4.9071   3.6478  -3.3868 H              1 S1                 0.0000
     26 ****        -3.7678   2.7223  -4.3695 H              1 S1                 0.0000
     27 ****        -5.3093   2.5629  -1.2827 H              1 S1                 0.0000
     28 ****        -4.2588   1.9521   0.8762 H              1 S1                 0.0000
     29 ****        -4.2815   0.4707  -0.0647 H              1 S1                 0.0000
     30 ****        -1.9256   2.3680   0.3787 H              1 S1                 0.0000
     31 ****        -2.0371   0.7239   0.9086 H              1 S1                 0.0000
     32 ****        -1.5261  -0.8091   0.3079 H              1 S1                 0.0000
     33 ****        -0.6118  -2.8866   0.2242 H              1 S1                 0.0000
     34 ****        -0.3489  -2.7322  -1.4915 H              1 S1                 0.0000
     35 ****         0.9452  -1.4947   1.7646 H              1 S1                 0.0000
     36 ****         4.4766  -0.7798   2.6916 H              1 S1                 0.0000
     37 ****         3.5406  -1.8772   4.6764 H              1 S1                 0.0000
     38 ****         3.7220  -3.0498   3.3780 H              1 S1                 0.0000
     39 ****         2.1286  -2.4082   3.7717 H              1 S1                 0.0000
     40 ****         3.1037   0.6508   4.0665 H              1 S1                 0.0000
     41 ****         1.6349   0.1649   3.2389 H              1 S1                 0.0000
     42 ****         2.8668   1.0886   2.3808 H              1 S1                 0.0000
     43 ****        -1.7707   1.6759  -3.2488 H              1 S1                 0.0000
     44 ****        -1.3257   2.9149  -2.0929 H              1 S1                 0.0000
     45 ****        -0.3416   0.5305  -3.2181 LP             1 S1                 0.0000
     46 ****         0.2698  -0.9837  -2.6406 LP             1 S1                 0.0000
     47 ****         5.5577  -1.1711   1.4583 LP             1 S1                 0.0000
     48 ****         5.8843  -1.5978  -0.1883 LP             1 S1                 0.0000
     49 ****         1.0770  -2.7086  -2.7330 LP             1 S1                 0.0000
     50 ****         2.7675  -2.6620  -3.1070 LP             1 S1                 0.0000
@<TRIPOS>BOND
    1    1    2 1     
    2    1   24 1     
    3    1   25 1     
    4    1   26 1     
    5    2   22 1     
    6    2    3 2     
    7    3    4 1     
    8    3   27 1     
    9    4    5 1     
   10    4   28 1     
   11    4   29 1     
   12    5    6 1     
   13    5   30 1     
   14    5   31 1     
   15    6    7 am    
   16    6   22 1     
   17    7    8 2     
   18    7    9 am    
   19    9   10 1     
   20    9   32 1     
   21   10   11 1     
   22   10   33 1     
   23   10   34 1     
   24   11   20 1     
   25   11   12 2     
   26   12   13 1     
   27   12   35 1     
   28   13   14 1     
   29   13   17 1     
   30   14   15 1     
   31   14   16 1     
   32   14   36 1     
   33   15   37 1     
   34   15   38 1     
   35   15   39 1     
   36   16   40 1     
   37   16   41 1     
   38   16   42 1     
   39   17   18 2     
   40   17   19 1     
   41   19   23 1     
   42   19   20 1     
   43   20   21 2     
   44   22   43 1     
   45   22   44 1     
   46    8   45 1     
   47    8   46 1     
   48   18   47 1     
   49   18   48 1     
   50   21   49 1     
   51   21   50 1     
@<TRIPOS>SUBSTRUCTURE
      1 S1             1
@<TRIPOS>SET
LONE_PAIRS      STATIC     ATOMS    <user>   **** ""
6 45 46 47 48 49 50
DONOR_HYDROGENS      STATIC     ATOMS    <user>   **** ""
2 32 23
ATOM$BLUE        STATIC     ATOMS    COLORGROUP SYSTEM
6 45 46 47 48 49 50
ATOM$RED        STATIC     ATOMS    COLORGROUP SYSTEM
2 32 23
