AV-unprocessed.smi:234|AV-procd|sdf|1786|dock7
  -GOLD-   2262020343D 1   1.00000     0.00000
 Structure written by MMmdl.
 59 62  0  0  0  0  0  0  0  0  1 V2000
  152.2819  143.7041  159.8174 C   0  0  0  0  0  0  0  0  0  0  0  0
  152.0220  143.4114  158.3336 C   0  0  0  0  0  0  0  0  0  0  0  0
  150.8869  142.5752  158.1561 O   0  0  0  0  0  0  0  0  0  0  0  0
  150.5940  142.2628  156.8006 C   0  0  1  0  0  0  0  0  0  0  0  0
  151.4119  141.1035  156.2257 C   0  0  0  0  0  0  0  0  0  0  0  0
  150.1261  140.7108  155.4929 C   0  0  1  0  0  0  0  0  0  0  0  0
  149.9381  139.2631  155.3709 N   0  0  0  0  0  0  0  0  0  0  0  0
  151.0930  138.4959  154.9225 C   0  0  0  0  0  0  0  0  0  0  0  0
  148.8246  138.8712  154.7087 C   0  0  0  0  0  0  0  0  0  0  0  0
  148.2126  139.7145  153.8355 N   0  0  0  0  0  0  0  0  0  0  0  0
  147.1138  139.3202  153.1850 C   0  0  0  0  0  0  0  0  0  0  0  0
  146.4752  138.1500  153.2572 N   0  0  0  0  0  0  0  0  0  0  0  0
  147.0909  137.3013  154.1297 C   0  0  0  0  0  0  0  0  0  0  0  0
  148.2658  137.5776  154.8828 C   0  0  0  0  0  0  0  0  0  0  0  0
  148.6057  136.4780  155.6597 N   0  0  0  0  0  0  0  0  0  0  0  0
  147.6798  135.6002  155.3851 C   0  0  0  0  0  0  0  0  0  0  0  0
  146.7224  136.0154  154.4858 N   0  0  0  0  0  0  0  0  0  0  0  0
  145.5791  135.2458  154.0182 C   0  0  0  0  0  0  0  0  0  0  0  0
  145.9333  134.2397  152.8911 C   0  0  1  0  0  0  0  0  0  0  0  0
  146.7179  134.9225  151.9265 O   0  0  0  0  0  0  0  0  0  0  0  0
  146.7354  133.0344  153.3748 C   0  0  0  0  0  0  0  0  0  0  0  0
  146.3500  131.9458  152.3855 C   0  0  0  0  0  0  0  0  0  0  0  0
  144.9640  132.1782  152.2067 O   0  0  0  0  0  0  0  0  0  0  0  0
  144.7355  133.5842  152.1462 C   0  0  1  0  0  0  0  0  0  0  0  0
  143.3341  133.8520  152.7172 C   0  0  0  0  0  0  0  0  0  0  0  0
  149.3201  141.3966  156.6355 C   0  0  0  0  0  0  0  0  0  0  0  0
  148.9409  140.5409  157.8585 C   0  0  0  0  0  0  0  0  0  0  0  0
  148.0634  142.1596  156.2164 C   0  0  0  0  0  0  0  0  0  0  0  0
  153.2071  144.2672  159.9424 H   0  0  0  0  0  0  0  0  0  0  0  0
  152.3772  142.7789  160.3860 H   0  0  0  0  0  0  0  0  0  0  0  0
  151.4798  144.2918  160.2628 H   0  0  0  0  0  0  0  0  0  0  0  0
  151.9254  144.3354  157.7622 H   0  0  0  0  0  0  0  0  0  0  0  0
  152.8842  142.8846  157.9243 H   0  0  0  0  0  0  0  0  0  0  0  0
  150.5821  143.1337  156.1421 H   0  0  0  0  0  0  0  0  0  0  0  0
  152.2335  141.4044  155.5756 H   0  0  0  0  0  0  0  0  0  0  0  0
  151.7335  140.3838  156.9805 H   0  0  0  0  0  0  0  0  0  0  0  0
  150.0375  141.2472  154.5457 H   0  0  0  0  0  0  0  0  0  0  0  0
  150.8757  137.4267  154.8997 H   0  0  0  0  0  0  0  0  0  0  0  0
  151.9367  138.6451  155.5965 H   0  0  0  0  0  0  0  0  0  0  0  0
  151.3972  138.8068  153.9220 H   0  0  0  0  0  0  0  0  0  0  0  0
  146.6836  140.0468  152.5118 H   0  0  0  0  0  0  0  0  0  0  0  0
  147.6634  134.6211  155.8417 H   0  0  0  0  0  0  0  0  0  0  0  0
  145.1521  134.7271  154.8769 H   0  0  0  0  0  0  0  0  0  0  0  0
  144.8201  135.9490  153.6729 H   0  0  0  0  0  0  0  0  0  0  0  0
  147.5152  135.2138  152.3420 H   0  0  0  0  0  0  0  0  0  0  0  0
  147.8110  133.2093  153.4280 H   0  0  0  0  0  0  0  0  0  0  0  0
  146.3979  132.7327  154.3668 H   0  0  0  0  0  0  0  0  0  0  0  0
  146.8738  132.0698  151.4366 H   0  0  0  0  0  0  0  0  0  0  0  0
  146.5453  130.9419  152.7631 H   0  0  0  0  0  0  0  0  0  0  0  0
  144.7381  133.8733  151.0934 H   0  0  0  0  0  0  0  0  0  0  0  0
  143.0858  134.9128  152.6836 H   0  0  0  0  0  0  0  0  0  0  0  0
  143.2503  133.5125  153.7498 H   0  0  0  0  0  0  0  0  0  0  0  0
  142.5769  133.3234  152.1377 H   0  0  0  0  0  0  0  0  0  0  0  0
  148.1021  139.8783  157.6453 H   0  0  0  0  0  0  0  0  0  0  0  0
  148.6466  141.1646  158.7030 H   0  0  0  0  0  0  0  0  0  0  0  0
  149.7666  139.9147  158.1965 H   0  0  0  0  0  0  0  0  0  0  0  0
  147.2272  141.4862  156.0262 H   0  0  0  0  0  0  0  0  0  0  0  0
  148.2292  142.7331  155.3040 H   0  0  0  0  0  0  0  0  0  0  0  0
  147.7499  142.8627  156.9887 H   0  0  0  0  0  0  0  0  0  0  0  0
  1  2  1  0  0  0  0
  1 29  1  0  0  0  0
  1 30  1  0  0  0  0
  1 31  1  0  0  0  0
  2  3  1  0  0  0  0
  2 32  1  0  0  0  0
  2 33  1  0  0  0  0
  3  4  1  0  0  0  0
  4 26  1  0  0  0  0
  4  5  1  0  0  0  0
  4 34  1  0  0  0  0
  5  6  1  0  0  0  0
  5 35  1  0  0  0  0
  5 36  1  0  0  0  0
  6  7  1  0  0  0  0
  6 26  1  0  0  0  0
  6 37  1  0  0  0  0
  7  8  1  0  0  0  0
  7  9  1  0  0  0  0
  8 38  1  0  0  0  0
  8 39  1  0  0  0  0
  8 40  1  0  0  0  0
  9 14  1  0  0  0  0
  9 10  2  0  0  0  0
 10 11  1  0  0  0  0
 11 12  2  0  0  0  0
 11 41  1  0  0  0  0
 12 13  1  0  0  0  0
 13 17  1  0  0  0  0
 13 14  2  0  0  0  0
 14 15  1  0  0  0  0
 15 16  2  0  0  0  0
 16 17  1  0  0  0  0
 16 42  1  0  0  0  0
 17 18  1  0  0  0  0
 18 19  1  0  0  0  0
 18 43  1  0  0  0  0
 18 44  1  0  0  0  0
 19 24  1  0  0  0  0
 19 20  1  0  0  0  0
 19 21  1  0  0  0  0
 20 45  1  0  0  0  0
 21 22  1  0  0  0  0
 21 46  1  0  0  0  0
 21 47  1  0  0  0  0
 22 23  1  0  0  0  0
 22 48  1  0  0  0  0
 22 49  1  0  0  0  0
 23 24  1  0  0  0  0
 24 25  1  0  0  0  0
 24 50  1  0  0  0  0
 25 51  1  0  0  0  0
 25 52  1  0  0  0  0
 25 53  1  0  0  0  0
 26 27  1  0  0  0  0
 26 28  1  0  0  0  0
 27 54  1  0  0  0  0
 27 55  1  0  0  0  0
 27 56  1  0  0  0  0
 28 57  1  0  0  0  0
 28 58  1  0  0  0  0
 28 59  1  0  0  0  0
M  END
> <s_m_source_file>
AV-unprocessed.smi

> <i_m_source_file_index>
234

> <i_lp_mmshare_version>
43012

> <i_f3d_flags>
0

> <s_epik_input>
W0NIM11bQ0gyXU9bQ0BASF0oQzEoW0NIM10pW0NIM10pW0NIMl1bQ0BIXTFOKFtDSDNdKWMobltjSF1uMiljKGMyMyluW2NIXW4zW0NIMl1bQ0BAXTQoW09IXSlbQ0gyXVtDSDJdT1tDQEhdNFtDSDNd

> <s_epik_cmdline>
J2VwaWtfcHl0aG9uJywgJy1waCcsICc3LjAnLCAnLXRuJywgJzgnLCAnLW1hJywgJzIwMCcsICctbWV0YWxfYmluZGluZycsICctaW1hZScsICc8aW5maWxlLm1hZT4nLCAnLW9tYWUnLCAnPG91dGZpbGUubWFlPic=

> <r_lp_tautomer_probability>
1

> <r_epik_Ionization_Penalty>
0.00349132

> <r_epik_Ionization_Penalty_Charging>
0

> <r_epik_Ionization_Penalty_Neutral>
0.00349132

> <r_epik_State_Penalty>
0.00242418

> <r_epik_Charging_Adjusted_Penalty>
0.00242418

> <i_epik_Tot_Q>
0

> <i_epik_Tot_abs_Q>
0

> <r_epik_Metal_State_Penalty>
-0

> <b_epik_Metal_Only>
0

> <s_lp_Force_Field>
OPLS_2005

> <r_lp_Energy>
47.6345

> <b_lp_Chiralities_Consistent>
1

> <s_lp_Variant>
AV-unprocessed.smi:234-2

> <Gold.Version>
5.8.1

> <Gold.Id.Protein>
6NUR|6NUR_protein|mol2

> <Gold.PLP.Fitness>
38.3398

> <Gold.PLP.PLP>
-34.9812

> <Gold.PLP.part.hbond>
-1.0000

> <Gold.PLP.part.metal>
0.0000

> <Gold.PLP.part.buried>
-4.8961

> <Gold.PLP.part.nonpolar>
-29.9886

> <Gold.PLP.part.repulsive>
0.6930

> <Gold.PLP.ligand.clash>
0.0000

> <Gold.PLP.ligand.torsion>
1.2601

> <Gold.PLP.Chemscore.Hbond>
1.0000

> <Gold.PLP.Chemscore.CHOScore>
0.7248

> <Gold.PLP.Chemscore.Metal>
0.0000

> <Gold.Chemscore.Hbonds>
donor molecule, donor type, donor heavy atom, donor atom, acceptor molecule, acceptor atom, score
      L1  H    20    45       P1  7948  0.70

> <Gold.PLP.Chemscore.Internal.Correction>
0.7044

> <Gold.Rescore>
     Score         DG    S(hbond)    S(metal)    S(lipo)     H(rot)  DE(clash)    DE(int)     intcor
     10.69     -12.34       0.99        0.00      87.75       2.62       0.27       1.38       ----

> <Gold.Chemscore.Fitness>
10.6867

> <Gold.Chemscore.DG>
-12.3386

> <Gold.Chemscore.ZeroCoef>
-5.4800

> <Gold.Chemscore.Hbond>
0.9890

> <Gold.Chemscore.Metal>
0.0000

> <Gold.Chemscore.Lipo>
87.7549

> <Gold.Chemscore.Internal_Hbond>
0.0000

> <Gold.Chemscore.DEClash>
0.2737

> <Gold.Chemscore.DEInternal>
1.3782

> <Gold.Chemscore.Rot>
2.6219

> <Gold.Chemscore.Internal.Correction>
   9.000000E+99

> <Gold.Chemscore.Hbonds>
donor molecule, donor type, donor heavy atom, donor atom, acceptor molecule, acceptor atom, score
      L1  H    20    45       P1  7948  0.70

> <Gold.Chemscore.Hbond.Weighted>
-3.3034

> <Gold.Chemscore.Metal.Weighted>
-0.0000

> <Gold.Chemscore.Lipo.Weighted>
-10.2673

> <Gold.Chemscore.Internal_Hbond.Weighted>
0.0000

> <Gold.Chemscore.DEClash.Weighted>
0.2737

> <Gold.Chemscore.DEInternal.Weighted>
1.3782

> <Gold.Chemscore.Rot.Weighted>
6.7121

> <Gold.Chemscore.Internal.Correction.Weighted>
   9.000000E+99

> <Gold.Protein.RotatedTorsions>
[ 6907 6896 6895 6894 ] final   -2.70 input  -60.11 | X-H torsion
[ 7974 7965 7964 7962 ] final   49.80 input  175.53 | X-H torsion
[ 8008 7997 7996 7995 ] final  109.20 input   59.86 | X-H torsion
[ 10167 10162 10161 10158 ] final  114.06 input  -65.29 | X-H torsion
[ 10718 10713 10712 10709 ] final  173.43 input   66.30 | X-H torsion
[ 10763 10752 10751 10750 ] final -143.80 input  -60.55 | X-H torsion
[ 11005 11000 10999 10996 ] final -134.44 input  -57.11 | X-H torsion

> <Gold.Protein.ActiveResidues>
 VAL166  LYS551  ARG553  GLY616  TRP617  ASP618  TYR619  PRO620  LYS621  CYS622 
 ASP623  PHE694  ASN695  SER759  ASP760  ASP761  ALA762  ILE779  LEU786  VAL792 
 PHE793  MET794  SER795  GLU796  ALA797  LYS798  CYS799  TRP800  GLU811  SER814 

> <Gold.Protein.RotatedAtoms>
  151.5257  135.1068  159.9889 H   0  0  0  0  0  0  0  0  0  0  0  0  # atno 6907 bound_to 6896
  152.4601  133.7799  159.6855 H   0  0  0  0  0  0  0  0  0  0  0  0  # atno 6908 bound_to 6896
  150.8559  133.7651  159.3034 H   0  0  0  0  0  0  0  0  0  0  0  0  # atno 6909 bound_to 6896
  146.0074  139.4505  142.9977 H   0  0  0  0  0  0  0  0  0  0  0  0  # atno 7974 bound_to 7965
  156.1961  140.3062  155.9430 H   0  0  0  0  0  0  0  0  0  0  0  0  # atno 8008 bound_to 7997
  155.3062  140.0449  157.3049 H   0  0  0  0  0  0  0  0  0  0  0  0  # atno 8009 bound_to 7997
  154.5511  140.2292  155.8492 H   0  0  0  0  0  0  0  0  0  0  0  0  # atno 8010 bound_to 7997
  139.6416  144.7124  151.2225 H   0  0  0  0  0  0  0  0  0  0  0  0  # atno 10167 bound_to 10162
  156.9644  131.0070  151.2920 H   0  0  0  0  0  0  0  0  0  0  0  0  # atno 10718 bound_to 10713
  154.8455  135.3458  154.6246 H   0  0  0  0  0  0  0  0  0  0  0  0  # atno 10763 bound_to 10752
  153.6855  135.6978  153.5110 H   0  0  0  0  0  0  0  0  0  0  0  0  # atno 10764 bound_to 10752
  153.2635  135.4315  155.0874 H   0  0  0  0  0  0  0  0  0  0  0  0  # atno 10765 bound_to 10752
  140.8989  134.1716  157.4474 H   0  0  0  0  0  0  0  0  0  0  0  0  # atno 11005 bound_to 11000
  145.7395  141.0013  143.1308 LP  0  0  0  0  0  0  0  0  0  0  0  0  # atno 17320 bound_to 7965
  144.6940  139.9082  143.7462 LP  0  0  0  0  0  0  0  0  0  0  0  0  # atno 17321 bound_to 7965
  140.7494  143.6302  150.8430 LP  0  0  0  0  0  0  0  0  0  0  0  0  # atno 17342 bound_to 10162
  139.9940  143.5816  152.2900 LP  0  0  0  0  0  0  0  0  0  0  0  0  # atno 17343 bound_to 10162
  157.5636  130.8262  149.8297 LP  0  0  0  0  0  0  0  0  0  0  0  0  # atno 17370 bound_to 10713
  156.0309  130.3765  150.1692 LP  0  0  0  0  0  0  0  0  0  0  0  0  # atno 17371 bound_to 10713
  139.8739  134.9890  156.5437 LP  0  0  0  0  0  0  0  0  0  0  0  0  # atno 17394 bound_to 11000
  140.8254  133.8320  155.8934 LP  0  0  0  0  0  0  0  0  0  0  0  0  # atno 17395 bound_to 11000

$$$$
