AV-unprocessed.smi:3332|AV-procd|sdf|12829|dock9
  -GOLD-   2272019213D 1   1.00000     0.00000
 Structure written by MMmdl.
 41 42  0  0  0  0  0  0  0  0  1 V2000
  145.1693  143.9435  155.1101 C   0  0  0  0  0  0  0  0  0  0  0  0
  146.5461  143.8433  155.7756 C   0  0  0  0  0  0  0  0  0  0  0  0
  147.5288  143.0831  154.9345 C   0  0  0  0  0  0  0  0  0  0  0  0
  148.2743  142.0521  155.5145 N   0  0  0  0  0  0  0  0  0  0  0  0
  149.1054  141.4675  154.6495 C   0  0  0  0  0  0  0  0  0  0  0  0
  149.9895  140.3192  155.0019 C   0  0  0  0  0  0  0  0  0  0  0  0
  151.3688  140.7753  155.5021 C   0  0  0  0  0  0  0  0  0  0  0  0
  151.2907  141.3452  156.8419 N   0  0  0  0  0  0  0  0  0  0  0  0
  151.9423  140.8758  157.9168 C   0  0  0  0  0  0  0  0  0  0  0  0
  152.6898  139.8983  157.8793 O   0  0  0  0  0  0  0  0  0  0  0  0
  151.7215  141.6292  159.2335 C   0  0  0  0  0  0  0  0  0  0  0  0
  152.6337  142.8641  159.4042 C   0  0  2  0  0  0  0  0  0  0  0  0
  152.4539  143.5717  160.7258 C   0  0  0  0  0  0  0  0  0  0  0  0
  152.2040  144.8713  160.5834 C   0  0  0  0  0  0  0  0  0  0  0  0
  152.1652  145.2958  159.1419 C   0  0  0  0  0  0  0  0  0  0  0  0
  152.3560  143.9766  158.3606 C   0  0  0  0  0  0  0  0  0  0  0  0
  149.0005  142.1391  153.0286 S   0  0  0  0  0  0  0  0  0  0  0  0
  147.7931  143.2636  153.5966 C   0  0  0  0  0  0  0  0  0  0  0  0
  147.1776  144.2569  152.6678 C   0  0  0  0  0  0  0  0  0  0  0  0
  144.4735  144.5008  155.7375 H   0  0  0  0  0  0  0  0  0  0  0  0
  144.7428  142.9552  154.9360 H   0  0  0  0  0  0  0  0  0  0  0  0
  145.2348  144.4546  154.1491 H   0  0  0  0  0  0  0  0  0  0  0  0
  146.9193  144.8469  155.9814 H   0  0  0  0  0  0  0  0  0  0  0  0
  146.4388  143.3632  156.7490 H   0  0  0  0  0  0  0  0  0  0  0  0
  149.4874  139.7220  155.7640 H   0  0  0  0  0  0  0  0  0  0  0  0
  150.0995  139.6787  154.1257 H   0  0  0  0  0  0  0  0  0  0  0  0
  152.0519  139.9259  155.5343 H   0  0  0  0  0  0  0  0  0  0  0  0
  151.8059  141.4988  154.8114 H   0  0  0  0  0  0  0  0  0  0  0  0
  150.6981  142.1543  156.9607 H   0  0  0  0  0  0  0  0  0  0  0  0
  150.6766  141.9393  159.2698 H   0  0  0  0  0  0  0  0  0  0  0  0
  151.8682  140.9469  160.0726 H   0  0  0  0  0  0  0  0  0  0  0  0
  153.6800  142.5623  159.3350 H   0  0  0  0  0  0  0  0  0  0  0  0
  152.5397  143.0591  161.6726 H   0  0  0  0  0  0  0  0  0  0  0  0
  152.0541  145.5693  161.3938 H   0  0  0  0  0  0  0  0  0  0  0  0
  151.2130  145.7723  158.9070 H   0  0  0  0  0  0  0  0  0  0  0  0
  152.9696  146.0041  158.9416 H   0  0  0  0  0  0  0  0  0  0  0  0
  153.1743  144.0574  157.6442 H   0  0  0  0  0  0  0  0  0  0  0  0
  151.4543  143.7577  157.7872 H   0  0  0  0  0  0  0  0  0  0  0  0
  146.0896  144.2090  152.7158 H   0  0  0  0  0  0  0  0  0  0  0  0
  147.4753  144.0711  151.6356 H   0  0  0  0  0  0  0  0  0  0  0  0
  147.4837  145.2697  152.9291 H   0  0  0  0  0  0  0  0  0  0  0  0
  1  2  1  0  0  0  0
  1 20  1  0  0  0  0
  1 21  1  0  0  0  0
  1 22  1  0  0  0  0
  2  3  1  0  0  0  0
  2 23  1  0  0  0  0
  2 24  1  0  0  0  0
  3 18  2  0  0  0  0
  3  4  1  0  0  0  0
  4  5  2  0  0  0  0
  5  6  1  0  0  0  0
  5 17  1  0  0  0  0
  6  7  1  0  0  0  0
  6 25  1  0  0  0  0
  6 26  1  0  0  0  0
  7  8  1  0  0  0  0
  7 27  1  0  0  0  0
  7 28  1  0  0  0  0
  8  9  1  0  0  0  0
  8 29  1  0  0  0  0
  9 10  2  0  0  0  0
  9 11  1  0  0  0  0
 11 12  1  0  0  0  0
 11 30  1  0  0  0  0
 11 31  1  0  0  0  0
 12 16  1  0  0  0  0
 12 13  1  0  0  0  0
 12 32  1  0  0  0  0
 13 14  2  0  0  0  0
 13 33  1  0  0  0  0
 14 15  1  0  0  0  0
 14 34  1  0  0  0  0
 15 16  1  0  0  0  0
 15 35  1  0  0  0  0
 15 36  1  0  0  0  0
 16 37  1  0  0  0  0
 16 38  1  0  0  0  0
 17 18  1  0  0  0  0
 18 19  1  0  0  0  0
 19 39  1  0  0  0  0
 19 40  1  0  0  0  0
 19 41  1  0  0  0  0
M  END
> <s_m_source_file>
AV-unprocessed.smi

> <i_m_source_file_index>
3332

> <i_lp_mmshare_version>
43012

> <i_f3d_flags>
0

> <s_epik_input>
W0NIM11bQ0gyXWMxbmMoc2MxW0NIM10pW0NIMl1bQ0gyXVtOSF1DKD1PKVtDSDJdW0NAQEhdMltDSF09W0NIXVtDSDJdW0NIMl0y

> <s_epik_cmdline>
J2VwaWtfcHl0aG9uJywgJy1waCcsICc3LjAnLCAnLXRuJywgJzgnLCAnLW1hJywgJzIwMCcsICctbWV0YWxfYmluZGluZycsICctaW1hZScsICc8aW5maWxlLm1hZT4nLCAnLW9tYWUnLCAnPG91dGZpbGUubWFlPic=

> <r_epik_Ionization_Penalty>
0.00221844

> <r_epik_Ionization_Penalty_Charging>
0

> <r_epik_Ionization_Penalty_Neutral>
0.00221844

> <r_epik_State_Penalty>
0.00152607

> <r_epik_Charging_Adjusted_Penalty>
0.00152607

> <i_epik_Tot_Q>
0

> <i_epik_Tot_abs_Q>
0

> <r_epik_Metal_State_Penalty>
-0

> <b_epik_Metal_Only>
0

> <s_lp_Force_Field>
OPLS_2005

> <r_lp_Energy>
6.78745

> <b_lp_Chiralities_Consistent>
1

> <s_lp_Variant>
AV-unprocessed.smi:3332-1

> <Gold.Version>
5.8.1

> <Gold.Id.Protein>
6NUR|6NUR_protein|mol2

> <Gold.PLP.Fitness>
44.6363

> <Gold.PLP.PLP>
-43.3224

> <Gold.PLP.part.hbond>
-1.0000

> <Gold.PLP.part.metal>
0.0000

> <Gold.PLP.part.buried>
-5.1024

> <Gold.PLP.part.nonpolar>
-37.7056

> <Gold.PLP.part.repulsive>
0.1636

> <Gold.PLP.ligand.clash>
0.0000

> <Gold.PLP.ligand.torsion>
0.8697

> <Gold.PLP.Chemscore.Hbond>
1.0000

> <Gold.PLP.Chemscore.CHOScore>
0.0000

> <Gold.PLP.Chemscore.Metal>
0.0000

> <Gold.Chemscore.Hbonds>
donor molecule, donor type, donor heavy atom, donor atom, acceptor molecule, acceptor atom, score
      P1  H  7997  8009       L1    10  0.86

> <Gold.PLP.Chemscore.Internal.Correction>
0.0532

> <Gold.Rescore>
     Score         DG    S(hbond)    S(metal)    S(lipo)     H(rot)  DE(clash)    DE(int)     intcor
     17.39     -18.24       0.99        0.00     113.74       1.51       0.10       0.75       ----

> <Gold.Chemscore.Fitness>
17.3867

> <Gold.Chemscore.DG>
-18.2400

> <Gold.Chemscore.ZeroCoef>
-5.4800

> <Gold.Chemscore.Hbond>
0.9937

> <Gold.Chemscore.Metal>
0.0000

> <Gold.Chemscore.Lipo>
113.7398

> <Gold.Chemscore.Internal_Hbond>
0.0000

> <Gold.Chemscore.DEClash>
0.1049

> <Gold.Chemscore.DEInternal>
0.7484

> <Gold.Chemscore.Rot>
1.5103

> <Gold.Chemscore.Internal.Correction>
   9.000000E+99

> <Gold.Chemscore.Hbonds>
donor molecule, donor type, donor heavy atom, donor atom, acceptor molecule, acceptor atom, score
      P1  H  7997  8009       L1    10  0.75

> <Gold.Chemscore.Hbond.Weighted>
-3.3188

> <Gold.Chemscore.Metal.Weighted>
-0.0000

> <Gold.Chemscore.Lipo.Weighted>
-13.3076

> <Gold.Chemscore.Internal_Hbond.Weighted>
0.0000

> <Gold.Chemscore.DEClash.Weighted>
0.1049

> <Gold.Chemscore.DEInternal.Weighted>
0.7484

> <Gold.Chemscore.Rot.Weighted>
3.8664

> <Gold.Chemscore.Internal.Correction.Weighted>
   9.000000E+99

> <Gold.Protein.RotatedTorsions>
[ 6907 6896 6895 6894 ] final -130.09 input  -60.11 | X-H torsion
[ 7974 7965 7964 7962 ] final  -41.59 input  175.53 | X-H torsion
[ 8008 7997 7996 7995 ] final  178.36 input   59.86 | X-H torsion
[ 10167 10162 10161 10158 ] final  -83.53 input  -65.29 | X-H torsion
[ 10718 10713 10712 10709 ] final  -92.72 input   66.30 | X-H torsion
[ 10763 10752 10751 10750 ] final   70.49 input  -60.55 | X-H torsion
[ 11005 11000 10999 10996 ] final  -97.99 input  -57.11 | X-H torsion

> <Gold.Protein.ActiveResidues>
 VAL166  LYS551  ARG553  GLY616  TRP617  ASP618  TYR619  PRO620  LYS621  CYS622 
 ASP623  PHE694  ASN695  SER759  ASP760  ASP761  ALA762  ILE779  LEU786  VAL792 
 PHE793  MET794  SER795  GLU796  ALA797  LYS798  CYS799  TRP800  GLU811  SER814 

> <Gold.Protein.RotatedAtoms>
  150.9359  133.6712  159.2800 H   0  0  0  0  0  0  0  0  0  0  0  0  # atno 6907 bound_to 6896
  151.4118  135.0985  159.9597 H   0  0  0  0  0  0  0  0  0  0  0  0  # atno 6908 bound_to 6896
  152.5047  133.8830  159.7411 H   0  0  0  0  0  0  0  0  0  0  0  0  # atno 6909 bound_to 6896
  146.0197  140.6865  142.9184 H   0  0  0  0  0  0  0  0  0  0  0  0  # atno 7974 bound_to 7965
  156.0555  140.1335  157.0001 H   0  0  0  0  0  0  0  0  0  0  0  0  # atno 8008 bound_to 7997
  154.4456  140.1002  156.6510 H   0  0  0  0  0  0  0  0  0  0  0  0  # atno 8009 bound_to 7997
  155.5458  140.3462  155.4459 H   0  0  0  0  0  0  0  0  0  0  0  0  # atno 8010 bound_to 7997
  140.4218  143.2582  151.8880 H   0  0  0  0  0  0  0  0  0  0  0  0  # atno 10167 bound_to 10162
  156.0005  130.4998  150.5668 H   0  0  0  0  0  0  0  0  0  0  0  0  # atno 10718 bound_to 10713
  153.0344  135.5172  154.7449 H   0  0  0  0  0  0  0  0  0  0  0  0  # atno 10763 bound_to 10752
  154.6437  135.2915  155.0075 H   0  0  0  0  0  0  0  0  0  0  0  0  # atno 10764 bound_to 10752
  154.0983  135.6640  153.4916 H   0  0  0  0  0  0  0  0  0  0  0  0  # atno 10765 bound_to 10752
  141.1360  133.8211  157.0779 H   0  0  0  0  0  0  0  0  0  0  0  0  # atno 11005 bound_to 11000
  144.6985  140.3543  143.7176 LP  0  0  0  0  0  0  0  0  0  0  0  0  # atno 17320 bound_to 7965
  145.7213  139.1710  143.2483 LP  0  0  0  0  0  0  0  0  0  0  0  0  # atno 17321 bound_to 7965
  139.4783  144.5429  151.8501 LP  0  0  0  0  0  0  0  0  0  0  0  0  # atno 17342 bound_to 10162
  140.4525  144.1835  150.5898 LP  0  0  0  0  0  0  0  0  0  0  0  0  # atno 17343 bound_to 10162
  157.3569  131.0743  151.1668 LP  0  0  0  0  0  0  0  0  0  0  0  0  # atno 17370 bound_to 10713
  157.2465  130.6594  149.5912 LP  0  0  0  0  0  0  0  0  0  0  0  0  # atno 17371 bound_to 10713
  140.0470  134.9825  157.1066 LP  0  0  0  0  0  0  0  0  0  0  0  0  # atno 17394 bound_to 11000
  140.4048  134.2044  155.7163 LP  0  0  0  0  0  0  0  0  0  0  0  0  # atno 17395 bound_to 11000

$$$$
