AV-unprocessed.smi:101|AV-procd|sdf|923|dock6
  -GOLD-   2262017433D 1   1.00000     0.00000
 Structure written by MMmdl.
 44 46  0  0  0  0  0  0  0  0  1 V2000
  147.8085  143.7217  159.9012 C   0  0  0  0  0  0  0  0  0  0  0  0
  147.1770  142.5009  159.2531 C   0  0  0  0  0  0  0  0  0  0  0  0
  147.7109  141.8996  158.1595 C   0  0  0  0  0  0  0  0  0  0  0  0
  147.1542  140.7872  157.5434 N   0  0  0  0  0  0  0  0  0  0  0  0
  147.8161  140.1673  156.3316 C   0  0  2  0  0  0  0  0  0  0  0  0
  149.1695  140.0105  156.6171 O   0  0  0  0  0  0  0  0  0  0  0  0
  149.9168  140.2144  155.4291 C   0  0  2  0  0  0  0  0  0  0  0  0
  151.3596  140.5878  155.7865 C   0  0  0  0  0  0  0  0  0  0  0  0
  151.3460  141.5168  156.8578 O   0  0  0  0  0  0  0  0  0  0  0  0
  152.2216  141.3876  157.8732 C   0  0  0  0  0  0  0  0  0  0  0  0
  153.0506  140.4786  157.9473 O   0  0  0  0  0  0  0  0  0  0  0  0
  152.0826  142.4608  158.8998 C   0  0  0  0  0  0  0  0  0  0  0  0
  151.5738  143.7238  158.5163 C   0  0  0  0  0  0  0  0  0  0  0  0
  151.4302  144.7568  159.4628 C   0  0  0  0  0  0  0  0  0  0  0  0
  151.7929  144.5394  160.8048 C   0  0  0  0  0  0  0  0  0  0  0  0
  152.3003  143.2875  161.1990 C   0  0  0  0  0  0  0  0  0  0  0  0
  152.4451  142.2533  160.2539 C   0  0  0  0  0  0  0  0  0  0  0  0
  149.1518  141.3348  154.7197 C   0  0  1  0  0  0  0  0  0  0  0  0
  149.3738  141.2736  153.3245 O   0  0  0  0  0  0  0  0  0  0  0  0
  147.6945  141.0309  155.0540 C   0  0  2  0  0  0  0  0  0  0  0  0
  146.9585  142.2298  155.2209 O   0  0  0  0  0  0  0  0  0  0  0  0
  145.9596  140.2378  158.0526 C   0  0  0  0  0  0  0  0  0  0  0  0
  145.3945  139.2703  157.5443 O   0  0  0  0  0  0  0  0  0  0  0  0
  145.4140  140.8512  159.1789 N   0  0  0  0  0  0  0  0  0  0  0  0
  145.9441  141.9643  159.8368 C   0  0  0  0  0  0  0  0  0  0  0  0
  145.3695  142.4150  160.8262 O   0  0  0  0  0  0  0  0  0  0  0  0
  144.5603  140.4601  159.5500 H   0  0  0  0  0  0  0  0  0  0  0  0
  148.7112  144.0367  159.3767 H   0  0  0  0  0  0  0  0  0  0  0  0
  148.0802  143.5064  160.9351 H   0  0  0  0  0  0  0  0  0  0  0  0
  147.1104  144.5597  159.8970 H   0  0  0  0  0  0  0  0  0  0  0  0
  148.6157  142.3146  157.7381 H   0  0  0  0  0  0  0  0  0  0  0  0
  147.3964  139.1689  156.1991 H   0  0  0  0  0  0  0  0  0  0  0  0
  149.8848  139.2994  154.8339 H   0  0  0  0  0  0  0  0  0  0  0  0
  151.9088  139.6982  156.0979 H   0  0  0  0  0  0  0  0  0  0  0  0
  151.8709  141.0051  154.9176 H   0  0  0  0  0  0  0  0  0  0  0  0
  151.2880  143.9144  157.4916 H   0  0  0  0  0  0  0  0  0  0  0  0
  151.0409  145.7170  159.1581 H   0  0  0  0  0  0  0  0  0  0  0  0
  151.6822  145.3316  161.5304 H   0  0  0  0  0  0  0  0  0  0  0  0
  152.5794  143.1197  162.2290 H   0  0  0  0  0  0  0  0  0  0  0  0
  152.8370  141.3045  160.5904 H   0  0  0  0  0  0  0  0  0  0  0  0
  149.4503  142.3068  155.1170 H   0  0  0  0  0  0  0  0  0  0  0  0
  149.2354  140.3848  153.0349 H   0  0  0  0  0  0  0  0  0  0  0  0
  147.2249  140.4177  154.2832 H   0  0  0  0  0  0  0  0  0  0  0  0
  147.5416  142.8941  155.5554 H   0  0  0  0  0  0  0  0  0  0  0  0
  1  2  1  0  0  0  0
  1 28  1  0  0  0  0
  1 29  1  0  0  0  0
  1 30  1  0  0  0  0
  2 25  1  0  0  0  0
  2  3  2  0  0  0  0
  3  4  1  0  0  0  0
  3 31  1  0  0  0  0
  4  5  1  0  0  0  0
  4 22  1  0  0  0  0
  5 20  1  0  0  0  0
  5  6  1  0  0  0  0
  5 32  1  0  0  0  0
  6  7  1  0  0  0  0
  7  8  1  0  0  0  0
  7 18  1  0  0  0  0
  7 33  1  0  0  0  0
  8  9  1  0  0  0  0
  8 34  1  0  0  0  0
  8 35  1  0  0  0  0
  9 10  1  0  0  0  0
 10 11  2  0  0  0  0
 10 12  1  0  0  0  0
 12 17  1  0  0  0  0
 12 13  2  0  0  0  0
 13 14  1  0  0  0  0
 13 36  1  0  0  0  0
 14 15  2  0  0  0  0
 14 37  1  0  0  0  0
 15 16  1  0  0  0  0
 15 38  1  0  0  0  0
 16 17  2  0  0  0  0
 16 39  1  0  0  0  0
 17 40  1  0  0  0  0
 18 19  1  0  0  0  0
 18 20  1  0  0  0  0
 18 41  1  0  0  0  0
 19 42  1  0  0  0  0
 20 21  1  0  0  0  0
 20 43  1  0  0  0  0
 21 44  1  0  0  0  0
 22 23  2  0  0  0  0
 22 24  1  0  0  0  0
 24 27  1  0  0  0  0
 24 25  1  0  0  0  0
 25 26  2  0  0  0  0
M  END
> <s_m_source_file>
AV-unprocessed.smi

> <i_m_source_file_index>
101

> <i_lp_mmshare_version>
43012

> <i_f3d_flags>
0

> <s_epik_input>
Tz1jMVtuSF1jKD1PKW4oW2NIXWMxW0NIM10pW0NAQEhdMk9bQ0BIXShbQ0BASF0oW09IXSlbQ0BIXTJbT0hdKVtDSDJdT0MoPU8pYzNbY0hdW2NIXVtjSF1bY0hdW2NIXTM=

> <s_epik_cmdline>
J2VwaWtfcHl0aG9uJywgJy1waCcsICc3LjAnLCAnLXRuJywgJzgnLCAnLW1hJywgJzIwMCcsICctbWV0YWxfYmluZGluZycsICctaW1hZScsICc8aW5maWxlLm1hZT4nLCAnLW9tYWUnLCAnPG91dGZpbGUubWFlPic=

> <r_lp_tautomer_probability>
0.999537

> <r_epik_Ionization_Penalty>
0.00263537

> <r_epik_Ionization_Penalty_Charging>
0.00263428

> <r_epik_Ionization_Penalty_Neutral>
1.09111e-06

> <r_epik_State_Penalty>
0.00183335

> <r_epik_Charging_Adjusted_Penalty>
0.00446763

> <i_epik_Tot_Q>
0

> <i_epik_Tot_abs_Q>
0

> <r_epik_Metal_State_Penalty>
1.00528

> <b_epik_Metal_Only>
0

> <s_epik_Chemistry_Notes>
This compound has an ester and may undergo hydrolysis at high or low pH. This compound contains an acetal/aminal-like group ( X-CH(R)-Y where X, Y are N, S, or O) that may be acid/base labile, releasing an aldehyde.

> <s_lp_Force_Field>
OPLS_2005

> <r_lp_Energy>
35.5527

> <b_lp_Chiralities_Consistent>
1

> <s_lp_Variant>
AV-unprocessed.smi:101-11

> <Gold.Version>
5.8.1

> <Gold.Id.Protein>
6NUR|6NUR_protein|mol2

> <Gold.PLP.Fitness>
52.2517

> <Gold.PLP.PLP>
-43.6610

> <Gold.PLP.part.hbond>
-4.6567

> <Gold.PLP.part.metal>
0.0000

> <Gold.PLP.part.buried>
-3.0664

> <Gold.PLP.part.nonpolar>
-34.2145

> <Gold.PLP.part.repulsive>
0.1988

> <Gold.PLP.ligand.clash>
0.0000

> <Gold.PLP.ligand.torsion>
0.9744

> <Gold.PLP.Chemscore.Hbond>
3.1734

> <Gold.PLP.Chemscore.CHOScore>
0.2058

> <Gold.PLP.Chemscore.Metal>
0.0000

> <Gold.Chemscore.Hbonds>
donor molecule, donor type, donor heavy atom, donor atom, acceptor molecule, acceptor atom, score
      L1  H    19    42       P1  7957  0.30
      L1  H    21    44       P1  8028  0.49
      P1  H  7989  7998       L1    19  0.02
      P1  H  7997  8010       L1    11  0.80
      P1  H  8011  8017       L1    19  1.00

> <Gold.PLP.Chemscore.Internal.Correction>
0.4016

> <Gold.Rescore>
     Score         DG    S(hbond)    S(metal)    S(lipo)     H(rot)  DE(clash)    DE(int)     intcor
     16.95     -18.08       2.82        0.00      99.64       3.32       0.09       1.04       ----

> <Gold.Chemscore.Fitness>
16.9487

> <Gold.Chemscore.DG>
-18.0790

> <Gold.Chemscore.ZeroCoef>
-5.4800

> <Gold.Chemscore.Hbond>
2.8243

> <Gold.Chemscore.Metal>
0.0000

> <Gold.Chemscore.Lipo>
99.6406

> <Gold.Chemscore.Internal_Hbond>
0.0000

> <Gold.Chemscore.DEClash>
0.0872

> <Gold.Chemscore.DEInternal>
1.0432

> <Gold.Chemscore.Rot>
3.3172

> <Gold.Chemscore.Internal.Correction>
   9.000000E+99

> <Gold.Chemscore.Hbonds>
donor molecule, donor type, donor heavy atom, donor atom, acceptor molecule, acceptor atom, score
      L1  H    19    42       P1  7957  0.30
      L1  H    21    44       P1  8028  0.19
      P1  H  7997  8010       L1    11  0.80
      P1  H  8011  8017       L1    19  0.93

> <Gold.Chemscore.Hbond.Weighted>
-9.4331

> <Gold.Chemscore.Metal.Weighted>
-0.0000

> <Gold.Chemscore.Lipo.Weighted>
-11.6580

> <Gold.Chemscore.Internal_Hbond.Weighted>
0.0000

> <Gold.Chemscore.DEClash.Weighted>
0.0872

> <Gold.Chemscore.DEInternal.Weighted>
1.0432

> <Gold.Chemscore.Rot.Weighted>
8.4920

> <Gold.Chemscore.Internal.Correction.Weighted>
   9.000000E+99

> <Gold.Protein.RotatedTorsions>
[ 6907 6896 6895 6894 ] final -132.92 input  -60.11 | X-H torsion
[ 7974 7965 7964 7962 ] final  -53.49 input  175.53 | X-H torsion
[ 8008 7997 7996 7995 ] final   41.89 input   59.86 | X-H torsion
[ 10167 10162 10161 10158 ] final  -91.38 input  -65.29 | X-H torsion
[ 10718 10713 10712 10709 ] final -159.29 input   66.30 | X-H torsion
[ 10763 10752 10751 10750 ] final  139.50 input  -60.55 | X-H torsion
[ 11005 11000 10999 10996 ] final   38.70 input  -57.11 | X-H torsion

> <Gold.Protein.ActiveResidues>
 VAL166  LYS551  ARG553  GLY616  TRP617  ASP618  TYR619  PRO620  LYS621  CYS622 
 ASP623  PHE694  ASN695  SER759  ASP760  ASP761  ALA762  ILE779  LEU786  VAL792 
 PHE793  MET794  SER795  GLU796  ALA797  LYS798  CYS799  TRP800  GLU811  SER814 

> <Gold.Protein.RotatedAtoms>
  150.9680  133.6374  159.2742 H   0  0  0  0  0  0  0  0  0  0  0  0  # atno 6907 bound_to 6896
  151.3673  135.0914  159.9464 H   0  0  0  0  0  0  0  0  0  0  0  0  # atno 6908 bound_to 6896
  152.5172  133.9241  159.7603 H   0  0  0  0  0  0  0  0  0  0  0  0  # atno 6909 bound_to 6896
  145.8962  140.8031  142.9766 H   0  0  0  0  0  0  0  0  0  0  0  0  # atno 7974 bound_to 7965
  155.2771  140.3370  155.4261 H   0  0  0  0  0  0  0  0  0  0  0  0  # atno 8008 bound_to 7997
  156.2107  140.1768  156.7743 H   0  0  0  0  0  0  0  0  0  0  0  0  # atno 8009 bound_to 7997
  154.5682  140.0675  156.8908 H   0  0  0  0  0  0  0  0  0  0  0  0  # atno 8010 bound_to 7997
  140.3454  143.2919  151.9787 H   0  0  0  0  0  0  0  0  0  0  0  0  # atno 10167 bound_to 10162
  156.5661  130.8668  151.2824 H   0  0  0  0  0  0  0  0  0  0  0  0  # atno 10718 bound_to 10713
  153.9072  135.3015  155.3448 H   0  0  0  0  0  0  0  0  0  0  0  0  # atno 10763 bound_to 10752
  154.7641  135.4919  153.9524 H   0  0  0  0  0  0  0  0  0  0  0  0  # atno 10764 bound_to 10752
  153.1212  135.6782  153.9433 H   0  0  0  0  0  0  0  0  0  0  0  0  # atno 10765 bound_to 10752
  140.2101  134.3766  155.8053 H   0  0  0  0  0  0  0  0  0  0  0  0  # atno 11005 bound_to 11000
  144.6733  140.1606  143.7422 LP  0  0  0  0  0  0  0  0  0  0  0  0  # atno 17320 bound_to 7965
  145.8847  139.2342  143.1584 LP  0  0  0  0  0  0  0  0  0  0  0  0  # atno 17321 bound_to 7965
  139.4834  144.6121  151.7414 LP  0  0  0  0  0  0  0  0  0  0  0  0  # atno 17342 bound_to 10162
  140.5269  144.0791  150.6040 LP  0  0  0  0  0  0  0  0  0  0  0  0  # atno 17343 bound_to 10162
  157.7358  130.9768  150.2103 LP  0  0  0  0  0  0  0  0  0  0  0  0  # atno 17370 bound_to 10713
  156.2756  130.3727  149.7987 LP  0  0  0  0  0  0  0  0  0  0  0  0  # atno 17371 bound_to 10713
  141.2226  133.7138  156.8403 LP  0  0  0  0  0  0  0  0  0  0  0  0  # atno 17394 bound_to 11000
  140.1960  134.8931  157.3115 LP  0  0  0  0  0  0  0  0  0  0  0  0  # atno 17395 bound_to 11000

$$$$
