#       Name:                AV-unprocessed.smi:2300
#       Creating user name   scv26
#       Creation time:       Fri Mar 27 12:45:16 2020


#       File generated by GOLD software.
#

@<TRIPOS>MOLECULE
AV-unprocessed.smi:2300
    58    59     1
SMALL
NO_CHARGES


@<TRIPOS>ATOM
      1 ****        -6.9120  -2.8042   1.6888 C.3            1 S1                 0.0000
      2 ****        -5.4537  -2.3914   1.8578 C.2            1 S1                 0.0000
      3 ****        -4.5878  -3.2457   2.0446 O.2            1 S1                 0.0000
      4 ****        -5.1962  -1.0768   1.7914 N.am           1 S1                 0.0000
      5 ****        -3.8733  -0.4747   1.9177 C.3            1 S1                 0.0000
      6 ****        -3.0766  -0.5684   0.6055 C.3            1 S1                 0.0000
      7 ****        -1.6491  -0.0120   0.7647 C.3            1 S1                 0.0000
      8 ****        -0.9490  -0.0184  -0.5184 N.3            1 S1                 0.0000
      9 ****         0.4439   0.2103  -0.5093 C.ar           1 S1                 0.0000
     10 ****         1.2179   0.0365  -1.6812 C.ar           1 S1                 0.0000
     11 ****         2.6027   0.2872  -1.5782 C.ar           1 S1                 0.0000
     12 ****         3.5265   0.1257  -2.7771 C.3            1 S1                 0.0000
     13 ****         4.5637  -0.9856  -2.5522 C.3            1 S1                 0.0000
     14 ****         4.1764   1.4588  -3.1796 C.3            1 S1                 0.0000
     15 ****         3.1664   0.6759  -0.4134 N.ar           1 S1                 0.0000
     16 ****         2.3544   0.8073   0.6391 C.ar           1 S1                 0.0000
     17 ****         2.9895   1.2417   1.9534 C.3            1 S1                 0.0000
     18 ****         3.5807   2.6572   1.8664 C.3            1 S1                 0.0000
     19 ****         3.9913   0.2020   2.4791 C.3            1 S1                 0.0000
     20 ****         1.0353   0.5944   0.6489 N.ar           1 S1                 0.0000
     21 ****        -1.6944   0.6367  -1.5901 C.3            1 S1                 0.0000
     22 ****        -3.1260   0.0800  -1.6660 C.3            1 S1                 0.0000
     23 ****        -3.7540   0.1906  -0.3934 O.3            1 S1                 0.0000
     24 ****        -7.3702  -2.2719   0.8545 H              1 S1                 0.0000
     25 ****        -7.4757  -2.5791   2.5944 H              1 S1                 0.0000
     26 ****        -6.9909  -3.8742   1.4932 H              1 S1                 0.0000
     27 ****        -5.9694  -0.4482   1.6295 H              1 S1                 0.0000
     28 ****        -3.9954   0.5692   2.2076 H              1 S1                 0.0000
     29 ****        -3.3259  -0.9582   2.7286 H              1 S1                 0.0000
     30 ****        -3.0211  -1.6129   0.2923 H              1 S1                 0.0000
     31 ****        -1.6817   1.0076   1.1515 H              1 S1                 0.0000
     32 ****        -1.1066  -0.6195   1.4903 H              1 S1                 0.0000
     33 ****         0.7830  -0.2895  -2.6138 H              1 S1                 0.0000
     34 ****         2.9079  -0.1883  -3.6189 H              1 S1                 0.0000
     35 ****         4.0769  -1.9361  -2.3311 H              1 S1                 0.0000
     36 ****         5.2279  -0.7499  -1.7200 H              1 S1                 0.0000
     37 ****         5.1822  -1.1301  -3.4383 H              1 S1                 0.0000
     38 ****         3.4194   2.2134  -3.3948 H              1 S1                 0.0000
     39 ****         4.7891   1.3419  -4.0738 H              1 S1                 0.0000
     40 ****         4.8178   1.8465  -2.3874 H              1 S1                 0.0000
     41 ****         2.1898   1.2930   2.6948 H              1 S1                 0.0000
     42 ****         2.8208   3.3803   1.5688 H              1 S1                 0.0000
     43 ****         4.3917   2.7067   1.1392 H              1 S1                 0.0000
     44 ****         3.9803   2.9750   2.8297 H              1 S1                 0.0000
     45 ****         3.5164  -0.7719   2.6003 H              1 S1                 0.0000
     46 ****         4.3903   0.4977   3.4497 H              1 S1                 0.0000
     47 ****         4.8340   0.0799   1.7978 H              1 S1                 0.0000
     48 ****        -1.7218   1.7092  -1.3939 H              1 S1                 0.0000
     49 ****        -1.2135   0.5037  -2.5580 H              1 S1                 0.0000
     50 ****        -3.7073   0.6405  -2.3980 H              1 S1                 0.0000
     51 ****        -3.1224  -0.9610  -1.9929 H              1 S1                 0.0000
     52 ****        -4.8400  -4.2125   2.0858 LP             1 S1                 0.0000
     53 ****        -3.6321  -2.9731   2.1552 LP             1 S1                 0.0000
     54 ****        -0.9450  -0.9897  -0.7562 LP             1 S1                 0.0000
     55 ****         4.1472   0.8570  -0.3424 LP             1 S1                 0.0000
     56 ****         0.5003   0.7147   1.4852 LP             1 S1                 0.0000
     57 ****        -3.7602   1.1522  -0.1191 LP             1 S1                 0.0000
     58 ****        -4.6946  -0.1408  -0.4679 LP             1 S1                 0.0000
@<TRIPOS>BOND
    1    1    2 1     
    2    1   24 1     
    3    1   25 1     
    4    1   26 1     
    5    2    3 2     
    6    2    4 am    
    7    4    5 1     
    8    4   27 1     
    9    5    6 1     
   10    5   28 1     
   11    5   29 1     
   12    6   23 1     
   13    6    7 1     
   14    6   30 1     
   15    7    8 1     
   16    7   31 1     
   17    7   32 1     
   18    8    9 1     
   19    8   21 1     
   20    9   20 ar    
   21    9   10 ar    
   22   10   11 ar    
   23   10   33 1     
   24   11   12 1     
   25   11   15 ar    
   26   12   13 1     
   27   12   14 1     
   28   12   34 1     
   29   13   35 1     
   30   13   36 1     
   31   13   37 1     
   32   14   38 1     
   33   14   39 1     
   34   14   40 1     
   35   15   16 ar    
   36   16   17 1     
   37   16   20 ar    
   38   17   18 1     
   39   17   19 1     
   40   17   41 1     
   41   18   42 1     
   42   18   43 1     
   43   18   44 1     
   44   19   45 1     
   45   19   46 1     
   46   19   47 1     
   47   21   22 1     
   48   21   48 1     
   49   21   49 1     
   50   22   23 1     
   51   22   50 1     
   52   22   51 1     
   53    3   52 1     
   54    3   53 1     
   55    8   54 1     
   56   15   55 1     
   57   20   56 1     
   58   23   57 1     
   59   23   58 1     
@<TRIPOS>SUBSTRUCTURE
      1 S1             1
@<TRIPOS>SET
LONE_PAIRS      STATIC     ATOMS    <user>   **** ""
7 52 53 54 55 56 57 58
DONOR_HYDROGENS      STATIC     ATOMS    <user>   **** ""
1 27
ATOM$BLUE        STATIC     ATOMS    COLORGROUP SYSTEM
7 52 53 54 55 56 57 58
ATOM$RED        STATIC     ATOMS    COLORGROUP SYSTEM
1 27
