AV-unprocessed.smi:513|AV-procd|sdf|2772|dock5
  -GOLD-   2262023243D 1   1.00000     0.00000
 Structure written by MMmdl.
 43 45  0  0  0  0  0  0  0  0  2 V2000
  147.8562  141.2179  153.5807 C   0  0  0  0  0  0  0  0  0  0  0  0
  149.0815  141.6817  154.1196 O   0  0  0  0  0  0  0  0  0  0  0  0
  149.2170  141.3791  155.4970 C   0  0  0  0  0  0  0  0  0  0  0  0
  150.5827  141.8807  155.9795 C   0  0  0  0  0  0  0  0  0  0  0  0
  151.1810  140.9591  156.9416 N   0  0  0  0  0  0  0  0  0  0  0  0
  151.5548  141.1988  158.2292 C   0  0  0  0  0  0  0  0  0  0  0  0
  151.3798  142.4421  158.8404 N   0  0  0  0  0  0  0  0  0  0  0  0
  152.0798  142.8484  160.0568 C   0  0  0  0  0  0  0  0  0  0  0  0
  152.7231  144.2386  159.8957 C   0  0  0  0  0  0  0  0  0  0  0  0
  151.7108  145.2418  159.5043 N   0  3  0  0  0  0  0  0  0  0  0  0
  150.9233  144.8260  158.3251 C   0  0  0  0  0  0  0  0  0  0  0  0
  150.3342  143.4200  158.5425 C   0  0  0  0  0  0  0  0  0  0  0  0
  152.1524  140.1697  158.8354 N   0  0  0  0  0  0  0  0  0  0  0  0
  152.1395  139.1809  157.8639 C   0  0  0  0  0  0  0  0  0  0  0  0
  151.5768  139.6384  156.7165 C   0  0  0  0  0  0  0  0  0  0  0  0
  151.4861  138.8127  155.5035 C   0  0  0  0  0  0  0  0  0  0  0  0
  151.0041  139.2099  154.4452 O   0  0  0  0  0  0  0  0  0  0  0  0
  152.0021  137.5701  155.6655 N   0  0  0  0  0  0  0  0  0  0  0  0
  152.5753  137.0474  156.7921 C   0  0  0  0  0  0  0  0  0  0  0  0
  153.0142  135.8975  156.7812 O   0  0  0  0  0  0  0  0  0  0  0  0
  152.6397  137.8483  157.9038 N   0  0  0  0  0  0  0  0  0  0  0  0
  153.2467  137.3492  159.1392 C   0  0  0  0  0  0  0  0  0  0  0  0
  151.9666  136.9623  154.8601 H   0  0  0  0  0  0  0  0  0  0  0  0
  147.7957  141.4862  152.5260 H   0  0  0  0  0  0  0  0  0  0  0  0
  147.0042  141.6679  154.0920 H   0  0  0  0  0  0  0  0  0  0  0  0
  147.7773  140.1326  153.6574 H   0  0  0  0  0  0  0  0  0  0  0  0
  148.4181  141.8533  156.0694 H   0  0  0  0  0  0  0  0  0  0  0  0
  149.1374  140.3013  155.6474 H   0  0  0  0  0  0  0  0  0  0  0  0
  151.2479  142.0197  155.1334 H   0  0  0  0  0  0  0  0  0  0  0  0
  150.4916  142.8705  156.4221 H   0  0  0  0  0  0  0  0  0  0  0  0
  151.3788  142.8476  160.8927 H   0  0  0  0  0  0  0  0  0  0  0  0
  152.8516  142.1167  160.2983 H   0  0  0  0  0  0  0  0  0  0  0  0
  153.1985  144.5507  160.8256 H   0  0  0  0  0  0  0  0  0  0  0  0
  153.5024  144.2049  159.1330 H   0  0  0  0  0  0  0  0  0  0  0  0
  151.0749  145.3634  160.2796 H   0  0  0  0  0  0  0  0  0  0  0  0
  150.1284  145.5508  158.1498 H   0  0  0  0  0  0  0  0  0  0  0  0
  151.5678  144.8381  157.4453 H   0  0  0  0  0  0  0  0  0  0  0  0
  149.7454  143.1047  157.6820 H   0  0  0  0  0  0  0  0  0  0  0  0
  149.6341  143.4424  159.3791 H   0  0  0  0  0  0  0  0  0  0  0  0
  152.9061  136.3384  159.3698 H   0  0  0  0  0  0  0  0  0  0  0  0
  152.9993  137.9699  160.0004 H   0  0  0  0  0  0  0  0  0  0  0  0
  154.3330  137.3295  159.0424 H   0  0  0  0  0  0  0  0  0  0  0  0
  152.1660  146.1228  159.3127 H   0  0  0  0  0  0  0  0  0  0  0  0
  1  2  1  0  0  0  0
  1 24  1  0  0  0  0
  1 25  1  0  0  0  0
  1 26  1  0  0  0  0
  2  3  1  0  0  0  0
  3  4  1  0  0  0  0
  3 27  1  0  0  0  0
  3 28  1  0  0  0  0
  4  5  1  0  0  0  0
  4 29  1  0  0  0  0
  4 30  1  0  0  0  0
  5 15  1  0  0  0  0
  5  6  1  0  0  0  0
  6  7  1  0  0  0  0
  6 13  2  0  0  0  0
  7 12  1  0  0  0  0
  7  8  1  0  0  0  0
  8  9  1  0  0  0  0
  8 31  1  0  0  0  0
  8 32  1  0  0  0  0
  9 10  1  0  0  0  0
  9 33  1  0  0  0  0
  9 34  1  0  0  0  0
 10 11  1  0  0  0  0
 10 35  1  0  0  0  0
 10 43  1  0  0  0  0
 11 12  1  0  0  0  0
 11 36  1  0  0  0  0
 11 37  1  0  0  0  0
 12 38  1  0  0  0  0
 12 39  1  0  0  0  0
 13 14  1  0  0  0  0
 14 21  1  0  0  0  0
 14 15  2  0  0  0  0
 15 16  1  0  0  0  0
 16 17  2  0  0  0  0
 16 18  1  0  0  0  0
 18 23  1  0  0  0  0
 18 19  1  0  0  0  0
 19 20  2  0  0  0  0
 19 21  1  0  0  0  0
 21 22  1  0  0  0  0
 22 40  1  0  0  0  0
 22 41  1  0  0  0  0
 22 42  1  0  0  0  0
M  CHG  1  10   1
M  END
> <s_m_source_file>
AV-unprocessed.smi

> <i_m_source_file_index>
513

> <i_lp_mmshare_version>
43012

> <i_f3d_flags>
0

> <s_epik_input>
W0NIM11uMWMoPU8pW25IXWMoPU8pYyhjMTIpbihbQ0gyXVtDSDJdT1tDSDNdKWMobjIpTjNbQ0gyXVtDSDJdW05IXVtDSDJdW0NIMl0z

> <s_epik_cmdline>
J2VwaWtfcHl0aG9uJywgJy1waCcsICc3LjAnLCAnLXRuJywgJzgnLCAnLW1hJywgJzIwMCcsICctbWV0YWxfYmluZGluZycsICctaW1hZScsICc8aW5maWxlLm1hZT4nLCAnLW9tYWUnLCAnPG91dGZpbGUubWFlPic=

> <r_epik_Ionization_Penalty>
0.00860422

> <r_epik_Ionization_Penalty_Charging>
0.00860232

> <r_epik_Ionization_Penalty_Neutral>
1.90009e-06

> <r_epik_State_Penalty>
0.00646614

> <r_epik_Charging_Adjusted_Penalty>
0.0150685

> <i_epik_Tot_Q>
1

> <i_epik_Tot_abs_Q>
1

> <r_epik_Metal_State_Penalty>
0.0348233

> <b_epik_Metal_Only>
0

> <s_lp_Force_Field>
OPLS_2005

> <r_lp_Energy>
48.3968

> <b_lp_Chiralities_Consistent>
1

> <s_lp_Variant>
AV-unprocessed.smi:513-1

> <Gold.Version>
5.8.1

> <Gold.Id.Protein>
6NUR|6NUR_protein|mol2

> <Gold.PLP.Fitness>
43.2199

> <Gold.PLP.PLP>
-36.3958

> <Gold.PLP.part.hbond>
-3.5599

> <Gold.PLP.part.metal>
0.0000

> <Gold.PLP.part.buried>
-6.9700

> <Gold.PLP.part.nonpolar>
-25.9827

> <Gold.PLP.part.repulsive>
0.5973

> <Gold.PLP.ligand.clash>
0.0000

> <Gold.PLP.ligand.torsion>
0.4895

> <Gold.PLP.Chemscore.Hbond>
2.4320

> <Gold.PLP.Chemscore.CHOScore>
0.0000

> <Gold.PLP.Chemscore.Metal>
0.0000

> <Gold.Chemscore.Hbonds>
donor molecule, donor type, donor heavy atom, donor atom, acceptor molecule, acceptor atom, score
      P1  H  7989  7998       L1    17  1.00
      P1  H  8011  8017       L1     2  0.41
      P1  H 10752 10764       L1    20  1.00

> <Gold.PLP.Chemscore.Internal.Correction>
0.5070

> <Gold.Rescore>
     Score         DG    S(hbond)    S(metal)    S(lipo)     H(rot)  DE(clash)    DE(int)     intcor
     15.45     -16.88       2.07        0.00      72.58       1.57       0.10       1.33       ----

> <Gold.Chemscore.Fitness>
15.4509

> <Gold.Chemscore.DG>
-16.8798

> <Gold.Chemscore.ZeroCoef>
-5.4800

> <Gold.Chemscore.Hbond>
2.0736

> <Gold.Chemscore.Metal>
0.0000

> <Gold.Chemscore.Lipo>
72.5772

> <Gold.Chemscore.Internal_Hbond>
0.0000

> <Gold.Chemscore.DEClash>
0.0983

> <Gold.Chemscore.DEInternal>
1.3305

> <Gold.Chemscore.Rot>
1.5693

> <Gold.Chemscore.Internal.Correction>
   9.000000E+99

> <Gold.Chemscore.Hbonds>
donor molecule, donor type, donor heavy atom, donor atom, acceptor molecule, acceptor atom, score
      P1  H  7989  7998       L1    17  0.96
      P1  H  8011  8017       L1     2  0.05
      P1  H 10752 10764       L1    20  0.95

> <Gold.Chemscore.Hbond.Weighted>
-6.9257

> <Gold.Chemscore.Metal.Weighted>
-0.0000

> <Gold.Chemscore.Lipo.Weighted>
-8.4915

> <Gold.Chemscore.Internal_Hbond.Weighted>
0.0000

> <Gold.Chemscore.DEClash.Weighted>
0.0983

> <Gold.Chemscore.DEInternal.Weighted>
1.3305

> <Gold.Chemscore.Rot.Weighted>
4.0175

> <Gold.Chemscore.Internal.Correction.Weighted>
   9.000000E+99

> <Gold.Protein.RotatedTorsions>
[ 6907 6896 6895 6894 ] final  -17.95 input  -60.11 | X-H torsion
[ 7974 7965 7964 7962 ] final  159.62 input  175.53 | X-H torsion
[ 8008 7997 7996 7995 ] final -108.71 input   59.86 | X-H torsion
[ 10167 10162 10161 10158 ] final -155.71 input  -65.29 | X-H torsion
[ 10718 10713 10712 10709 ] final  149.29 input   66.30 | X-H torsion
[ 10763 10752 10751 10750 ] final   13.46 input  -60.55 | X-H torsion
[ 11005 11000 10999 10996 ] final -157.22 input  -57.11 | X-H torsion

> <Gold.Protein.ActiveResidues>
 VAL166  LYS551  ARG553  GLY616  TRP617  ASP618  TYR619  PRO620  LYS621  CYS622 
 ASP623  PHE694  ASN695  SER759  ASP760  ASP761  ALA762  ILE779  LEU786  VAL792 
 PHE793  MET794  SER795  GLU796  ALA797  LYS798  CYS799  TRP800  GLU811  SER814 

> <Gold.Protein.RotatedAtoms>
  151.2856  135.0726  159.9184 H   0  0  0  0  0  0  0  0  0  0  0  0  # atno 6907 bound_to 6896
  152.5326  133.9985  159.7894 H   0  0  0  0  0  0  0  0  0  0  0  0  # atno 6908 bound_to 6896
  151.0247  133.5794  159.2698 H   0  0  0  0  0  0  0  0  0  0  0  0  # atno 6909 bound_to 6896
  144.7781  139.7642  143.6271 H   0  0  0  0  0  0  0  0  0  0  0  0  # atno 7974 bound_to 7965
  154.9483  140.0401  157.2131 H   0  0  0  0  0  0  0  0  0  0  0  0  # atno 8008 bound_to 7997
  154.8003  140.2850  155.5905 H   0  0  0  0  0  0  0  0  0  0  0  0  # atno 8009 bound_to 7997
  156.2960  140.2556  156.2869 H   0  0  0  0  0  0  0  0  0  0  0  0  # atno 8010 bound_to 7997
  139.6909  143.9422  152.2384 H   0  0  0  0  0  0  0  0  0  0  0  0  # atno 10167 bound_to 10162
  157.2979  131.0865  151.1412 H   0  0  0  0  0  0  0  0  0  0  0  0  # atno 10718 bound_to 10713
  153.1719  135.6814  153.8596 H   0  0  0  0  0  0  0  0  0  0  0  0  # atno 10763 bound_to 10752
  153.7957  135.3163  155.3385 H   0  0  0  0  0  0  0  0  0  0  0  0  # atno 10764 bound_to 10752
  154.8004  135.4781  154.0353 H   0  0  0  0  0  0  0  0  0  0  0  0  # atno 10765 bound_to 10752
  140.6670  134.4288  157.5233 H   0  0  0  0  0  0  0  0  0  0  0  0  # atno 11005 bound_to 11000
  146.1972  139.5246  142.9766 LP  0  0  0  0  0  0  0  0  0  0  0  0  # atno 17320 bound_to 7965
  145.6129  141.0336  143.1957 LP  0  0  0  0  0  0  0  0  0  0  0  0  # atno 17321 bound_to 7965
  139.9238  144.6783  150.8434 LP  0  0  0  0  0  0  0  0  0  0  0  0  # atno 17342 bound_to 10162
  140.7682  143.3356  151.2316 LP  0  0  0  0  0  0  0  0  0  0  0  0  # atno 17343 bound_to 10162
  157.2783  130.6737  149.6053 LP  0  0  0  0  0  0  0  0  0  0  0  0  # atno 17370 bound_to 10713
  155.9670  130.4458  150.5514 LP  0  0  0  0  0  0  0  0  0  0  0  0  # atno 17371 bound_to 10713
  139.8994  134.8592  156.1962 LP  0  0  0  0  0  0  0  0  0  0  0  0  # atno 17394 bound_to 11000
  141.0421  133.6932  156.1617 LP  0  0  0  0  0  0  0  0  0  0  0  0  # atno 17395 bound_to 11000

$$$$
