AV-unprocessed.smi:2060|AV-procd|sdf|8354|dock5
  -GOLD-   2272011 23D 1   1.00000     0.00000
 Structure written by MMmdl.
 45 46  0  0  0  0  0  0  0  0  1 V2000
  147.5866  141.7233  154.0725 C   0  0  0  0  0  0  0  0  0  0  0  0
  148.6743  140.6596  153.8350 C   0  0  0  0  0  0  0  0  0  0  0  0
  148.7359  139.5087  154.8894 C   0  0  1  0  0  0  0  0  0  0  0  0
  148.9141  140.1920  156.2721 C   0  0  0  0  0  0  0  0  0  0  0  0
  147.3646  138.7566  154.8757 C   0  0  0  0  0  0  0  0  0  0  0  0
  147.3005  137.6513  153.9193 N   0  0  0  0  0  0  0  0  0  0  0  0
  146.2727  136.8031  153.7677 C   0  0  0  0  0  0  0  0  0  0  0  0
  145.2399  136.8595  154.4350 O   0  0  0  0  0  0  0  0  0  0  0  0
  146.5258  135.9055  152.8006 N   0  0  0  0  0  0  0  0  0  0  0  0
  145.6872  134.8671  152.3193 C   0  0  0  0  0  0  0  0  0  0  0  0
  146.0333  133.8827  151.3480 C   0  0  0  0  0  0  0  0  0  0  0  0
  144.8958  133.1319  151.2540 C   0  0  0  0  0  0  0  0  0  0  0  0
  144.5344  131.9354  150.4423 C   0  0  0  0  0  0  0  0  0  0  0  0
  143.9389  133.6142  152.0919 O   0  0  0  0  0  0  0  0  0  0  0  0
  144.4543  134.7248  152.7702 N   0  0  0  0  0  0  0  0  0  0  0  0
  149.8782  138.5911  154.6139 N   0  0  0  0  0  0  0  0  0  0  0  0
  149.9917  137.4434  155.5222 C   0  0  0  0  0  0  0  0  0  0  0  0
  151.1002  136.4700  155.0868 C   0  0  0  0  0  0  0  0  0  0  0  0
  152.3395  137.1627  155.0003 O   0  0  0  0  0  0  0  0  0  0  0  0
  152.2904  138.2515  154.0862 C   0  0  0  0  0  0  0  0  0  0  0  0
  151.1914  139.2392  154.5136 C   0  0  0  0  0  0  0  0  0  0  0  0
  147.6223  142.4847  153.2934 H   0  0  0  0  0  0  0  0  0  0  0  0
  147.7161  142.2315  155.0280 H   0  0  0  0  0  0  0  0  0  0  0  0
  146.5867  141.2909  154.0553 H   0  0  0  0  0  0  0  0  0  0  0  0
  148.5085  140.2442  152.8405 H   0  0  0  0  0  0  0  0  0  0  0  0
  149.6408  141.1581  153.7620 H   0  0  0  0  0  0  0  0  0  0  0  0
  148.2408  141.0398  156.4007 H   0  0  0  0  0  0  0  0  0  0  0  0
  149.9289  140.5663  156.4098 H   0  0  0  0  0  0  0  0  0  0  0  0
  148.7064  139.5076  157.0949 H   0  0  0  0  0  0  0  0  0  0  0  0
  147.1644  138.3157  155.8517 H   0  0  0  0  0  0  0  0  0  0  0  0
  146.5408  139.4463  154.6909 H   0  0  0  0  0  0  0  0  0  0  0  0
  148.1067  137.5258  153.3247 H   0  0  0  0  0  0  0  0  0  0  0  0
  147.4251  135.9765  152.3479 H   0  0  0  0  0  0  0  0  0  0  0  0
  146.9544  133.7349  150.8050 H   0  0  0  0  0  0  0  0  0  0  0  0
  145.2888  131.7397  149.6800 H   0  0  0  0  0  0  0  0  0  0  0  0
  143.5775  132.0812  149.9410 H   0  0  0  0  0  0  0  0  0  0  0  0
  144.4550  131.0509  151.0744 H   0  0  0  0  0  0  0  0  0  0  0  0
  150.2077  137.7830  156.5350 H   0  0  0  0  0  0  0  0  0  0  0  0
  149.0579  136.8863  155.5678 H   0  0  0  0  0  0  0  0  0  0  0  0
  151.1963  135.6588  155.8086 H   0  0  0  0  0  0  0  0  0  0  0  0
  150.8592  136.0158  154.1245 H   0  0  0  0  0  0  0  0  0  0  0  0
  153.2606  138.7481  154.0718 H   0  0  0  0  0  0  0  0  0  0  0  0
  152.1053  137.8815  153.0766 H   0  0  0  0  0  0  0  0  0  0  0  0
  151.1728  140.0482  153.7854 H   0  0  0  0  0  0  0  0  0  0  0  0
  151.4716  139.6795  155.4702 H   0  0  0  0  0  0  0  0  0  0  0  0
  1  2  1  0  0  0  0
  1 22  1  0  0  0  0
  1 23  1  0  0  0  0
  1 24  1  0  0  0  0
  2  3  1  0  0  0  0
  2 25  1  0  0  0  0
  2 26  1  0  0  0  0
  3  4  1  0  0  0  0
  3  5  1  0  0  0  0
  3 16  1  0  0  0  0
  4 27  1  0  0  0  0
  4 28  1  0  0  0  0
  4 29  1  0  0  0  0
  5  6  1  0  0  0  0
  5 30  1  0  0  0  0
  5 31  1  0  0  0  0
  6  7  1  0  0  0  0
  6 32  1  0  0  0  0
  7  8  2  0  0  0  0
  7  9  1  0  0  0  0
  9 10  1  0  0  0  0
  9 33  1  0  0  0  0
 10 15  2  0  0  0  0
 10 11  1  0  0  0  0
 11 12  2  0  0  0  0
 11 34  1  0  0  0  0
 12 13  1  0  0  0  0
 12 14  1  0  0  0  0
 13 35  1  0  0  0  0
 13 36  1  0  0  0  0
 13 37  1  0  0  0  0
 14 15  1  0  0  0  0
 16 21  1  0  0  0  0
 16 17  1  0  0  0  0
 17 18  1  0  0  0  0
 17 38  1  0  0  0  0
 17 39  1  0  0  0  0
 18 19  1  0  0  0  0
 18 40  1  0  0  0  0
 18 41  1  0  0  0  0
 19 20  1  0  0  0  0
 20 21  1  0  0  0  0
 20 42  1  0  0  0  0
 20 43  1  0  0  0  0
 21 44  1  0  0  0  0
 21 45  1  0  0  0  0
M  END
> <s_m_source_file>
AV-unprocessed.smi

> <i_m_source_file_index>
2060

> <i_lp_mmshare_version>
43012

> <i_f3d_flags>
0

> <s_epik_input>
W0NIMl0xW0NIMl1PW0NIMl1bQ0gyXU4xW0NAQF0oW0NIM10pKFtDSDJdW0NIM10pW0NIMl1bTkhdQyg9TylbTkhdYzJbY0hdYyhbQ0gzXSlvbjI=

> <s_epik_cmdline>
J2VwaWtfcHl0aG9uJywgJy1waCcsICc3LjAnLCAnLXRuJywgJzgnLCAnLW1hJywgJzIwMCcsICctbWV0YWxfYmluZGluZycsICctaW1hZScsICc8aW5maWxlLm1hZT4nLCAnLW9tYWUnLCAnPG91dGZpbGUubWFlPic=

> <r_epik_Ionization_Penalty>
0.289127

> <r_epik_Ionization_Penalty_Charging>
0

> <r_epik_Ionization_Penalty_Neutral>
0.289127

> <r_epik_State_Penalty>
0.282056

> <r_epik_Charging_Adjusted_Penalty>
0.282056

> <i_epik_Tot_Q>
0

> <i_epik_Tot_abs_Q>
0

> <r_epik_Metal_State_Penalty>
0.284526

> <b_epik_Metal_Only>
0

> <s_lp_Force_Field>
OPLS_2005

> <r_lp_Energy>
41.8264

> <b_lp_Chiralities_Consistent>
1

> <s_lp_Variant>
AV-unprocessed.smi:2060-1

> <Gold.Version>
5.8.1

> <Gold.Id.Protein>
6NUR|6NUR_protein|mol2

> <Gold.PLP.Fitness>
37.1307

> <Gold.PLP.PLP>
-30.0392

> <Gold.PLP.part.hbond>
-3.0000

> <Gold.PLP.part.metal>
0.0000

> <Gold.PLP.part.buried>
-4.4255

> <Gold.PLP.part.nonpolar>
-23.4970

> <Gold.PLP.part.repulsive>
0.6734

> <Gold.PLP.ligand.clash>
0.0000

> <Gold.PLP.ligand.torsion>
0.5048

> <Gold.PLP.Chemscore.Hbond>
2.6599

> <Gold.PLP.Chemscore.CHOScore>
0.0000

> <Gold.PLP.Chemscore.Metal>
0.0000

> <Gold.Chemscore.Hbonds>
donor molecule, donor type, donor heavy atom, donor atom, acceptor molecule, acceptor atom, score
      L1  H     6    32       P1  7948  0.67
      L1  H     9    33       P1  7948  1.00
      P1  H 10752 10765       L1    19  0.14

> <Gold.PLP.Chemscore.Internal.Correction>
0.1214

> <Gold.Rescore>
     Score         DG    S(hbond)    S(metal)    S(lipo)     H(rot)  DE(clash)    DE(int)     intcor
     15.41     -17.59       2.49        0.00      69.89       1.71       0.15       2.03       ----

> <Gold.Chemscore.Fitness>
15.4138

> <Gold.Chemscore.DG>
-17.5947

> <Gold.Chemscore.ZeroCoef>
-5.4800

> <Gold.Chemscore.Hbond>
2.4929

> <Gold.Chemscore.Metal>
0.0000

> <Gold.Chemscore.Lipo>
69.8889

> <Gold.Chemscore.Internal_Hbond>
0.0000

> <Gold.Chemscore.DEClash>
0.1492

> <Gold.Chemscore.DEInternal>
2.0318

> <Gold.Chemscore.Rot>
1.7143

> <Gold.Chemscore.Internal.Correction>
   9.000000E+99

> <Gold.Chemscore.Hbonds>
donor molecule, donor type, donor heavy atom, donor atom, acceptor molecule, acceptor atom, score
      L1  H     6    32       P1  7948  0.66
      L1  H     9    33       P1  7948  0.99

> <Gold.Chemscore.Hbond.Weighted>
-8.3263

> <Gold.Chemscore.Metal.Weighted>
-0.0000

> <Gold.Chemscore.Lipo.Weighted>
-8.1770

> <Gold.Chemscore.Internal_Hbond.Weighted>
0.0000

> <Gold.Chemscore.DEClash.Weighted>
0.1492

> <Gold.Chemscore.DEInternal.Weighted>
2.0318

> <Gold.Chemscore.Rot.Weighted>
4.3885

> <Gold.Chemscore.Internal.Correction.Weighted>
   9.000000E+99

> <Gold.Protein.RotatedTorsions>
[ 6907 6896 6895 6894 ] final  -54.99 input  -60.11 | X-H torsion
[ 7974 7965 7964 7962 ] final  -69.71 input  175.53 | X-H torsion
[ 8008 7997 7996 7995 ] final  140.88 input   59.86 | X-H torsion
[ 10167 10162 10161 10158 ] final  -97.51 input  -65.29 | X-H torsion
[ 10718 10713 10712 10709 ] final   39.11 input   66.30 | X-H torsion
[ 10763 10752 10751 10750 ] final -170.23 input  -60.55 | X-H torsion
[ 11005 11000 10999 10996 ] final  -83.21 input  -57.11 | X-H torsion

> <Gold.Protein.ActiveResidues>
 VAL166  LYS551  ARG553  GLY616  TRP617  ASP618  TYR619  PRO620  LYS621  CYS622 
 ASP623  PHE694  ASN695  SER759  ASP760  ASP761  ALA762  ILE779  LEU786  VAL792 
 PHE793  MET794  SER795  GLU796  ALA797  LYS798  CYS799  TRP800  GLU811  SER814 

> <Gold.Protein.RotatedAtoms>
  150.8290  134.7534  159.6837 H   0  0  0  0  0  0  0  0  0  0  0  0  # atno 6907 bound_to 6896
  152.4397  134.5612  159.9904 H   0  0  0  0  0  0  0  0  0  0  0  0  # atno 6908 bound_to 6896
  151.5778  133.3344  159.3038 H   0  0  0  0  0  0  0  0  0  0  0  0  # atno 6909 bound_to 6896
  145.7003  140.9119  143.0735 H   0  0  0  0  0  0  0  0  0  0  0  0  # atno 7974 bound_to 7965
  156.2973  140.2330  156.4473 H   0  0  0  0  0  0  0  0  0  0  0  0  # atno 8008 bound_to 7997
  154.8132  140.0442  157.1378 H   0  0  0  0  0  0  0  0  0  0  0  0  # atno 8009 bound_to 7997
  154.9399  140.3028  155.5129 H   0  0  0  0  0  0  0  0  0  0  0  0  # atno 8010 bound_to 7997
  140.2827  143.3272  152.0425 H   0  0  0  0  0  0  0  0  0  0  0  0  # atno 10167 bound_to 10162
  157.3667  130.7679  149.7088 H   0  0  0  0  0  0  0  0  0  0  0  0  # atno 10718 bound_to 10713
  154.6437  135.2902  155.0072 H   0  0  0  0  0  0  0  0  0  0  0  0  # atno 10763 bound_to 10752
  154.1189  135.6551  153.4903 H   0  0  0  0  0  0  0  0  0  0  0  0  # atno 10764 bound_to 10752
  153.0340  135.5283  154.7315 H   0  0  0  0  0  0  0  0  0  0  0  0  # atno 10765 bound_to 10752
  141.1659  133.7283  156.8687 H   0  0  0  0  0  0  0  0  0  0  0  0  # atno 11005 bound_to 11000
  144.6970  139.8938  143.7454 LP  0  0  0  0  0  0  0  0  0  0  0  0  # atno 17320 bound_to 7965
  146.0804  139.3792  143.0468 LP  0  0  0  0  0  0  0  0  0  0  0  0  # atno 17321 bound_to 7965
  139.4958  144.6580  151.6528 LP  0  0  0  0  0  0  0  0  0  0  0  0  # atno 17342 bound_to 10162
  140.5798  143.9965  150.6262 LP  0  0  0  0  0  0  0  0  0  0  0  0  # atno 17343 bound_to 10162
  155.9747  130.4099  150.3901 LP  0  0  0  0  0  0  0  0  0  0  0  0  # atno 17370 bound_to 10713
  157.1986  131.0432  151.2662 LP  0  0  0  0  0  0  0  0  0  0  0  0  # atno 17371 bound_to 10713
  140.1797  134.9042  157.2933 LP  0  0  0  0  0  0  0  0  0  0  0  0  # atno 17394 bound_to 11000
  140.2409  134.3797  155.7481 LP  0  0  0  0  0  0  0  0  0  0  0  0  # atno 17395 bound_to 11000

$$$$
