AV-unprocessed.smi:3252|AV-procd|sdf|12444|dock8
  -GOLD-   2272018333D 1   1.00000     0.00000
 Structure written by MMmdl.
 36 37  0  0  0  0  0  0  0  0  1 V2000
  154.0584  140.5343  160.3061 C   0  0  0  0  0  0  0  0  0  0  0  0
  153.6479  142.0046  160.4705 C   0  0  0  0  0  0  0  0  0  0  0  0
  152.9383  142.5781  159.3286 N   0  0  0  0  0  0  0  0  0  0  0  0
  152.5432  143.9664  159.5534 C   0  0  0  0  0  0  0  0  0  0  0  0
  151.7639  144.5417  158.3582 C   0  0  0  0  0  0  0  0  0  0  0  0
  150.6359  143.7181  158.0803 O   0  0  0  0  0  0  0  0  0  0  0  0
  150.9901  142.3670  157.7938 C   0  0  2  0  0  0  0  0  0  0  0  0
  149.7078  141.5751  157.5058 C   0  0  0  0  0  0  0  0  0  0  0  0
  148.9235  142.1899  156.4441 N   0  0  0  0  0  0  0  0  0  0  0  0
  148.4147  141.4204  155.3893 C   0  0  0  0  0  0  0  0  0  0  0  0
  147.4367  141.9911  154.5474 C   0  0  0  0  0  0  0  0  0  0  0  0
  146.9250  141.2238  153.4825 C   0  0  0  0  0  0  0  0  0  0  0  0
  147.4078  139.9132  153.2975 C   0  0  0  0  0  0  0  0  0  0  0  0
  146.9123  139.0825  152.2132 C   0  0  0  0  0  0  0  0  0  0  0  0
  146.5175  138.4210  151.3500 N   0  0  0  0  0  0  0  0  0  0  0  0
  148.3845  139.4286  154.1911 C   0  0  0  0  0  0  0  0  0  0  0  0
  148.8795  140.1601  155.2129 N   0  0  0  0  0  0  0  0  0  0  0  0
  151.7499  141.7957  159.0067 C   0  0  0  0  0  0  0  0  0  0  0  0
  154.4865  140.1520  161.2329 H   0  0  0  0  0  0  0  0  0  0  0  0
  154.8080  140.4038  159.5257 H   0  0  0  0  0  0  0  0  0  0  0  0
  153.1987  139.9114  160.0580 H   0  0  0  0  0  0  0  0  0  0  0  0
  153.0053  142.0665  161.3498 H   0  0  0  0  0  0  0  0  0  0  0  0
  154.5286  142.6058  160.7007 H   0  0  0  0  0  0  0  0  0  0  0  0
  151.9273  144.0346  160.4514 H   0  0  0  0  0  0  0  0  0  0  0  0
  153.4218  144.5865  159.7279 H   0  0  0  0  0  0  0  0  0  0  0  0
  151.4212  145.5524  158.5800 H   0  0  0  0  0  0  0  0  0  0  0  0
  152.4017  144.6059  157.4752 H   0  0  0  0  0  0  0  0  0  0  0  0
  151.6396  142.3372  156.9166 H   0  0  0  0  0  0  0  0  0  0  0  0
  149.9706  140.5625  157.1973 H   0  0  0  0  0  0  0  0  0  0  0  0
  149.1037  141.4905  158.4101 H   0  0  0  0  0  0  0  0  0  0  0  0
  148.7719  143.1881  156.4639 H   0  0  0  0  0  0  0  0  0  0  0  0
  147.0841  142.9992  154.7102 H   0  0  0  0  0  0  0  0  0  0  0  0
  146.1769  141.6395  152.8228 H   0  0  0  0  0  0  0  0  0  0  0  0
  148.7837  138.4297  154.0879 H   0  0  0  0  0  0  0  0  0  0  0  0
  152.0359  140.7642  158.7972 H   0  0  0  0  0  0  0  0  0  0  0  0
  151.0837  141.7636  159.8704 H   0  0  0  0  0  0  0  0  0  0  0  0
  1  2  1  0  0  0  0
  1 19  1  0  0  0  0
  1 20  1  0  0  0  0
  1 21  1  0  0  0  0
  2  3  1  0  0  0  0
  2 22  1  0  0  0  0
  2 23  1  0  0  0  0
  3 18  1  0  0  0  0
  3  4  1  0  0  0  0
  4  5  1  0  0  0  0
  4 24  1  0  0  0  0
  4 25  1  0  0  0  0
  5  6  1  0  0  0  0
  5 26  1  0  0  0  0
  5 27  1  0  0  0  0
  6  7  1  0  0  0  0
  7  8  1  0  0  0  0
  7 18  1  0  0  0  0
  7 28  1  0  0  0  0
  8  9  1  0  0  0  0
  8 29  1  0  0  0  0
  8 30  1  0  0  0  0
  9 10  1  0  0  0  0
  9 31  1  0  0  0  0
 10 17  1  0  0  0  0
 10 11  2  0  0  0  0
 11 12  1  0  0  0  0
 11 32  1  0  0  0  0
 12 13  2  0  0  0  0
 12 33  1  0  0  0  0
 13 14  1  0  0  0  0
 13 16  1  0  0  0  0
 14 15  3  0  0  0  0
 16 17  2  0  0  0  0
 16 34  1  0  0  0  0
 18 35  1  0  0  0  0
 18 36  1  0  0  0  0
M  END
> <s_m_source_file>
AV-unprocessed.smi

> <i_m_source_file_index>
3252

> <i_lp_mmshare_version>
43012

> <i_f3d_flags>
0

> <s_epik_input>
W0NIM11bQ0gyXU4xW0NIMl1bQ0gyXU9bQ0BIXShbQ0gyXTEpW0NIMl1bTkhdYzJbY0hdW2NIXWMoQyNOKVtjSF1uMg==

> <s_epik_cmdline>
J2VwaWtfcHl0aG9uJywgJy1waCcsICc3LjAnLCAnLXRuJywgJzgnLCAnLW1hJywgJzIwMCcsICctbWV0YWxfYmluZGluZycsICctaW1hZScsICc8aW5maWxlLm1hZT4nLCAnLW9tYWUnLCAnPG91dGZpbGUubWFlPic=

> <r_epik_Ionization_Penalty>
0.797836

> <r_epik_Ionization_Penalty_Charging>
0

> <r_epik_Ionization_Penalty_Neutral>
0.797836

> <r_epik_State_Penalty>
0.828842

> <r_epik_Charging_Adjusted_Penalty>
0.828842

> <i_epik_Tot_Q>
0

> <i_epik_Tot_abs_Q>
0

> <r_epik_Metal_State_Penalty>
0.828842

> <b_epik_Metal_Only>
0

> <s_lp_Force_Field>
OPLS_2005

> <r_lp_Energy>
23.1529

> <b_lp_Chiralities_Consistent>
1

> <s_lp_Variant>
AV-unprocessed.smi:3252-6

> <Gold.Version>
5.8.1

> <Gold.Id.Protein>
6NUR|6NUR_protein|mol2

> <Gold.PLP.Fitness>
43.2349

> <Gold.PLP.PLP>
-37.4834

> <Gold.PLP.part.hbond>
-2.0000

> <Gold.PLP.part.metal>
0.0000

> <Gold.PLP.part.buried>
-1.6642

> <Gold.PLP.part.nonpolar>
-35.1199

> <Gold.PLP.part.repulsive>
0.8816

> <Gold.PLP.ligand.clash>
0.0000

> <Gold.PLP.ligand.torsion>
0.1276

> <Gold.PLP.Chemscore.Hbond>
2.0000

> <Gold.PLP.Chemscore.CHOScore>
0.0000

> <Gold.PLP.Chemscore.Metal>
0.0000

> <Gold.Chemscore.Hbonds>
donor molecule, donor type, donor heavy atom, donor atom, acceptor molecule, acceptor atom, score
      L1  H     9    31       P1  8028  0.99
      P1  H  7954  7966       L1    15  0.42

> <Gold.PLP.Chemscore.Internal.Correction>
0.0067

> <Gold.Rescore>
     Score         DG    S(hbond)    S(metal)    S(lipo)     H(rot)  DE(clash)    DE(int)     intcor
     16.50     -17.23       1.34        0.00      93.50       1.43       0.55       0.18       ----

> <Gold.Chemscore.Fitness>
16.5024

> <Gold.Chemscore.DG>
-17.2276

> <Gold.Chemscore.ZeroCoef>
-5.4800

> <Gold.Chemscore.Hbond>
1.3404

> <Gold.Chemscore.Metal>
0.0000

> <Gold.Chemscore.Lipo>
93.4999

> <Gold.Chemscore.Internal_Hbond>
0.0000

> <Gold.Chemscore.DEClash>
0.5499

> <Gold.Chemscore.DEInternal>
0.1753

> <Gold.Chemscore.Rot>
1.4331

> <Gold.Chemscore.Internal.Correction>
   9.000000E+99

> <Gold.Chemscore.Hbonds>
donor molecule, donor type, donor heavy atom, donor atom, acceptor molecule, acceptor atom, score
      L1  H     9    31       P1  8028  0.88
      P1  H  7954  7966       L1    15  0.34

> <Gold.Chemscore.Hbond.Weighted>
-4.4769

> <Gold.Chemscore.Metal.Weighted>
-0.0000

> <Gold.Chemscore.Lipo.Weighted>
-10.9395

> <Gold.Chemscore.Internal_Hbond.Weighted>
0.0000

> <Gold.Chemscore.DEClash.Weighted>
0.5499

> <Gold.Chemscore.DEInternal.Weighted>
0.1753

> <Gold.Chemscore.Rot.Weighted>
3.6688

> <Gold.Chemscore.Internal.Correction.Weighted>
   9.000000E+99

> <Gold.Protein.RotatedTorsions>
[ 6907 6896 6895 6894 ] final   26.86 input  -60.11 | X-H torsion
[ 7974 7965 7964 7962 ] final  -35.55 input  175.53 | X-H torsion
[ 8008 7997 7996 7995 ] final  -70.97 input   59.86 | X-H torsion
[ 10167 10162 10161 10158 ] final  -60.96 input  -65.29 | X-H torsion
[ 10718 10713 10712 10709 ] final  122.97 input   66.30 | X-H torsion
[ 10763 10752 10751 10750 ] final  133.09 input  -60.55 | X-H torsion
[ 11005 11000 10999 10996 ] final  -10.46 input  -57.11 | X-H torsion

> <Gold.Protein.ActiveResidues>
 VAL166  LYS551  ARG553  GLY616  TRP617  ASP618  TYR619  PRO620  LYS621  CYS622 
 ASP623  PHE694  ASN695  SER759  ASP760  ASP761  ALA762  ILE779  LEU786  VAL792 
 PHE793  MET794  SER795  GLU796  ALA797  LYS798  CYS799  TRP800  GLU811  SER814 

> <Gold.Protein.RotatedAtoms>
  151.9937  134.9966  160.0562 H   0  0  0  0  0  0  0  0  0  0  0  0  # atno 6907 bound_to 6896
  152.1585  133.4562  159.4857 H   0  0  0  0  0  0  0  0  0  0  0  0  # atno 6908 bound_to 6896
  150.6884  134.2019  159.4368 H   0  0  0  0  0  0  0  0  0  0  0  0  # atno 6909 bound_to 6896
  146.0737  140.6173  142.8941 H   0  0  0  0  0  0  0  0  0  0  0  0  # atno 7974 bound_to 7965
  154.5052  140.0824  156.7879 H   0  0  0  0  0  0  0  0  0  0  0  0  # atno 8008 bound_to 7997
  155.3910  140.3432  155.4233 H   0  0  0  0  0  0  0  0  0  0  0  0  # atno 8009 bound_to 7997
  156.1506  140.1557  156.8763 H   0  0  0  0  0  0  0  0  0  0  0  0  # atno 8010 bound_to 7997
  140.6037  143.2368  151.5869 H   0  0  0  0  0  0  0  0  0  0  0  0  # atno 10167 bound_to 10162
  157.5701  131.1084  150.8382 H   0  0  0  0  0  0  0  0  0  0  0  0  # atno 10718 bound_to 10713
  153.8014  135.3141  155.3390 H   0  0  0  0  0  0  0  0  0  0  0  0  # atno 10763 bound_to 10752
  154.8087  135.4681  154.0463 H   0  0  0  0  0  0  0  0  0  0  0  0  # atno 10764 bound_to 10752
  153.1812  135.6894  153.8563 H   0  0  0  0  0  0  0  0  0  0  0  0  # atno 10765 bound_to 10752
  140.7450  133.8639  155.8998 H   0  0  0  0  0  0  0  0  0  0  0  0  # atno 11005 bound_to 11000
  144.7248  140.4488  143.6981 LP  0  0  0  0  0  0  0  0  0  0  0  0  # atno 17320 bound_to 7965
  145.6345  139.1541  143.2950 LP  0  0  0  0  0  0  0  0  0  0  0  0  # atno 17321 bound_to 7965
  139.5310  144.2918  152.1146 LP  0  0  0  0  0  0  0  0  0  0  0  0  # atno 17342 bound_to 10162
  140.2103  144.4569  150.6389 LP  0  0  0  0  0  0  0  0  0  0  0  0  # atno 17343 bound_to 10162
  156.8856  130.5195  149.5288 LP  0  0  0  0  0  0  0  0  0  0  0  0  # atno 17370 bound_to 10713
  156.0747  130.5772  150.9451 LP  0  0  0  0  0  0  0  0  0  0  0  0  # atno 17371 bound_to 10713
  140.9802  134.1415  157.4501 LP  0  0  0  0  0  0  0  0  0  0  0  0  # atno 17394 bound_to 11000
  139.8798  135.0008  156.6030 LP  0  0  0  0  0  0  0  0  0  0  0  0  # atno 17395 bound_to 11000

$$$$
