#       Name:                AV-unprocessed.smi:702
#       Creating user name   scv26
#       Creation time:       Fri Mar 27 00:40:56 2020


#       File generated by GOLD software.
#

@<TRIPOS>MOLECULE
AV-unprocessed.smi:702
    55    57     1
SMALL
NO_CHARGES


@<TRIPOS>ATOM
      1 ****        -0.1985  -2.8928   1.7122 C.3            1 S1                 0.0000
      2 ****        -0.4698  -1.5505   1.0016 C.3            1 S1                 0.0000
      3 ****         0.8156  -0.8586   0.8488 N.pl3          1 S1                -1.0000
      4 ****         1.2101   0.2310   1.5618 C.2            1 S1                 0.0000
      5 ****         0.5864   0.8116   2.4567 O.2            1 S1                 0.0000
      6 ****         2.4347   0.6542   1.2015 N.am           1 S1                 0.0000
      7 ****         3.1661   1.7810   1.6651 C.ar           1 S1                 0.0000
      8 ****         4.5749   1.7274   1.5817 C.ar           1 S1                 0.0000
      9 ****         5.3389   2.8324   2.0088 C.ar           1 S1                 0.0000
     10 ****         4.7198   3.9354   2.4816 N.pl3          1 S1                 1.0000
     11 ****         3.3760   4.0402   2.5634 C.ar           1 S1                 0.0000
     12 ****         2.5600   2.9675   2.1505 C.ar           1 S1                 0.0000
     13 ****        -1.2254  -1.6344  -0.3966 C.3            1 S1                 0.0000
     14 ****        -1.5763  -0.2741  -0.9933 N.4            1 S1                 1.0000
     15 ****        -2.3460   0.6886  -0.1458 C.3            1 S1                 0.0000
     16 ****        -2.9376   1.8075  -1.0151 C.3            1 S1                 0.0000
     17 ****        -1.8881   2.4790  -1.6983 O.3            1 S1                 0.0000
     18 ****        -1.1835   1.6065  -2.5711 C.3            1 S1                 0.0000
     19 ****        -0.5361   0.4647  -1.7700 C.3            1 S1                 0.0000
     20 ****        -0.4893  -2.5321  -1.4365 C.3            1 S1                 0.0000
     21 ****        -1.5306  -2.8784  -2.5077 C.3            1 S1                 0.0000
     22 ****        -2.8793  -2.8386  -1.7804 C.3            1 S1                 0.0000
     23 ****        -2.5528  -2.4456  -0.3317 C.3            1 S1                 0.0000
     24 ****        -1.1167  -3.4295   1.9444 H              1 S1                 0.0000
     25 ****         0.3038  -2.7252   2.6659 H              1 S1                 0.0000
     26 ****         0.4437  -3.5518   1.1290 H              1 S1                 0.0000
     27 ****        -1.1346  -1.0042   1.6718 H              1 S1                 0.0000
     28 ****         2.9210   0.0577   0.5483 H              1 S1                 0.0000
     29 ****         5.0684   0.8453   1.1999 H              1 S1                 0.0000
     30 ****         6.4181   2.8673   1.9840 H              1 S1                 0.0000
     31 ****         2.9953   4.9751   2.9477 H              1 S1                 0.0000
     32 ****         1.4874   3.0772   2.2009 H              1 S1                 0.0000
     33 ****        -3.1538   0.1969   0.3926 H              1 S1                 0.0000
     34 ****        -1.6949   1.1378   0.6053 H              1 S1                 0.0000
     35 ****        -3.6612   1.4083  -1.7278 H              1 S1                 0.0000
     36 ****        -3.4676   2.5272  -0.3910 H              1 S1                 0.0000
     37 ****        -1.8585   1.2120  -3.3324 H              1 S1                 0.0000
     38 ****        -0.4161   2.1782  -3.0938 H              1 S1                 0.0000
     39 ****         0.2203   0.8804  -1.1063 H              1 S1                 0.0000
     40 ****        -0.0220  -0.1717  -2.4849 H              1 S1                 0.0000
     41 ****         0.4286  -2.1155  -1.8488 H              1 S1                 0.0000
     42 ****        -0.1872  -3.4830  -0.9948 H              1 S1                 0.0000
     43 ****        -1.5153  -2.1373  -3.3077 H              1 S1                 0.0000
     44 ****        -1.3345  -3.8520  -2.9580 H              1 S1                 0.0000
     45 ****        -3.5291  -2.0934  -2.2408 H              1 S1                 0.0000
     46 ****        -3.3971  -3.7973  -1.8257 H              1 S1                 0.0000
     47 ****        -2.4355  -3.3823   0.2144 H              1 S1                 0.0000
     48 ****        -3.3846  -1.9285   0.1443 H              1 S1                 0.0000
     49 ****        -2.2373  -0.5364  -1.7096 H              1 S1                 0.0000
     50 ****         5.2907   4.7248   2.7845 H              1 S1                 0.0000
     51 ****         1.4524  -1.2167   0.1660 LP             1 S1                 0.0000
     52 ****        -0.3187   0.4845   2.7285 LP             1 S1                 0.0000
     53 ****         0.9867   1.6085   2.9091 LP             1 S1                 0.0000
     54 ****        -1.2483   2.8492  -1.0248 LP             1 S1                 0.0000
     55 ****        -2.2779   3.2277  -2.2344 LP             1 S1                 0.0000
@<TRIPOS>BOND
    1    1    2 1     
    2    1   24 1     
    3    1   25 1     
    4    1   26 1     
    5    2    3 1     
    6    2   13 1     
    7    2   27 1     
    8    3    4 1     
    9    4    5 2     
   10    4    6 am    
   11    6    7 1     
   12    6   28 1     
   13    7   12 ar    
   14    7    8 ar    
   15    8    9 ar    
   16    8   29 1     
   17    9   10 ar    
   18    9   30 1     
   19   10   11 ar    
   20   10   50 1     
   21   11   12 ar    
   22   11   31 1     
   23   12   32 1     
   24   13   23 1     
   25   13   14 1     
   26   13   20 1     
   27   14   19 1     
   28   14   15 1     
   29   14   49 1     
   30   15   16 1     
   31   15   33 1     
   32   15   34 1     
   33   16   17 1     
   34   16   35 1     
   35   16   36 1     
   36   17   18 1     
   37   18   19 1     
   38   18   37 1     
   39   18   38 1     
   40   19   39 1     
   41   19   40 1     
   42   20   21 1     
   43   20   41 1     
   44   20   42 1     
   45   21   22 1     
   46   21   43 1     
   47   21   44 1     
   48   22   23 1     
   49   22   45 1     
   50   22   46 1     
   51   23   47 1     
   52   23   48 1     
   53    3   51 1     
   54    5   52 1     
   55    5   53 1     
   56   17   54 1     
   57   17   55 1     
@<TRIPOS>SUBSTRUCTURE
      1 S1             1
@<TRIPOS>SET
LONE_PAIRS      STATIC     ATOMS    <user>   **** ""
5 51 52 53 54 55
DONOR_HYDROGENS      STATIC     ATOMS    <user>   **** ""
3 28 50 49
ATOM$BLUE        STATIC     ATOMS    COLORGROUP SYSTEM
5 51 52 53 54 55
ATOM$RED        STATIC     ATOMS    COLORGROUP SYSTEM
3 28 50 49
