AV-unprocessed.smi:1410|AV-procd|sdf|5734|dock5
  -GOLD-   22720 5363D 1   1.00000     0.00000
 Structure written by MMmdl.
 41 42  0  0  0  0  0  0  0  0  3 V2000
  143.8594  132.2947  157.1093 N   0  0  0  0  0  0  0  0  0  0  0  0
  145.1699  132.5461  157.0735 C   0  0  0  0  0  0  0  0  0  0  0  0
  145.8000  132.8853  158.0737 O   0  0  0  0  0  0  0  0  0  0  0  0
  145.8707  132.3725  155.7219 C   0  0  0  0  0  0  0  0  0  0  0  0
  145.2942  133.2312  154.6554 N   0  3  2  0  0  0  0  0  0  0  0  0
  146.1072  133.2414  153.4101 C   0  0  0  0  0  0  0  0  0  0  0  0
  145.3939  134.0186  152.2901 C   0  0  0  0  0  0  0  0  0  0  0  0
  145.0370  135.4565  152.7184 C   0  0  2  0  0  0  0  0  0  0  0  0
  146.2214  136.3091  152.8264 N   0  0  0  0  0  0  0  0  0  0  0  0
  146.2535  137.5196  153.4036 C   0  0  0  0  0  0  0  0  0  0  0  0
  145.2614  138.0661  153.8839 O   0  0  0  0  0  0  0  0  0  0  0  0
  147.4910  138.0446  153.3681 N   0  0  0  0  0  0  0  0  0  0  0  0
  147.9387  139.3021  153.8598 C   0  0  0  0  0  0  0  0  0  0  0  0
  147.0717  140.4071  153.7063 C   0  0  0  0  0  0  0  0  0  0  0  0
  147.4735  141.6775  154.1668 C   0  0  0  0  0  0  0  0  0  0  0  0
  148.6850  141.8317  154.7423 N   0  3  0  0  0  0  0  0  0  0  0  0
  149.5537  140.8100  154.8987 C   0  0  0  0  0  0  0  0  0  0  0  0
  149.2076  139.5166  154.4568 C   0  0  0  0  0  0  0  0  0  0  0  0
  144.2695  135.4264  154.0518 C   0  0  0  0  0  0  0  0  0  0  0  0
  145.0061  134.6088  155.1290 C   0  0  0  0  0  0  0  0  0  0  0  0
  143.3545  132.3919  157.9791 H   0  0  0  0  0  0  0  0  0  0  0  0
  143.3737  132.0050  156.2726 H   0  0  0  0  0  0  0  0  0  0  0  0
  146.9172  132.6363  155.8802 H   0  0  0  0  0  0  0  0  0  0  0  0
  145.8552  131.3263  155.4114 H   0  0  0  0  0  0  0  0  0  0  0  0
  147.0844  133.6821  153.6129 H   0  0  0  0  0  0  0  0  0  0  0  0
  146.2892  132.2206  153.0726 H   0  0  0  0  0  0  0  0  0  0  0  0
  146.0077  134.0242  151.3886 H   0  0  0  0  0  0  0  0  0  0  0  0
  144.4777  133.4900  152.0230 H   0  0  0  0  0  0  0  0  0  0  0  0
  144.3809  135.8938  151.9634 H   0  0  0  0  0  0  0  0  0  0  0  0
  147.0846  135.9371  152.4578 H   0  0  0  0  0  0  0  0  0  0  0  0
  148.1871  137.5007  152.8796 H   0  0  0  0  0  0  0  0  0  0  0  0
  146.1023  140.2859  153.2446 H   0  0  0  0  0  0  0  0  0  0  0  0
  146.8673  142.5685  154.0912 H   0  0  0  0  0  0  0  0  0  0  0  0
  150.4964  141.0566  155.3650 H   0  0  0  0  0  0  0  0  0  0  0  0
  149.9278  138.7220  154.5758 H   0  0  0  0  0  0  0  0  0  0  0  0
  144.0886  136.4411  154.4088 H   0  0  0  0  0  0  0  0  0  0  0  0
  143.2855  134.9857  153.8859 H   0  0  0  0  0  0  0  0  0  0  0  0
  144.3878  134.5673  156.0266 H   0  0  0  0  0  0  0  0  0  0  0  0
  145.9386  135.1002  155.4109 H   0  0  0  0  0  0  0  0  0  0  0  0
  144.4019  132.8190  154.4206 H   0  0  0  0  0  0  0  0  0  0  0  0
  148.9572  142.7594  155.0686 H   0  0  0  0  0  0  0  0  0  0  0  0
  1  2  1  0  0  0  0
  1 21  1  0  0  0  0
  1 22  1  0  0  0  0
  2  3  2  0  0  0  0
  2  4  1  0  0  0  0
  4  5  1  0  0  0  0
  4 23  1  0  0  0  0
  4 24  1  0  0  0  0
  5 20  1  0  0  0  0
  5  6  1  0  0  0  0
  5 40  1  0  0  0  0
  6  7  1  0  0  0  0
  6 25  1  0  0  0  0
  6 26  1  0  0  0  0
  7  8  1  0  0  0  0
  7 27  1  0  0  0  0
  7 28  1  0  0  0  0
  8  9  1  0  0  0  0
  8 19  1  0  0  0  0
  8 29  1  0  0  0  0
  9 10  1  0  0  0  0
  9 30  1  0  0  0  0
 10 11  2  0  0  0  0
 10 12  1  0  0  0  0
 12 13  1  0  0  0  0
 12 31  1  0  0  0  0
 13 18  1  0  0  0  0
 13 14  2  0  0  0  0
 14 15  1  0  0  0  0
 14 32  1  0  0  0  0
 15 16  2  0  0  0  0
 15 33  1  0  0  0  0
 16 17  1  0  0  0  0
 16 41  1  0  0  0  0
 17 18  2  0  0  0  0
 17 34  1  0  0  0  0
 18 35  1  0  0  0  0
 19 20  1  0  0  0  0
 19 36  1  0  0  0  0
 19 37  1  0  0  0  0
 20 38  1  0  0  0  0
 20 39  1  0  0  0  0
M  CHG  1   5   1
M  CHG  1  16   1
M  END
> <s_m_source_file>
AV-unprocessed.smi

> <i_m_source_file_index>
1410

> <i_lp_mmshare_version>
43012

> <i_f3d_flags>
0

> <s_epik_input>
W05IMl1DKD1PKVtDSDJdTjFbQ0gyXVtDSDJdW0NIXShbQ0gyXVtDSDJdMSlbTkhdQyg9TylbTkhdYzJbY0hdW2NIXW5bY0hdW2NIXTI=

> <s_epik_cmdline>
J2VwaWtfcHl0aG9uJywgJy1waCcsICc3LjAnLCAnLXRuJywgJzgnLCAnLW1hJywgJzIwMCcsICctbWV0YWxfYmluZGluZycsICctaW1hZScsICc8aW5maWxlLm1hZT4nLCAnLW9tYWUnLCAnPG91dGZpbGUubWFlPic=

> <r_epik_Ionization_Penalty>
1.97414

> <r_epik_Ionization_Penalty_Charging>
1.97408

> <r_epik_Ionization_Penalty_Neutral>
5.94508e-05

> <r_epik_State_Penalty>
2.00676

> <r_epik_Charging_Adjusted_Penalty>
3.98084

> <i_epik_Tot_Q>
2

> <i_epik_Tot_abs_Q>
2

> <r_epik_Metal_State_Penalty>
2.12108

> <b_epik_Metal_Only>
0

> <s_lp_Force_Field>
OPLS_2005

> <r_lp_Energy>
26.1476

> <b_lp_Chiralities_Consistent>
1

> <s_lp_Variant>
AV-unprocessed.smi:1410-6

> <Gold.Version>
5.8.1

> <Gold.Id.Protein>
6NUR|6NUR_protein|mol2

> <Gold.PLP.Fitness>
42.8406

> <Gold.PLP.PLP>
-23.1225

> <Gold.PLP.part.hbond>
-5.0000

> <Gold.PLP.part.metal>
0.0000

> <Gold.PLP.part.buried>
-4.4672

> <Gold.PLP.part.nonpolar>
-15.5699

> <Gold.PLP.part.repulsive>
0.6862

> <Gold.PLP.ligand.clash>
0.0000

> <Gold.PLP.ligand.torsion>
0.5427

> <Gold.PLP.Chemscore.Hbond>
6.9260

> <Gold.PLP.Chemscore.CHOScore>
0.0000

> <Gold.PLP.Chemscore.Metal>
0.0000

> <Gold.Chemscore.Hbonds>
donor molecule, donor type, donor heavy atom, donor atom, acceptor molecule, acceptor atom, score
      L1  H     1    22       P1 10957  1.00
      L1  H     5    40       P1 10957  1.89
      L1  H     9    30       P1  7948  1.00
      L1  H    12    31       P1  7948  1.00
      L1  H    16    41       P1  8028  1.98

> <Gold.PLP.Chemscore.Internal.Correction>
0.0255

> <Gold.Rescore>
     Score         DG    S(hbond)    S(metal)    S(lipo)     H(rot)  DE(clash)    DE(int)     intcor
     18.76     -21.94       4.79        0.00      47.40       1.99       0.03       3.15       ----

> <Gold.Chemscore.Fitness>
18.7624

> <Gold.Chemscore.DG>
-21.9421

> <Gold.Chemscore.ZeroCoef>
-5.4800

> <Gold.Chemscore.Hbond>
4.7930

> <Gold.Chemscore.Metal>
0.0000

> <Gold.Chemscore.Lipo>
47.4027

> <Gold.Chemscore.Internal_Hbond>
0.0000

> <Gold.Chemscore.DEClash>
0.0252

> <Gold.Chemscore.DEInternal>
3.1545

> <Gold.Chemscore.Rot>
1.9894

> <Gold.Chemscore.Internal.Correction>
   9.000000E+99

> <Gold.Chemscore.Hbonds>
donor molecule, donor type, donor heavy atom, donor atom, acceptor molecule, acceptor atom, score
      L1  H     1    22       P1 10957  0.96
      L1  H     5    40       P1 10957  0.85
      L1  H     9    30       P1  7948  0.93
      L1  H    12    31       P1  7948  1.00
      L1  H    16    41       P1  8028  0.92

> <Gold.Chemscore.Hbond.Weighted>
-16.0088

> <Gold.Chemscore.Metal.Weighted>
-0.0000

> <Gold.Chemscore.Lipo.Weighted>
-5.5461

> <Gold.Chemscore.Internal_Hbond.Weighted>
0.0000

> <Gold.Chemscore.DEClash.Weighted>
0.0252

> <Gold.Chemscore.DEInternal.Weighted>
3.1545

> <Gold.Chemscore.Rot.Weighted>
5.0927

> <Gold.Chemscore.Internal.Correction.Weighted>
   9.000000E+99

> <Gold.Protein.RotatedTorsions>
[ 6907 6896 6895 6894 ] final -165.20 input  -60.11 | X-H torsion
[ 7974 7965 7964 7962 ] final   99.64 input  175.53 | X-H torsion
[ 8008 7997 7996 7995 ] final  -17.66 input   59.86 | X-H torsion
[ 10167 10162 10161 10158 ] final   73.04 input  -65.29 | X-H torsion
[ 10718 10713 10712 10709 ] final   66.16 input   66.30 | X-H torsion
[ 10763 10752 10751 10750 ] final  -78.99 input  -60.55 | X-H torsion
[ 11005 11000 10999 10996 ] final  102.94 input  -57.11 | X-H torsion

> <Gold.Protein.ActiveResidues>
 VAL166  LYS551  ARG553  GLY616  TRP617  ASP618  TYR619  PRO620  LYS621  CYS622 
 ASP623  PHE694  ASN695  SER759  ASP760  ASP761  ALA762  ILE779  LEU786  VAL792 
 PHE793  MET794  SER795  GLU796  ALA797  LYS798  CYS799  TRP800  GLU811  SER814 

> <Gold.Protein.RotatedAtoms>
  151.4239  133.3690  159.2759 H   0  0  0  0  0  0  0  0  0  0  0  0  # atno 6907 bound_to 6896
  150.9274  134.8691  159.7539 H   0  0  0  0  0  0  0  0  0  0  0  0  # atno 6908 bound_to 6896
  152.5011  134.4181  159.9523 H   0  0  0  0  0  0  0  0  0  0  0  0  # atno 6909 bound_to 6896
  145.3961  139.2355  143.3325 H   0  0  0  0  0  0  0  0  0  0  0  0  # atno 7974 bound_to 7965
  154.4962  140.2137  155.9442 H   0  0  0  0  0  0  0  0  0  0  0  0  # atno 8008 bound_to 7997
  156.1373  140.3186  155.8409 H   0  0  0  0  0  0  0  0  0  0  0  0  # atno 8009 bound_to 7997
  155.4185  140.0495  157.3018 H   0  0  0  0  0  0  0  0  0  0  0  0  # atno 8010 bound_to 7997
  140.0288  144.5482  150.7523 H   0  0  0  0  0  0  0  0  0  0  0  0  # atno 10167 bound_to 10162
  157.6151  130.9253  150.0072 H   0  0  0  0  0  0  0  0  0  0  0  0  # atno 10718 bound_to 10713
  154.5329  135.5711  153.6774 H   0  0  0  0  0  0  0  0  0  0  0  0  # atno 10763 bound_to 10752
  152.9944  135.6209  154.2605 H   0  0  0  0  0  0  0  0  0  0  0  0  # atno 10764 bound_to 10752
  154.2532  135.2858  155.2788 H   0  0  0  0  0  0  0  0  0  0  0  0  # atno 10765 bound_to 10752
  139.8780  134.9244  156.5134 H   0  0  0  0  0  0  0  0  0  0  0  0  # atno 11005 bound_to 11000
  146.2774  140.4651  142.8790 LP  0  0  0  0  0  0  0  0  0  0  0  0  # atno 17320 bound_to 7965
  144.8406  140.6851  143.6232 LP  0  0  0  0  0  0  0  0  0  0  0  0  # atno 17321 bound_to 7965
  140.7311  143.2691  151.3948 LP  0  0  0  0  0  0  0  0  0  0  0  0  # atno 17342 bound_to 10162
  139.6090  144.1137  152.2279 LP  0  0  0  0  0  0  0  0  0  0  0  0  # atno 17343 bound_to 10162
  156.1270  130.3644  149.9793 LP  0  0  0  0  0  0  0  0  0  0  0  0  # atno 17370 bound_to 10713
  156.7862  130.9239  151.3646 LP  0  0  0  0  0  0  0  0  0  0  0  0  # atno 17371 bound_to 10713
  140.8503  133.8137  155.9162 LP  0  0  0  0  0  0  0  0  0  0  0  0  # atno 17394 bound_to 11000
  140.9150  134.2213  157.4962 LP  0  0  0  0  0  0  0  0  0  0  0  0  # atno 17395 bound_to 11000

$$$$
