AV-unprocessed.smi:1959|AV-procd|sdf|7915|dock9
  -GOLD-   2272010 83D 1   1.00000     0.00000
 Structure written by MMmdl.
 45 46  0  0  0  0  0  0  0  0  2 V2000
  152.8692  138.4719  160.6017 C   0  0  0  0  0  0  0  0  0  0  0  0
  152.5803  139.7857  159.9375 C   0  0  0  0  0  0  0  0  0  0  0  0
  152.8963  141.0950  160.3967 C   0  0  0  0  0  0  0  0  0  0  0  0
  152.4170  141.9209  159.4191 C   0  0  0  0  0  0  0  0  0  0  0  0
  152.4483  143.4107  159.3145 C   0  0  0  0  0  0  0  0  0  0  0  0
  151.8531  141.1092  158.4502 N   0  0  0  0  0  0  0  0  0  0  0  0
  151.2139  141.4813  157.1962 C   0  0  0  0  0  0  0  0  0  0  0  0
  151.1863  140.3311  156.1826 C   0  0  0  0  0  0  0  0  0  0  0  0
  152.2219  139.9259  155.6525 O   0  0  0  0  0  0  0  0  0  0  0  0
  149.9741  139.8263  155.9024 N   0  0  0  0  0  0  0  0  0  0  0  0
  149.6932  138.7305  154.9728 C   0  0  1  0  0  0  0  0  0  0  0  0
  150.7568  137.6385  155.1490 C   0  0  0  0  0  0  0  0  0  0  0  0
  148.2676  138.1676  155.1796 C   0  0  0  0  0  0  0  0  0  0  0  0
  147.6004  137.7943  153.9065 N   0  3  0  0  0  0  0  0  0  0  0  0
  146.3789  136.9749  154.0932 C   0  0  0  0  0  0  0  0  0  0  0  0
  145.8180  136.5500  152.7265 C   0  0  0  0  0  0  0  0  0  0  0  0
  145.5411  137.7084  151.9483 O   0  0  0  0  0  0  0  0  0  0  0  0
  146.7113  138.4783  151.6990 C   0  0  0  0  0  0  0  0  0  0  0  0
  147.3151  138.9550  153.0316 C   0  0  0  0  0  0  0  0  0  0  0  0
  151.9547  139.8014  158.7721 N   0  0  0  0  0  0  0  0  0  0  0  0
  153.4412  138.6115  161.5193 H   0  0  0  0  0  0  0  0  0  0  0  0
  153.4471  137.8191  159.9471 H   0  0  0  0  0  0  0  0  0  0  0  0
  151.9464  137.9525  160.8616 H   0  0  0  0  0  0  0  0  0  0  0  0
  153.4016  141.3837  161.3064 H   0  0  0  0  0  0  0  0  0  0  0  0
  152.9702  143.8497  160.1651 H   0  0  0  0  0  0  0  0  0  0  0  0
  151.4383  143.8201  159.2947 H   0  0  0  0  0  0  0  0  0  0  0  0
  152.9628  143.7276  158.4070 H   0  0  0  0  0  0  0  0  0  0  0  0
  150.1954  141.8160  157.4014 H   0  0  0  0  0  0  0  0  0  0  0  0
  151.7460  142.3300  156.7657 H   0  0  0  0  0  0  0  0  0  0  0  0
  149.1804  140.2210  156.3868 H   0  0  0  0  0  0  0  0  0  0  0  0
  149.7868  139.0964  153.9493 H   0  0  0  0  0  0  0  0  0  0  0  0
  150.5991  136.8213  154.4446 H   0  0  0  0  0  0  0  0  0  0  0  0
  150.7354  137.2188  156.1555 H   0  0  0  0  0  0  0  0  0  0  0  0
  151.7584  138.0331  154.9738 H   0  0  0  0  0  0  0  0  0  0  0  0
  148.2834  137.3083  155.8517 H   0  0  0  0  0  0  0  0  0  0  0  0
  147.6730  138.9330  155.6810 H   0  0  0  0  0  0  0  0  0  0  0  0
  146.5999  136.0886  154.6871 H   0  0  0  0  0  0  0  0  0  0  0  0
  145.6307  137.5482  154.6429 H   0  0  0  0  0  0  0  0  0  0  0  0
  146.5218  135.9015  152.2012 H   0  0  0  0  0  0  0  0  0  0  0  0
  144.8970  135.9819  152.8572 H   0  0  0  0  0  0  0  0  0  0  0  0
  147.4342  137.8877  151.1336 H   0  0  0  0  0  0  0  0  0  0  0  0
  146.4450  139.3346  151.0793 H   0  0  0  0  0  0  0  0  0  0  0  0
  146.6272  139.6352  153.5366 H   0  0  0  0  0  0  0  0  0  0  0  0
  148.2337  139.5101  152.8375 H   0  0  0  0  0  0  0  0  0  0  0  0
  148.2615  137.2198  153.4026 H   0  0  0  0  0  0  0  0  0  0  0  0
  1  2  1  0  0  0  0
  1 21  1  0  0  0  0
  1 22  1  0  0  0  0
  1 23  1  0  0  0  0
  2 20  2  0  0  0  0
  2  3  1  0  0  0  0
  3  4  2  0  0  0  0
  3 24  1  0  0  0  0
  4  5  1  0  0  0  0
  4  6  1  0  0  0  0
  5 25  1  0  0  0  0
  5 26  1  0  0  0  0
  5 27  1  0  0  0  0
  6  7  1  0  0  0  0
  6 20  1  0  0  0  0
  7  8  1  0  0  0  0
  7 28  1  0  0  0  0
  7 29  1  0  0  0  0
  8  9  2  0  0  0  0
  8 10  1  0  0  0  0
 10 11  1  0  0  0  0
 10 30  1  0  0  0  0
 11 12  1  0  0  0  0
 11 13  1  0  0  0  0
 11 31  1  0  0  0  0
 12 32  1  0  0  0  0
 12 33  1  0  0  0  0
 12 34  1  0  0  0  0
 13 14  1  0  0  0  0
 13 35  1  0  0  0  0
 13 36  1  0  0  0  0
 14 19  1  0  0  0  0
 14 15  1  0  0  0  0
 14 45  1  0  0  0  0
 15 16  1  0  0  0  0
 15 37  1  0  0  0  0
 15 38  1  0  0  0  0
 16 17  1  0  0  0  0
 16 39  1  0  0  0  0
 16 40  1  0  0  0  0
 17 18  1  0  0  0  0
 18 19  1  0  0  0  0
 18 41  1  0  0  0  0
 18 42  1  0  0  0  0
 19 43  1  0  0  0  0
 19 44  1  0  0  0  0
M  CHG  1  14   1
M  END
> <s_m_source_file>
AV-unprocessed.smi

> <i_m_source_file_index>
1959

> <i_lp_mmshare_version>
43012

> <i_f3d_flags>
0

> <s_epik_input>
W0NIM11jMVtjSF1jKFtDSDNdKW4objEpW0NIMl1DKD1PKVtOSF1bQ0BIXShbQ0gzXSlbQ0gyXU4yW0NIMl1bQ0gyXU9bQ0gyXVtDSDJdMg==

> <s_epik_cmdline>
J2VwaWtfcHl0aG9uJywgJy1waCcsICc3LjAnLCAnLXRuJywgJzgnLCAnLW1hJywgJzIwMCcsICctbWV0YWxfYmluZGluZycsICctaW1hZScsICc8aW5maWxlLm1hZT4nLCAnLW9tYWUnLCAnPG91dGZpbGUubWFlPic=

> <r_lp_tautomer_probability>
1

> <r_epik_Ionization_Penalty>
0.748605

> <r_epik_Ionization_Penalty_Charging>
0.748396

> <r_epik_Ionization_Penalty_Neutral>
0.000208859

> <r_epik_State_Penalty>
0.775162

> <r_epik_Charging_Adjusted_Penalty>
1.52356

> <i_epik_Tot_Q>
1

> <i_epik_Tot_abs_Q>
1

> <r_epik_Metal_State_Penalty>
0.775281

> <b_epik_Metal_Only>
0

> <s_lp_Force_Field>
OPLS_2005

> <r_lp_Energy>
20.6749

> <b_lp_Chiralities_Consistent>
1

> <s_lp_Variant>
AV-unprocessed.smi:1959-4

> <Gold.Version>
5.8.1

> <Gold.Id.Protein>
6NUR|6NUR_protein|mol2

> <Gold.PLP.Fitness>
41.9841

> <Gold.PLP.PLP>
-34.5655

> <Gold.PLP.part.hbond>
-2.5811

> <Gold.PLP.part.metal>
0.0000

> <Gold.PLP.part.buried>
-3.5430

> <Gold.PLP.part.nonpolar>
-29.4597

> <Gold.PLP.part.repulsive>
0.9718

> <Gold.PLP.ligand.clash>
0.0000

> <Gold.PLP.ligand.torsion>
1.1520

> <Gold.PLP.Chemscore.Hbond>
3.2198

> <Gold.PLP.Chemscore.CHOScore>
0.0000

> <Gold.PLP.Chemscore.Metal>
0.0000

> <Gold.Chemscore.Hbonds>
donor molecule, donor type, donor heavy atom, donor atom, acceptor molecule, acceptor atom, score
      L1  H    14    45       P1  7948  2.00
      P1  H  7989  7998       L1     9  0.03
      P1  H  7997  8010       L1     9  0.54

> <Gold.PLP.Chemscore.Internal.Correction>
0.0631

> <Gold.Rescore>
     Score         DG    S(hbond)    S(metal)    S(lipo)     H(rot)  DE(clash)    DE(int)     intcor
     14.57     -17.86       1.96        0.00      88.85       1.77       0.79       2.51       ----

> <Gold.Chemscore.Fitness>
14.5660

> <Gold.Chemscore.DG>
-17.8641

> <Gold.Chemscore.ZeroCoef>
-5.4800

> <Gold.Chemscore.Hbond>
1.9553

> <Gold.Chemscore.Metal>
0.0000

> <Gold.Chemscore.Lipo>
88.8517

> <Gold.Chemscore.Internal_Hbond>
0.0000

> <Gold.Chemscore.DEClash>
0.7890

> <Gold.Chemscore.DEInternal>
2.5090

> <Gold.Chemscore.Rot>
1.7744

> <Gold.Chemscore.Internal.Correction>
   9.000000E+99

> <Gold.Chemscore.Hbonds>
donor molecule, donor type, donor heavy atom, donor atom, acceptor molecule, acceptor atom, score
      L1  H    14    45       P1  7948  0.97
      P1  H  7989  7998       L1     9  0.01
      P1  H  7997  8010       L1     9  0.54

> <Gold.Chemscore.Hbond.Weighted>
-6.5308

> <Gold.Chemscore.Metal.Weighted>
-0.0000

> <Gold.Chemscore.Lipo.Weighted>
-10.3957

> <Gold.Chemscore.Internal_Hbond.Weighted>
0.0000

> <Gold.Chemscore.DEClash.Weighted>
0.7890

> <Gold.Chemscore.DEInternal.Weighted>
2.5090

> <Gold.Chemscore.Rot.Weighted>
4.5424

> <Gold.Chemscore.Internal.Correction.Weighted>
   9.000000E+99

> <Gold.Protein.RotatedTorsions>
[ 6907 6896 6895 6894 ] final -170.28 input  -60.11 | X-H torsion
[ 7974 7965 7964 7962 ] final   41.93 input  175.53 | X-H torsion
[ 8008 7997 7996 7995 ] final   96.47 input   59.86 | X-H torsion
[ 10167 10162 10161 10158 ] final   37.19 input  -65.29 | X-H torsion
[ 10718 10713 10712 10709 ] final    8.95 input   66.30 | X-H torsion
[ 10763 10752 10751 10750 ] final  173.65 input  -60.55 | X-H torsion
[ 11005 11000 10999 10996 ] final  -41.78 input  -57.11 | X-H torsion

> <Gold.Protein.ActiveResidues>
 VAL166  LYS551  ARG553  GLY616  TRP617  ASP618  TYR619  PRO620  LYS621  CYS622 
 ASP623  PHE694  ASN695  SER759  ASP760  ASP761  ALA762  ILE779  LEU786  VAL792 
 PHE793  MET794  SER795  GLU796  ALA797  LYS798  CYS799  TRP800  GLU811  SER814 

> <Gold.Protein.RotatedAtoms>
  151.5051  133.3496  159.2875 H   0  0  0  0  0  0  0  0  0  0  0  0  # atno 6907 bound_to 6896
  150.8748  134.8131  159.7192 H   0  0  0  0  0  0  0  0  0  0  0  0  # atno 6908 bound_to 6896
  152.4723  134.4940  159.9756 H   0  0  0  0  0  0  0  0  0  0  0  0  # atno 6909 bound_to 6896
  146.0782  139.5358  142.9554 H   0  0  0  0  0  0  0  0  0  0  0  0  # atno 7974 bound_to 7965
  156.0799  140.3272  155.7681 H   0  0  0  0  0  0  0  0  0  0  0  0  # atno 8008 bound_to 7997
  155.5169  140.0582  157.2931 H   0  0  0  0  0  0  0  0  0  0  0  0  # atno 8009 bound_to 7997
  154.4576  140.1950  156.0351 H   0  0  0  0  0  0  0  0  0  0  0  0  # atno 8010 bound_to 7997
  140.4056  144.1664  150.6136 H   0  0  0  0  0  0  0  0  0  0  0  0  # atno 10167 bound_to 10162
  156.9591  130.5926  149.5661 H   0  0  0  0  0  0  0  0  0  0  0  0  # atno 10718 bound_to 10713
  154.4430  135.2762  155.1834 H   0  0  0  0  0  0  0  0  0  0  0  0  # atno 10763 bound_to 10752
  154.3693  135.6112  153.5735 H   0  0  0  0  0  0  0  0  0  0  0  0  # atno 10764 bound_to 10752
  152.9842  135.5853  154.4761 H   0  0  0  0  0  0  0  0  0  0  0  0  # atno 10765 bound_to 10752
  141.0270  133.6837  156.2504 H   0  0  0  0  0  0  0  0  0  0  0  0  # atno 11005 bound_to 11000
  145.6266  141.0312  143.1886 LP  0  0  0  0  0  0  0  0  0  0  0  0  # atno 17320 bound_to 7965
  144.7276  139.7827  143.7359 LP  0  0  0  0  0  0  0  0  0  0  0  0  # atno 17321 bound_to 7965
  140.4693  143.2419  151.9111 LP  0  0  0  0  0  0  0  0  0  0  0  0  # atno 17342 bound_to 10162
  139.4783  144.5386  151.8561 LP  0  0  0  0  0  0  0  0  0  0  0  0  # atno 17343 bound_to 10162
  156.0330  130.5419  150.8582 LP  0  0  0  0  0  0  0  0  0  0  0  0  # atno 17370 bound_to 10713
  157.5670  131.0946  150.9475 LP  0  0  0  0  0  0  0  0  0  0  0  0  # atno 17371 bound_to 10713
  140.6474  134.5102  157.5575 LP  0  0  0  0  0  0  0  0  0  0  0  0  # atno 17394 bound_to 11000
  139.9182  134.8202  156.1296 LP  0  0  0  0  0  0  0  0  0  0  0  0  # atno 17395 bound_to 11000

$$$$
