AV-unprocessed.smi:1213|AV-procd|sdf|5089|dock1
  -GOLD-   22720 4143D 1   1.00000     0.00000
 Structure written by MMmdl.
 36 37  0  0  0  0  0  0  0  0  3 V2000
  142.5356  140.4900  154.9374 N   0  5  0  0  0  0  0  0  0  0  0  0
  142.9484  141.3143  155.9191 C   0  0  0  0  0  0  0  0  0  0  0  0
  142.6993  141.2415  157.1209 O   0  0  0  0  0  0  0  0  0  0  0  0
  143.8498  142.4400  155.4000 C   0  0  0  0  0  0  0  0  0  0  0  0
  145.0477  141.8727  154.7319 N   0  3  2  0  0  0  0  0  0  0  0  0
  145.8626  141.0385  155.6506 C   0  0  0  0  0  0  0  0  0  0  0  0
  147.0107  140.3426  154.8988 C   0  0  0  0  0  0  0  0  0  0  0  0
  147.9020  141.3495  154.1448 C   0  0  2  0  0  0  0  0  0  0  0  0
  148.7039  142.1607  155.0605 N   0  0  0  0  0  0  0  0  0  0  0  0
  149.5760  141.6807  155.9592 C   0  0  0  0  0  0  0  0  0  0  0  0
  149.7896  140.4791  156.1214 O   0  0  0  0  0  0  0  0  0  0  0  0
  150.1681  142.6757  156.6428 N   0  0  0  0  0  0  0  0  0  0  0  0
  151.1357  142.5745  157.6769 C   0  0  0  0  0  0  0  0  0  0  0  0
  151.7623  143.6202  158.2286 N   0  0  0  0  0  0  0  0  0  0  0  0
  152.6628  143.2271  159.2220 C   0  0  0  0  0  0  0  0  0  0  0  0
  152.7097  141.8688  159.4140 C   0  0  0  0  0  0  0  0  0  0  0  0
  151.6196  141.0238  158.3475 S   0  0  0  0  0  0  0  0  0  0  0  0
  147.0274  142.2489  153.2545 C   0  0  0  0  0  0  0  0  0  0  0  0
  145.8757  142.8989  154.0425 C   0  0  0  0  0  0  0  0  0  0  0  0
  143.0378  140.4917  154.0418 H   0  0  0  0  0  0  0  0  0  0  0  0
  143.3293  143.1253  154.7274 H   0  0  0  0  0  0  0  0  0  0  0  0
  144.1509  143.0266  156.2690 H   0  0  0  0  0  0  0  0  0  0  0  0
  146.2556  141.6589  156.4577 H   0  0  0  0  0  0  0  0  0  0  0  0
  145.2317  140.2794  156.1145 H   0  0  0  0  0  0  0  0  0  0  0  0
  147.6035  139.7446  155.5916 H   0  0  0  0  0  0  0  0  0  0  0  0
  146.5876  139.6371  154.1825 H   0  0  0  0  0  0  0  0  0  0  0  0
  148.5872  140.7982  153.4981 H   0  0  0  0  0  0  0  0  0  0  0  0
  148.5959  143.1623  154.9946 H   0  0  0  0  0  0  0  0  0  0  0  0
  149.8972  143.6157  156.3948 H   0  0  0  0  0  0  0  0  0  0  0  0
  153.2308  143.9827  159.7445 H   0  0  0  0  0  0  0  0  0  0  0  0
  153.3175  141.3166  160.1151 H   0  0  0  0  0  0  0  0  0  0  0  0
  147.6368  143.0176  152.7774 H   0  0  0  0  0  0  0  0  0  0  0  0
  146.6078  141.6505  152.4448 H   0  0  0  0  0  0  0  0  0  0  0  0
  145.2613  143.4789  153.3534 H   0  0  0  0  0  0  0  0  0  0  0  0
  146.2691  143.6033  154.7770 H   0  0  0  0  0  0  0  0  0  0  0  0
  144.6944  141.2509  154.0183 H   0  0  0  0  0  0  0  0  0  0  0  0
  1  2  1  0  0  0  0
  1 20  1  0  0  0  0
  2  3  2  0  0  0  0
  2  4  1  0  0  0  0
  4  5  1  0  0  0  0
  4 21  1  0  0  0  0
  4 22  1  0  0  0  0
  5 19  1  0  0  0  0
  5  6  1  0  0  0  0
  5 36  1  0  0  0  0
  6  7  1  0  0  0  0
  6 23  1  0  0  0  0
  6 24  1  0  0  0  0
  7  8  1  0  0  0  0
  7 25  1  0  0  0  0
  7 26  1  0  0  0  0
  8  9  1  0  0  0  0
  8 18  1  0  0  0  0
  8 27  1  0  0  0  0
  9 10  1  0  0  0  0
  9 28  1  0  0  0  0
 10 11  2  0  0  0  0
 10 12  1  0  0  0  0
 12 13  1  0  0  0  0
 12 29  1  0  0  0  0
 13 17  1  0  0  0  0
 13 14  2  0  0  0  0
 14 15  1  0  0  0  0
 15 16  2  0  0  0  0
 15 30  1  0  0  0  0
 16 17  1  0  0  0  0
 16 31  1  0  0  0  0
 18 19  1  0  0  0  0
 18 32  1  0  0  0  0
 18 33  1  0  0  0  0
 19 34  1  0  0  0  0
 19 35  1  0  0  0  0
M  CHG  1   1  -1
M  CHG  1   5   1
M  END
> <s_m_source_file>
AV-unprocessed.smi

> <i_m_source_file_index>
1213

> <i_lp_mmshare_version>
43012

> <i_f3d_flags>
0

> <s_epik_input>
W05IMl1DKD1PKVtDSDJdTjFbQ0gyXVtDSDJdW0NIXShbQ0gyXVtDSDJdMSlbTkhdQyg9TylbTkhdYzJuW2NIXVtjSF1zMg==

> <s_epik_cmdline>
J2VwaWtfcHl0aG9uJywgJy1waCcsICc3LjAnLCAnLXRuJywgJzgnLCAnLW1hJywgJzIwMCcsICctbWV0YWxfYmluZGluZycsICctaW1hZScsICc8aW5maWxlLm1hZT4nLCAnLW9tYWUnLCAnPG91dGZpbGUubWFlPic=

> <r_lp_tautomer_probability>
0.999

> <r_epik_Ionization_Penalty>
5.73166

> <r_epik_Ionization_Penalty_Charging>
5.73152

> <r_epik_Ionization_Penalty_Neutral>
0.000139308

> <r_epik_State_Penalty>
6.57436

> <r_epik_Charging_Adjusted_Penalty>
12.3059

> <i_epik_Tot_Q>
0

> <i_epik_Tot_abs_Q>
2

> <r_epik_Metal_State_Penalty>
2.57084

> <b_epik_Metal_Only>
1

> <s_lp_Force_Field>
OPLS_2005

> <r_lp_Energy>
6.02298

> <b_lp_Chiralities_Consistent>
1

> <s_lp_Variant>
AV-unprocessed.smi:1213-6

> <Gold.Version>
5.8.1

> <Gold.Id.Protein>
6NUR|6NUR_protein|mol2

> <Gold.PLP.Fitness>
44.1250

> <Gold.PLP.PLP>
-29.1559

> <Gold.PLP.part.hbond>
-4.0000

> <Gold.PLP.part.metal>
0.0000

> <Gold.PLP.part.buried>
-6.1233

> <Gold.PLP.part.nonpolar>
-20.0795

> <Gold.PLP.part.repulsive>
0.3605

> <Gold.PLP.ligand.clash>
0.0000

> <Gold.PLP.ligand.torsion>
0.0263

> <Gold.PLP.Chemscore.Hbond>
5.0000

> <Gold.PLP.Chemscore.CHOScore>
0.0000

> <Gold.PLP.Chemscore.Metal>
0.0000

> <Gold.Chemscore.Hbonds>
donor molecule, donor type, donor heavy atom, donor atom, acceptor molecule, acceptor atom, score
      L1  H     1    20       P1 10175  1.00
      L1  H     5    36       P1 10175  2.00
      L1  H     9    28       P1  8028  1.00
      L1  H    12    29       P1  8028  1.00

> <Gold.PLP.Chemscore.Internal.Correction>
0.0218

> <Gold.Rescore>
     Score         DG    S(hbond)    S(metal)    S(lipo)     H(rot)  DE(clash)    DE(int)     intcor
     16.69     -19.92       3.82        0.00      59.03       2.04       1.29       1.95       ----

> <Gold.Chemscore.Fitness>
16.6877

> <Gold.Chemscore.DG>
-19.9205

> <Gold.Chemscore.ZeroCoef>
-5.4800

> <Gold.Chemscore.Hbond>
3.8154

> <Gold.Chemscore.Metal>
0.0000

> <Gold.Chemscore.Lipo>
59.0300

> <Gold.Chemscore.Internal_Hbond>
0.0000

> <Gold.Chemscore.DEClash>
1.2871

> <Gold.Chemscore.DEInternal>
1.9457

> <Gold.Chemscore.Rot>
2.0350

> <Gold.Chemscore.Internal.Correction>
   9.000000E+99

> <Gold.Chemscore.Hbonds>
donor molecule, donor type, donor heavy atom, donor atom, acceptor molecule, acceptor atom, score
      L1  H     1    20       P1 10175  0.95
      L1  H     5    36       P1 10175  0.59
      L1  H     9    28       P1  8028  0.95
      L1  H    12    29       P1  8028  0.97

> <Gold.Chemscore.Hbond.Weighted>
-12.7435

> <Gold.Chemscore.Metal.Weighted>
-0.0000

> <Gold.Chemscore.Lipo.Weighted>
-6.9065

> <Gold.Chemscore.Internal_Hbond.Weighted>
0.0000

> <Gold.Chemscore.DEClash.Weighted>
1.2871

> <Gold.Chemscore.DEInternal.Weighted>
1.9457

> <Gold.Chemscore.Rot.Weighted>
5.2096

> <Gold.Chemscore.Internal.Correction.Weighted>
   9.000000E+99

> <Gold.Protein.RotatedTorsions>
[ 6907 6896 6895 6894 ] final   10.05 input  -60.11 | X-H torsion
[ 7974 7965 7964 7962 ] final  -41.72 input  175.53 | X-H torsion
[ 8008 7997 7996 7995 ] final  -98.09 input   59.86 | X-H torsion
[ 10167 10162 10161 10158 ] final  -92.68 input  -65.29 | X-H torsion
[ 10718 10713 10712 10709 ] final  -32.04 input   66.30 | X-H torsion
[ 10763 10752 10751 10750 ] final   70.45 input  -60.55 | X-H torsion
[ 11005 11000 10999 10996 ] final -164.42 input  -57.11 | X-H torsion

> <Gold.Protein.ActiveResidues>
 VAL166  LYS551  ARG553  GLY616  TRP617  ASP618  TYR619  PRO620  LYS621  CYS622 
 ASP623  PHE694  ASN695  SER759  ASP760  ASP761  ALA762  ILE779  LEU786  VAL792 
 PHE793  MET794  SER795  GLU796  ALA797  LYS798  CYS799  TRP800  GLU811  SER814 

> <Gold.Protein.RotatedAtoms>
  151.7321  135.0872  160.0301 H   0  0  0  0  0  0  0  0  0  0  0  0  # atno 6907 bound_to 6896
  152.3534  133.6203  159.5970 H   0  0  0  0  0  0  0  0  0  0  0  0  # atno 6908 bound_to 6896
  150.7555  133.9454  159.3510 H   0  0  0  0  0  0  0  0  0  0  0  0  # atno 6909 bound_to 6896
  146.0185  140.6879  142.9190 H   0  0  0  0  0  0  0  0  0  0  0  0  # atno 7974 bound_to 7965
  154.7965  140.0458  157.1241 H   0  0  0  0  0  0  0  0  0  0  0  0  # atno 8008 bound_to 7997
  154.9529  140.3067  155.5047 H   0  0  0  0  0  0  0  0  0  0  0  0  # atno 8009 bound_to 7997
  156.2956  140.2285  156.4608 H   0  0  0  0  0  0  0  0  0  0  0  0  # atno 8010 bound_to 7997
  140.3324  143.2987  151.9927 H   0  0  0  0  0  0  0  0  0  0  0  0  # atno 10167 bound_to 10162
  156.3797  130.4354  149.7478 H   0  0  0  0  0  0  0  0  0  0  0  0  # atno 10718 bound_to 10713
  153.0342  135.5173  154.7443 H   0  0  0  0  0  0  0  0  0  0  0  0  # atno 10763 bound_to 10752
  154.6433  135.2915  155.0079 H   0  0  0  0  0  0  0  0  0  0  0  0  # atno 10764 bound_to 10752
  154.0989  135.6639  153.4917 H   0  0  0  0  0  0  0  0  0  0  0  0  # atno 10765 bound_to 10752
  140.5871  134.5083  157.5187 H   0  0  0  0  0  0  0  0  0  0  0  0  # atno 11005 bound_to 11000
  144.6980  140.3523  143.7179 LP  0  0  0  0  0  0  0  0  0  0  0  0  # atno 17320 bound_to 7965
  145.7231  139.1715  143.2473 LP  0  0  0  0  0  0  0  0  0  0  0  0  # atno 17321 bound_to 7965
  139.4854  144.6224  151.7229 LP  0  0  0  0  0  0  0  0  0  0  0  0  # atno 17342 bound_to 10162
  140.5385  144.0617  150.6079 LP  0  0  0  0  0  0  0  0  0  0  0  0  # atno 17343 bound_to 10162
  156.4573  130.7935  151.2956 LP  0  0  0  0  0  0  0  0  0  0  0  0  # atno 17370 bound_to 10713
  157.7491  131.0076  150.3198 LP  0  0  0  0  0  0  0  0  0  0  0  0  # atno 17371 bound_to 10713
  139.9291  134.7998  156.0983 LP  0  0  0  0  0  0  0  0  0  0  0  0  # atno 17394 bound_to 11000
  141.0959  133.6696  156.2644 LP  0  0  0  0  0  0  0  0  0  0  0  0  # atno 17395 bound_to 11000

$$$$
