AV-unprocessed.smi:1007|AV-procd|sdf|4408|dock6
  -GOLD-   22720 2353D 1   1.00000     0.00000
 Structure written by MMmdl.
 57 59  0  0  0  0  0  0  0  0  3 V2000
  143.3150  146.0041  154.5630 C   0  0  0  0  0  0  0  0  0  0  0  0
  143.3828  144.6788  155.0601 O   0  0  0  0  0  0  0  0  0  0  0  0
  144.5641  144.0060  154.6570 C   0  0  0  0  0  0  0  0  0  0  0  0
  144.6203  142.6419  155.3616 C   0  0  0  0  0  0  0  0  0  0  0  0
  145.4013  141.6382  154.5947 N   0  3  2  0  0  0  0  0  0  0  0  0
  145.5722  140.3672  155.3421 C   0  0  0  0  0  0  0  0  0  0  0  0
  146.2953  139.3115  154.4838 C   0  0  0  0  0  0  0  0  0  0  0  0
  147.6067  139.8054  153.9948 N   0  3  2  0  0  0  0  0  0  0  0  0
  148.6594  139.8126  155.0458 C   0  0  0  0  0  0  0  0  0  0  0  0
  150.0898  139.7511  154.4646 C   0  0  2  0  0  0  0  0  0  0  0  0
  150.1930  138.6178  153.6272 O   0  0  0  0  0  0  0  0  0  0  0  0
  151.1879  139.6467  155.5416 C   0  0  0  0  0  0  0  0  0  0  0  0
  151.2146  140.8037  156.4177 N   0  0  0  0  0  0  0  0  0  0  0  0
  150.5852  141.9788  156.2259 C   0  0  0  0  0  0  0  0  0  0  0  0
  150.7230  142.9038  157.1709 N   0  0  0  0  0  0  0  0  0  0  0  0
  151.5473  142.2587  158.0767 C   0  0  0  0  0  0  0  0  0  0  0  0
  152.0702  142.6944  159.3138 C   0  0  0  0  0  0  0  0  0  0  0  0
  152.8959  141.8496  160.0896 C   0  0  0  0  0  0  0  0  0  0  0  0
  153.4361  142.3590  161.4143 C   0  0  0  0  0  0  0  0  0  0  0  0
  153.2110  140.5457  159.6294 C   0  0  0  0  0  0  0  0  0  0  0  0
  154.0972  139.6208  160.4450 C   0  0  0  0  0  0  0  0  0  0  0  0
  152.6987  140.0955  158.3949 C   0  0  0  0  0  0  0  0  0  0  0  0
  151.8765  140.9446  157.6332 C   0  0  0  0  0  0  0  0  0  0  0  0
  147.4476  141.0896  153.2619 C   0  0  0  0  0  0  0  0  0  0  0  0
  146.7033  142.1534  154.0961 C   0  0  0  0  0  0  0  0  0  0  0  0
  142.3919  146.4754  154.9009 H   0  0  0  0  0  0  0  0  0  0  0  0
  143.3192  146.0171  153.4723 H   0  0  0  0  0  0  0  0  0  0  0  0
  144.1512  146.6046  154.9238 H   0  0  0  0  0  0  0  0  0  0  0  0
  144.5964  143.8984  153.5726 H   0  0  0  0  0  0  0  0  0  0  0  0
  145.4351  144.5969  154.9440 H   0  0  0  0  0  0  0  0  0  0  0  0
  145.0371  142.7462  156.3645 H   0  0  0  0  0  0  0  0  0  0  0  0
  143.5961  142.2888  155.4909 H   0  0  0  0  0  0  0  0  0  0  0  0
  146.1234  140.5548  156.2649 H   0  0  0  0  0  0  0  0  0  0  0  0
  144.5948  139.9803  155.6330 H   0  0  0  0  0  0  0  0  0  0  0  0
  146.4214  138.3826  155.0416 H   0  0  0  0  0  0  0  0  0  0  0  0
  145.6779  139.0629  153.6195 H   0  0  0  0  0  0  0  0  0  0  0  0
  148.5290  140.6951  155.6695 H   0  0  0  0  0  0  0  0  0  0  0  0
  148.5234  138.9570  155.7089 H   0  0  0  0  0  0  0  0  0  0  0  0
  150.2934  140.6331  153.8584 H   0  0  0  0  0  0  0  0  0  0  0  0
  149.8332  138.8310  152.7791 H   0  0  0  0  0  0  0  0  0  0  0  0
  151.0451  138.7531  156.1510 H   0  0  0  0  0  0  0  0  0  0  0  0
  152.1690  139.5502  155.0739 H   0  0  0  0  0  0  0  0  0  0  0  0
  149.9831  142.1617  155.3474 H   0  0  0  0  0  0  0  0  0  0  0  0
  151.8309  143.6879  159.6641 H   0  0  0  0  0  0  0  0  0  0  0  0
  154.5261  142.3343  161.4187 H   0  0  0  0  0  0  0  0  0  0  0  0
  153.0721  141.7438  162.2373 H   0  0  0  0  0  0  0  0  0  0  0  0
  153.1256  143.3871  161.6025 H   0  0  0  0  0  0  0  0  0  0  0  0
  154.2133  138.6511  159.9603 H   0  0  0  0  0  0  0  0  0  0  0  0
  153.6685  139.4516  161.4330 H   0  0  0  0  0  0  0  0  0  0  0  0
  155.0900  140.0545  160.5676 H   0  0  0  0  0  0  0  0  0  0  0  0
  152.9325  139.1051  158.0335 H   0  0  0  0  0  0  0  0  0  0  0  0
  148.4096  141.4761  152.9287 H   0  0  0  0  0  0  0  0  0  0  0  0
  146.8784  140.8883  152.3534 H   0  0  0  0  0  0  0  0  0  0  0  0
  146.5448  143.0339  153.4746 H   0  0  0  0  0  0  0  0  0  0  0  0
  147.3161  142.4778  154.9382 H   0  0  0  0  0  0  0  0  0  0  0  0
  147.9237  139.1245  153.3181 H   0  0  0  0  0  0  0  0  0  0  0  0
  144.8429  141.4119  153.7835 H   0  0  0  0  0  0  0  0  0  0  0  0
  1  2  1  0  0  0  0
  1 26  1  0  0  0  0
  1 27  1  0  0  0  0
  1 28  1  0  0  0  0
  2  3  1  0  0  0  0
  3  4  1  0  0  0  0
  3 29  1  0  0  0  0
  3 30  1  0  0  0  0
  4  5  1  0  0  0  0
  4 31  1  0  0  0  0
  4 32  1  0  0  0  0
  5 25  1  0  0  0  0
  5  6  1  0  0  0  0
  5 57  1  0  0  0  0
  6  7  1  0  0  0  0
  6 33  1  0  0  0  0
  6 34  1  0  0  0  0
  7  8  1  0  0  0  0
  7 35  1  0  0  0  0
  7 36  1  0  0  0  0
  8  9  1  0  0  0  0
  8 24  1  0  0  0  0
  8 56  1  0  0  0  0
  9 10  1  0  0  0  0
  9 37  1  0  0  0  0
  9 38  1  0  0  0  0
 10 11  1  0  0  0  0
 10 12  1  0  0  0  0
 10 39  1  0  0  0  0
 11 40  1  0  0  0  0
 12 13  1  0  0  0  0
 12 41  1  0  0  0  0
 12 42  1  0  0  0  0
 13 23  1  0  0  0  0
 13 14  1  0  0  0  0
 14 15  2  0  0  0  0
 14 43  1  0  0  0  0
 15 16  1  0  0  0  0
 16 23  2  0  0  0  0
 16 17  1  0  0  0  0
 17 18  2  0  0  0  0
 17 44  1  0  0  0  0
 18 19  1  0  0  0  0
 18 20  1  0  0  0  0
 19 45  1  0  0  0  0
 19 46  1  0  0  0  0
 19 47  1  0  0  0  0
 20 21  1  0  0  0  0
 20 22  2  0  0  0  0
 21 48  1  0  0  0  0
 21 49  1  0  0  0  0
 21 50  1  0  0  0  0
 22 23  1  0  0  0  0
 22 51  1  0  0  0  0
 24 25  1  0  0  0  0
 24 52  1  0  0  0  0
 24 53  1  0  0  0  0
 25 54  1  0  0  0  0
 25 55  1  0  0  0  0
M  CHG  1   5   1
M  CHG  1   8   1
M  END
> <s_m_source_file>
AV-unprocessed.smi

> <i_m_source_file_index>
1007

> <i_lp_mmshare_version>
43012

> <i_f3d_flags>
0

> <s_epik_input>
W0NIM11PW0NIMl1bQ0gyXU4xW0NIMl1bQ0gyXU4oW0NIMl1bQ0gyXTEpW0NIMl1bQ0BIXShbT0hdKVtDSDJdbihbY0hdbjIpYyhjMjMpW2NIXWMoW0NIM10pYyhbY0hdMylbQ0gzXQ==

> <s_epik_cmdline>
J2VwaWtfcHl0aG9uJywgJy1waCcsICc3LjAnLCAnLXRuJywgJzgnLCAnLW1hJywgJzIwMCcsICctbWV0YWxfYmluZGluZycsICctaW1hZScsICc8aW5maWxlLm1hZT4nLCAnLW9tYWUnLCAnPG91dGZpbGUubWFlPic=

> <r_epik_Ionization_Penalty>
3.88944

> <r_epik_Ionization_Penalty_Charging>
3.80608

> <r_epik_Ionization_Penalty_Neutral>
0.0833653

> <r_epik_State_Penalty>
2.70739

> <r_epik_Charging_Adjusted_Penalty>
6.51347

> <i_epik_Tot_Q>
2

> <i_epik_Tot_abs_Q>
2

> <r_epik_Metal_State_Penalty>
2.62239

> <b_epik_Metal_Only>
0

> <s_lp_Force_Field>
OPLS_2005

> <r_lp_Energy>
30.4149

> <b_lp_Chiralities_Consistent>
1

> <s_lp_Variant>
AV-unprocessed.smi:1007-11

> <Gold.Version>
5.8.1

> <Gold.Id.Protein>
6NUR|6NUR_protein|mol2

> <Gold.PLP.Fitness>
55.9538

> <Gold.PLP.PLP>
-47.4638

> <Gold.PLP.part.hbond>
-2.5766

> <Gold.PLP.part.metal>
0.0000

> <Gold.PLP.part.buried>
-5.2539

> <Gold.PLP.part.nonpolar>
-39.9700

> <Gold.PLP.part.repulsive>
0.8501

> <Gold.PLP.ligand.clash>
0.0000

> <Gold.PLP.ligand.torsion>
0.5655

> <Gold.PLP.Chemscore.Hbond>
3.0000

> <Gold.PLP.Chemscore.CHOScore>
0.1497

> <Gold.PLP.Chemscore.Metal>
0.0000

> <Gold.Chemscore.Hbonds>
donor molecule, donor type, donor heavy atom, donor atom, acceptor molecule, acceptor atom, score
      L1  H     5    57       P1 10175  2.00
      L1  H    11    40       P1  7957  1.00
      L1  C    14    43       P1  8028  0.18

> <Gold.PLP.Chemscore.Internal.Correction>
0.1718

> <Gold.Rescore>
     Score         DG    S(hbond)    S(metal)    S(lipo)     H(rot)  DE(clash)    DE(int)     intcor
     15.98     -16.86       1.24        0.00     119.60       2.63       0.20       0.68       ----

> <Gold.Chemscore.Fitness>
15.9824

> <Gold.Chemscore.DG>
-16.8559

> <Gold.Chemscore.ZeroCoef>
-5.4800

> <Gold.Chemscore.Hbond>
1.2356

> <Gold.Chemscore.Metal>
0.0000

> <Gold.Chemscore.Lipo>
119.6038

> <Gold.Chemscore.Internal_Hbond>
0.0000

> <Gold.Chemscore.DEClash>
0.1979

> <Gold.Chemscore.DEInternal>
0.6755

> <Gold.Chemscore.Rot>
2.6347

> <Gold.Chemscore.Internal.Correction>
   9.000000E+99

> <Gold.Chemscore.Hbonds>
donor molecule, donor type, donor heavy atom, donor atom, acceptor molecule, acceptor atom, score
      L1  H     5    57       P1 10175  0.25
      L1  H    11    40       P1  7957  0.68

> <Gold.Chemscore.Hbond.Weighted>
-4.1270

> <Gold.Chemscore.Metal.Weighted>
-0.0000

> <Gold.Chemscore.Lipo.Weighted>
-13.9936

> <Gold.Chemscore.Internal_Hbond.Weighted>
0.0000

> <Gold.Chemscore.DEClash.Weighted>
0.1979

> <Gold.Chemscore.DEInternal.Weighted>
0.6755

> <Gold.Chemscore.Rot.Weighted>
6.7448

> <Gold.Chemscore.Internal.Correction.Weighted>
   9.000000E+99

> <Gold.Protein.RotatedTorsions>
[ 6907 6896 6895 6894 ] final -123.79 input  -60.11 | X-H torsion
[ 7974 7965 7964 7962 ] final   -0.28 input  175.53 | X-H torsion
[ 8008 7997 7996 7995 ] final  -88.69 input   59.86 | X-H torsion
[ 10167 10162 10161 10158 ] final -177.31 input  -65.29 | X-H torsion
[ 10718 10713 10712 10709 ] final -101.53 input   66.30 | X-H torsion
[ 10763 10752 10751 10750 ] final   91.76 input  -60.55 | X-H torsion
[ 11005 11000 10999 10996 ] final   58.77 input  -57.11 | X-H torsion

> <Gold.Protein.ActiveResidues>
 VAL166  LYS551  ARG553  GLY616  TRP617  ASP618  TYR619  PRO620  LYS621  CYS622 
 ASP623  PHE694  ASN695  SER759  ASP760  ASP761  ALA762  ILE779  LEU786  VAL792 
 PHE793  MET794  SER795  GLU796  ALA797  LYS798  CYS799  TRP800  GLU811  SER814 

> <Gold.Protein.RotatedAtoms>
  150.8705  133.7513  159.2962 H   0  0  0  0  0  0  0  0  0  0  0  0  # atno 6907 bound_to 6896
  151.5126  135.1064  159.9867 H   0  0  0  0  0  0  0  0  0  0  0  0  # atno 6908 bound_to 6896
  152.4691  133.7945  159.6975 H   0  0  0  0  0  0  0  0  0  0  0  0  # atno 6909 bound_to 6896
  146.2428  140.1245  142.8339 H   0  0  0  0  0  0  0  0  0  0  0  0  # atno 7974 bound_to 7965
  154.6778  140.0550  157.0234 H   0  0  0  0  0  0  0  0  0  0  0  0  # atno 8008 bound_to 7997
  155.0995  140.3227  155.4532 H   0  0  0  0  0  0  0  0  0  0  0  0  # atno 8009 bound_to 7997
  156.2682  140.2033  156.6121 H   0  0  0  0  0  0  0  0  0  0  0  0  # atno 8010 bound_to 7997
  139.5487  144.2168  152.1036 H   0  0  0  0  0  0  0  0  0  0  0  0  # atno 10167 bound_to 10162
  156.0198  130.5378  150.6976 H   0  0  0  0  0  0  0  0  0  0  0  0  # atno 10718 bound_to 10713
  153.2118  135.4386  155.0388 H   0  0  0  0  0  0  0  0  0  0  0  0  # atno 10763 bound_to 10752
  154.8204  135.3335  154.7058 H   0  0  0  0  0  0  0  0  0  0  0  0  # atno 10764 bound_to 10752
  153.7495  135.6999  153.5004 H   0  0  0  0  0  0  0  0  0  0  0  0  # atno 10765 bound_to 10752
  140.0352  134.5953  155.9453 H   0  0  0  0  0  0  0  0  0  0  0  0  # atno 11005 bound_to 11000
  145.0378  140.8921  143.5071 LP  0  0  0  0  0  0  0  0  0  0  0  0  # atno 17320 bound_to 7965
  145.1321  139.2625  143.5534 LP  0  0  0  0  0  0  0  0  0  0  0  0  # atno 17321 bound_to 7965
  140.1659  144.4982  150.6606 LP  0  0  0  0  0  0  0  0  0  0  0  0  # atno 17342 bound_to 10162
  140.6743  143.2298  151.5548 LP  0  0  0  0  0  0  0  0  0  0  0  0  # atno 17343 bound_to 10162
  157.4644  131.0886  151.0711 LP  0  0  0  0  0  0  0  0  0  0  0  0  # atno 17370 bound_to 10713
  157.1190  130.6053  149.5500 LP  0  0  0  0  0  0  0  0  0  0  0  0  # atno 17371 bound_to 10713
  141.1853  133.6555  156.5194 LP  0  0  0  0  0  0  0  0  0  0  0  0  # atno 17394 bound_to 11000
  140.4159  134.7231  157.4862 LP  0  0  0  0  0  0  0  0  0  0  0  0  # atno 17395 bound_to 11000

$$$$
