#       Name:                AV-unprocessed.smi:2477
#       Creating user name   scv26
#       Creation time:       Fri Mar 27 13:40:13 2020


#       File generated by GOLD software.
#

@<TRIPOS>MOLECULE
AV-unprocessed.smi:2477
    57    59     1
SMALL
NO_CHARGES


@<TRIPOS>ATOM
      1 ****        -6.6405   1.4264   2.1706 C.3            1 S1                 0.0000
      2 ****        -5.3098   1.9003   1.7814 N.am           1 S1                 0.0000
      3 ****        -5.1922   3.2366   1.3632 C.2            1 S1                 0.0000
      4 ****        -4.0144   3.7551   0.9891 C.2            1 S1                 0.0000
      5 ****        -2.8485   2.9051   1.0230 C.2            1 S1                 0.0000
      6 ****        -2.9377   1.6142   1.4319 C.2            1 S1                 0.0000
      7 ****        -1.8563   0.7174   1.4872 N.am           1 S1                 0.0000
      8 ****        -0.5351   0.9725   1.4667 C.2            1 S1                 0.0000
      9 ****        -0.0163   2.0879   1.4276 O.2            1 S1                 0.0000
     10 ****         0.1721  -0.1653   1.5099 N.am           1 S1                 0.0000
     11 ****         1.6305  -0.2554   1.4978 C.3            1 S1                 0.0000
     12 ****         2.0780  -1.6160   2.0659 C.3            1 S1                 0.0000
     13 ****         3.6086  -1.7535   2.0534 C.3            1 S1                 0.0000
     14 ****         4.1783  -1.5277   0.6445 C.3            1 S1                 0.0000
     15 ****         3.7307  -0.1723   0.0734 C.3            1 S1                 0.0000
     16 ****         2.1939  -0.0279   0.0756 C.3            1 S1                 0.0000
     17 ****         1.5815  -0.9703  -0.8006 O.3            1 S1                 0.0000
     18 ****         1.7379  -0.7100  -2.1892 C.3            1 S1                 0.0000
     19 ****         0.4018  -0.8642  -2.9129 C.3            1 S1                 0.0000
     20 ****         0.7780  -1.1544  -4.3701 C.3            1 S1                 0.0000
     21 ****         2.2033  -1.7303  -4.3386 C.3            1 S1                 0.0000
     22 ****         2.6213  -1.7596  -2.8643 C.3            1 S1                 0.0000
     23 ****        -4.2417   1.0494   1.8314 C.2            1 S1                 0.0000
     24 ****        -4.3759  -0.1219   2.1943 O.2            1 S1                 0.0000
     25 ****        -7.3984   2.2088   2.1181 H              1 S1                 0.0000
     26 ****        -6.6308   1.0541   3.1959 H              1 S1                 0.0000
     27 ****        -6.9639   0.6150   1.5170 H              1 S1                 0.0000
     28 ****        -6.1094   3.8076   1.3658 H              1 S1                 0.0000
     29 ****        -3.9386   4.7843   0.6705 H              1 S1                 0.0000
     30 ****        -1.9165   3.3365   0.6962 H              1 S1                 0.0000
     31 ****        -2.1220  -0.2513   1.5909 H              1 S1                 0.0000
     32 ****        -0.3336  -1.0384   1.5394 H              1 S1                 0.0000
     33 ****         2.0255   0.5219   2.1551 H              1 S1                 0.0000
     34 ****         1.7093  -1.7341   3.0855 H              1 S1                 0.0000
     35 ****         1.6374  -2.4263   1.4833 H              1 S1                 0.0000
     36 ****         4.0450  -1.0306   2.7439 H              1 S1                 0.0000
     37 ****         3.8962  -2.7405   2.4168 H              1 S1                 0.0000
     38 ****         5.2671  -1.5761   0.6730 H              1 S1                 0.0000
     39 ****         3.8512  -2.3310  -0.0168 H              1 S1                 0.0000
     40 ****         4.1627   0.6268   0.6767 H              1 S1                 0.0000
     41 ****         4.1327  -0.0356  -0.9300 H              1 S1                 0.0000
     42 ****         1.9294   0.9812  -0.2451 H              1 S1                 0.0000
     43 ****         2.1319   0.2887  -2.3887 H              1 S1                 0.0000
     44 ****        -0.1408  -1.7178  -2.5036 H              1 S1                 0.0000
     45 ****        -0.2366   0.0135  -2.8073 H              1 S1                 0.0000
     46 ****         0.0693  -1.8413  -4.8340 H              1 S1                 0.0000
     47 ****         0.7662  -0.2317  -4.9518 H              1 S1                 0.0000
     48 ****         2.2533  -2.7233  -4.7862 H              1 S1                 0.0000
     49 ****         2.8739  -1.0831  -4.9051 H              1 S1                 0.0000
     50 ****         3.6862  -1.5723  -2.7271 H              1 S1                 0.0000
     51 ****         2.4040  -2.7435  -2.4461 H              1 S1                 0.0000
     52 ****        -0.5908   2.9062   1.4081 LP             1 S1                 0.0000
     53 ****         0.9798   2.1759   1.4154 LP             1 S1                 0.0000
     54 ****         0.6022  -0.9864  -0.5990 LP             1 S1                 0.0000
     55 ****         1.9760  -1.8691  -0.6097 LP             1 S1                 0.0000
     56 ****        -5.2779  -0.4633   2.4583 LP             1 S1                 0.0000
     57 ****        -3.5826  -0.7299   2.2246 LP             1 S1                 0.0000
@<TRIPOS>BOND
    1    1    2 1     
    2    1   25 1     
    3    1   26 1     
    4    1   27 1     
    5    2   23 am    
    6    2    3 1     
    7    3    4 2     
    8    3   28 1     
    9    4    5 1     
   10    4   29 1     
   11    5    6 2     
   12    5   30 1     
   13    6    7 1     
   14    6   23 1     
   15    7    8 am    
   16    7   31 1     
   17    8    9 2     
   18    8   10 am    
   19   10   11 1     
   20   10   32 1     
   21   11   16 1     
   22   11   12 1     
   23   11   33 1     
   24   12   13 1     
   25   12   34 1     
   26   12   35 1     
   27   13   14 1     
   28   13   36 1     
   29   13   37 1     
   30   14   15 1     
   31   14   38 1     
   32   14   39 1     
   33   15   16 1     
   34   15   40 1     
   35   15   41 1     
   36   16   17 1     
   37   16   42 1     
   38   17   18 1     
   39   18   22 1     
   40   18   19 1     
   41   18   43 1     
   42   19   20 1     
   43   19   44 1     
   44   19   45 1     
   45   20   21 1     
   46   20   46 1     
   47   20   47 1     
   48   21   22 1     
   49   21   48 1     
   50   21   49 1     
   51   22   50 1     
   52   22   51 1     
   53   23   24 2     
   54    9   52 1     
   55    9   53 1     
   56   17   54 1     
   57   17   55 1     
   58   24   56 1     
   59   24   57 1     
@<TRIPOS>SUBSTRUCTURE
      1 S1             1
@<TRIPOS>SET
LONE_PAIRS      STATIC     ATOMS    <user>   **** ""
6 52 53 54 55 56 57
DONOR_HYDROGENS      STATIC     ATOMS    <user>   **** ""
2 31 32
ATOM$BLUE        STATIC     ATOMS    COLORGROUP SYSTEM
6 52 53 54 55 56 57
ATOM$RED        STATIC     ATOMS    COLORGROUP SYSTEM
2 31 32
