AV-unprocessed.smi:2272|AV-procd|sdf|9163|dock8
  -GOLD-   2272012373D 1   1.00000     0.00000
 Structure written by MMmdl.
 41 42  0  0  0  0  0  0  0  0  1 V2000
  149.8153  138.8906  153.7739 C   0  0  0  0  0  0  0  0  0  0  0  0
  150.8005  138.6355  154.9007 C   0  0  0  0  0  0  0  0  0  0  0  0
  151.3546  139.7762  155.4890 N   0  0  0  0  0  0  0  0  0  0  0  0
  152.2057  139.6548  156.4547 C   0  0  0  0  0  0  0  0  0  0  0  0
  152.5940  138.3964  156.9416 N   0  0  0  0  0  0  0  0  0  0  0  0
  153.5806  138.3961  158.0336 C   0  0  0  0  0  0  0  0  0  0  0  0
  152.9096  138.2176  159.4150 C   0  0  1  0  0  0  0  0  0  0  0  0
  152.5883  136.8525  159.5916 O   0  0  0  0  0  0  0  0  0  0  0  0
  153.8390  138.6194  160.5694 C   0  0  0  0  0  0  0  0  0  0  0  0
  154.3445  139.9217  160.3125 O   0  0  0  0  0  0  0  0  0  0  0  0
  154.3612  140.7704  161.4509 C   0  0  0  0  0  0  0  0  0  0  0  0
  153.5123  142.0198  161.2796 C   0  0  0  0  0  0  0  0  0  0  0  0
  152.9070  142.2949  160.0350 C   0  0  0  0  0  0  0  0  0  0  0  0
  152.1240  143.4537  159.8681 C   0  0  0  0  0  0  0  0  0  0  0  0
  151.9465  144.3449  160.9435 C   0  0  0  0  0  0  0  0  0  0  0  0
  152.5542  144.0780  162.1853 C   0  0  0  0  0  0  0  0  0  0  0  0
  153.3380  142.9197  162.3544 C   0  0  0  0  0  0  0  0  0  0  0  0
  153.9204  142.6769  163.5531 F   0  0  0  0  0  0  0  0  0  0  0  0
  152.1095  137.2328  156.4188 C   0  0  0  0  0  0  0  0  0  0  0  0
  152.4719  136.1331  156.8415 O   0  0  0  0  0  0  0  0  0  0  0  0
  151.1392  137.3866  155.3229 C   0  0  0  0  0  0  0  0  0  0  0  0
  150.5711  136.1089  154.7176 C   0  0  0  0  0  0  0  0  0  0  0  0
  148.8388  138.4710  154.0172 H   0  0  0  0  0  0  0  0  0  0  0  0
  150.1698  138.4370  152.8478 H   0  0  0  0  0  0  0  0  0  0  0  0
  149.6840  139.9584  153.5939 H   0  0  0  0  0  0  0  0  0  0  0  0
  152.6731  140.5118  156.9427 H   0  0  0  0  0  0  0  0  0  0  0  0
  154.3634  137.6495  157.8827 H   0  0  0  0  0  0  0  0  0  0  0  0
  154.1195  139.3449  158.0058 H   0  0  0  0  0  0  0  0  0  0  0  0
  151.9903  138.8008  159.4859 H   0  0  0  0  0  0  0  0  0  0  0  0
  153.2966  136.4352  160.0576 H   0  0  0  0  0  0  0  0  0  0  0  0
  153.2876  138.6334  161.5112 H   0  0  0  0  0  0  0  0  0  0  0  0
  154.6469  137.8934  160.6734 H   0  0  0  0  0  0  0  0  0  0  0  0
  153.9622  140.2074  162.2950 H   0  0  0  0  0  0  0  0  0  0  0  0
  155.3887  141.0295  161.7114 H   0  0  0  0  0  0  0  0  0  0  0  0
  153.0383  141.6172  159.2042 H   0  0  0  0  0  0  0  0  0  0  0  0
  151.6601  143.6588  158.9146 H   0  0  0  0  0  0  0  0  0  0  0  0
  151.3465  145.2336  160.8154 H   0  0  0  0  0  0  0  0  0  0  0  0
  152.4202  144.7633  163.0092 H   0  0  0  0  0  0  0  0  0  0  0  0
  151.3737  135.5066  154.2906 H   0  0  0  0  0  0  0  0  0  0  0  0
  149.8437  136.2930  153.9288 H   0  0  0  0  0  0  0  0  0  0  0  0
  150.0755  135.5160  155.4870 H   0  0  0  0  0  0  0  0  0  0  0  0
  1  2  1  0  0  0  0
  1 23  1  0  0  0  0
  1 24  1  0  0  0  0
  1 25  1  0  0  0  0
  2 21  2  0  0  0  0
  2  3  1  0  0  0  0
  3  4  2  0  0  0  0
  4  5  1  0  0  0  0
  4 26  1  0  0  0  0
  5  6  1  0  0  0  0
  5 19  1  0  0  0  0
  6  7  1  0  0  0  0
  6 27  1  0  0  0  0
  6 28  1  0  0  0  0
  7  8  1  0  0  0  0
  7  9  1  0  0  0  0
  7 29  1  0  0  0  0
  8 30  1  0  0  0  0
  9 10  1  0  0  0  0
  9 31  1  0  0  0  0
  9 32  1  0  0  0  0
 10 11  1  0  0  0  0
 11 12  1  0  0  0  0
 11 33  1  0  0  0  0
 11 34  1  0  0  0  0
 12 17  1  0  0  0  0
 12 13  2  0  0  0  0
 13 14  1  0  0  0  0
 13 35  1  0  0  0  0
 14 15  2  0  0  0  0
 14 36  1  0  0  0  0
 15 16  1  0  0  0  0
 15 37  1  0  0  0  0
 16 17  2  0  0  0  0
 16 38  1  0  0  0  0
 17 18  1  0  0  0  0
 19 20  2  0  0  0  0
 19 21  1  0  0  0  0
 21 22  1  0  0  0  0
 22 39  1  0  0  0  0
 22 40  1  0  0  0  0
 22 41  1  0  0  0  0
M  END
> <s_m_source_file>
AV-unprocessed.smi

> <i_m_source_file_index>
2272

> <i_lp_mmshare_version>
43012

> <i_f3d_flags>
0

> <s_epik_input>
W0NIM11jMW5bY0hdbihjKD1PKWMxW0NIM10pW0NIMl1bQ0BIXShbT0hdKVtDSDJdT1tDSDJdYzJbY0hdW2NIXVtjSF1bY0hdYzJG

> <s_epik_cmdline>
J2VwaWtfcHl0aG9uJywgJy1waCcsICc3LjAnLCAnLXRuJywgJzgnLCAnLW1hJywgJzIwMCcsICctbWV0YWxfYmluZGluZycsICctaW1hZScsICc8aW5maWxlLm1hZT4nLCAnLW9tYWUnLCAnPG91dGZpbGUubWFlPic=

> <r_lp_tautomer_probability>
1

> <r_epik_Ionization_Penalty>
5.35985e-05

> <r_epik_Ionization_Penalty_Charging>
1.17753e-07

> <r_epik_Ionization_Penalty_Neutral>
5.34808e-05

> <r_epik_State_Penalty>
-0

> <r_epik_Charging_Adjusted_Penalty>
1.17753e-07

> <i_epik_Tot_Q>
0

> <i_epik_Tot_abs_Q>
0

> <r_epik_Metal_State_Penalty>
-0

> <b_epik_Metal_Only>
0

> <s_lp_Force_Field>
OPLS_2005

> <r_lp_Energy>
21.4702

> <b_lp_Chiralities_Consistent>
1

> <s_lp_Variant>
AV-unprocessed.smi:2272-2

> <Gold.Version>
5.8.1

> <Gold.Id.Protein>
6NUR|6NUR_protein|mol2

> <Gold.PLP.Fitness>
47.0107

> <Gold.PLP.PLP>
-44.9849

> <Gold.PLP.part.hbond>
-2.3172

> <Gold.PLP.part.metal>
0.0000

> <Gold.PLP.part.buried>
-0.3103

> <Gold.PLP.part.nonpolar>
-40.9072

> <Gold.PLP.part.repulsive>
0.0147

> <Gold.PLP.ligand.clash>
0.0000

> <Gold.PLP.ligand.torsion>
1.1995

> <Gold.PLP.Chemscore.Hbond>
1.4301

> <Gold.PLP.Chemscore.CHOScore>
0.0000

> <Gold.PLP.Chemscore.Metal>
0.0000

> <Gold.Chemscore.Hbonds>
donor molecule, donor type, donor heavy atom, donor atom, acceptor molecule, acceptor atom, score
      P1  H  6896  6907       L1     8  0.14
      P1  H  7989  7998       L1     3  0.26
      P1  H 10752 10764       L1    20  1.00

> <Gold.PLP.Chemscore.Internal.Correction>
0.1346

> <Gold.Rescore>
     Score         DG    S(hbond)    S(metal)    S(lipo)     H(rot)  DE(clash)    DE(int)     intcor
     12.40     -15.63       1.00        0.00     117.00       2.69       0.95       2.28       ----

> <Gold.Chemscore.Fitness>
12.3956

> <Gold.Chemscore.DG>
-15.6284

> <Gold.Chemscore.ZeroCoef>
-5.4800

> <Gold.Chemscore.Hbond>
0.9986

> <Gold.Chemscore.Metal>
0.0000

> <Gold.Chemscore.Lipo>
116.9963

> <Gold.Chemscore.Internal_Hbond>
0.0000

> <Gold.Chemscore.DEClash>
0.9525

> <Gold.Chemscore.DEInternal>
2.2803

> <Gold.Chemscore.Rot>
2.6857

> <Gold.Chemscore.Internal.Correction>
   9.000000E+99

> <Gold.Chemscore.Hbonds>
donor molecule, donor type, donor heavy atom, donor atom, acceptor molecule, acceptor atom, score
      P1  H  6896  6907       L1     8  0.01
      P1  H  7989  7998       L1     3  0.03
      P1  H 10752 10764       L1    20  0.25

> <Gold.Chemscore.Hbond.Weighted>
-3.3353

> <Gold.Chemscore.Metal.Weighted>
-0.0000

> <Gold.Chemscore.Lipo.Weighted>
-13.6886

> <Gold.Chemscore.Internal_Hbond.Weighted>
0.0000

> <Gold.Chemscore.DEClash.Weighted>
0.9525

> <Gold.Chemscore.DEInternal.Weighted>
2.2803

> <Gold.Chemscore.Rot.Weighted>
6.8755

> <Gold.Chemscore.Internal.Correction.Weighted>
   9.000000E+99

> <Gold.Protein.RotatedTorsions>
[ 6907 6896 6895 6894 ] final  -23.17 input  -60.11 | X-H torsion
[ 7974 7965 7964 7962 ] final -102.58 input  175.53 | X-H torsion
[ 8008 7997 7996 7995 ] final  128.99 input   59.86 | X-H torsion
[ 10167 10162 10161 10158 ] final  110.42 input  -65.29 | X-H torsion
[ 10718 10713 10712 10709 ] final  -79.73 input   66.30 | X-H torsion
[ 10763 10752 10751 10750 ] final  -15.61 input  -60.55 | X-H torsion
[ 11005 11000 10999 10996 ] final  -65.68 input  -57.11 | X-H torsion

> <Gold.Protein.ActiveResidues>
 VAL166  LYS551  ARG553  GLY616  TRP617  ASP618  TYR619  PRO620  LYS621  CYS622 
 ASP623  PHE694  ASN695  SER759  ASP760  ASP761  ALA762  ILE779  LEU786  VAL792 
 PHE793  MET794  SER795  GLU796  ALA797  LYS798  CYS799  TRP800  GLU811  SER814 

> <Gold.Protein.RotatedAtoms>
  151.2078  135.0469  159.8898 H   0  0  0  0  0  0  0  0  0  0  0  0  # atno 6907 bound_to 6896
  152.5427  134.0778  159.8232 H   0  0  0  0  0  0  0  0  0  0  0  0  # atno 6908 bound_to 6896
  151.0927  133.5255  159.2646 H   0  0  0  0  0  0  0  0  0  0  0  0  # atno 6909 bound_to 6896
  145.2669  140.9286  143.3009 H   0  0  0  0  0  0  0  0  0  0  0  0  # atno 7974 bound_to 7965
  156.2927  140.2631  156.2526 H   0  0  0  0  0  0  0  0  0  0  0  0  # atno 8008 bound_to 7997
  154.9867  140.0389  157.2320 H   0  0  0  0  0  0  0  0  0  0  0  0  # atno 8009 bound_to 7997
  154.7723  140.2780  155.6133 H   0  0  0  0  0  0  0  0  0  0  0  0  # atno 8010 bound_to 7997
  139.6690  144.7126  151.1723 H   0  0  0  0  0  0  0  0  0  0  0  0  # atno 10167 bound_to 10162
  156.0086  130.4554  150.3693 H   0  0  0  0  0  0  0  0  0  0  0  0  # atno 10718 bound_to 10713
  153.5459  135.7012  153.5614 H   0  0  0  0  0  0  0  0  0  0  0  0  # atno 10763 bound_to 10752
  153.3559  135.3982  155.1682 H   0  0  0  0  0  0  0  0  0  0  0  0  # atno 10764 bound_to 10752
  154.8667  135.3777  154.4967 H   0  0  0  0  0  0  0  0  0  0  0  0  # atno 10765 bound_to 10752
  141.1461  133.6686  156.6023 H   0  0  0  0  0  0  0  0  0  0  0  0  # atno 11005 bound_to 11000
  144.9369  139.4233  143.6468 LP  0  0  0  0  0  0  0  0  0  0  0  0  # atno 17320 bound_to 7965
  146.3258  139.8309  142.8908 LP  0  0  0  0  0  0  0  0  0  0  0  0  # atno 17321 bound_to 7965
  140.7610  143.5874  150.8831 LP  0  0  0  0  0  0  0  0  0  0  0  0  # atno 17342 bound_to 10162
  139.9538  143.6242  152.3022 LP  0  0  0  0  0  0  0  0  0  0  0  0  # atno 17343 bound_to 10162
  157.1778  131.0384  151.2764 LP  0  0  0  0  0  0  0  0  0  0  0  0  # atno 17370 bound_to 10713
  157.4172  130.7418  149.6885 LP  0  0  0  0  0  0  0  0  0  0  0  0  # atno 17371 bound_to 10713
  140.3679  134.7631  157.4578 LP  0  0  0  0  0  0  0  0  0  0  0  0  # atno 17394 bound_to 11000
  140.0733  134.5831  155.8618 LP  0  0  0  0  0  0  0  0  0  0  0  0  # atno 17395 bound_to 11000

$$$$
