AV-unprocessed.smi:3315|AV-procd|sdf|12750|dock7
  -GOLD-   2272019 83D 1   1.00000     0.00000
 Structure written by MMmdl.
 37 38  0  0  0  0  0  0  0  0  1 V2000
  154.3066  141.6273  160.1445 C   0  0  0  0  0  0  0  0  0  0  0  0
  153.7127  142.7770  159.5541 O   0  0  0  0  0  0  0  0  0  0  0  0
  152.3102  142.9817  159.7756 C   0  0  2  0  0  0  0  0  0  0  0  0
  152.0475  143.3680  161.2365 C   0  0  0  0  0  0  0  0  0  0  0  0
  151.4970  141.8391  159.1361 C   0  0  0  0  0  0  0  0  0  0  0  0
  151.6117  142.5990  157.8161 C   0  0  1  0  0  0  0  0  0  0  0  0
  150.4005  142.5138  157.0071 N   0  0  0  0  0  0  0  0  0  0  0  0
  149.9562  141.3885  156.4309 C   0  0  0  0  0  0  0  0  0  0  0  0
  150.5350  140.3062  156.5255 O   0  0  0  0  0  0  0  0  0  0  0  0
  148.8205  141.6076  155.7472 N   0  0  0  0  0  0  0  0  0  0  0  0
  148.0353  140.6756  155.0207 C   0  0  0  0  0  0  0  0  0  0  0  0
  148.3201  139.2905  154.8405 C   0  0  0  0  0  0  0  0  0  0  0  0
  147.2656  138.8614  154.0864 C   0  0  0  0  0  0  0  0  0  0  0  0
  146.4113  139.8863  153.8273 O   0  0  0  0  0  0  0  0  0  0  0  0
  146.9122  141.0456  154.4314 N   0  0  0  0  0  0  0  0  0  0  0  0
  151.7608  143.9047  158.6387 C   0  0  0  0  0  0  0  0  0  0  0  0
  150.4641  144.6723  158.9600 C   0  0  0  0  0  0  0  0  0  0  0  0
  152.7322  144.9470  158.0743 C   0  0  0  0  0  0  0  0  0  0  0  0
  155.3205  141.5151  159.7609 H   0  0  0  0  0  0  0  0  0  0  0  0
  153.7632  140.7121  159.9124 H   0  0  0  0  0  0  0  0  0  0  0  0
  154.3824  141.7257  161.2272 H   0  0  0  0  0  0  0  0  0  0  0  0
  151.0027  143.6256  161.4058 H   0  0  0  0  0  0  0  0  0  0  0  0
  152.6483  144.2284  161.5316 H   0  0  0  0  0  0  0  0  0  0  0  0
  152.2717  142.5513  161.9222 H   0  0  0  0  0  0  0  0  0  0  0  0
  151.9693  140.8575  159.1287 H   0  0  0  0  0  0  0  0  0  0  0  0
  150.4769  141.7787  159.5195 H   0  0  0  0  0  0  0  0  0  0  0  0
  152.5227  142.3296  157.2765 H   0  0  0  0  0  0  0  0  0  0  0  0
  149.8691  143.3629  156.8822 H   0  0  0  0  0  0  0  0  0  0  0  0
  148.4735  142.5555  155.7471 H   0  0  0  0  0  0  0  0  0  0  0  0
  149.1477  138.6966  155.1972 H   0  0  0  0  0  0  0  0  0  0  0  0
  146.9915  137.9013  153.6747 H   0  0  0  0  0  0  0  0  0  0  0  0
  150.0489  145.1515  158.0726 H   0  0  0  0  0  0  0  0  0  0  0  0
  150.6367  145.4570  159.6973 H   0  0  0  0  0  0  0  0  0  0  0  0
  149.6874  144.0209  159.3606 H   0  0  0  0  0  0  0  0  0  0  0  0
  152.2885  145.5057  157.2496 H   0  0  0  0  0  0  0  0  0  0  0  0
  153.6414  144.4887  157.6852 H   0  0  0  0  0  0  0  0  0  0  0  0
  153.0319  145.6656  158.8375 H   0  0  0  0  0  0  0  0  0  0  0  0
  1  2  1  0  0  0  0
  1 19  1  0  0  0  0
  1 20  1  0  0  0  0
  1 21  1  0  0  0  0
  2  3  1  0  0  0  0
  3 16  1  0  0  0  0
  3  4  1  0  0  0  0
  3  5  1  0  0  0  0
  4 22  1  0  0  0  0
  4 23  1  0  0  0  0
  4 24  1  0  0  0  0
  5  6  1  0  0  0  0
  5 25  1  0  0  0  0
  5 26  1  0  0  0  0
  6  7  1  0  0  0  0
  6 16  1  0  0  0  0
  6 27  1  0  0  0  0
  7  8  1  0  0  0  0
  7 28  1  0  0  0  0
  8  9  2  0  0  0  0
  8 10  1  0  0  0  0
 10 11  1  0  0  0  0
 10 29  1  0  0  0  0
 11 15  2  0  0  0  0
 11 12  1  0  0  0  0
 12 13  2  0  0  0  0
 12 30  1  0  0  0  0
 13 14  1  0  0  0  0
 13 31  1  0  0  0  0
 14 15  1  0  0  0  0
 16 17  1  0  0  0  0
 16 18  1  0  0  0  0
 17 32  1  0  0  0  0
 17 33  1  0  0  0  0
 17 34  1  0  0  0  0
 18 35  1  0  0  0  0
 18 36  1  0  0  0  0
 18 37  1  0  0  0  0
M  END
> <s_m_source_file>
AV-unprocessed.smi

> <i_m_source_file_index>
3315

> <i_lp_mmshare_version>
43012

> <i_f3d_flags>
0

> <s_epik_input>
W0NIM11PW0NAQF0xKFtDSDNdKVtDSDJdW0NASF0oQzEoW0NIM10pW0NIM10pW05IXUMoPU8pW05IXWMyW2NIXVtjSF1vbjI=

> <s_epik_cmdline>
J2VwaWtfcHl0aG9uJywgJy1waCcsICc3LjAnLCAnLXRuJywgJzgnLCAnLW1hJywgJzIwMCcsICctbWV0YWxfYmluZGluZycsICctaW1hZScsICc8aW5maWxlLm1hZT4nLCAnLW9tYWUnLCAnPG91dGZpbGUubWFlPic=

> <r_lp_tautomer_probability>
1

> <r_epik_Ionization_Penalty>
2.28875e-05

> <r_epik_Ionization_Penalty_Charging>
0

> <r_epik_Ionization_Penalty_Neutral>
2.28875e-05

> <r_epik_State_Penalty>
-0

> <r_epik_Charging_Adjusted_Penalty>
0

> <i_epik_Tot_Q>
0

> <i_epik_Tot_abs_Q>
0

> <r_epik_Metal_State_Penalty>
-0

> <b_epik_Metal_Only>
0

> <s_lp_Force_Field>
OPLS_2005

> <r_lp_Energy>
24.1983

> <b_lp_Chiralities_Consistent>
1

> <s_lp_Variant>
AV-unprocessed.smi:3315-2

> <Gold.Version>
5.8.1

> <Gold.Id.Protein>
6NUR|6NUR_protein|mol2

> <Gold.PLP.Fitness>
42.8170

> <Gold.PLP.PLP>
-34.0256

> <Gold.PLP.part.hbond>
-2.0000

> <Gold.PLP.part.metal>
0.0000

> <Gold.PLP.part.buried>
-5.3244

> <Gold.PLP.part.nonpolar>
-27.7432

> <Gold.PLP.part.repulsive>
0.5641

> <Gold.PLP.ligand.clash>
0.0000

> <Gold.PLP.ligand.torsion>
0.2500

> <Gold.PLP.Chemscore.Hbond>
1.9913

> <Gold.PLP.Chemscore.CHOScore>
0.9804

> <Gold.PLP.Chemscore.Metal>
0.0000

> <Gold.Chemscore.Hbonds>
donor molecule, donor type, donor heavy atom, donor atom, acceptor molecule, acceptor atom, score
      L1  H     7    28       P1  8028  0.91
      L1  H    10    29       P1  8028  0.58

> <Gold.PLP.Chemscore.Internal.Correction>
0.3763

> <Gold.Rescore>
     Score         DG    S(hbond)    S(metal)    S(lipo)     H(rot)  DE(clash)    DE(int)     intcor
     16.30     -20.09       1.96        0.00      97.54       1.30       1.15       2.64       ----

> <Gold.Chemscore.Fitness>
16.2951

> <Gold.Chemscore.DG>
-20.0899

> <Gold.Chemscore.ZeroCoef>
-5.4800

> <Gold.Chemscore.Hbond>
1.9568

> <Gold.Chemscore.Metal>
0.0000

> <Gold.Chemscore.Lipo>
97.5375

> <Gold.Chemscore.Internal_Hbond>
0.0000

> <Gold.Chemscore.DEClash>
1.1507

> <Gold.Chemscore.DEInternal>
2.6440

> <Gold.Chemscore.Rot>
1.3038

> <Gold.Chemscore.Internal.Correction>
   9.000000E+99

> <Gold.Chemscore.Hbonds>
donor molecule, donor type, donor heavy atom, donor atom, acceptor molecule, acceptor atom, score
      L1  H     7    28       P1  8028  0.84
      L1  H    10    29       P1  8028  0.55

> <Gold.Chemscore.Hbond.Weighted>
-6.5357

> <Gold.Chemscore.Metal.Weighted>
-0.0000

> <Gold.Chemscore.Lipo.Weighted>
-11.4119

> <Gold.Chemscore.Internal_Hbond.Weighted>
0.0000

> <Gold.Chemscore.DEClash.Weighted>
1.1507

> <Gold.Chemscore.DEInternal.Weighted>
2.6440

> <Gold.Chemscore.Rot.Weighted>
3.3377

> <Gold.Chemscore.Internal.Correction.Weighted>
   9.000000E+99

> <Gold.Protein.RotatedTorsions>
[ 6907 6896 6895 6894 ] final  161.66 input  -60.11 | X-H torsion
[ 7974 7965 7964 7962 ] final -156.89 input  175.53 | X-H torsion
[ 8008 7997 7996 7995 ] final -140.09 input   59.86 | X-H torsion
[ 10167 10162 10161 10158 ] final  140.21 input  -65.29 | X-H torsion
[ 10718 10713 10712 10709 ] final  -42.71 input   66.30 | X-H torsion
[ 10763 10752 10751 10750 ] final    9.26 input  -60.55 | X-H torsion
[ 11005 11000 10999 10996 ] final  -92.59 input  -57.11 | X-H torsion

> <Gold.Protein.ActiveResidues>
 VAL166  LYS551  ARG553  GLY616  TRP617  ASP618  TYR619  PRO620  LYS621  CYS622 
 ASP623  PHE694  ASN695  SER759  ASP760  ASP761  ALA762  ILE779  LEU786  VAL792 
 PHE793  MET794  SER795  GLU796  ALA797  LYS798  CYS799  TRP800  GLU811  SER814 

> <Gold.Protein.RotatedAtoms>
  151.9522  133.3669  159.4003 H   0  0  0  0  0  0  0  0  0  0  0  0  # atno 6907 bound_to 6896
  150.6979  134.4328  159.5265 H   0  0  0  0  0  0  0  0  0  0  0  0  # atno 6908 bound_to 6896
  152.2003  134.8593  160.0559 H   0  0  0  0  0  0  0  0  0  0  0  0  # atno 6909 bound_to 6896
  144.7572  140.4045  143.6003 H   0  0  0  0  0  0  0  0  0  0  0  0  # atno 7974 bound_to 7965
  155.4556  140.0542  157.2996 H   0  0  0  0  0  0  0  0  0  0  0  0  # atno 8008 bound_to 7997
  154.4759  140.2060  155.9836 H   0  0  0  0  0  0  0  0  0  0  0  0  # atno 8009 bound_to 7997
  156.1130  140.3201  155.8104 H   0  0  0  0  0  0  0  0  0  0  0  0  # atno 8010 bound_to 7997
  139.5055  144.6248  151.5964 H   0  0  0  0  0  0  0  0  0  0  0  0  # atno 10167 bound_to 10162
  156.2567  130.4193  149.8588 H   0  0  0  0  0  0  0  0  0  0  0  0  # atno 10718 bound_to 10713
  153.2160  135.6875  153.8057 H   0  0  0  0  0  0  0  0  0  0  0  0  # atno 10763 bound_to 10752
  153.7272  135.3258  155.3280 H   0  0  0  0  0  0  0  0  0  0  0  0  # atno 10764 bound_to 10752
  154.8246  135.4627  154.0987 H   0  0  0  0  0  0  0  0  0  0  0  0  # atno 10765 bound_to 10752
  141.1518  133.7831  157.0041 H   0  0  0  0  0  0  0  0  0  0  0  0  # atno 11005 bound_to 11000
  145.6738  139.1604  143.2739 LP  0  0  0  0  0  0  0  0  0  0  0  0  # atno 17320 bound_to 7965
  146.1596  140.6807  142.9283 LP  0  0  0  0  0  0  0  0  0  0  0  0  # atno 17321 bound_to 7965
  140.5961  143.9693  150.6355 LP  0  0  0  0  0  0  0  0  0  0  0  0  # atno 17342 bound_to 10162
  140.2890  143.3337  152.1080 LP  0  0  0  0  0  0  0  0  0  0  0  0  # atno 17343 bound_to 10162
  156.6117  130.8589  151.3456 LP  0  0  0  0  0  0  0  0  0  0  0  0  # atno 17370 bound_to 10713
  157.7235  130.9591  150.1537 LP  0  0  0  0  0  0  0  0  0  0  0  0  # atno 17371 bound_to 10713
  140.0920  134.9586  157.1791 LP  0  0  0  0  0  0  0  0  0  0  0  0  # atno 17394 bound_to 11000
  140.3433  134.2680  155.7209 LP  0  0  0  0  0  0  0  0  0  0  0  0  # atno 17395 bound_to 11000

$$$$
