AV-unprocessed.smi:701|AV-procd|sdf|3408|dock2
  -GOLD-   22720 0383D 1   1.00000     0.00000
 Structure written by MMmdl.
 49 51  0  0  0  0  0  0  0  0  1 V2000
  151.1962  132.1248  155.9191 C   0  0  0  0  0  0  0  0  0  0  0  0
  150.2827  133.2881  156.3111 C   0  0  0  0  0  0  0  0  0  0  0  0
  148.9369  132.9081  156.0791 O   0  0  0  0  0  0  0  0  0  0  0  0
  148.5960  132.8640  154.6986 C   0  0  2  0  0  0  0  0  0  0  0  0
  148.1286  134.2287  154.1752 C   0  0  0  0  0  0  0  0  0  0  0  0
  146.7233  133.8085  154.6072 C   0  0  1  0  0  0  0  0  0  0  0  0
  145.6907  134.2402  153.6725 N   0  0  0  0  0  0  0  0  0  0  0  0
  144.7714  135.1776  153.9438 C   0  0  0  0  0  0  0  0  0  0  0  0
  144.7076  135.7648  155.0246 O   0  0  0  0  0  0  0  0  0  0  0  0
  143.7528  135.4727  152.8347 C   0  0  0  0  0  0  0  0  0  0  0  0
  143.9005  134.5748  151.6805 N   0  0  0  0  0  0  0  0  0  0  0  0
  143.2300  133.3603  151.6450 C   0  0  0  0  0  0  0  0  0  0  0  0
  143.3091  132.4952  150.6061 C   0  0  0  0  0  0  0  0  0  0  0  0
  144.1287  132.8125  149.4415 C   0  0  0  0  0  0  0  0  0  0  0  0
  144.2642  132.0952  148.4530 O   0  0  0  0  0  0  0  0  0  0  0  0
  144.7866  134.0432  149.5148 N   0  0  0  0  0  0  0  0  0  0  0  0
  144.7077  134.9401  150.5813 C   0  0  0  0  0  0  0  0  0  0  0  0
  145.3261  136.0032  150.5421 O   0  0  0  0  0  0  0  0  0  0  0  0
  147.1589  132.3275  154.4559 C   0  0  0  0  0  0  0  0  0  0  0  0
  146.9325  131.6624  153.0775 C   0  0  0  0  0  0  0  0  0  0  0  0
  147.5911  130.2760  152.9644 C   0  0  0  0  0  0  0  0  0  0  0  0
  147.1012  129.3337  154.0715 C   0  0  0  0  0  0  0  0  0  0  0  0
  147.2592  129.9728  155.4571 C   0  0  0  0  0  0  0  0  0  0  0  0
  146.5915  131.3567  155.5070 C   0  0  0  0  0  0  0  0  0  0  0  0
  145.3649  134.3067  148.7304 H   0  0  0  0  0  0  0  0  0  0  0  0
  152.2432  132.3776  156.0865 H   0  0  0  0  0  0  0  0  0  0  0  0
  151.0769  131.8716  154.8652 H   0  0  0  0  0  0  0  0  0  0  0  0
  150.9686  131.2348  156.5061 H   0  0  0  0  0  0  0  0  0  0  0  0
  150.4341  133.5406  157.3610 H   0  0  0  0  0  0  0  0  0  0  0  0
  150.5293  134.1713  155.7203 H   0  0  0  0  0  0  0  0  0  0  0  0
  149.3574  132.3832  154.0828 H   0  0  0  0  0  0  0  0  0  0  0  0
  148.5237  135.0946  154.7065 H   0  0  0  0  0  0  0  0  0  0  0  0
  148.2475  134.3324  153.0953 H   0  0  0  0  0  0  0  0  0  0  0  0
  146.5275  134.0866  155.6457 H   0  0  0  0  0  0  0  0  0  0  0  0
  145.6731  133.7975  152.7653 H   0  0  0  0  0  0  0  0  0  0  0  0
  142.7362  135.4153  153.2294 H   0  0  0  0  0  0  0  0  0  0  0  0
  143.8827  136.5108  152.5262 H   0  0  0  0  0  0  0  0  0  0  0  0
  142.6068  133.0859  152.4841 H   0  0  0  0  0  0  0  0  0  0  0  0
  142.7616  131.5642  150.6360 H   0  0  0  0  0  0  0  0  0  0  0  0
  145.8639  131.5560  152.8847 H   0  0  0  0  0  0  0  0  0  0  0  0
  147.3126  132.2938  152.2743 H   0  0  0  0  0  0  0  0  0  0  0  0
  147.3763  129.8417  151.9877 H   0  0  0  0  0  0  0  0  0  0  0  0
  148.6752  130.3749  153.0230 H   0  0  0  0  0  0  0  0  0  0  0  0
  146.0505  129.0944  153.9022 H   0  0  0  0  0  0  0  0  0  0  0  0
  147.6444  128.3894  154.0287 H   0  0  0  0  0  0  0  0  0  0  0  0
  146.8254  129.3222  156.2169 H   0  0  0  0  0  0  0  0  0  0  0  0
  148.3182  130.0688  155.7000 H   0  0  0  0  0  0  0  0  0  0  0  0
  146.6995  131.7678  156.5110 H   0  0  0  0  0  0  0  0  0  0  0  0
  145.5170  131.2393  155.3603 H   0  0  0  0  0  0  0  0  0  0  0  0
  1  2  1  0  0  0  0
  1 26  1  0  0  0  0
  1 27  1  0  0  0  0
  1 28  1  0  0  0  0
  2  3  1  0  0  0  0
  2 29  1  0  0  0  0
  2 30  1  0  0  0  0
  3  4  1  0  0  0  0
  4 19  1  0  0  0  0
  4  5  1  0  0  0  0
  4 31  1  0  0  0  0
  5  6  1  0  0  0  0
  5 32  1  0  0  0  0
  5 33  1  0  0  0  0
  6  7  1  0  0  0  0
  6 19  1  0  0  0  0
  6 34  1  0  0  0  0
  7  8  1  0  0  0  0
  7 35  1  0  0  0  0
  8  9  2  0  0  0  0
  8 10  1  0  0  0  0
 10 11  1  0  0  0  0
 10 36  1  0  0  0  0
 10 37  1  0  0  0  0
 11 17  1  0  0  0  0
 11 12  1  0  0  0  0
 12 13  2  0  0  0  0
 12 38  1  0  0  0  0
 13 14  1  0  0  0  0
 13 39  1  0  0  0  0
 14 15  2  0  0  0  0
 14 16  1  0  0  0  0
 16 25  1  0  0  0  0
 16 17  1  0  0  0  0
 17 18  2  0  0  0  0
 19 24  1  0  0  0  0
 19 20  1  0  0  0  0
 20 21  1  0  0  0  0
 20 40  1  0  0  0  0
 20 41  1  0  0  0  0
 21 22  1  0  0  0  0
 21 42  1  0  0  0  0
 21 43  1  0  0  0  0
 22 23  1  0  0  0  0
 22 44  1  0  0  0  0
 22 45  1  0  0  0  0
 23 24  1  0  0  0  0
 23 46  1  0  0  0  0
 23 47  1  0  0  0  0
 24 48  1  0  0  0  0
 24 49  1  0  0  0  0
M  END
> <s_m_source_file>
AV-unprocessed.smi

> <i_m_source_file_index>
701

> <i_lp_mmshare_version>
43012

> <i_f3d_flags>
0

> <s_epik_input>
W0NIMl0xW0NIMl1bQ0gyXVtDSDJdW0NIMl1DMTJbQ0BIXShPW0NIMl1bQ0gzXSlbQ0gyXVtDQEhdMltOSF1DKD1PKVtDSDJdbjNbY0hdW2NIXWMoPU8pW25IXWMzPU8=

> <s_epik_cmdline>
J2VwaWtfcHl0aG9uJywgJy1waCcsICc3LjAnLCAnLXRuJywgJzgnLCAnLW1hJywgJzIwMCcsICctbWV0YWxfYmluZGluZycsICctaW1hZScsICc8aW5maWxlLm1hZT4nLCAnLW9tYWUnLCAnPG91dGZpbGUubWFlPic=

> <r_lp_tautomer_probability>
0.999537

> <r_epik_Ionization_Penalty>
0.00304597

> <r_epik_Ionization_Penalty_Charging>
0.00304595

> <r_epik_Ionization_Penalty_Neutral>
1.88422e-08

> <r_epik_State_Penalty>
0.00214084

> <r_epik_Charging_Adjusted_Penalty>
0.00518679

> <i_epik_Tot_Q>
0

> <i_epik_Tot_abs_Q>
0

> <r_epik_Metal_State_Penalty>
0.361872

> <b_epik_Metal_Only>
0

> <s_lp_Force_Field>
OPLS_2005

> <r_lp_Energy>
27.2214

> <b_lp_Chiralities_Consistent>
1

> <s_lp_Variant>
AV-unprocessed.smi:701-1

> <Gold.Version>
5.8.1

> <Gold.Id.Protein>
6NUR|6NUR_protein|mol2

> <Gold.PLP.Fitness>
36.3090

> <Gold.PLP.PLP>
-30.1936

> <Gold.PLP.part.hbond>
-2.0000

> <Gold.PLP.part.metal>
0.0000

> <Gold.PLP.part.buried>
-4.5287

> <Gold.PLP.part.nonpolar>
-25.0077

> <Gold.PLP.part.repulsive>
0.6560

> <Gold.PLP.ligand.clash>
0.0000

> <Gold.PLP.ligand.torsion>
0.8291

> <Gold.PLP.Chemscore.Hbond>
1.4599

> <Gold.PLP.Chemscore.CHOScore>
1.0000

> <Gold.PLP.Chemscore.Metal>
0.0000

> <Gold.Chemscore.Hbonds>
donor molecule, donor type, donor heavy atom, donor atom, acceptor molecule, acceptor atom, score
      L1  H    16    25       P1  7921  0.75
      P1  H 10785 10796       L1    15  0.21
      L1  C    12    38       P1 10957  0.75

> <Gold.PLP.Chemscore.Internal.Correction>
0.3938

> <Gold.Rescore>
     Score         DG    S(hbond)    S(metal)    S(lipo)     H(rot)  DE(clash)    DE(int)     intcor
     12.14     -13.11       1.76        0.00      60.68       2.09       0.19       0.77       ----

> <Gold.Chemscore.Fitness>
12.1435

> <Gold.Chemscore.DG>
-13.1075

> <Gold.Chemscore.ZeroCoef>
-5.4800

> <Gold.Chemscore.Hbond>
1.7625

> <Gold.Chemscore.Metal>
0.0000

> <Gold.Chemscore.Lipo>
60.6800

> <Gold.Chemscore.Internal_Hbond>
0.0000

> <Gold.Chemscore.DEClash>
0.1914

> <Gold.Chemscore.DEInternal>
0.7726

> <Gold.Chemscore.Rot>
2.0933

> <Gold.Chemscore.Internal.Correction>
   9.000000E+99

> <Gold.Chemscore.Hbonds>
donor molecule, donor type, donor heavy atom, donor atom, acceptor molecule, acceptor atom, score
      L1  H    16    25       P1  7921  0.74
      P1  H 10785 10796       L1    15  0.17

> <Gold.Chemscore.Hbond.Weighted>
-5.8868

> <Gold.Chemscore.Metal.Weighted>
-0.0000

> <Gold.Chemscore.Lipo.Weighted>
-7.0996

> <Gold.Chemscore.Internal_Hbond.Weighted>
0.0000

> <Gold.Chemscore.DEClash.Weighted>
0.1914

> <Gold.Chemscore.DEInternal.Weighted>
0.7726

> <Gold.Chemscore.Rot.Weighted>
5.3588

> <Gold.Chemscore.Internal.Correction.Weighted>
   9.000000E+99

> <Gold.Protein.RotatedTorsions>
[ 6907 6896 6895 6894 ] final  112.71 input  -60.11 | X-H torsion
[ 7974 7965 7964 7962 ] final  -73.53 input  175.53 | X-H torsion
[ 8008 7997 7996 7995 ] final -138.07 input   59.86 | X-H torsion
[ 10167 10162 10161 10158 ] final   76.59 input  -65.29 | X-H torsion
[ 10718 10713 10712 10709 ] final  -27.95 input   66.30 | X-H torsion
[ 10763 10752 10751 10750 ] final -172.27 input  -60.55 | X-H torsion
[ 11005 11000 10999 10996 ] final -168.53 input  -57.11 | X-H torsion

> <Gold.Protein.ActiveResidues>
 VAL166  LYS551  ARG553  GLY616  TRP617  ASP618  TYR619  PRO620  LYS621  CYS622 
 ASP623  PHE694  ASN695  SER759  ASP760  ASP761  ALA762  ILE779  LEU786  VAL792 
 PHE793  MET794  SER795  GLU796  ALA797  LYS798  CYS799  TRP800  GLU811  SER814 

> <Gold.Protein.RotatedAtoms>
  152.4901  133.8478  159.7185 H   0  0  0  0  0  0  0  0  0  0  0  0  # atno 6907 bound_to 6896
  150.9023  133.7093  159.2882 H   0  0  0  0  0  0  0  0  0  0  0  0  # atno 6908 bound_to 6896
  151.4530  135.1035  159.9755 H   0  0  0  0  0  0  0  0  0  0  0  0  # atno 6909 bound_to 6896
  145.6509  140.9282  143.0985 H   0  0  0  0  0  0  0  0  0  0  0  0  # atno 7974 bound_to 7965
  155.4222  140.0519  157.3025 H   0  0  0  0  0  0  0  0  0  0  0  0  # atno 8008 bound_to 7997
  154.4897  140.2115  155.9534 H   0  0  0  0  0  0  0  0  0  0  0  0  # atno 8009 bound_to 7997
  156.1325  140.3169  155.8376 H   0  0  0  0  0  0  0  0  0  0  0  0  # atno 8010 bound_to 7997
  139.9906  144.5760  150.7821 H   0  0  0  0  0  0  0  0  0  0  0  0  # atno 10167 bound_to 10162
  156.4315  130.4446  149.7114 H   0  0  0  0  0  0  0  0  0  0  0  0  # atno 10718 bound_to 10713
  154.6212  135.2875  155.0323 H   0  0  0  0  0  0  0  0  0  0  0  0  # atno 10763 bound_to 10752
  154.1518  135.6502  153.4969 H   0  0  0  0  0  0  0  0  0  0  0  0  # atno 10764 bound_to 10752
  153.0237  135.5357  154.7003 H   0  0  0  0  0  0  0  0  0  0  0  0  # atno 10765 bound_to 10752
  140.5409  134.5523  157.5099 H   0  0  0  0  0  0  0  0  0  0  0  0  # atno 11005 bound_to 11000
  144.7123  139.8326  143.7410 LP  0  0  0  0  0  0  0  0  0  0  0  0  # atno 17320 bound_to 7965
  146.1204  139.4221  143.0232 LP  0  0  0  0  0  0  0  0  0  0  0  0  # atno 17321 bound_to 7965
  140.7456  143.2878  151.3415 LP  0  0  0  0  0  0  0  0  0  0  0  0  # atno 17342 bound_to 10162
  139.6343  144.0661  152.2502 LP  0  0  0  0  0  0  0  0  0  0  0  0  # atno 17343 bound_to 10162
  156.4015  130.7677  151.2685 LP  0  0  0  0  0  0  0  0  0  0  0  0  # atno 17370 bound_to 10713
  157.7508  131.0238  150.3851 LP  0  0  0  0  0  0  0  0  0  0  0  0  # atno 17371 bound_to 10713
  139.9504  134.7627  156.0461 LP  0  0  0  0  0  0  0  0  0  0  0  0  # atno 17394 bound_to 11000
  141.1227  133.6608  156.3257 LP  0  0  0  0  0  0  0  0  0  0  0  0  # atno 17395 bound_to 11000

$$$$
