AV-unprocessed.smi:1578|AV-procd|sdf|6353|dock4
  -GOLD-   22720 6573D 1   1.00000     0.00000
 Structure written by MMmdl.
 45 46  0  0  0  0  0  0  0  0  2 V2000
  150.5315  133.3434  155.8145 C   0  0  0  0  0  0  0  0  0  0  0  0
  149.8476  133.8683  154.5451 C   0  0  1  0  0  0  0  0  0  0  0  0
  148.3107  133.9256  154.7137 C   0  0  0  0  0  0  0  0  0  0  0  0
  147.5773  133.9176  153.4214 N   0  3  0  0  0  0  0  0  0  0  0  0
  147.5562  132.5904  152.7606 C   0  0  0  0  0  0  0  0  0  0  0  0
  146.8566  132.6920  151.3958 C   0  0  0  0  0  0  0  0  0  0  0  0
  145.5349  133.1841  151.5798 O   0  0  0  0  0  0  0  0  0  0  0  0
  145.5256  134.4884  152.1472 C   0  0  0  0  0  0  0  0  0  0  0  0
  146.2036  134.4632  153.5289 C   0  0  0  0  0  0  0  0  0  0  0  0
  150.3843  135.1896  154.2196 N   0  0  0  0  0  0  0  0  0  0  0  0
  150.6793  136.1588  155.1002 C   0  0  0  0  0  0  0  0  0  0  0  0
  150.4598  136.0692  156.3081 O   0  0  0  0  0  0  0  0  0  0  0  0
  151.3478  137.4145  154.5282 C   0  0  0  0  0  0  0  0  0  0  0  0
  150.5569  138.6302  154.7846 N   0  0  0  0  0  0  0  0  0  0  0  0
  149.2121  138.6277  154.3655 C   0  0  0  0  0  0  0  0  0  0  0  0
  148.3877  139.6773  154.5426 C   0  0  0  0  0  0  0  0  0  0  0  0
  146.9380  139.6233  154.0879 C   0  0  0  0  0  0  0  0  0  0  0  0
  146.2467  138.7029  154.7601 F   0  0  0  0  0  0  0  0  0  0  0  0
  146.3550  140.8065  154.2768 F   0  0  0  0  0  0  0  0  0  0  0  0
  146.8701  139.3339  152.7884 F   0  0  0  0  0  0  0  0  0  0  0  0
  148.9497  140.8366  155.2090 C   0  0  0  0  0  0  0  0  0  0  0  0
  150.2324  140.8535  155.6207 C   0  0  0  0  0  0  0  0  0  0  0  0
  151.1190  139.7068  155.4135 C   0  0  0  0  0  0  0  0  0  0  0  0
  152.2926  139.7095  155.7877 O   0  0  0  0  0  0  0  0  0  0  0  0
  150.1696  132.3471  156.0702 H   0  0  0  0  0  0  0  0  0  0  0  0
  150.3423  133.9951  156.6683 H   0  0  0  0  0  0  0  0  0  0  0  0
  151.6116  133.2758  155.6801 H   0  0  0  0  0  0  0  0  0  0  0  0
  150.0915  133.1691  153.7442 H   0  0  0  0  0  0  0  0  0  0  0  0
  147.9592  133.1060  155.3424 H   0  0  0  0  0  0  0  0  0  0  0  0
  148.0653  134.8445  155.2485 H   0  0  0  0  0  0  0  0  0  0  0  0
  148.5695  132.2152  152.6218 H   0  0  0  0  0  0  0  0  0  0  0  0
  147.0355  131.8713  153.3949 H   0  0  0  0  0  0  0  0  0  0  0  0
  147.4131  133.3434  150.7196 H   0  0  0  0  0  0  0  0  0  0  0  0
  146.8062  131.7102  150.9249 H   0  0  0  0  0  0  0  0  0  0  0  0
  146.0260  135.1880  151.4769 H   0  0  0  0  0  0  0  0  0  0  0  0
  144.4930  134.8249  152.2423 H   0  0  0  0  0  0  0  0  0  0  0  0
  145.6211  133.8541  154.2219 H   0  0  0  0  0  0  0  0  0  0  0  0
  146.2364  135.4742  153.9365 H   0  0  0  0  0  0  0  0  0  0  0  0
  150.5893  135.3651  153.2462 H   0  0  0  0  0  0  0  0  0  0  0  0
  152.3483  137.5341  154.9494 H   0  0  0  0  0  0  0  0  0  0  0  0
  151.5005  137.2599  153.4594 H   0  0  0  0  0  0  0  0  0  0  0  0
  148.8855  137.7131  153.8919 H   0  0  0  0  0  0  0  0  0  0  0  0
  148.3354  141.7077  155.3822 H   0  0  0  0  0  0  0  0  0  0  0  0
  150.6180  141.7337  156.1139 H   0  0  0  0  0  0  0  0  0  0  0  0
  148.0791  134.5438  152.8074 H   0  0  0  0  0  0  0  0  0  0  0  0
  1  2  1  0  0  0  0
  1 25  1  0  0  0  0
  1 26  1  0  0  0  0
  1 27  1  0  0  0  0
  2  3  1  0  0  0  0
  2 10  1  0  0  0  0
  2 28  1  0  0  0  0
  3  4  1  0  0  0  0
  3 29  1  0  0  0  0
  3 30  1  0  0  0  0
  4  9  1  0  0  0  0
  4  5  1  0  0  0  0
  4 45  1  0  0  0  0
  5  6  1  0  0  0  0
  5 31  1  0  0  0  0
  5 32  1  0  0  0  0
  6  7  1  0  0  0  0
  6 33  1  0  0  0  0
  6 34  1  0  0  0  0
  7  8  1  0  0  0  0
  8  9  1  0  0  0  0
  8 35  1  0  0  0  0
  8 36  1  0  0  0  0
  9 37  1  0  0  0  0
  9 38  1  0  0  0  0
 10 11  1  0  0  0  0
 10 39  1  0  0  0  0
 11 12  2  0  0  0  0
 11 13  1  0  0  0  0
 13 14  1  0  0  0  0
 13 40  1  0  0  0  0
 13 41  1  0  0  0  0
 14 23  1  0  0  0  0
 14 15  1  0  0  0  0
 15 16  2  0  0  0  0
 15 42  1  0  0  0  0
 16 17  1  0  0  0  0
 16 21  1  0  0  0  0
 17 18  1  0  0  0  0
 17 19  1  0  0  0  0
 17 20  1  0  0  0  0
 21 22  2  0  0  0  0
 21 43  1  0  0  0  0
 22 23  1  0  0  0  0
 22 44  1  0  0  0  0
 23 24  2  0  0  0  0
M  CHG  1   4   1
M  END
> <s_m_source_file>
AV-unprocessed.smi

> <i_m_source_file_index>
1578

> <i_lp_mmshare_version>
43012

> <i_f3d_flags>
0

> <s_epik_input>
W0NIMl0xW0NIMl1PW0NIMl1bQ0gyXU4xW0NIMl1bQ0BASF0oW0NIM10pW05IXUMoPU8pW0NIMl1uMltjSF1jKEMoRikoRilGKVtjSF1bY0hdYzI9Tw==

> <s_epik_cmdline>
J2VwaWtfcHl0aG9uJywgJy1waCcsICc3LjAnLCAnLXRuJywgJzgnLCAnLW1hJywgJzIwMCcsICctbWV0YWxfYmluZGluZycsICctaW1hZScsICc8aW5maWxlLm1hZT4nLCAnLW9tYWUnLCAnPG91dGZpbGUubWFlPic=

> <r_lp_tautomer_probability>
1

> <r_epik_Ionization_Penalty>
0.656654

> <r_epik_Ionization_Penalty_Charging>
0.656653

> <r_epik_Ionization_Penalty_Neutral>
9.12373e-08

> <r_epik_State_Penalty>
0.675641

> <r_epik_Charging_Adjusted_Penalty>
1.33229

> <i_epik_Tot_Q>
1

> <i_epik_Tot_abs_Q>
1

> <r_epik_Metal_State_Penalty>
0.675695

> <b_epik_Metal_Only>
0

> <s_lp_Force_Field>
OPLS_2005

> <r_lp_Energy>
32.4409

> <b_lp_Chiralities_Consistent>
1

> <s_lp_Variant>
AV-unprocessed.smi:1578-4

> <Gold.Version>
5.8.1

> <Gold.Id.Protein>
6NUR|6NUR_protein|mol2

> <Gold.PLP.Fitness>
52.9063

> <Gold.PLP.PLP>
-42.0844

> <Gold.PLP.part.hbond>
-4.0000

> <Gold.PLP.part.metal>
0.0000

> <Gold.PLP.part.buried>
3.2088

> <Gold.PLP.part.nonpolar>
-40.9361

> <Gold.PLP.part.repulsive>
0.2479

> <Gold.PLP.ligand.clash>
0.0000

> <Gold.PLP.ligand.torsion>
0.7677

> <Gold.PLP.Chemscore.Hbond>
3.1500

> <Gold.PLP.Chemscore.CHOScore>
0.9066

> <Gold.PLP.Chemscore.Metal>
0.0000

> <Gold.Chemscore.Hbonds>
donor molecule, donor type, donor heavy atom, donor atom, acceptor molecule, acceptor atom, score
      L1  H     4    45       P1  7948  1.72
      L1  H    10    39       P1  7949  0.15
      P1  H  7997  8010       L1    24  0.70
      L1  C    15    42       P1  7948  1.00

> <Gold.PLP.Chemscore.Internal.Correction>
0.1875

> <Gold.Rescore>
     Score         DG    S(hbond)    S(metal)    S(lipo)     H(rot)  DE(clash)    DE(int)     intcor
     12.27     -14.97       1.99        0.00      71.74       2.17       0.22       2.47       ----

> <Gold.Chemscore.Fitness>
12.2732

> <Gold.Chemscore.DG>
-14.9709

> <Gold.Chemscore.ZeroCoef>
-5.4800

> <Gold.Chemscore.Hbond>
1.9930

> <Gold.Chemscore.Metal>
0.0000

> <Gold.Chemscore.Lipo>
71.7376

> <Gold.Chemscore.Internal_Hbond>
0.0000

> <Gold.Chemscore.DEClash>
0.2229

> <Gold.Chemscore.DEInternal>
2.4748

> <Gold.Chemscore.Rot>
2.1716

> <Gold.Chemscore.Internal.Correction>
   9.000000E+99

> <Gold.Chemscore.Hbonds>
donor molecule, donor type, donor heavy atom, donor atom, acceptor molecule, acceptor atom, score
      L1  H     4    45       P1  7948  0.51
      P1  H  7997  8010       L1    24  0.69

> <Gold.Chemscore.Hbond.Weighted>
-6.6568

> <Gold.Chemscore.Metal.Weighted>
-0.0000

> <Gold.Chemscore.Lipo.Weighted>
-8.3933

> <Gold.Chemscore.Internal_Hbond.Weighted>
0.0000

> <Gold.Chemscore.DEClash.Weighted>
0.2229

> <Gold.Chemscore.DEInternal.Weighted>
2.4748

> <Gold.Chemscore.Rot.Weighted>
5.5592

> <Gold.Chemscore.Internal.Correction.Weighted>
   9.000000E+99

> <Gold.Protein.RotatedTorsions>
[ 6907 6896 6895 6894 ] final  144.24 input  -60.11 | X-H torsion
[ 7974 7965 7964 7962 ] final   63.97 input  175.53 | X-H torsion
[ 8008 7997 7996 7995 ] final   77.00 input   59.86 | X-H torsion
[ 10167 10162 10161 10158 ] final -151.37 input  -65.29 | X-H torsion
[ 10718 10713 10712 10709 ] final   64.84 input   66.30 | X-H torsion
[ 10763 10752 10751 10750 ] final  -95.74 input  -60.55 | X-H torsion
[ 11005 11000 10999 10996 ] final  -25.70 input  -57.11 | X-H torsion

> <Gold.Protein.ActiveResidues>
 VAL166  LYS551  ARG553  GLY616  TRP617  ASP618  TYR619  PRO620  LYS621  CYS622 
 ASP623  PHE694  ASN695  SER759  ASP760  ASP761  ALA762  ILE779  LEU786  VAL792 
 PHE793  MET794  SER795  GLU796  ALA797  LYS798  CYS799  TRP800  GLU811  SER814 

> <Gold.Protein.RotatedAtoms>
  152.1961  133.4808  159.5033 H   0  0  0  0  0  0  0  0  0  0  0  0  # atno 6907 bound_to 6896
  150.6960  134.1650  159.4199 H   0  0  0  0  0  0  0  0  0  0  0  0  # atno 6908 bound_to 6896
  151.9566  135.0143  160.0596 H   0  0  0  0  0  0  0  0  0  0  0  0  # atno 6909 bound_to 6896
  145.8557  139.3282  143.0849 H   0  0  0  0  0  0  0  0  0  0  0  0  # atno 7974 bound_to 7965
  155.8354  140.3464  155.5598 H   0  0  0  0  0  0  0  0  0  0  0  0  # atno 8008 bound_to 7997
  155.8197  140.0911  157.1876 H   0  0  0  0  0  0  0  0  0  0  0  0  # atno 8009 bound_to 7997
  154.4004  140.1432  156.3473 H   0  0  0  0  0  0  0  0  0  0  0  0  # atno 8010 bound_to 7997
  139.7273  143.8863  152.2523 H   0  0  0  0  0  0  0  0  0  0  0  0  # atno 10167 bound_to 10162
  157.6066  130.9182  149.9898 H   0  0  0  0  0  0  0  0  0  0  0  0  # atno 10718 bound_to 10713
  154.7176  135.5109  153.8762 H   0  0  0  0  0  0  0  0  0  0  0  0  # atno 10763 bound_to 10752
  153.0834  135.6638  154.0007 H   0  0  0  0  0  0  0  0  0  0  0  0  # atno 10764 bound_to 10752
  153.9836  135.3026  155.3397 H   0  0  0  0  0  0  0  0  0  0  0  0  # atno 10765 bound_to 10752
  140.8962  133.7555  156.0484 H   0  0  0  0  0  0  0  0  0  0  0  0  # atno 11005 bound_to 11000
  145.9306  140.9051  143.0358 LP  0  0  0  0  0  0  0  0  0  0  0  0  # atno 17320 bound_to 7965
  144.6728  140.1413  143.7437 LP  0  0  0  0  0  0  0  0  0  0  0  0  # atno 17321 bound_to 7965
  139.8776  144.7035  150.8914 LP  0  0  0  0  0  0  0  0  0  0  0  0  # atno 17342 bound_to 10162
  140.7765  143.3687  151.1690 LP  0  0  0  0  0  0  0  0  0  0  0  0  # atno 17343 bound_to 10162
  156.1155  130.3648  149.9976 LP  0  0  0  0  0  0  0  0  0  0  0  0  # atno 17370 bound_to 10713
  156.8066  130.9310  151.3645 LP  0  0  0  0  0  0  0  0  0  0  0  0  # atno 17371 bound_to 10713
  140.8286  134.3204  157.5357 LP  0  0  0  0  0  0  0  0  0  0  0  0  # atno 17394 bound_to 11000
  139.8736  134.9350  156.3623 LP  0  0  0  0  0  0  0  0  0  0  0  0  # atno 17395 bound_to 11000

$$$$
