#       Name:                AV-unprocessed.smi:1
#       Creating user name   scv26
#       Creation time:       Thu Mar 26 15:10:11 2020


#       File generated by GOLD software.
#

@<TRIPOS>MOLECULE
AV-unprocessed.smi:1
    66    71     1
SMALL
NO_CHARGES


@<TRIPOS>ATOM
      1 ****        -5.7737   4.1084  -1.7082 O.2            1 S1                 0.0000
      2 ****        -5.8366   2.9396  -1.3171 C.2            1 S1                 0.0000
      3 ****        -4.8010   2.0498  -1.0614 N.2            1 S1                 0.0000
      4 ****        -3.5690   2.4110  -1.2578 C.2            1 S1                 0.0000
      5 ****        -2.9943   3.6065  -1.7099 N.pl3          1 S1                 0.0000
      6 ****        -1.6227   3.8464  -1.8862 C.2            1 S1                 0.0000
      7 ****        -0.6760   2.9777  -1.6505 N.2            1 S1                 0.0000
      8 ****        -1.1943   1.7738  -1.1954 C.2            1 S1                 0.0000
      9 ****        -2.5079   1.4191  -0.9777 C.2            1 S1                 0.0000
     10 ****        -2.5950   0.1124  -0.5080 N.2            1 S1                 0.0000
     11 ****        -1.3202  -0.2680  -0.4666 C.2            1 S1                 0.0000
     12 ****        -0.4295   0.6621  -0.8621 N.pl3          1 S1                 0.0000
     13 ****         1.0583   0.5414  -0.9302 C.3            1 S1                 0.0000
     14 ****         1.3969  -0.8078  -0.9906 O.3            1 S1                 0.0000
     15 ****         2.7120  -0.9390  -0.4750 C.3            1 S1                 0.0000
     16 ****         3.0601  -2.4049  -0.1857 C.3            1 S1                 0.0000
     17 ****         4.4003  -2.4754   0.2716 O.3            1 S1                 0.0000
     18 ****         4.9369  -3.6607   0.6164 C.2            1 S1                 0.0000
     19 ****         4.3286  -4.7308   0.5513 O.2            1 S1                 0.0000
     20 ****         6.3482  -3.5416   1.0841 C.ar           1 S1                 0.0000
     21 ****         7.0585  -4.7090   1.4494 C.ar           1 S1                 0.0000
     22 ****         8.3925  -4.6274   1.8936 C.ar           1 S1                 0.0000
     23 ****         9.0322  -3.3771   1.9798 C.ar           1 S1                 0.0000
     24 ****         8.3362  -2.2082   1.6208 C.ar           1 S1                 0.0000
     25 ****         7.0024  -2.2878   1.1749 C.ar           1 S1                 0.0000
     26 ****         2.6963  -0.0114   0.7431 C.3            1 S1                 0.0000
     27 ****         2.1376  -0.6771   1.8634 O.3            1 S1                 0.0000
     28 ****         0.9744   0.2972   2.5576 S.o2           1 S1                 0.0000
     29 ****        -0.2885  -0.4547   2.6049 O.2            1 S1                 0.0000
     30 ****         1.5603   0.9344   3.7467 O.2            1 S1                 0.0000
     31 ****         0.8563   1.4508   1.3561 O.3            1 S1                 0.0000
     32 ****         1.7603   1.1301   0.3098 C.3            1 S1                 0.0000
     33 ****        -7.1893   2.3668  -1.0456 C.ar           1 S1                 0.0000
     34 ****        -7.8294   2.6169   0.1868 C.ar           1 S1                 0.0000
     35 ****        -9.1042   2.0748   0.4428 C.ar           1 S1                 0.0000
     36 ****        -9.7405   1.2797  -0.5301 C.ar           1 S1                 0.0000
     37 ****        -9.1018   1.0249  -1.7593 C.ar           1 S1                 0.0000
     38 ****        -7.8276   1.5671  -2.0172 C.ar           1 S1                 0.0000
     39 ****        -1.3911   4.8489  -2.2488 H              1 S1                 0.0000
     40 ****        -1.0262  -1.2528  -0.1341 H              1 S1                 0.0000
     41 ****         1.3435   1.0391  -1.8583 H              1 S1                 0.0000
     42 ****         3.4024  -0.5433  -1.2226 H              1 S1                 0.0000
     43 ****         2.3811  -2.8254   0.5572 H              1 S1                 0.0000
     44 ****         2.9553  -2.9971  -1.0957 H              1 S1                 0.0000
     45 ****         6.5887  -5.6804   1.3917 H              1 S1                 0.0000
     46 ****         8.9252  -5.5259   2.1683 H              1 S1                 0.0000
     47 ****        10.0550  -3.3146   2.3209 H              1 S1                 0.0000
     48 ****         8.8260  -1.2480   1.6873 H              1 S1                 0.0000
     49 ****         6.4978  -1.3707   0.9078 H              1 S1                 0.0000
     50 ****         3.6935   0.3446   1.0034 H              1 S1                 0.0000
     51 ****         2.3175   2.0173   0.0083 H              1 S1                 0.0000
     52 ****        -7.3470   3.2249   0.9385 H              1 S1                 0.0000
     53 ****        -9.5936   2.2689   1.3857 H              1 S1                 0.0000
     54 ****       -10.7176   0.8639  -0.3328 H              1 S1                 0.0000
     55 ****        -9.5890   0.4133  -2.5044 H              1 S1                 0.0000
     56 ****        -7.3432   1.3667  -2.9622 H              1 S1                 0.0000
     57 ****        -3.6262   4.3626  -1.9313 H              1 S1                 0.0000
     58 ****        -4.8839   4.5300  -1.8829 LP             1 S1                 0.0000
     59 ****        -6.6125   4.6339  -1.8503 LP             1 S1                 0.0000
     60 ****        -5.0043   1.1300  -0.7257 LP             1 S1                 0.0000
     61 ****         0.2989   3.1576  -1.7815 LP             1 S1                 0.0000
     62 ****        -3.4114  -0.4104  -0.2627 LP             1 S1                 0.0000
     63 ****         1.3682  -1.1253  -1.9384 LP             1 S1                 0.0000
     64 ****         0.7586  -1.3454  -0.4395 LP             1 S1                 0.0000
     65 ****         3.3825  -4.7493   0.2280 LP             1 S1                 0.0000
     66 ****         4.7812  -5.5805   0.8219 LP             1 S1                 0.0000
@<TRIPOS>BOND
    1    1    2 2     
    2    2    3 1     
    3    2   33 1     
    4    3    4 2     
    5    4    9 1     
    6    4    5 1     
    7    5    6 1     
    8    5   57 1     
    9    6    7 2     
   10    6   39 1     
   11    7    8 1     
   12    8   12 1     
   13    8    9 2     
   14    9   10 1     
   15   10   11 2     
   16   11   12 1     
   17   11   40 1     
   18   12   13 1     
   19   13   32 1     
   20   13   14 1     
   21   13   41 1     
   22   14   15 1     
   23   15   16 1     
   24   15   26 1     
   25   15   42 1     
   26   16   17 1     
   27   16   43 1     
   28   16   44 1     
   29   17   18 1     
   30   18   19 2     
   31   18   20 1     
   32   20   25 ar    
   33   20   21 ar    
   34   21   22 ar    
   35   21   45 1     
   36   22   23 ar    
   37   22   46 1     
   38   23   24 ar    
   39   23   47 1     
   40   24   25 ar    
   41   24   48 1     
   42   25   49 1     
   43   26   32 1     
   44   26   27 1     
   45   26   50 1     
   46   27   28 1     
   47   28   29 2     
   48   28   30 2     
   49   28   31 1     
   50   31   32 1     
   51   32   51 1     
   52   33   38 ar    
   53   33   34 ar    
   54   34   35 ar    
   55   34   52 1     
   56   35   36 ar    
   57   35   53 1     
   58   36   37 ar    
   59   36   54 1     
   60   37   38 ar    
   61   37   55 1     
   62   38   56 1     
   63    1   58 1     
   64    1   59 1     
   65    3   60 1     
   66    7   61 1     
   67   10   62 1     
   68   14   63 1     
   69   14   64 1     
   70   19   65 1     
   71   19   66 1     
@<TRIPOS>SUBSTRUCTURE
      1 S1             1
@<TRIPOS>SET
LONE_PAIRS      STATIC     ATOMS    <user>   **** ""
11 58 59 60 61 62 63 64 65 66 29 30
DONOR_HYDROGENS      STATIC     ATOMS    <user>   **** ""
1 57
ATOM$BLUE        STATIC     ATOMS    COLORGROUP SYSTEM
11 58 59 60 61 62 63 64 65 66 29 30
ATOM$RED        STATIC     ATOMS    COLORGROUP SYSTEM
1 57
