AV-unprocessed.smi:1418|AV-procd|sdf|5773|dock5
  -GOLD-   22720 5413D 1   1.00000     0.00000
 Structure written by MMmdl.
 39 41  0  0  0  0  0  0  0  0  1 V2000
  151.7267  136.5000  156.0013 O   0  0  0  0  0  0  0  0  0  0  0  0
  151.0109  136.6894  155.0181 C   0  0  0  0  0  0  0  0  0  0  0  0
  151.2521  137.9025  154.1189 C   0  0  0  0  0  0  0  0  0  0  0  0
  150.8150  139.1583  154.8188 C   0  0  0  0  0  0  0  0  0  0  0  0
  149.7884  139.9963  154.4531 C   0  0  0  0  0  0  0  0  0  0  0  0
  149.6246  141.3459  155.5417 S   0  0  0  0  0  0  0  0  0  0  0  0
  150.9742  140.7058  156.4841 C   0  0  0  0  0  0  0  0  0  0  0  0
  151.5222  141.2758  157.6721 N   0  0  0  0  0  0  0  0  0  0  0  0
  150.9743  142.4927  158.2642 C   0  0  0  0  0  0  0  0  0  0  0  0
  151.9525  142.9006  159.3713 C   0  0  0  0  0  0  0  0  0  0  0  0
  152.8318  141.6745  159.6055 C   0  0  0  0  0  0  0  0  0  0  0  0
  152.5451  140.7941  158.4001 C   0  0  0  0  0  0  0  0  0  0  0  0
  153.2016  139.7780  158.1770 O   0  0  0  0  0  0  0  0  0  0  0  0
  151.4755  139.5727  155.9801 N   0  0  0  0  0  0  0  0  0  0  0  0
  150.0141  135.8668  154.6552 N   0  0  0  0  0  0  0  0  0  0  0  0
  149.6820  134.6046  155.3044 C   0  0  0  0  0  0  0  0  0  0  0  0
  149.7048  133.4548  154.3001 C   0  0  0  0  0  0  0  0  0  0  0  0
  148.4667  133.1767  153.4350 C   0  0  0  0  0  0  0  0  0  0  0  0
  148.7997  131.6846  153.5175 C   0  0  0  0  0  0  0  0  0  0  0  0
  149.5934  132.0012  154.7873 C   0  0  0  0  0  0  0  0  0  0  0  0
  152.3077  137.9618  153.8506 H   0  0  0  0  0  0  0  0  0  0  0  0
  150.7055  137.7633  153.1851 H   0  0  0  0  0  0  0  0  0  0  0  0
  149.1255  139.9057  153.6054 H   0  0  0  0  0  0  0  0  0  0  0  0
  150.8653  143.2863  157.5235 H   0  0  0  0  0  0  0  0  0  0  0  0
  149.9885  142.2773  158.6787 H   0  0  0  0  0  0  0  0  0  0  0  0
  152.5666  143.7388  159.0396 H   0  0  0  0  0  0  0  0  0  0  0  0
  151.4322  143.2121  160.2776 H   0  0  0  0  0  0  0  0  0  0  0  0
  153.8893  141.9325  159.6696 H   0  0  0  0  0  0  0  0  0  0  0  0
  152.5439  141.1468  160.5151 H   0  0  0  0  0  0  0  0  0  0  0  0
  149.4758  136.1102  153.8363 H   0  0  0  0  0  0  0  0  0  0  0  0
  150.3573  134.4082  156.1387 H   0  0  0  0  0  0  0  0  0  0  0  0
  148.6866  134.7028  155.7379 H   0  0  0  0  0  0  0  0  0  0  0  0
  150.5734  133.5357  153.6427 H   0  0  0  0  0  0  0  0  0  0  0  0
  147.5317  133.4273  153.9389 H   0  0  0  0  0  0  0  0  0  0  0  0
  148.5075  133.5992  152.4307 H   0  0  0  0  0  0  0  0  0  0  0  0
  147.9396  131.0314  153.6665 H   0  0  0  0  0  0  0  0  0  0  0  0
  149.4327  131.3444  152.6966 H   0  0  0  0  0  0  0  0  0  0  0  0
  150.5456  131.4774  154.8776 H   0  0  0  0  0  0  0  0  0  0  0  0
  148.9934  131.9018  155.6933 H   0  0  0  0  0  0  0  0  0  0  0  0
  1  2  2  0  0  0  0
  2  3  1  0  0  0  0
  2 15  1  0  0  0  0
  3  4  1  0  0  0  0
  3 21  1  0  0  0  0
  3 22  1  0  0  0  0
  4 14  1  0  0  0  0
  4  5  2  0  0  0  0
  5  6  1  0  0  0  0
  5 23  1  0  0  0  0
  6  7  1  0  0  0  0
  7  8  1  0  0  0  0
  7 14  2  0  0  0  0
  8 12  1  0  0  0  0
  8  9  1  0  0  0  0
  9 10  1  0  0  0  0
  9 24  1  0  0  0  0
  9 25  1  0  0  0  0
 10 11  1  0  0  0  0
 10 26  1  0  0  0  0
 10 27  1  0  0  0  0
 11 12  1  0  0  0  0
 11 28  1  0  0  0  0
 11 29  1  0  0  0  0
 12 13  2  0  0  0  0
 15 16  1  0  0  0  0
 15 30  1  0  0  0  0
 16 17  1  0  0  0  0
 16 31  1  0  0  0  0
 16 32  1  0  0  0  0
 17 20  1  0  0  0  0
 17 18  1  0  0  0  0
 17 33  1  0  0  0  0
 18 19  1  0  0  0  0
 18 34  1  0  0  0  0
 18 35  1  0  0  0  0
 19 20  1  0  0  0  0
 19 36  1  0  0  0  0
 19 37  1  0  0  0  0
 20 38  1  0  0  0  0
 20 39  1  0  0  0  0
M  END
> <s_m_source_file>
AV-unprocessed.smi

> <i_m_source_file_index>
1418

> <i_lp_mmshare_version>
43012

> <i_f3d_flags>
0

> <s_epik_input>
W0NIMl0xW0NIMl1bQ0gyXVtDSF0xW0NIMl1bTkhdQyg9TylbQ0gyXWMyW2NIXXNjKG4yKU4zW0NIMl1bQ0gyXVtDSDJdQzM9Tw==

> <s_epik_cmdline>
J2VwaWtfcHl0aG9uJywgJy1waCcsICc3LjAnLCAnLXRuJywgJzgnLCAnLW1hJywgJzIwMCcsICctbWV0YWxfYmluZGluZycsICctaW1hZScsICc8aW5maWxlLm1hZT4nLCAnLW9tYWUnLCAnPG91dGZpbGUubWFlPic=

> <r_lp_tautomer_probability>
1

> <r_epik_Ionization_Penalty>
2.96456e-05

> <r_epik_Ionization_Penalty_Charging>
0

> <r_epik_Ionization_Penalty_Neutral>
2.96456e-05

> <r_epik_State_Penalty>
-0

> <r_epik_Charging_Adjusted_Penalty>
0

> <i_epik_Tot_Q>
0

> <i_epik_Tot_abs_Q>
0

> <r_epik_Metal_State_Penalty>
-0

> <b_epik_Metal_Only>
0

> <s_lp_Force_Field>
OPLS_2005

> <r_lp_Energy>
26.2197

> <b_lp_Chiralities_Consistent>
1

> <s_lp_Variant>
AV-unprocessed.smi:1418-1

> <Gold.Version>
5.8.1

> <Gold.Id.Protein>
6NUR|6NUR_protein|mol2

> <Gold.PLP.Fitness>
53.0584

> <Gold.PLP.PLP>
-41.6886

> <Gold.PLP.part.hbond>
-3.1664

> <Gold.PLP.part.metal>
0.0000

> <Gold.PLP.part.buried>
-1.7709

> <Gold.PLP.part.nonpolar>
-36.7386

> <Gold.PLP.part.repulsive>
0.0863

> <Gold.PLP.ligand.clash>
0.0000

> <Gold.PLP.ligand.torsion>
0.3066

> <Gold.PLP.Chemscore.Hbond>
3.0000

> <Gold.PLP.Chemscore.CHOScore>
0.9689

> <Gold.PLP.Chemscore.Metal>
0.0000

> <Gold.Chemscore.Hbonds>
donor molecule, donor type, donor heavy atom, donor atom, acceptor molecule, acceptor atom, score
      L1  H    15    30       P1  7948  1.00
      P1  H  7997  8008       L1    13  0.99
      P1  H 10752 10763       L1     1  0.70
      L1  C     5    23       P1  7957  1.00

> <Gold.PLP.Chemscore.Internal.Correction>
0.0762

> <Gold.Rescore>
     Score         DG    S(hbond)    S(metal)    S(lipo)     H(rot)  DE(clash)    DE(int)     intcor
     18.33     -20.22       2.64        0.00      85.69       1.60       0.18       1.71       ----

> <Gold.Chemscore.Fitness>
18.3329

> <Gold.Chemscore.DG>
-20.2171

> <Gold.Chemscore.ZeroCoef>
-5.4800

> <Gold.Chemscore.Hbond>
2.6399

> <Gold.Chemscore.Metal>
0.0000

> <Gold.Chemscore.Lipo>
85.6876

> <Gold.Chemscore.Internal_Hbond>
0.0000

> <Gold.Chemscore.DEClash>
0.1762

> <Gold.Chemscore.DEInternal>
1.7080

> <Gold.Chemscore.Rot>
1.6038

> <Gold.Chemscore.Internal.Correction>
   9.000000E+99

> <Gold.Chemscore.Hbonds>
donor molecule, donor type, donor heavy atom, donor atom, acceptor molecule, acceptor atom, score
      L1  H    15    30       P1  7948  0.61
      P1  H  7997  8008       L1    13  0.74
      P1  H 10752 10763       L1     1  0.07

> <Gold.Chemscore.Hbond.Weighted>
-8.8173

> <Gold.Chemscore.Metal.Weighted>
-0.0000

> <Gold.Chemscore.Lipo.Weighted>
-10.0255

> <Gold.Chemscore.Internal_Hbond.Weighted>
0.0000

> <Gold.Chemscore.DEClash.Weighted>
0.1762

> <Gold.Chemscore.DEInternal.Weighted>
1.7080

> <Gold.Chemscore.Rot.Weighted>
4.1056

> <Gold.Chemscore.Internal.Correction.Weighted>
   9.000000E+99

> <Gold.Protein.RotatedTorsions>
[ 6907 6896 6895 6894 ] final  160.39 input  -60.11 | X-H torsion
[ 7974 7965 7964 7962 ] final  122.15 input  175.53 | X-H torsion
[ 8008 7997 7996 7995 ] final  -68.43 input   59.86 | X-H torsion
[ 10167 10162 10161 10158 ] final  -61.91 input  -65.29 | X-H torsion
[ 10718 10713 10712 10709 ] final  -13.72 input   66.30 | X-H torsion
[ 10763 10752 10751 10750 ] final   84.52 input  -60.55 | X-H torsion
[ 11005 11000 10999 10996 ] final  -12.89 input  -57.11 | X-H torsion

> <Gold.Protein.ActiveResidues>
 VAL166  LYS551  ARG553  GLY616  TRP617  ASP618  TYR619  PRO620  LYS621  CYS622 
 ASP623  PHE694  ASN695  SER759  ASP760  ASP761  ALA762  ILE779  LEU786  VAL792 
 PHE793  MET794  SER795  GLU796  ALA797  LYS798  CYS799  TRP800  GLU811  SER814 

> <Gold.Protein.RotatedAtoms>
  151.9714  133.3727  159.4072 H   0  0  0  0  0  0  0  0  0  0  0  0  # atno 6907 bound_to 6896
  150.6948  134.4136  159.5182 H   0  0  0  0  0  0  0  0  0  0  0  0  # atno 6908 bound_to 6896
  152.1840  134.8729  160.0574 H   0  0  0  0  0  0  0  0  0  0  0  0  # atno 6909 bound_to 6896
  145.1109  139.3453  143.4764 H   0  0  0  0  0  0  0  0  0  0  0  0  # atno 7974 bound_to 7965
  154.4868  140.0873  156.7504 H   0  0  0  0  0  0  0  0  0  0  0  0  # atno 8008 bound_to 7997
  155.4331  140.3450  155.4264 H   0  0  0  0  0  0  0  0  0  0  0  0  # atno 8009 bound_to 7997
  156.1272  140.1491  156.9107 H   0  0  0  0  0  0  0  0  0  0  0  0  # atno 8010 bound_to 7997
  140.5974  143.2354  151.6005 H   0  0  0  0  0  0  0  0  0  0  0  0  # atno 10167 bound_to 10162
  156.6262  130.4889  149.6146 H   0  0  0  0  0  0  0  0  0  0  0  0  # atno 10718 bound_to 10713
  153.1390  135.4651  154.9466 H   0  0  0  0  0  0  0  0  0  0  0  0  # atno 10763 bound_to 10752
  154.7730  135.3164  154.8152 H   0  0  0  0  0  0  0  0  0  0  0  0  # atno 10764 bound_to 10752
  153.8679  135.6906  153.4831 H   0  0  0  0  0  0  0  0  0  0  0  0  # atno 10765 bound_to 10752
  140.7704  133.8443  155.9202 H   0  0  0  0  0  0  0  0  0  0  0  0  # atno 11005 bound_to 11000
  146.3526  140.1027  142.8607 LP  0  0  0  0  0  0  0  0  0  0  0  0  # atno 17320 bound_to 7965
  145.0848  140.9245  143.4804 LP  0  0  0  0  0  0  0  0  0  0  0  0  # atno 17321 bound_to 7965
  139.5267  144.3037  152.1052 LP  0  0  0  0  0  0  0  0  0  0  0  0  # atno 17342 bound_to 10162
  140.2211  144.4465  150.6341 LP  0  0  0  0  0  0  0  0  0  0  0  0  # atno 17343 bound_to 10162
  156.2272  130.6772  151.1427 LP  0  0  0  0  0  0  0  0  0  0  0  0  # atno 17370 bound_to 10713
  157.7213  131.0679  150.6122 LP  0  0  0  0  0  0  0  0  0  0  0  0  # atno 17371 bound_to 10713
  140.9579  134.1694  157.4677 LP  0  0  0  0  0  0  0  0  0  0  0  0  # atno 17394 bound_to 11000
  139.8756  134.9934  156.5641 LP  0  0  0  0  0  0  0  0  0  0  0  0  # atno 17395 bound_to 11000

$$$$
