AV-unprocessed.smi:102|AV-procd|sdf|972|dock4
  -GOLD-   2262017523D 1   1.00000     0.00000
 Structure written by MMmdl.
 43 44  0  0  0  0  0  0  0  0  2 V2000
  146.7506  133.6944  162.0358 C   0  0  0  0  0  0  0  0  0  0  0  0
  147.3795  135.0758  161.9152 C   0  0  0  0  0  0  0  0  0  0  0  0
  147.5518  135.7911  162.9022 O   0  0  0  0  0  0  0  0  0  0  0  0
  147.7024  135.3822  160.6454 O   0  0  0  0  0  0  0  0  0  0  0  0
  148.2903  136.6383  160.3341 C   0  0  0  0  0  0  0  0  0  0  0  0
  148.6170  136.7266  158.8361 C   0  0  1  0  0  0  0  0  0  0  0  0
  149.4437  135.6424  158.4372 O   0  0  0  0  0  0  0  0  0  0  0  0
  149.3499  135.4964  157.0577 C   0  0  2  0  0  0  0  0  0  0  0  0
  150.4246  136.3617  156.4136 N   0  0  0  0  0  0  0  0  0  0  0  0
  150.1132  137.4845  155.6588 C   0  0  0  0  0  0  0  0  0  0  0  0
  151.0740  138.2845  155.1543 C   0  0  0  0  0  0  0  0  0  0  0  0
  150.7334  139.3636  154.4290 F   0  0  0  0  0  0  0  0  0  0  0  0
  152.4777  137.9825  155.4186 C   0  0  0  0  0  0  0  0  0  0  0  0
  153.3515  138.6978  154.9309 O   0  0  0  0  0  0  0  0  0  0  0  0
  152.7579  136.9103  156.2129 N   0  5  0  0  0  0  0  0  0  0  0  0
  151.7873  136.1076  156.7401 C   0  0  0  0  0  0  0  0  0  0  0  0
  152.0396  135.1662  157.4920 O   0  0  0  0  0  0  0  0  0  0  0  0
  147.9140  135.8946  156.6697 C   0  0  1  0  0  0  0  0  0  0  0  0
  147.1333  134.7402  156.3873 O   0  0  0  0  0  0  0  0  0  0  0  0
  147.4749  133.9201  155.3785 C   0  0  0  0  0  0  0  0  0  0  0  0
  146.4346  132.8345  155.1374 C   0  0  0  0  0  0  0  0  0  0  0  0
  148.4986  133.9923  154.6985 O   0  0  0  0  0  0  0  0  0  0  0  0
  147.3843  136.5702  157.9365 C   0  0  2  0  0  0  0  0  0  0  0  0
  146.8282  137.8430  157.6333 O   0  0  0  0  0  0  0  0  0  0  0  0
  146.1794  138.5415  158.5808 C   0  0  0  0  0  0  0  0  0  0  0  0
  145.6426  139.8673  158.0582 C   0  0  0  0  0  0  0  0  0  0  0  0
  146.0045  138.1919  159.7483 O   0  0  0  0  0  0  0  0  0  0  0  0
  147.4181  132.9365  161.6258 H   0  0  0  0  0  0  0  0  0  0  0  0
  145.8081  133.6601  161.4892 H   0  0  0  0  0  0  0  0  0  0  0  0
  146.5530  133.4533  163.0806 H   0  0  0  0  0  0  0  0  0  0  0  0
  147.6659  137.4737  160.6545 H   0  0  0  0  0  0  0  0  0  0  0  0
  149.2164  136.7071  160.9049 H   0  0  0  0  0  0  0  0  0  0  0  0
  149.1258  137.6668  158.6175 H   0  0  0  0  0  0  0  0  0  0  0  0
  149.5774  134.4734  156.7552 H   0  0  0  0  0  0  0  0  0  0  0  0
  149.0870  137.7577  155.4714 H   0  0  0  0  0  0  0  0  0  0  0  0
  147.9066  136.5651  155.8109 H   0  0  0  0  0  0  0  0  0  0  0  0
  145.4533  133.2803  154.9752 H   0  0  0  0  0  0  0  0  0  0  0  0
  146.3762  132.1693  155.9991 H   0  0  0  0  0  0  0  0  0  0  0  0
  146.6945  132.2421  154.2599 H   0  0  0  0  0  0  0  0  0  0  0  0
  146.6565  135.9264  158.4337 H   0  0  0  0  0  0  0  0  0  0  0  0
  146.4250  140.4133  157.5312 H   0  0  0  0  0  0  0  0  0  0  0  0
  145.2829  140.4862  158.8804 H   0  0  0  0  0  0  0  0  0  0  0  0
  144.8163  139.6930  157.3690 H   0  0  0  0  0  0  0  0  0  0  0  0
  1  2  1  0  0  0  0
  1 28  1  0  0  0  0
  1 29  1  0  0  0  0
  1 30  1  0  0  0  0
  2  3  2  0  0  0  0
  2  4  1  0  0  0  0
  4  5  1  0  0  0  0
  5  6  1  0  0  0  0
  5 31  1  0  0  0  0
  5 32  1  0  0  0  0
  6 23  1  0  0  0  0
  6  7  1  0  0  0  0
  6 33  1  0  0  0  0
  7  8  1  0  0  0  0
  8  9  1  0  0  0  0
  8 18  1  0  0  0  0
  8 34  1  0  0  0  0
  9 16  1  0  0  0  0
  9 10  1  0  0  0  0
 10 11  2  0  0  0  0
 10 35  1  0  0  0  0
 11 12  1  0  0  0  0
 11 13  1  0  0  0  0
 13 14  2  0  0  0  0
 13 15  1  0  0  0  0
 15 16  1  0  0  0  0
 16 17  2  0  0  0  0
 18 19  1  0  0  0  0
 18 23  1  0  0  0  0
 18 36  1  0  0  0  0
 19 20  1  0  0  0  0
 20 21  1  0  0  0  0
 20 22  2  0  0  0  0
 21 37  1  0  0  0  0
 21 38  1  0  0  0  0
 21 39  1  0  0  0  0
 23 24  1  0  0  0  0
 23 40  1  0  0  0  0
 24 25  1  0  0  0  0
 25 26  1  0  0  0  0
 25 27  2  0  0  0  0
 26 41  1  0  0  0  0
 26 42  1  0  0  0  0
 26 43  1  0  0  0  0
M  CHG  1  15  -1
M  END
> <s_m_source_file>
AV-unprocessed.smi

> <i_m_source_file_index>
102

> <i_lp_mmshare_version>
43012

> <i_f3d_flags>
0

> <s_epik_input>
W0NIM11DKD1PKU9bQ0gyXVtDQEBIXTFPW0NASF0oW0NAQEhdKE9DKD1PKVtDSDNdKVtDQEhdMU9DKD1PKVtDSDNdKW4yW2NIXWMoRiljKD1PKVtuSF1jMj1P

> <s_epik_cmdline>
J2VwaWtfcHl0aG9uJywgJy1waCcsICc3LjAnLCAnLXRuJywgJzgnLCAnLW1hJywgJzIwMCcsICctbWV0YWxfYmluZGluZycsICctaW1hZScsICc8aW5maWxlLm1hZT4nLCAnLW9tYWUnLCAnPG91dGZpbGUubWFlPic=

> <r_epik_Ionization_Penalty>
1.40304

> <r_epik_Ionization_Penalty_Charging>
1.43915e-08

> <r_epik_Ionization_Penalty_Neutral>
1.40304

> <r_epik_State_Penalty>
1.48536

> <r_epik_Charging_Adjusted_Penalty>
1.48536

> <i_epik_Tot_Q>
-1

> <i_epik_Tot_abs_Q>
1

> <r_epik_Metal_State_Penalty>
0.00663881

> <b_epik_Metal_Only>
0

> <s_epik_Chemistry_Notes>
This compound has an ester and may undergo hydrolysis at high or low pH. This compound contains an acetal/aminal-like group ( X-CH(R)-Y where X, Y are N, S, or O) that may be acid/base labile, releasing an aldehyde.

> <s_lp_Force_Field>
OPLS_2005

> <r_lp_Energy>
19.0054

> <b_lp_Chiralities_Consistent>
1

> <s_lp_Variant>
AV-unprocessed.smi:102-28

> <Gold.Version>
5.8.1

> <Gold.Id.Protein>
6NUR|6NUR_protein|mol2

> <Gold.PLP.Fitness>
38.8986

> <Gold.PLP.PLP>
-28.5702

> <Gold.PLP.part.hbond>
-5.0000

> <Gold.PLP.part.metal>
0.0000

> <Gold.PLP.part.buried>
-5.5279

> <Gold.PLP.part.nonpolar>
-19.3488

> <Gold.PLP.part.repulsive>
0.0790

> <Gold.PLP.ligand.clash>
0.0000

> <Gold.PLP.ligand.torsion>
0.1543

> <Gold.PLP.Chemscore.Hbond>
3.4816

> <Gold.PLP.Chemscore.CHOScore>
0.0000

> <Gold.PLP.Chemscore.Metal>
0.0000

> <Gold.Chemscore.Hbonds>
donor molecule, donor type, donor heavy atom, donor atom, acceptor molecule, acceptor atom, score
      P1  H  6896  6909       L1     7  1.00
      P1  H  6934  6947       L1    27  0.74
      P1  H  7997  8009       L1    14  0.81
      P1  H 10752 10763       L1    15  0.72

> <Gold.PLP.Chemscore.Internal.Correction>
0.1922

> <Gold.Rescore>
     Score         DG    S(hbond)    S(metal)    S(lipo)     H(rot)  DE(clash)    DE(int)     intcor
      3.36      -7.49       2.59        0.00      30.79       4.00       0.09       4.04       ----

> <Gold.Chemscore.Fitness>
3.3594

> <Gold.Chemscore.DG>
-7.4896

> <Gold.Chemscore.ZeroCoef>
-5.4800

> <Gold.Chemscore.Hbond>
2.5854

> <Gold.Chemscore.Metal>
0.0000

> <Gold.Chemscore.Lipo>
30.7852

> <Gold.Chemscore.Internal_Hbond>
0.0000

> <Gold.Chemscore.DEClash>
0.0918

> <Gold.Chemscore.DEInternal>
4.0383

> <Gold.Chemscore.Rot>
3.9951

> <Gold.Chemscore.Internal.Correction>
   9.000000E+99

> <Gold.Chemscore.Hbonds>
donor molecule, donor type, donor heavy atom, donor atom, acceptor molecule, acceptor atom, score
      P1  H  6896  6909       L1     7  0.96
      P1  H  6934  6947       L1    27  0.61
      P1  H  7997  8009       L1    14  0.76
      P1  H 10752 10763       L1    15  0.01

> <Gold.Chemscore.Hbond.Weighted>
-8.6351

> <Gold.Chemscore.Metal.Weighted>
-0.0000

> <Gold.Chemscore.Lipo.Weighted>
-3.6019

> <Gold.Chemscore.Internal_Hbond.Weighted>
0.0000

> <Gold.Chemscore.DEClash.Weighted>
0.0918

> <Gold.Chemscore.DEInternal.Weighted>
4.0383

> <Gold.Chemscore.Rot.Weighted>
10.2274

> <Gold.Chemscore.Internal.Correction.Weighted>
   9.000000E+99

> <Gold.Protein.RotatedTorsions>
[ 6907 6896 6895 6894 ] final   62.46 input  -60.11 | X-H torsion
[ 7974 7965 7964 7962 ] final   60.71 input  175.53 | X-H torsion
[ 8008 7997 7996 7995 ] final -144.55 input   59.86 | X-H torsion
[ 10167 10162 10161 10158 ] final -138.88 input  -65.29 | X-H torsion
[ 10718 10713 10712 10709 ] final -136.39 input   66.30 | X-H torsion
[ 10763 10752 10751 10750 ] final  109.97 input  -60.55 | X-H torsion
[ 11005 11000 10999 10996 ] final -108.64 input  -57.11 | X-H torsion

> <Gold.Protein.ActiveResidues>
 VAL166  LYS551  ARG553  GLY616  TRP617  ASP618  TYR619  PRO620  LYS621  CYS622 
 ASP623  PHE694  ASN695  SER759  ASP760  ASP761  ALA762  ILE779  LEU786  VAL792 
 PHE793  MET794  SER795  GLU796  ALA797  LYS798  CYS799  TRP800  GLU811  SER814 

> <Gold.Protein.RotatedAtoms>
  152.4174  134.6017  160.0001 H   0  0  0  0  0  0  0  0  0  0  0  0  # atno 6907 bound_to 6896
  151.6177  133.3336  159.3089 H   0  0  0  0  0  0  0  0  0  0  0  0  # atno 6908 bound_to 6896
  150.8062  134.7227  159.6712 H   0  0  0  0  0  0  0  0  0  0  0  0  # atno 6909 bound_to 6896
  145.8929  139.3524  143.0638 H   0  0  0  0  0  0  0  0  0  0  0  0  # atno 7974 bound_to 7965
  155.5288  140.0598  157.2893 H   0  0  0  0  0  0  0  0  0  0  0  0  # atno 8008 bound_to 7997
  154.4491  140.1939  156.0518 H   0  0  0  0  0  0  0  0  0  0  0  0  # atno 8009 bound_to 7997
  156.0667  140.3265  155.7530 H   0  0  0  0  0  0  0  0  0  0  0  0  # atno 8010 bound_to 7997
  139.8434  143.7292  152.2662 H   0  0  0  0  0  0  0  0  0  0  0  0  # atno 10167 bound_to 10162
  156.2765  130.7296  151.1280 H   0  0  0  0  0  0  0  0  0  0  0  0  # atno 10718 bound_to 10713
  153.4424  135.3763  155.2235 H   0  0  0  0  0  0  0  0  0  0  0  0  # atno 10763 bound_to 10752
  154.8754  135.3866  154.4137 H   0  0  0  0  0  0  0  0  0  0  0  0  # atno 10764 bound_to 10752
  153.4685  135.7087  153.6071 H   0  0  0  0  0  0  0  0  0  0  0  0  # atno 10765 bound_to 10752
  141.0891  133.9087  157.2117 H   0  0  0  0  0  0  0  0  0  0  0  0  # atno 11005 bound_to 11000
  145.8886  140.9318  143.0564 LP  0  0  0  0  0  0  0  0  0  0  0  0  # atno 17320 bound_to 7965
  144.6731  140.0875  143.7466 LP  0  0  0  0  0  0  0  0  0  0  0  0  # atno 17321 bound_to 7965
  139.7536  144.7527  151.0469 LP  0  0  0  0  0  0  0  0  0  0  0  0  # atno 17342 bound_to 10162
  140.7795  143.4831  150.9991 LP  0  0  0  0  0  0  0  0  0  0  0  0  # atno 17343 bound_to 10162
  157.7301  131.0619  150.5743 LP  0  0  0  0  0  0  0  0  0  0  0  0  # atno 17370 bound_to 10713
  156.5844  130.4313  149.5963 LP  0  0  0  0  0  0  0  0  0  0  0  0  # atno 17371 bound_to 10713
  139.9714  135.0127  156.9520 LP  0  0  0  0  0  0  0  0  0  0  0  0  # atno 17394 bound_to 11000
  140.5294  134.0828  155.7312 LP  0  0  0  0  0  0  0  0  0  0  0  0  # atno 17395 bound_to 11000

$$$$
