AV-unprocessed.smi:661|AV-procd|sdf|3240|dock3
  -GOLD-   22720 0183D 1   1.00000     0.00000
 Structure written by MMmdl.
 31 32  0  0  0  0  0  0  0  0  2 V2000
  147.4038  141.9030  154.5060 C   0  0  0  0  0  0  0  0  0  0  0  0
  148.4515  141.9597  155.5409 N   0  3  0  0  0  0  0  0  0  0  0  0
  149.7430  141.3890  155.1121 C   0  0  0  0  0  0  0  0  0  0  0  0
  150.6062  141.5366  156.3300 C   0  0  0  0  0  0  0  0  0  0  0  0
  150.7135  142.7042  156.9659 N   0  0  0  0  0  0  0  0  0  0  0  0
  151.5640  142.4064  158.0124 C   0  0  0  0  0  0  0  0  0  0  0  0
  152.0646  143.2252  159.0494 C   0  0  0  0  0  0  0  0  0  0  0  0
  152.9302  142.6906  160.0258 C   0  0  0  0  0  0  0  0  0  0  0  0
  153.3057  141.3325  159.9796 C   0  0  0  0  0  0  0  0  0  0  0  0
  152.8185  140.4993  158.9542 C   0  0  0  0  0  0  0  0  0  0  0  0
  151.9558  141.0380  157.9804 C   0  0  0  0  0  0  0  0  0  0  0  0
  151.3132  140.5072  156.8649 N   0  0  0  0  0  0  0  0  0  0  0  0
  151.4047  139.1292  156.4042 C   0  0  0  0  0  0  0  0  0  0  0  0
  151.8423  139.0447  154.9352 C   0  0  0  0  0  0  0  0  0  0  0  0
  153.0946  139.6728  154.7723 O   0  0  0  0  0  0  0  0  0  0  0  0
  146.4823  142.3460  154.8838 H   0  0  0  0  0  0  0  0  0  0  0  0
  147.1955  140.8704  154.2234 H   0  0  0  0  0  0  0  0  0  0  0  0
  147.7090  142.4540  153.6158 H   0  0  0  0  0  0  0  0  0  0  0  0
  148.6027  142.9248  155.7991 H   0  0  0  0  0  0  0  0  0  0  0  0
  149.6356  140.3514  154.8002 H   0  0  0  0  0  0  0  0  0  0  0  0
  150.1641  141.9584  154.2825 H   0  0  0  0  0  0  0  0  0  0  0  0
  151.7826  144.2667  159.0952 H   0  0  0  0  0  0  0  0  0  0  0  0
  153.3072  143.3249  160.8146 H   0  0  0  0  0  0  0  0  0  0  0  0
  153.9685  140.9305  160.7321 H   0  0  0  0  0  0  0  0  0  0  0  0
  153.1061  139.4591  158.9198 H   0  0  0  0  0  0  0  0  0  0  0  0
  152.0838  138.5746  157.0514 H   0  0  0  0  0  0  0  0  0  0  0  0
  150.4287  138.6579  156.5264 H   0  0  0  0  0  0  0  0  0  0  0  0
  151.9255  138.0047  154.6177 H   0  0  0  0  0  0  0  0  0  0  0  0
  151.1182  139.5296  154.2811 H   0  0  0  0  0  0  0  0  0  0  0  0
  153.4749  139.3891  153.9551 H   0  0  0  0  0  0  0  0  0  0  0  0
  148.1313  141.4548  156.3547 H   0  0  0  0  0  0  0  0  0  0  0  0
  1  2  1  0  0  0  0
  1 16  1  0  0  0  0
  1 17  1  0  0  0  0
  1 18  1  0  0  0  0
  2  3  1  0  0  0  0
  2 19  1  0  0  0  0
  2 31  1  0  0  0  0
  3  4  1  0  0  0  0
  3 20  1  0  0  0  0
  3 21  1  0  0  0  0
  4 12  1  0  0  0  0
  4  5  2  0  0  0  0
  5  6  1  0  0  0  0
  6 11  2  0  0  0  0
  6  7  1  0  0  0  0
  7  8  2  0  0  0  0
  7 22  1  0  0  0  0
  8  9  1  0  0  0  0
  8 23  1  0  0  0  0
  9 10  2  0  0  0  0
  9 24  1  0  0  0  0
 10 11  1  0  0  0  0
 10 25  1  0  0  0  0
 11 12  1  0  0  0  0
 12 13  1  0  0  0  0
 13 14  1  0  0  0  0
 13 26  1  0  0  0  0
 13 27  1  0  0  0  0
 14 15  1  0  0  0  0
 14 28  1  0  0  0  0
 14 29  1  0  0  0  0
 15 30  1  0  0  0  0
M  CHG  1   2   1
M  END
> <s_m_source_file>
AV-unprocessed.smi

> <i_m_source_file_index>
661

> <i_lp_mmshare_version>
43012

> <i_f3d_flags>
0

> <s_epik_input>
W0NIM11bTkhdW0NIMl1jKG4xKW4oW0NIMl1bQ0gyXVtPSF0pYyhjMTIpW2NIXVtjSF1bY0hdW2NIXTI=

> <s_epik_cmdline>
J2VwaWtfcHl0aG9uJywgJy1waCcsICc3LjAnLCAnLXRuJywgJzgnLCAnLW1hJywgJzIwMCcsICctbWV0YWxfYmluZGluZycsICctaW1hZScsICc8aW5maWxlLm1hZT4nLCAnLW9tYWUnLCAnPG91dGZpbGUubWFlPic=

> <r_epik_Ionization_Penalty>
0.0286345

> <r_epik_Ionization_Penalty_Charging>
0.0274522

> <r_epik_Ionization_Penalty_Neutral>
0.00118227

> <r_epik_State_Penalty>
0.0285474

> <r_epik_Charging_Adjusted_Penalty>
0.0559996

> <i_epik_Tot_Q>
1

> <i_epik_Tot_abs_Q>
1

> <r_epik_Metal_State_Penalty>
0.0289981

> <b_epik_Metal_Only>
0

> <s_lp_Force_Field>
OPLS_2005

> <r_lp_Energy>
8.55155

> <b_lp_Chiralities_Consistent>
1

> <s_lp_Variant>
AV-unprocessed.smi:661-1

> <Gold.Version>
5.8.1

> <Gold.Id.Protein>
6NUR|6NUR_protein|mol2

> <Gold.PLP.Fitness>
44.4449

> <Gold.PLP.PLP>
-35.6577

> <Gold.PLP.part.hbond>
-3.0000

> <Gold.PLP.part.metal>
0.0000

> <Gold.PLP.part.buried>
-4.1262

> <Gold.PLP.part.nonpolar>
-29.3624

> <Gold.PLP.part.repulsive>
0.9523

> <Gold.PLP.ligand.clash>
0.0000

> <Gold.PLP.ligand.torsion>
0.1089

> <Gold.PLP.Chemscore.Hbond>
3.0000

> <Gold.PLP.Chemscore.CHOScore>
0.0000

> <Gold.PLP.Chemscore.Metal>
0.0000

> <Gold.Chemscore.Hbonds>
donor molecule, donor type, donor heavy atom, donor atom, acceptor molecule, acceptor atom, score
      L1  H     2    19       P1  8028  2.00
      P1  H  7997  8008       L1    15  1.00

> <Gold.PLP.Chemscore.Internal.Correction>
0.0050

> <Gold.Rescore>
     Score         DG    S(hbond)    S(metal)    S(lipo)     H(rot)  DE(clash)    DE(int)     intcor
     15.36     -15.56       1.97        0.00      82.74       2.41       0.04       0.16       ----

> <Gold.Chemscore.Fitness>
15.3606

> <Gold.Chemscore.DG>
-15.5649

> <Gold.Chemscore.ZeroCoef>
-5.4800

> <Gold.Chemscore.Hbond>
1.9677

> <Gold.Chemscore.Metal>
0.0000

> <Gold.Chemscore.Lipo>
82.7437

> <Gold.Chemscore.Internal_Hbond>
0.0000

> <Gold.Chemscore.DEClash>
0.0402

> <Gold.Chemscore.DEInternal>
0.1641

> <Gold.Chemscore.Rot>
2.4094

> <Gold.Chemscore.Internal.Correction>
   9.000000E+99

> <Gold.Chemscore.Hbonds>
donor molecule, donor type, donor heavy atom, donor atom, acceptor molecule, acceptor atom, score
      L1  H     2    19       P1  8028  0.99
      P1  H  7997  8008       L1    15  0.78

> <Gold.Chemscore.Hbond.Weighted>
-6.5720

> <Gold.Chemscore.Metal.Weighted>
-0.0000

> <Gold.Chemscore.Lipo.Weighted>
-9.6810

> <Gold.Chemscore.Internal_Hbond.Weighted>
0.0000

> <Gold.Chemscore.DEClash.Weighted>
0.0402

> <Gold.Chemscore.DEInternal.Weighted>
0.1641

> <Gold.Chemscore.Rot.Weighted>
6.1681

> <Gold.Chemscore.Internal.Correction.Weighted>
   9.000000E+99

> <Gold.Protein.RotatedTorsions>
[ 6907 6896 6895 6894 ] final    3.12 input  -60.11 | X-H torsion
[ 7974 7965 7964 7962 ] final  -53.86 input  175.53 | X-H torsion
[ 8008 7997 7996 7995 ] final  -23.11 input   59.86 | X-H torsion
[ 10167 10162 10161 10158 ] final  -75.92 input  -65.29 | X-H torsion
[ 10718 10713 10712 10709 ] final  134.09 input   66.30 | X-H torsion
[ 10763 10752 10751 10750 ] final  -23.93 input  -60.55 | X-H torsion
[ 11005 11000 10999 10996 ] final   65.25 input  -57.11 | X-H torsion

> <Gold.Protein.ActiveResidues>
 VAL166  LYS551  ARG553  GLY616  TRP617  ASP618  TYR619  PRO620  LYS621  CYS622 
 ASP623  PHE694  ASN695  SER759  ASP760  ASP761  ALA762  ILE779  LEU786  VAL792 
 PHE793  MET794  SER795  GLU796  ALA797  LYS798  CYS799  TRP800  GLU811  SER814 

> <Gold.Protein.RotatedAtoms>
  151.6199  135.1033  160.0099 H   0  0  0  0  0  0  0  0  0  0  0  0  # atno 6907 bound_to 6896
  152.4163  133.7040  159.6451 H   0  0  0  0  0  0  0  0  0  0  0  0  # atno 6908 bound_to 6896
  150.8052  133.8450  159.3230 H   0  0  0  0  0  0  0  0  0  0  0  0  # atno 6909 bound_to 6896
  145.8921  140.8062  142.9786 H   0  0  0  0  0  0  0  0  0  0  0  0  # atno 7974 bound_to 7965
  154.4604  140.1989  156.0261 H   0  0  0  0  0  0  0  0  0  0  0  0  # atno 8008 bound_to 7997
  156.0829  140.3269  155.7688 H   0  0  0  0  0  0  0  0  0  0  0  0  # atno 8009 bound_to 7997
  155.5083  140.0559  157.2918 H   0  0  0  0  0  0  0  0  0  0  0  0  # atno 8010 bound_to 7997
  140.4901  143.2382  151.7920 H   0  0  0  0  0  0  0  0  0  0  0  0  # atno 10167 bound_to 10162
  157.4708  131.1080  150.9805 H   0  0  0  0  0  0  0  0  0  0  0  0  # atno 10718 bound_to 10713
  153.6756  135.6969  153.5133 H   0  0  0  0  0  0  0  0  0  0  0  0  # atno 10763 bound_to 10752
  153.2524  135.4271  155.0810 H   0  0  0  0  0  0  0  0  0  0  0  0  # atno 10764 bound_to 10752
  154.8414  135.3534  154.6300 H   0  0  0  0  0  0  0  0  0  0  0  0  # atno 10765 bound_to 10752
  139.9906  134.6597  156.0098 H   0  0  0  0  0  0  0  0  0  0  0  0  # atno 11005 bound_to 11000
  144.6731  140.1545  143.7427 LP  0  0  0  0  0  0  0  0  0  0  0  0  # atno 17320 bound_to 7965
  145.8896  139.2368  143.1557 LP  0  0  0  0  0  0  0  0  0  0  0  0  # atno 17321 bound_to 7965
  139.4849  144.4660  151.9483 LP  0  0  0  0  0  0  0  0  0  0  0  0  # atno 17342 bound_to 10162
  140.3747  144.2812  150.5915 LP  0  0  0  0  0  0  0  0  0  0  0  0  # atno 17343 bound_to 10162
  157.0571  130.5810  149.5379 LP  0  0  0  0  0  0  0  0  0  0  0  0  # atno 17370 bound_to 10713
  156.0072  130.5160  150.7870 LP  0  0  0  0  0  0  0  0  0  0  0  0  # atno 17371 bound_to 10713
  141.1562  133.6542  156.4171 LP  0  0  0  0  0  0  0  0  0  0  0  0  # atno 17394 bound_to 11000
  140.4916  134.6570  157.5213 LP  0  0  0  0  0  0  0  0  0  0  0  0  # atno 17395 bound_to 11000

$$$$
