#       Name:                AV-unprocessed.smi:16
#       Creating user name   scv26
#       Creation time:       Thu Mar 26 15:24:15 2020


#       File generated by GOLD software.
#

@<TRIPOS>MOLECULE
AV-unprocessed.smi:16
    70    74     1
SMALL
NO_CHARGES


@<TRIPOS>ATOM
      1 ****        -2.4364  -1.7050  -3.9295 C.3            1 S1                 0.0000
      2 ****        -2.3151  -1.1316  -2.5101 C.3            1 S1                 0.0000
      3 ****        -3.1315   0.0718  -2.3307 N.3            1 S1                 0.0000
      4 ****        -4.5813  -0.1660  -2.3408 C.3            1 S1                 0.0000
      5 ****        -5.0759  -0.8956  -1.0744 C.3            1 S1                 0.0000
      6 ****        -4.6635  -0.1207   0.1816 C.3            1 S1                 0.0000
      7 ****        -5.0318  -0.8449   1.3509 O.3            1 S1                 0.0000
      8 ****        -4.7155  -0.1225   2.5375 C.3            1 S1                 0.0000
      9 ****        -3.2006   0.1409   2.5998 C.3            1 S1                 0.0000
     10 ****        -2.7493   0.8124   1.3855 N.3            1 S1                 0.0000
     11 ****        -1.4509   1.1781   1.4722 C.ar           1 S1                 0.0000
     12 ****        -1.1980   2.4794   1.7550 N.ar           1 S1                 0.0000
     13 ****         0.0637   2.9116   1.8395 C.ar           1 S1                 0.0000
     14 ****         1.1951   2.2219   1.6784 N.ar           1 S1                 0.0000
     15 ****         0.9427   0.9102   1.4013 C.ar           1 S1                 0.0000
     16 ****        -0.3405   0.3050   1.2906 C.ar           1 S1                 0.0000
     17 ****        -0.2020  -1.0519   1.0240 N.2            1 S1                 0.0000
     18 ****         1.0886  -1.2374   0.9760 C.2            1 S1                 0.0000
     19 ****         1.8506  -0.1057   1.1598 N.pl3          1 S1                 0.0000
     20 ****         3.2812  -0.0261   1.1839 C.3            1 S1                 0.0000
     21 ****         4.0183   1.0765   0.4209 C.3            1 S1                 0.0000
     22 ****         5.1917   0.1045   0.1625 C.3            1 S1                 0.0000
     23 ****         5.7951   0.1551  -1.2506 C.3            1 S1                 0.0000
     24 ****         6.5226  -1.0220  -1.5374 O.3            1 S1                 0.0000
     25 ****         6.3293   0.1554   1.2021 C.3            1 S1                 0.0000
     26 ****         6.9946   1.4020   1.1793 O.3            1 S1                 0.0000
     27 ****         4.1448  -1.0083   0.3887 C.3            1 S1                 0.0000
     28 ****        -3.1386   0.0928   0.1717 C.3            1 S1                 0.0000
     29 ****        -2.7379   0.8247  -1.1352 C.3            1 S1                 0.0000
     30 ****        -5.1759   0.8438   0.1813 H              1 S1                 0.0000
     31 ****        -2.6621  -0.8866   0.1992 H              1 S1                 0.0000
     32 ****        -1.7184  -2.5120  -4.0755 H              1 S1                 0.0000
     33 ****        -2.2331  -0.9436  -4.6830 H              1 S1                 0.0000
     34 ****        -3.4261  -2.1186  -4.1214 H              1 S1                 0.0000
     35 ****        -2.5596  -1.8954  -1.7728 H              1 S1                 0.0000
     36 ****        -1.2695  -0.8685  -2.3456 H              1 S1                 0.0000
     37 ****        -5.0786   0.8024  -2.4084 H              1 S1                 0.0000
     38 ****        -4.8767  -0.7133  -3.2348 H              1 S1                 0.0000
     39 ****        -6.1612  -0.9937  -1.1066 H              1 S1                 0.0000
     40 ****        -4.6805  -1.9109  -1.0387 H              1 S1                 0.0000
     41 ****        -5.2731   0.8151   2.5645 H              1 S1                 0.0000
     42 ****        -5.0316  -0.7053   3.4027 H              1 S1                 0.0000
     43 ****        -2.9663   0.7496   3.4743 H              1 S1                 0.0000
     44 ****        -2.6665  -0.8037   2.7136 H              1 S1                 0.0000
     45 ****         0.1841   3.9614   2.0630 H              1 S1                 0.0000
     46 ****         1.5205  -2.2110   0.7951 H              1 S1                 0.0000
     47 ****         3.5665  -0.0237   2.2373 H              1 S1                 0.0000
     48 ****         3.4953   1.3684  -0.4918 H              1 S1                 0.0000
     49 ****         4.2639   1.9517   1.0232 H              1 S1                 0.0000
     50 ****         5.0115   0.2518  -2.0027 H              1 S1                 0.0000
     51 ****         6.4492   1.0176  -1.3792 H              1 S1                 0.0000
     52 ****         6.8678  -0.9550  -2.4147 H              1 S1                 0.0000
     53 ****         5.9470   0.0022   2.2115 H              1 S1                 0.0000
     54 ****         7.0601  -0.6357   1.0333 H              1 S1                 0.0000
     55 ****         7.6710   1.3928   1.8390 H              1 S1                 0.0000
     56 ****         4.5022  -1.8639   0.9626 H              1 S1                 0.0000
     57 ****         3.6659  -1.3323  -0.5374 H              1 S1                 0.0000
     58 ****        -1.6635   1.0071  -1.1737 H              1 S1                 0.0000
     59 ****        -3.2144   1.8055  -1.1671 H              1 S1                 0.0000
     60 ****        -2.9411   0.6266  -3.1406 LP             1 S1                 0.0000
     61 ****        -4.5409  -1.7161   1.3609 LP             1 S1                 0.0000
     62 ****        -6.0165  -1.0174   1.3289 LP             1 S1                 0.0000
     63 ****        -3.2398   1.6796   1.3001 LP             1 S1                 0.0000
     64 ****        -1.9554   3.1159   1.9004 LP             1 S1                 0.0000
     65 ****         2.1111   2.6164   1.7515 LP             1 S1                 0.0000
     66 ****        -0.9256  -1.7305   0.8979 LP             1 S1                 0.0000
     67 ****         5.9185  -1.8162  -1.4724 LP             1 S1                 0.0000
     68 ****         7.2746  -1.1210  -0.8857 LP             1 S1                 0.0000
     69 ****         6.3435   2.1355   1.3740 LP             1 S1                 0.0000
     70 ****         7.4037   1.5497   0.2788 LP             1 S1                 0.0000
@<TRIPOS>BOND
    1    1    2 1     
    2    1   32 1     
    3    1   33 1     
    4    1   34 1     
    5    2    3 1     
    6    2   35 1     
    7    2   36 1     
    8    3   29 1     
    9    3    4 1     
   10    4    5 1     
   11    4   37 1     
   12    4   38 1     
   13    5    6 1     
   14    5   39 1     
   15    5   40 1     
   16    6   30 1     
   17    6   28 1     
   18    6    7 1     
   19    7    8 1     
   20    8    9 1     
   21    8   41 1     
   22    8   42 1     
   23    9   10 1     
   24    9   43 1     
   25    9   44 1     
   26   10   11 1     
   27   10   28 1     
   28   11   16 ar    
   29   11   12 ar    
   30   12   13 ar    
   31   13   14 ar    
   32   13   45 1     
   33   14   15 ar    
   34   15   19 1     
   35   15   16 ar    
   36   16   17 1     
   37   17   18 2     
   38   18   19 1     
   39   18   46 1     
   40   19   20 1     
   41   20   27 1     
   42   20   21 1     
   43   20   47 1     
   44   21   22 1     
   45   21   48 1     
   46   21   49 1     
   47   22   23 1     
   48   22   25 1     
   49   22   27 1     
   50   23   24 1     
   51   23   50 1     
   52   23   51 1     
   53   24   52 1     
   54   25   26 1     
   55   25   53 1     
   56   25   54 1     
   57   26   55 1     
   58   27   56 1     
   59   27   57 1     
   60   28   31 1     
   61   28   29 1     
   62   29   58 1     
   63   29   59 1     
   64    3   60 1     
   65    7   61 1     
   66    7   62 1     
   67   10   63 1     
   68   12   64 1     
   69   14   65 1     
   70   17   66 1     
   71   24   67 1     
   72   24   68 1     
   73   26   69 1     
   74   26   70 1     
@<TRIPOS>SUBSTRUCTURE
      1 S1             1
@<TRIPOS>SET
LONE_PAIRS      STATIC     ATOMS    <user>   **** ""
11 60 61 62 63 64 65 66 67 68 69 70
DONOR_HYDROGENS      STATIC     ATOMS    <user>   **** ""
2 52 55
ATOM$BLUE        STATIC     ATOMS    COLORGROUP SYSTEM
11 60 61 62 63 64 65 66 67 68 69 70
ATOM$RED        STATIC     ATOMS    COLORGROUP SYSTEM
2 52 55
