AV-unprocessed.smi:2784|AV-procd|sdf|10740|dock1
  -GOLD-   2272015173D 1   1.00000     0.00000
 Structure written by MMmdl.
 31 32  0  0  0  0  0  0  0  0  1 V2000
  149.9565  128.4186  154.1828 C   0  0  0  0  0  0  0  0  0  0  0  0
  149.0169  129.0532  153.3310 O   0  0  0  0  0  0  0  0  0  0  0  0
  147.7899  128.3406  153.1972 C   0  0  2  0  0  0  0  0  0  0  0  0
  148.1409  126.9695  152.6170 C   0  0  0  0  0  0  0  0  0  0  0  0
  148.2520  127.2135  151.1149 C   0  0  0  0  0  0  0  0  0  0  0  0
  147.1610  128.2426  150.8087 C   0  0  0  0  0  0  0  0  0  0  0  0
  146.8784  128.9883  152.1283 C   0  0  2  0  0  0  0  0  0  0  0  0
  147.1037  130.4249  151.9773 N   0  0  0  0  0  0  0  0  0  0  0  0
  146.1575  131.3403  151.7206 C   0  0  0  0  0  0  0  0  0  0  0  0
  144.9731  131.0203  151.5780 O   0  0  0  0  0  0  0  0  0  0  0  0
  146.7254  132.6048  151.6642 N   0  0  0  0  0  0  0  0  0  0  0  0
  146.0006  133.6211  151.3115 C   0  0  0  0  0  0  0  0  0  0  0  0
  146.3959  134.9451  151.2074 N   0  0  0  0  0  0  0  0  0  0  0  0
  145.3170  135.6813  150.8021 C   0  0  0  0  0  0  0  0  0  0  0  0
  144.2843  134.8562  150.6568 C   0  0  0  0  0  0  0  0  0  0  0  0
  144.6701  133.5858  150.9620 O   0  0  0  0  0  0  0  0  0  0  0  0
  150.8495  129.0374  154.2675 H   0  0  0  0  0  0  0  0  0  0  0  0
  150.2549  127.4495  153.7810 H   0  0  0  0  0  0  0  0  0  0  0  0
  149.5519  128.2712  155.1845 H   0  0  0  0  0  0  0  0  0  0  0  0
  147.2749  128.2342  154.1543 H   0  0  0  0  0  0  0  0  0  0  0  0
  149.0500  126.5467  153.0458 H   0  0  0  0  0  0  0  0  0  0  0  0
  147.3268  126.2701  152.8125 H   0  0  0  0  0  0  0  0  0  0  0  0
  149.2308  127.6371  150.8861 H   0  0  0  0  0  0  0  0  0  0  0  0
  148.1415  126.2990  150.5316 H   0  0  0  0  0  0  0  0  0  0  0  0
  147.4658  128.9070  149.9988 H   0  0  0  0  0  0  0  0  0  0  0  0
  146.2548  127.7337  150.4780 H   0  0  0  0  0  0  0  0  0  0  0  0
  145.8356  128.8036  152.3934 H   0  0  0  0  0  0  0  0  0  0  0  0
  148.0528  130.7493  152.0933 H   0  0  0  0  0  0  0  0  0  0  0  0
  147.3061  135.3420  151.3904 H   0  0  0  0  0  0  0  0  0  0  0  0
  145.4067  136.7478  150.6568 H   0  0  0  0  0  0  0  0  0  0  0  0
  143.2582  135.0101  150.3574 H   0  0  0  0  0  0  0  0  0  0  0  0
  1  2  1  0  0  0  0
  1 17  1  0  0  0  0
  1 18  1  0  0  0  0
  1 19  1  0  0  0  0
  2  3  1  0  0  0  0
  3  7  1  0  0  0  0
  3  4  1  0  0  0  0
  3 20  1  0  0  0  0
  4  5  1  0  0  0  0
  4 21  1  0  0  0  0
  4 22  1  0  0  0  0
  5  6  1  0  0  0  0
  5 23  1  0  0  0  0
  5 24  1  0  0  0  0
  6  7  1  0  0  0  0
  6 25  1  0  0  0  0
  6 26  1  0  0  0  0
  7  8  1  0  0  0  0
  7 27  1  0  0  0  0
  8 28  1  0  0  0  0
  8  9  1  0  0  0  0
  9 11  1  0  0  0  0
  9 10  2  0  0  0  0
 11 12  2  0  0  0  0
 12 16  1  0  0  0  0
 12 13  1  0  0  0  0
 13 29  1  0  0  0  0
 13 14  1  0  0  0  0
 14 30  1  0  0  0  0
 14 15  2  0  0  0  0
 15 31  1  0  0  0  0
 15 16  1  0  0  0  0
M  END
> <s_m_source_file>
AV-unprocessed.smi

> <i_m_source_file_index>
2784

> <i_lp_mmshare_version>
43012

> <i_f3d_flags>
0

> <s_epik_input>
W0NIM11PW0NAQEhdMVtDSDJdW0NIMl1bQ0gyXVtDQEhdMVtOSF1DKD1PKVtOSF1jMm5bY0hdW2NIXW8y

> <s_epik_cmdline>
J2VwaWtfcHl0aG9uJywgJy1waCcsICc3LjAnLCAnLXRuJywgJzgnLCAnLW1hJywgJzIwMCcsICctbWV0YWxfYmluZGluZycsICctaW1hZScsICc8aW5maWxlLm1hZT4nLCAnLW9tYWUnLCAnPG91dGZpbGUubWFlPic=

> <r_lp_tautomer_probability>
0.107061

> <r_epik_Ionization_Penalty>
1.29244

> <r_epik_Ionization_Penalty_Charging>
1.29208

> <r_epik_Ionization_Penalty_Neutral>
0.000359742

> <r_epik_State_Penalty>
2.59896

> <r_epik_Charging_Adjusted_Penalty>
3.89105

> <i_epik_Tot_Q>
0

> <i_epik_Tot_abs_Q>
0

> <r_epik_Metal_State_Penalty>
3.62496

> <b_epik_Metal_Only>
0

> <s_lp_Force_Field>
OPLS_2005

> <r_lp_Energy>
45.4205

> <b_lp_Chiralities_Consistent>
1

> <s_lp_Variant>
AV-unprocessed.smi:2784-15

> <Gold.Version>
5.8.1

> <Gold.Id.Protein>
6NUR|6NUR_protein|mol2

> <Gold.PLP.Fitness>
36.7786

> <Gold.PLP.PLP>
-28.0177

> <Gold.PLP.part.hbond>
-2.0000

> <Gold.PLP.part.metal>
0.0000

> <Gold.PLP.part.buried>
-4.0912

> <Gold.PLP.part.nonpolar>
-22.2223

> <Gold.PLP.part.repulsive>
0.6955

> <Gold.PLP.ligand.clash>
0.0000

> <Gold.PLP.ligand.torsion>
0.3579

> <Gold.PLP.Chemscore.Hbond>
1.1544

> <Gold.PLP.Chemscore.CHOScore>
2.0000

> <Gold.PLP.Chemscore.Metal>
0.0000

> <Gold.Chemscore.Hbonds>
donor molecule, donor type, donor heavy atom, donor atom, acceptor molecule, acceptor atom, score
      L1  H     8    28       P1 10747  0.21
      L1  H    13    29       P1  7948  1.00
      L1  C    14    30       P1 10171  0.99
      L1  C    15    31       P1 10186  1.00

> <Gold.PLP.Chemscore.Internal.Correction>
0.0134

> <Gold.Rescore>
     Score         DG    S(hbond)    S(metal)    S(lipo)     H(rot)  DE(clash)    DE(int)     intcor
     12.67     -15.68       1.89        0.00      62.27       1.32       1.39       1.61       ----

> <Gold.Chemscore.Fitness>
12.6737

> <Gold.Chemscore.DG>
-15.6751

> <Gold.Chemscore.ZeroCoef>
-5.4800

> <Gold.Chemscore.Hbond>
1.8855

> <Gold.Chemscore.Metal>
0.0000

> <Gold.Chemscore.Lipo>
62.2719

> <Gold.Chemscore.Internal_Hbond>
0.0000

> <Gold.Chemscore.DEClash>
1.3910

> <Gold.Chemscore.DEInternal>
1.6104

> <Gold.Chemscore.Rot>
1.3235

> <Gold.Chemscore.Internal.Correction>
   9.000000E+99

> <Gold.Chemscore.Hbonds>
donor molecule, donor type, donor heavy atom, donor atom, acceptor molecule, acceptor atom, score
      L1  H     8    28       P1 10747  0.19
      L1  H    13    29       P1  7948  0.85

> <Gold.Chemscore.Hbond.Weighted>
-6.2975

> <Gold.Chemscore.Metal.Weighted>
-0.0000

> <Gold.Chemscore.Lipo.Weighted>
-7.2858

> <Gold.Chemscore.Internal_Hbond.Weighted>
0.0000

> <Gold.Chemscore.DEClash.Weighted>
1.3910

> <Gold.Chemscore.DEInternal.Weighted>
1.6104

> <Gold.Chemscore.Rot.Weighted>
3.3882

> <Gold.Chemscore.Internal.Correction.Weighted>
   9.000000E+99

> <Gold.Protein.RotatedTorsions>
[ 6907 6896 6895 6894 ] final  -27.10 input  -60.11 | X-H torsion
[ 7974 7965 7964 7962 ] final  -44.54 input  175.53 | X-H torsion
[ 8008 7997 7996 7995 ] final  141.90 input   59.86 | X-H torsion
[ 10167 10162 10161 10158 ] final -132.15 input  -65.29 | X-H torsion
[ 10718 10713 10712 10709 ] final  -47.15 input   66.30 | X-H torsion
[ 10763 10752 10751 10750 ] final   31.60 input  -60.55 | X-H torsion
[ 11005 11000 10999 10996 ] final  -75.16 input  -57.11 | X-H torsion

> <Gold.Protein.ActiveResidues>
 VAL166  LYS551  ARG553  GLY616  TRP617  ASP618  TYR619  PRO620  LYS621  CYS622 
 ASP623  PHE694  ASN695  SER759  ASP760  ASP761  ALA762  ILE779  LEU786  VAL792 
 PHE793  MET794  SER795  GLU796  ALA797  LYS798  CYS799  TRP800  GLU811  SER814 

> <Gold.Protein.RotatedAtoms>
  151.1517  135.0230  159.8670 H   0  0  0  0  0  0  0  0  0  0  0  0  # atno 6907 bound_to 6896
  152.5452  134.1381  159.8477 H   0  0  0  0  0  0  0  0  0  0  0  0  # atno 6908 bound_to 6896
  151.1467  133.4889  159.2628 H   0  0  0  0  0  0  0  0  0  0  0  0  # atno 6909 bound_to 6896
  145.9910  140.7180  142.9317 H   0  0  0  0  0  0  0  0  0  0  0  0  # atno 7974 bound_to 7965
  156.2958  140.2303  156.4640 H   0  0  0  0  0  0  0  0  0  0  0  0  # atno 8008 bound_to 7997
  154.7994  140.0449  157.1282 H   0  0  0  0  0  0  0  0  0  0  0  0  # atno 8009 bound_to 7997
  154.9552  140.3047  155.5060 H   0  0  0  0  0  0  0  0  0  0  0  0  # atno 8010 bound_to 7997
  139.9115  143.6488  152.2574 H   0  0  0  0  0  0  0  0  0  0  0  0  # atno 10167 bound_to 10162
  156.2113  130.4161  149.9111 H   0  0  0  0  0  0  0  0  0  0  0  0  # atno 10718 bound_to 10713
  153.0307  135.6435  154.1224 H   0  0  0  0  0  0  0  0  0  0  0  0  # atno 10763 bound_to 10752
  154.0947  135.2864  155.3266 H   0  0  0  0  0  0  0  0  0  0  0  0  # atno 10764 bound_to 10752
  154.6440  135.5449  153.7886 H   0  0  0  0  0  0  0  0  0  0  0  0  # atno 10765 bound_to 10752
  141.1643  133.6937  156.7475 H   0  0  0  0  0  0  0  0  0  0  0  0  # atno 11005 bound_to 11000
  144.6889  140.3070  143.7254 LP  0  0  0  0  0  0  0  0  0  0  0  0  # atno 17320 bound_to 7965
  145.7630  139.1831  143.2256 LP  0  0  0  0  0  0  0  0  0  0  0  0  # atno 17321 bound_to 7965
  139.6938  144.7644  151.1392 LP  0  0  0  0  0  0  0  0  0  0  0  0  # atno 17342 bound_to 10162
  140.7684  143.5552  150.9160 LP  0  0  0  0  0  0  0  0  0  0  0  0  # atno 17343 bound_to 10162
  156.6789  130.8850  151.3573 LP  0  0  0  0  0  0  0  0  0  0  0  0  # atno 17370 bound_to 10713
  157.7040  130.9364  150.0872 LP  0  0  0  0  0  0  0  0  0  0  0  0  # atno 17371 bound_to 10713
  140.2629  134.8453  157.3775 LP  0  0  0  0  0  0  0  0  0  0  0  0  # atno 17394 bound_to 11000
  140.1594  134.4747  155.7905 LP  0  0  0  0  0  0  0  0  0  0  0  0  # atno 17395 bound_to 11000

$$$$
