AV-unprocessed.smi:942|AV-procd|sdf|4221|dock4
  -GOLD-   22720 2133D 1   1.00000     0.00000
 Structure written by MMmdl.
 43 45  0  0  0  0  0  0  0  0  2 V2000
  151.5081  139.8840  158.6262 O   0  0  0  0  0  0  0  0  0  0  0  0
  151.4487  140.8819  157.9068 C   0  0  0  0  0  0  0  0  0  0  0  0
  150.7731  140.9103  156.7473 N   0  0  0  0  0  0  0  0  0  0  0  0
  150.0307  139.7841  156.1881 C   0  0  2  0  0  0  0  0  0  0  0  0
  150.8978  138.5098  156.1710 C   0  0  0  0  0  0  0  0  0  0  0  0
  151.1137  138.1492  154.6984 C   0  0  0  0  0  0  0  0  0  0  0  0
  149.8930  138.7180  153.9815 C   0  0  0  0  0  0  0  0  0  0  0  0
  149.6324  140.0379  154.7145 C   0  0  1  0  0  0  0  0  0  0  0  0
  148.2661  140.5548  154.5429 N   0  0  0  0  0  0  0  0  0  0  0  0
  147.7227  141.6552  155.1562 C   0  0  0  0  0  0  0  0  0  0  0  0
  146.4277  141.7515  154.7169 C   0  0  0  0  0  0  0  0  0  0  0  0
  146.2338  140.7084  153.8519 N   0  3  0  0  0  0  0  0  0  0  0  0
  147.3516  139.9830  153.7463 C   0  0  0  0  0  0  0  0  0  0  0  0
  152.1620  142.1758  158.3187 C   0  0  0  0  0  0  0  0  0  0  0  0
  152.2463  142.2942  159.8557 C   0  0  0  0  0  0  0  0  0  0  0  0
  152.9450  143.5967  160.2782 C   0  0  0  0  0  0  0  0  0  0  0  0
  152.2417  144.8245  159.6786 C   0  0  0  0  0  0  0  0  0  0  0  0
  152.1428  144.7156  158.1489 C   0  0  0  0  0  0  0  0  0  0  0  0
  151.4489  143.4102  157.7259 C   0  0  0  0  0  0  0  0  0  0  0  0
  150.7731  141.7695  156.2166 H   0  0  0  0  0  0  0  0  0  0  0  0
  149.1557  139.5878  156.8105 H   0  0  0  0  0  0  0  0  0  0  0  0
  151.8456  138.6248  156.6991 H   0  0  0  0  0  0  0  0  0  0  0  0
  150.3568  137.7010  156.6640 H   0  0  0  0  0  0  0  0  0  0  0  0
  152.0158  138.6392  154.3292 H   0  0  0  0  0  0  0  0  0  0  0  0
  151.2308  137.0765  154.5422 H   0  0  0  0  0  0  0  0  0  0  0  0
  150.0623  138.8580  152.9135 H   0  0  0  0  0  0  0  0  0  0  0  0
  149.0533  138.0319  154.0993 H   0  0  0  0  0  0  0  0  0  0  0  0
  150.3096  140.7805  154.2872 H   0  0  0  0  0  0  0  0  0  0  0  0
  148.2813  142.2694  155.8475 H   0  0  0  0  0  0  0  0  0  0  0  0
  145.6501  142.4643  154.9501 H   0  0  0  0  0  0  0  0  0  0  0  0
  147.4855  139.1038  153.1414 H   0  0  0  0  0  0  0  0  0  0  0  0
  153.1796  142.1481  157.9242 H   0  0  0  0  0  0  0  0  0  0  0  0
  151.2462  142.2676  160.2917 H   0  0  0  0  0  0  0  0  0  0  0  0
  152.7859  141.4411  160.2698 H   0  0  0  0  0  0  0  0  0  0  0  0
  152.9633  143.6730  161.3659 H   0  0  0  0  0  0  0  0  0  0  0  0
  153.9855  143.5757  159.9521 H   0  0  0  0  0  0  0  0  0  0  0  0
  151.2415  144.9166  160.1041 H   0  0  0  0  0  0  0  0  0  0  0  0
  152.7796  145.7325  159.9530 H   0  0  0  0  0  0  0  0  0  0  0  0
  151.5983  145.5722  157.7505 H   0  0  0  0  0  0  0  0  0  0  0  0
  153.1422  144.7562  157.7144 H   0  0  0  0  0  0  0  0  0  0  0  0
  151.4293  143.3456  156.6372 H   0  0  0  0  0  0  0  0  0  0  0  0
  150.4080  143.4371  158.0519 H   0  0  0  0  0  0  0  0  0  0  0  0
  145.3688  140.5098  153.3648 H   0  0  0  0  0  0  0  0  0  0  0  0
  1  2  2  0  0  0  0
  2  3  1  0  0  0  0
  2 14  1  0  0  0  0
  3  4  1  0  0  0  0
  3 20  1  0  0  0  0
  4  8  1  0  0  0  0
  4  5  1  0  0  0  0
  4 21  1  0  0  0  0
  5  6  1  0  0  0  0
  5 22  1  0  0  0  0
  5 23  1  0  0  0  0
  6  7  1  0  0  0  0
  6 24  1  0  0  0  0
  6 25  1  0  0  0  0
  7  8  1  0  0  0  0
  7 26  1  0  0  0  0
  7 27  1  0  0  0  0
  8  9  1  0  0  0  0
  8 28  1  0  0  0  0
  9 13  1  0  0  0  0
  9 10  1  0  0  0  0
 10 11  2  0  0  0  0
 10 29  1  0  0  0  0
 11 12  1  0  0  0  0
 11 30  1  0  0  0  0
 12 13  2  0  0  0  0
 12 43  1  0  0  0  0
 13 31  1  0  0  0  0
 14 19  1  0  0  0  0
 14 15  1  0  0  0  0
 14 32  1  0  0  0  0
 15 16  1  0  0  0  0
 15 33  1  0  0  0  0
 15 34  1  0  0  0  0
 16 17  1  0  0  0  0
 16 35  1  0  0  0  0
 16 36  1  0  0  0  0
 17 18  1  0  0  0  0
 17 37  1  0  0  0  0
 17 38  1  0  0  0  0
 18 19  1  0  0  0  0
 18 39  1  0  0  0  0
 18 40  1  0  0  0  0
 19 41  1  0  0  0  0
 19 42  1  0  0  0  0
M  CHG  1  12   1
M  END
> <s_m_source_file>
AV-unprocessed.smi

> <i_m_source_file_index>
942

> <i_lp_mmshare_version>
43012

> <i_f3d_flags>
0

> <s_epik_input>
W0NIMl0xW0NIMl1bQ0gyXVtDSDJdW0NIMl1bQ0hdMUMoPU8pW05IXVtDQEBIXTJbQ0gyXVtDSDJdW0NIMl1bQ0BIXTJuM1tjSF1bY0hdbltjSF0z

> <s_epik_cmdline>
J2VwaWtfcHl0aG9uJywgJy1waCcsICc3LjAnLCAnLXRuJywgJzgnLCAnLW1hJywgJzIwMCcsICctbWV0YWxfYmluZGluZycsICctaW1hZScsICc8aW5maWxlLm1hZT4nLCAnLW9tYWUnLCAnPG91dGZpbGUubWFlPic=

> <r_lp_tautomer_probability>
1

> <r_epik_Ionization_Penalty>
0.185467

> <r_epik_Ionization_Penalty_Charging>
0

> <r_epik_Ionization_Penalty_Neutral>
0.185467

> <r_epik_State_Penalty>
0.175036

> <r_epik_Charging_Adjusted_Penalty>
0.175036

> <i_epik_Tot_Q>
1

> <i_epik_Tot_abs_Q>
1

> <r_epik_Metal_State_Penalty>
0.487091

> <b_epik_Metal_Only>
0

> <s_lp_Force_Field>
OPLS_2005

> <r_lp_Energy>
31.9707

> <b_lp_Chiralities_Consistent>
1

> <s_lp_Variant>
AV-unprocessed.smi:942-1

> <Gold.Version>
5.8.1

> <Gold.Id.Protein>
6NUR|6NUR_protein|mol2

> <Gold.PLP.Fitness>
50.1185

> <Gold.PLP.PLP>
-41.6071

> <Gold.PLP.part.hbond>
-1.0000

> <Gold.PLP.part.metal>
0.0000

> <Gold.PLP.part.buried>
-0.5379

> <Gold.PLP.part.nonpolar>
-39.9417

> <Gold.PLP.part.repulsive>
0.1033

> <Gold.PLP.ligand.clash>
0.0000

> <Gold.PLP.ligand.torsion>
0.9221

> <Gold.PLP.Chemscore.Hbond>
2.0000

> <Gold.PLP.Chemscore.CHOScore>
1.4460

> <Gold.PLP.Chemscore.Metal>
0.0000

> <Gold.Chemscore.Hbonds>
donor molecule, donor type, donor heavy atom, donor atom, acceptor molecule, acceptor atom, score
      L1  H    12    43       P1 10175  2.00
      L1  C    10    29       P1  8028  0.96

> <Gold.PLP.Chemscore.Internal.Correction>
0.0174

> <Gold.Rescore>
     Score         DG    S(hbond)    S(metal)    S(lipo)     H(rot)  DE(clash)    DE(int)     intcor
     15.97     -18.49       0.93        0.00     117.02       1.48       0.24       2.28       ----

> <Gold.Chemscore.Fitness>
15.9650

> <Gold.Chemscore.DG>
-18.4855

> <Gold.Chemscore.ZeroCoef>
-5.4800

> <Gold.Chemscore.Hbond>
0.9283

> <Gold.Chemscore.Metal>
0.0000

> <Gold.Chemscore.Lipo>
117.0212

> <Gold.Chemscore.Internal_Hbond>
0.0000

> <Gold.Chemscore.DEClash>
0.2416

> <Gold.Chemscore.DEInternal>
2.2789

> <Gold.Chemscore.Rot>
1.4790

> <Gold.Chemscore.Internal.Correction>
   9.000000E+99

> <Gold.Chemscore.Hbonds>
donor molecule, donor type, donor heavy atom, donor atom, acceptor molecule, acceptor atom, score
      L1  H    12    43       P1 10175  0.97

> <Gold.Chemscore.Hbond.Weighted>
-3.1004

> <Gold.Chemscore.Metal.Weighted>
-0.0000

> <Gold.Chemscore.Lipo.Weighted>
-13.6915

> <Gold.Chemscore.Internal_Hbond.Weighted>
0.0000

> <Gold.Chemscore.DEClash.Weighted>
0.2416

> <Gold.Chemscore.DEInternal.Weighted>
2.2789

> <Gold.Chemscore.Rot.Weighted>
3.7863

> <Gold.Chemscore.Internal.Correction.Weighted>
   9.000000E+99

> <Gold.Protein.RotatedTorsions>
[ 6907 6896 6895 6894 ] final -115.36 input  -60.11 | X-H torsion
[ 7974 7965 7964 7962 ] final  -51.94 input  175.53 | X-H torsion
[ 8008 7997 7996 7995 ] final  -93.84 input   59.86 | X-H torsion
[ 10167 10162 10161 10158 ] final  -56.73 input  -65.29 | X-H torsion
[ 10718 10713 10712 10709 ] final  -10.44 input   66.30 | X-H torsion
[ 10763 10752 10751 10750 ] final -121.78 input  -60.55 | X-H torsion
[ 11005 11000 10999 10996 ] final   59.90 input  -57.11 | X-H torsion

> <Gold.Protein.ActiveResidues>
 VAL166  LYS551  ARG553  GLY616  TRP617  ASP618  TYR619  PRO620  LYS621  CYS622 
 ASP623  PHE694  ASN695  SER759  ASP760  ASP761  ALA762  ILE779  LEU786  VAL792 
 PHE793  MET794  SER795  GLU796  ALA797  LYS798  CYS799  TRP800  GLU811  SER814 

> <Gold.Protein.RotatedAtoms>
  150.7972  133.8670  159.3247 H   0  0  0  0  0  0  0  0  0  0  0  0  # atno 6907 bound_to 6896
  151.6492  135.1002  160.0166 H   0  0  0  0  0  0  0  0  0  0  0  0  # atno 6908 bound_to 6896
  152.4055  133.6843  159.6388 H   0  0  0  0  0  0  0  0  0  0  0  0  # atno 6909 bound_to 6896
  145.9135  140.7895  142.9683 H   0  0  0  0  0  0  0  0  0  0  0  0  # atno 7974 bound_to 7965
  154.7407  140.0495  157.0809 H   0  0  0  0  0  0  0  0  0  0  0  0  # atno 8008 bound_to 7997
  155.0182  140.3144  155.4784 H   0  0  0  0  0  0  0  0  0  0  0  0  # atno 8009 bound_to 7997
  156.2863  140.2172  156.5299 H   0  0  0  0  0  0  0  0  0  0  0  0  # atno 8010 bound_to 7997
  140.6300  143.2455  151.5265 H   0  0  0  0  0  0  0  0  0  0  0  0  # atno 10167 bound_to 10162
  156.6734  130.5016  149.5993 H   0  0  0  0  0  0  0  0  0  0  0  0  # atno 10718 bound_to 10713
  154.8675  135.4156  154.2675 H   0  0  0  0  0  0  0  0  0  0  0  0  # atno 10763 bound_to 10752
  153.3591  135.7002  153.6732 H   0  0  0  0  0  0  0  0  0  0  0  0  # atno 10764 bound_to 10752
  153.5640  135.3604  155.2783 H   0  0  0  0  0  0  0  0  0  0  0  0  # atno 10765 bound_to 10752
  140.0270  134.6068  155.9559 H   0  0  0  0  0  0  0  0  0  0  0  0  # atno 11005 bound_to 11000
  144.6745  140.1863  143.7401 LP  0  0  0  0  0  0  0  0  0  0  0  0  # atno 17320 bound_to 7965
  145.8641  139.2238  143.1699 LP  0  0  0  0  0  0  0  0  0  0  0  0  # atno 17321 bound_to 7965
  139.5515  144.2382  152.1539 LP  0  0  0  0  0  0  0  0  0  0  0  0  # atno 17342 bound_to 10162
  140.1624  144.5013  150.6625 LP  0  0  0  0  0  0  0  0  0  0  0  0  # atno 17343 bound_to 10162
  156.1921  130.6566  151.1073 LP  0  0  0  0  0  0  0  0  0  0  0  0  # atno 17370 bound_to 10713
  157.7069  131.0752  150.6636 LP  0  0  0  0  0  0  0  0  0  0  0  0  # atno 17371 bound_to 10713
  141.1809  133.6546  156.5015 LP  0  0  0  0  0  0  0  0  0  0  0  0  # atno 17394 bound_to 11000
  140.4289  134.7120  157.4931 LP  0  0  0  0  0  0  0  0  0  0  0  0  # atno 17395 bound_to 11000

$$$$
