AV-unprocessed.smi:2888|AV-procd|sdf|11102|dock8
  -GOLD-   2272015573D 1   1.00000     0.00000
 Structure written by MMmdl.
 33 35  0  0  0  0  0  0  0  0  1 V2000
  151.7029  145.0310  158.7186 C   0  0  0  0  0  0  0  0  0  0  0  0
  152.1056  143.6386  159.1548 C   0  0  0  0  0  0  0  0  0  0  0  0
  152.8122  143.4149  160.3549 C   0  0  0  0  0  0  0  0  0  0  0  0
  153.1278  142.0714  160.6470 C   0  0  0  0  0  0  0  0  0  0  0  0
  153.8850  141.6909  161.9014 C   0  0  0  0  0  0  0  0  0  0  0  0
  152.7749  141.0607  159.8217 N   0  0  0  0  0  0  0  0  0  0  0  0
  152.1111  141.3880  158.7101 C   0  0  0  0  0  0  0  0  0  0  0  0
  151.7761  140.3298  157.8856 N   0  0  0  0  0  0  0  0  0  0  0  0
  151.2211  140.4787  156.5451 C   0  0  2  0  0  0  0  0  0  0  0  0
  149.8837  139.7584  156.3605 C   0  0  0  0  0  0  0  0  0  0  0  0
  150.1586  138.9004  155.1170 C   0  0  2  0  0  0  0  0  0  0  0  0
  151.0452  137.6941  155.4511 C   0  0  0  0  0  0  0  0  0  0  0  0
  152.4029  138.3587  155.6699 C   0  0  0  0  0  0  0  0  0  0  0  0
  152.0740  139.8425  155.4299 C   0  0  1  0  0  0  0  0  0  0  0  0
  151.0860  139.7166  154.4209 O   0  0  0  0  0  0  0  0  0  0  0  0
  151.7570  142.6230  158.3349 N   0  0  0  0  0  0  0  0  0  0  0  0
  151.9335  145.7673  159.4887 H   0  0  0  0  0  0  0  0  0  0  0  0
  150.6318  145.0726  158.5186 H   0  0  0  0  0  0  0  0  0  0  0  0
  152.2344  145.3100  157.8086 H   0  0  0  0  0  0  0  0  0  0  0  0
  153.0952  144.2247  161.0114 H   0  0  0  0  0  0  0  0  0  0  0  0
  154.0021  142.5479  162.5654 H   0  0  0  0  0  0  0  0  0  0  0  0
  154.8772  141.3186  161.6454 H   0  0  0  0  0  0  0  0  0  0  0  0
  153.3538  140.9096  162.4456 H   0  0  0  0  0  0  0  0  0  0  0  0
  152.1185  139.4191  158.1544 H   0  0  0  0  0  0  0  0  0  0  0  0
  151.0794  141.5396  156.3334 H   0  0  0  0  0  0  0  0  0  0  0  0
  149.5883  139.1507  157.2170 H   0  0  0  0  0  0  0  0  0  0  0  0
  149.0891  140.4803  156.1688 H   0  0  0  0  0  0  0  0  0  0  0  0
  149.2646  138.6471  154.5467 H   0  0  0  0  0  0  0  0  0  0  0  0
  150.6934  137.1484  156.3274 H   0  0  0  0  0  0  0  0  0  0  0  0
  151.0907  137.0003  154.6111 H   0  0  0  0  0  0  0  0  0  0  0  0
  152.8162  138.1662  156.6602 H   0  0  0  0  0  0  0  0  0  0  0  0
  153.1222  138.0021  154.9319 H   0  0  0  0  0  0  0  0  0  0  0  0
  152.9357  140.4421  155.1355 H   0  0  0  0  0  0  0  0  0  0  0  0
  1  2  1  0  0  0  0
  1 17  1  0  0  0  0
  1 18  1  0  0  0  0
  1 19  1  0  0  0  0
  2 16  1  0  0  0  0
  2  3  2  0  0  0  0
  3  4  1  0  0  0  0
  3 20  1  0  0  0  0
  4  5  1  0  0  0  0
  4  6  2  0  0  0  0
  5 21  1  0  0  0  0
  5 22  1  0  0  0  0
  5 23  1  0  0  0  0
  6  7  1  0  0  0  0
  7  8  1  0  0  0  0
  7 16  2  0  0  0  0
  8  9  1  0  0  0  0
  8 24  1  0  0  0  0
  9 14  1  0  0  0  0
  9 10  1  0  0  0  0
  9 25  1  0  0  0  0
 10 11  1  0  0  0  0
 10 26  1  0  0  0  0
 10 27  1  0  0  0  0
 11 15  1  0  0  0  0
 11 12  1  0  0  0  0
 11 28  1  0  0  0  0
 12 13  1  0  0  0  0
 12 29  1  0  0  0  0
 12 30  1  0  0  0  0
 13 14  1  0  0  0  0
 13 31  1  0  0  0  0
 13 32  1  0  0  0  0
 14 15  1  0  0  0  0
 14 33  1  0  0  0  0
M  END
> <s_m_source_file>
AV-unprocessed.smi

> <i_m_source_file_index>
2888

> <i_lp_mmshare_version>
43012

> <i_f3d_flags>
0

> <s_epik_input>
W0NIM11jMVtjSF1jKFtDSDNdKW5jKG4xKVtOSF1bQ0BIXShbQ0gyXVtDQEBIXTIzKVtDQEBIXShPMylbQ0gyXVtDSDJdMg==

> <s_epik_cmdline>
J2VwaWtfcHl0aG9uJywgJy1waCcsICc3LjAnLCAnLXRuJywgJzgnLCAnLW1hJywgJzIwMCcsICctbWV0YWxfYmluZGluZycsICctaW1hZScsICc8aW5maWxlLm1hZT4nLCAnLW9tYWUnLCAnPG91dGZpbGUubWFlPic=

> <r_lp_tautomer_probability>
1

> <r_epik_Ionization_Penalty>
0.00890508

> <r_epik_Ionization_Penalty_Charging>
0

> <r_epik_Ionization_Penalty_Neutral>
0.00890508

> <r_epik_State_Penalty>
0.0067342

> <r_epik_Charging_Adjusted_Penalty>
0.0067342

> <i_epik_Tot_Q>
0

> <i_epik_Tot_abs_Q>
0

> <r_epik_Metal_State_Penalty>
0.00663442

> <b_epik_Metal_Only>
0

> <s_lp_Force_Field>
OPLS_2005

> <r_lp_Energy>
31.8735

> <b_lp_Chiralities_Consistent>
1

> <s_lp_Variant>
AV-unprocessed.smi:2888-3

> <Gold.Version>
5.8.1

> <Gold.Id.Protein>
6NUR|6NUR_protein|mol2

> <Gold.PLP.Fitness>
37.4345

> <Gold.PLP.PLP>
-34.4758

> <Gold.PLP.part.hbond>
-1.0000

> <Gold.PLP.part.metal>
0.0000

> <Gold.PLP.part.buried>
-3.4047

> <Gold.PLP.part.nonpolar>
-30.3111

> <Gold.PLP.part.repulsive>
0.2208

> <Gold.PLP.ligand.clash>
0.0000

> <Gold.PLP.ligand.torsion>
0.0251

> <Gold.PLP.Chemscore.Hbond>
1.0000

> <Gold.PLP.Chemscore.CHOScore>
0.0000

> <Gold.PLP.Chemscore.Metal>
0.0000

> <Gold.Chemscore.Hbonds>
donor molecule, donor type, donor heavy atom, donor atom, acceptor molecule, acceptor atom, score
      P1  H  7989  7998       L1    15  0.80

> <Gold.PLP.Chemscore.Internal.Correction>
0.0089

> <Gold.Rescore>
     Score         DG    S(hbond)    S(metal)    S(lipo)     H(rot)  DE(clash)    DE(int)     intcor
     16.96     -17.14       0.92        0.00      95.40       1.00       0.13       0.05       ----

> <Gold.Chemscore.Fitness>
16.9646

> <Gold.Chemscore.DG>
-17.1440

> <Gold.Chemscore.ZeroCoef>
-5.4800

> <Gold.Chemscore.Hbond>
0.9168

> <Gold.Chemscore.Metal>
0.0000

> <Gold.Chemscore.Lipo>
95.3993

> <Gold.Chemscore.Internal_Hbond>
0.0000

> <Gold.Chemscore.DEClash>
0.1252

> <Gold.Chemscore.DEInternal>
0.0541

> <Gold.Chemscore.Rot>
1.0000

> <Gold.Chemscore.Internal.Correction>
   9.000000E+99

> <Gold.Chemscore.Hbonds>
donor molecule, donor type, donor heavy atom, donor atom, acceptor molecule, acceptor atom, score
      P1  H  7989  7998       L1    15  0.11

> <Gold.Chemscore.Hbond.Weighted>
-3.0622

> <Gold.Chemscore.Metal.Weighted>
-0.0000

> <Gold.Chemscore.Lipo.Weighted>
-11.1617

> <Gold.Chemscore.Internal_Hbond.Weighted>
0.0000

> <Gold.Chemscore.DEClash.Weighted>
0.1252

> <Gold.Chemscore.DEInternal.Weighted>
0.0541

> <Gold.Chemscore.Rot.Weighted>
2.5600

> <Gold.Chemscore.Internal.Correction.Weighted>
   9.000000E+99

> <Gold.Protein.RotatedTorsions>
[ 6907 6896 6895 6894 ] final  163.06 input  -60.11 | X-H torsion
[ 7974 7965 7964 7962 ] final   25.71 input  175.53 | X-H torsion
[ 8008 7997 7996 7995 ] final -167.97 input   59.86 | X-H torsion
[ 10167 10162 10161 10158 ] final -119.05 input  -65.29 | X-H torsion
[ 10718 10713 10712 10709 ] final  -19.83 input   66.30 | X-H torsion
[ 10763 10752 10751 10750 ] final  124.15 input  -60.55 | X-H torsion
[ 11005 11000 10999 10996 ] final  115.68 input  -57.11 | X-H torsion

> <Gold.Protein.ActiveResidues>
 VAL166  LYS551  ARG553  GLY616  TRP617  ASP618  TYR619  PRO620  LYS621  CYS622 
 ASP623  PHE694  ASN695  SER759  ASP760  ASP761  ALA762  ILE779  LEU786  VAL792 
 PHE793  MET794  SER795  GLU796  ALA797  LYS798  CYS799  TRP800  GLU811  SER814 

> <Gold.Protein.RotatedAtoms>
  151.9309  133.3611  159.3930 H   0  0  0  0  0  0  0  0  0  0  0  0  # atno 6907 bound_to 6896
  150.7017  134.4538  159.5358 H   0  0  0  0  0  0  0  0  0  0  0  0  # atno 6908 bound_to 6896
  152.2178  134.8441  160.0540 H   0  0  0  0  0  0  0  0  0  0  0  0  # atno 6909 bound_to 6896
  146.1875  139.7428  142.8856 H   0  0  0  0  0  0  0  0  0  0  0  0  # atno 7974 bound_to 7965
  155.8850  140.1015  157.1458 H   0  0  0  0  0  0  0  0  0  0  0  0  # atno 8008 bound_to 7997
  154.4009  140.1321  156.4308 H   0  0  0  0  0  0  0  0  0  0  0  0  # atno 8009 bound_to 7997
  155.7599  140.3463  155.5195 H   0  0  0  0  0  0  0  0  0  0  0  0  # atno 8010 bound_to 7997
  140.0508  143.5061  152.2082 H   0  0  0  0  0  0  0  0  0  0  0  0  # atno 10167 bound_to 10162
  156.5402  130.4676  149.6502 H   0  0  0  0  0  0  0  0  0  0  0  0  # atno 10718 bound_to 10713
  153.6568  135.3353  155.3116 H   0  0  0  0  0  0  0  0  0  0  0  0  # atno 10763 bound_to 10752
  154.8524  135.4354  154.1846 H   0  0  0  0  0  0  0  0  0  0  0  0  # atno 10764 bound_to 10752
  153.2802  135.7008  153.7468 H   0  0  0  0  0  0  0  0  0  0  0  0  # atno 10765 bound_to 10752
  139.9017  134.9587  156.7082 H   0  0  0  0  0  0  0  0  0  0  0  0  # atno 11005 bound_to 11000
  145.3895  141.0370  143.3132 LP  0  0  0  0  0  0  0  0  0  0  0  0  # atno 17320 bound_to 7965
  144.8423  139.5452  143.6894 LP  0  0  0  0  0  0  0  0  0  0  0  0  # atno 17321 bound_to 7965
  139.5954  144.7565  151.3299 LP  0  0  0  0  0  0  0  0  0  0  0  0  # atno 17342 bound_to 10162
  140.7217  143.7116  150.7765 LP  0  0  0  0  0  0  0  0  0  0  0  0  # atno 17343 bound_to 10162
  156.2978  130.7160  151.2025 LP  0  0  0  0  0  0  0  0  0  0  0  0  # atno 17370 bound_to 10713
  157.7406  131.0514  150.5151 LP  0  0  0  0  0  0  0  0  0  0  0  0  # atno 17371 bound_to 10713
  140.7097  133.9234  155.8076 LP  0  0  0  0  0  0  0  0  0  0  0  0  # atno 17394 bound_to 11000
  141.0310  134.0756  157.4014 LP  0  0  0  0  0  0  0  0  0  0  0  0  # atno 17395 bound_to 11000

$$$$
