#       Name:                AV-unprocessed.smi:2684
#       Creating user name   scv26
#       Creation time:       Fri Mar 27 14:40:59 2020


#       File generated by GOLD software.
#

@<TRIPOS>MOLECULE
AV-unprocessed.smi:2684
    50    51     1
SMALL
NO_CHARGES


@<TRIPOS>ATOM
      1 ****         0.0545   0.4324  -3.5105 C.3            1 S1                 0.0000
      2 ****        -0.8237  -0.2265  -2.4865 C.2            1 S1                 0.0000
      3 ****        -1.9658   0.3183  -1.8337 C.2            1 S1                 0.0000
      4 ****        -2.5160  -0.5233  -0.9734 N.2            1 S1                 0.0000
      5 ****        -1.7450  -1.6290  -1.0426 N.pl3          1 S1                 0.0000
      6 ****        -2.0465  -2.7743  -0.2026 C.3            1 S1                 0.0000
      7 ****        -1.7707  -2.5250   1.2982 C.3            1 S1                 0.0000
      8 ****        -2.2305  -3.7261   2.1352 C.3            1 S1                 0.0000
      9 ****        -0.3325  -2.2755   1.5515 N.4            1 S1                 1.0000
     10 ****         0.0571  -0.8504   1.6169 C.3            1 S1                 0.0000
     11 ****         1.5795  -0.6801   1.7015 C.2            1 S1                 0.0000
     12 ****         2.2453  -1.5194   2.3048 O.2            1 S1                 0.0000
     13 ****         2.1708   0.3899   1.1399 N.am           1 S1                 0.0000
     14 ****         3.5924   0.7328   1.1100 C.3            1 S1                 0.0000
     15 ****         3.7574   2.2107   0.7252 C.3            1 S1                 0.0000
     16 ****         5.2441   2.5701   0.5682 C.3            1 S1                 0.0000
     17 ****         5.8509   1.7169  -0.3958 O.3            1 S1                 0.0000
     18 ****         5.8224   0.3449  -0.0182 C.3            1 S1                 0.0000
     19 ****         4.3680  -0.1373   0.1037 C.3            1 S1                 0.0000
     20 ****        -0.7228  -1.4813  -1.9564 C.2            1 S1                 0.0000
     21 ****        -0.5009   1.1448  -4.1206 H              1 S1                 0.0000
     22 ****         0.4985  -0.2943  -4.1911 H              1 S1                 0.0000
     23 ****         0.8746   0.9777  -3.0443 H              1 S1                 0.0000
     24 ****        -2.4064   1.2969  -1.9566 H              1 S1                 0.0000
     25 ****        -3.0966  -3.0302  -0.3527 H              1 S1                 0.0000
     26 ****        -1.4678  -3.6279  -0.5587 H              1 S1                 0.0000
     27 ****        -2.3460  -1.6608   1.6346 H              1 S1                 0.0000
     28 ****        -3.2957  -3.9156   1.9978 H              1 S1                 0.0000
     29 ****        -2.0637  -3.5514   3.1986 H              1 S1                 0.0000
     30 ****        -1.6936  -4.6342   1.8584 H              1 S1                 0.0000
     31 ****        -0.0904  -2.6884   2.4411 H              1 S1                 0.0000
     32 ****        -0.3473  -0.3284   0.7560 H              1 S1                 0.0000
     33 ****        -0.3952  -0.4000   2.5009 H              1 S1                 0.0000
     34 ****         1.5560   1.0578   0.6965 H              1 S1                 0.0000
     35 ****         4.0190   0.6100   2.1055 H              1 S1                 0.0000
     36 ****         3.2407   2.4111  -0.2146 H              1 S1                 0.0000
     37 ****         3.2975   2.8518   1.4783 H              1 S1                 0.0000
     38 ****         5.3466   3.6039   0.2375 H              1 S1                 0.0000
     39 ****         5.7689   2.4880   1.5210 H              1 S1                 0.0000
     40 ****         6.3483  -0.2390  -0.7736 H              1 S1                 0.0000
     41 ****         6.3576   0.2040   0.9225 H              1 S1                 0.0000
     42 ****         4.3567  -1.1853   0.4018 H              1 S1                 0.0000
     43 ****         3.8896  -0.0872  -0.8754 H              1 S1                 0.0000
     44 ****        -0.0080  -2.2686  -2.1452 H              1 S1                 0.0000
     45 ****         0.2073  -2.7353   0.8326 H              1 S1                 0.0000
     46 ****        -3.3219  -0.3737  -0.4007 LP             1 S1                 0.0000
     47 ****         1.7938  -2.3020   2.7334 LP             1 S1                 0.0000
     48 ****         3.2384  -1.4194   2.3669 LP             1 S1                 0.0000
     49 ****         6.8041   1.9956  -0.5133 LP             1 S1                 0.0000
     50 ****         5.3643   1.8190  -1.2634 LP             1 S1                 0.0000
@<TRIPOS>BOND
    1    1    2 1     
    2    1   21 1     
    3    1   22 1     
    4    1   23 1     
    5    2   20 2     
    6    2    3 1     
    7    3    4 2     
    8    3   24 1     
    9    4    5 1     
   10    5    6 1     
   11    5   20 1     
   12    6    7 1     
   13    6   25 1     
   14    6   26 1     
   15    7    8 1     
   16    7    9 1     
   17    7   27 1     
   18    8   28 1     
   19    8   29 1     
   20    8   30 1     
   21    9   10 1     
   22    9   31 1     
   23    9   45 1     
   24   10   11 1     
   25   10   32 1     
   26   10   33 1     
   27   11   12 2     
   28   11   13 am    
   29   13   14 1     
   30   13   34 1     
   31   14   19 1     
   32   14   15 1     
   33   14   35 1     
   34   15   16 1     
   35   15   36 1     
   36   15   37 1     
   37   16   17 1     
   38   16   38 1     
   39   16   39 1     
   40   17   18 1     
   41   18   19 1     
   42   18   40 1     
   43   18   41 1     
   44   19   42 1     
   45   19   43 1     
   46   20   44 1     
   47    4   46 1     
   48   12   47 1     
   49   12   48 1     
   50   17   49 1     
   51   17   50 1     
@<TRIPOS>SUBSTRUCTURE
      1 S1             1
@<TRIPOS>SET
LONE_PAIRS      STATIC     ATOMS    <user>   **** ""
5 46 47 48 49 50
DONOR_HYDROGENS      STATIC     ATOMS    <user>   **** ""
3 31 45 34
ATOM$BLUE        STATIC     ATOMS    COLORGROUP SYSTEM
5 46 47 48 49 50
ATOM$RED        STATIC     ATOMS    COLORGROUP SYSTEM
3 31 45 34
