AV-unprocessed.smi:1941|AV-procd|sdf|7848|dock7
  -GOLD-   22720 9593D 1   1.00000     0.00000
 Structure written by MMmdl.
 40 41  0  0  0  0  0  0  0  0  1 V2000
  154.2731  141.4189  160.4567 C   0  0  0  0  0  0  0  0  0  0  0  0
  153.1001  142.1014  159.8410 C   0  0  0  0  0  0  0  0  0  0  0  0
  152.7547  143.3634  160.1083 N   0  0  0  0  0  0  0  0  0  0  0  0
  151.6163  143.7701  159.4050 C   0  0  0  0  0  0  0  0  0  0  0  0
  151.0828  145.1583  159.5852 C   0  0  0  0  0  0  0  0  0  0  0  0
  149.8583  145.1998  160.5143 C   0  0  0  0  0  0  0  0  0  0  0  0
  148.6188  145.3042  159.7537 N   0  0  0  0  0  0  0  0  0  0  0  0
  147.4081  145.5170  160.2867 C   0  0  0  0  0  0  0  0  0  0  0  0
  147.1972  145.6227  161.4952 O   0  0  0  0  0  0  0  0  0  0  0  0
  146.4609  145.6039  159.3422 N   0  0  0  0  0  0  0  0  0  0  0  0
  145.0367  145.8336  159.5771 C   0  0  1  0  0  0  0  0  0  0  0  0
  144.3815  146.2932  158.2665 C   0  0  0  0  0  0  0  0  0  0  0  0
  144.3804  144.5549  160.1332 C   0  0  1  0  0  0  0  0  0  0  0  0
  144.9008  144.1071  161.5015 C   0  0  0  0  0  0  0  0  0  0  0  0
  143.7309  143.3445  162.1056 C   0  0  0  0  0  0  0  0  0  0  0  0
  142.5503  143.6842  161.1922 C   0  0  0  0  0  0  0  0  0  0  0  0
  143.0024  144.7688  160.3950 O   0  0  0  0  0  0  0  0  0  0  0  0
  151.1024  142.7899  158.5931 C   0  0  0  0  0  0  0  0  0  0  0  0
  152.0301  141.3183  158.6844 S   0  0  0  0  0  0  0  0  0  0  0  0
  154.7517  142.0649  161.1936 H   0  0  0  0  0  0  0  0  0  0  0  0
  155.0021  141.1664  159.6866 H   0  0  0  0  0  0  0  0  0  0  0  0
  153.9531  140.5021  160.9518 H   0  0  0  0  0  0  0  0  0  0  0  0
  151.8668  145.8035  159.9839 H   0  0  0  0  0  0  0  0  0  0  0  0
  150.8163  145.5797  158.6151 H   0  0  0  0  0  0  0  0  0  0  0  0
  149.8105  144.2885  161.1111 H   0  0  0  0  0  0  0  0  0  0  0  0
  149.9390  146.0292  161.2193 H   0  0  0  0  0  0  0  0  0  0  0  0
  148.6917  145.2269  158.7497 H   0  0  0  0  0  0  0  0  0  0  0  0
  146.7464  145.5033  158.3792 H   0  0  0  0  0  0  0  0  0  0  0  0
  144.9015  146.6309  160.3101 H   0  0  0  0  0  0  0  0  0  0  0  0
  143.3208  146.5018  158.4089 H   0  0  0  0  0  0  0  0  0  0  0  0
  144.4694  145.5336  157.4890 H   0  0  0  0  0  0  0  0  0  0  0  0
  144.8469  147.2067  157.8949 H   0  0  0  0  0  0  0  0  0  0  0  0
  144.4787  143.7359  159.4175 H   0  0  0  0  0  0  0  0  0  0  0  0
  145.8059  143.5038  161.4273 H   0  0  0  0  0  0  0  0  0  0  0  0
  145.1283  144.9758  162.1213 H   0  0  0  0  0  0  0  0  0  0  0  0
  143.9125  142.2694  162.1208 H   0  0  0  0  0  0  0  0  0  0  0  0
  143.5499  143.6686  163.1311 H   0  0  0  0  0  0  0  0  0  0  0  0
  142.3106  142.8394  160.5447 H   0  0  0  0  0  0  0  0  0  0  0  0
  141.6524  143.9521  161.7492 H   0  0  0  0  0  0  0  0  0  0  0  0
  150.2369  142.8443  157.9494 H   0  0  0  0  0  0  0  0  0  0  0  0
  1  2  1  0  0  0  0
  1 20  1  0  0  0  0
  1 21  1  0  0  0  0
  1 22  1  0  0  0  0
  2 19  1  0  0  0  0
  2  3  2  0  0  0  0
  3  4  1  0  0  0  0
  4  5  1  0  0  0  0
  4 18  2  0  0  0  0
  5  6  1  0  0  0  0
  5 23  1  0  0  0  0
  5 24  1  0  0  0  0
  6  7  1  0  0  0  0
  6 25  1  0  0  0  0
  6 26  1  0  0  0  0
  7  8  1  0  0  0  0
  7 27  1  0  0  0  0
  8  9  2  0  0  0  0
  8 10  1  0  0  0  0
 10 11  1  0  0  0  0
 10 28  1  0  0  0  0
 11 12  1  0  0  0  0
 11 13  1  0  0  0  0
 11 29  1  0  0  0  0
 12 30  1  0  0  0  0
 12 31  1  0  0  0  0
 12 32  1  0  0  0  0
 13 17  1  0  0  0  0
 13 14  1  0  0  0  0
 13 33  1  0  0  0  0
 14 15  1  0  0  0  0
 14 34  1  0  0  0  0
 14 35  1  0  0  0  0
 15 16  1  0  0  0  0
 15 36  1  0  0  0  0
 15 37  1  0  0  0  0
 16 17  1  0  0  0  0
 16 38  1  0  0  0  0
 16 39  1  0  0  0  0
 18 19  1  0  0  0  0
 18 40  1  0  0  0  0
M  END
> <s_m_source_file>
AV-unprocessed.smi

> <i_m_source_file_index>
1941

> <i_lp_mmshare_version>
43012

> <i_f3d_flags>
0

> <s_epik_input>
W0NIM11jMW5jKFtjSF1zMSlbQ0gyXVtDSDJdW05IXUMoPU8pW05IXVtDQEhdKFtDSDNdKVtDQEBIXTJbQ0gyXVtDSDJdW0NIMl1PMg==

> <s_epik_cmdline>
J2VwaWtfcHl0aG9uJywgJy1waCcsICc3LjAnLCAnLXRuJywgJzgnLCAnLW1hJywgJzIwMCcsICctbWV0YWxfYmluZGluZycsICctaW1hZScsICc8aW5maWxlLm1hZT4nLCAnLW9tYWUnLCAnPG91dGZpbGUubWFlPic=

> <r_epik_Ionization_Penalty>
0.00195486

> <r_epik_Ionization_Penalty_Charging>
0

> <r_epik_Ionization_Penalty_Neutral>
0.00195486

> <r_epik_State_Penalty>
0.00129472

> <r_epik_Charging_Adjusted_Penalty>
0.00129472

> <i_epik_Tot_Q>
0

> <i_epik_Tot_abs_Q>
0

> <r_epik_Metal_State_Penalty>
-0

> <b_epik_Metal_Only>
0

> <s_lp_Force_Field>
OPLS_2005

> <r_lp_Energy>
10.4384

> <b_lp_Chiralities_Consistent>
1

> <s_lp_Variant>
AV-unprocessed.smi:1941-4

> <Gold.Version>
5.8.1

> <Gold.Id.Protein>
6NUR|6NUR_protein|mol2

> <Gold.PLP.Fitness>
43.0658

> <Gold.PLP.PLP>
-38.8757

> <Gold.PLP.part.hbond>
-3.7558

> <Gold.PLP.part.metal>
0.0000

> <Gold.PLP.part.buried>
-5.8450

> <Gold.PLP.part.nonpolar>
-30.4225

> <Gold.PLP.part.repulsive>
0.7989

> <Gold.PLP.ligand.clash>
0.0000

> <Gold.PLP.ligand.torsion>
0.7908

> <Gold.PLP.Chemscore.Hbond>
1.9120

> <Gold.PLP.Chemscore.CHOScore>
0.0000

> <Gold.PLP.Chemscore.Metal>
0.0000

> <Gold.Chemscore.Hbonds>
donor molecule, donor type, donor heavy atom, donor atom, acceptor molecule, acceptor atom, score
      L1  H     7    27       P1  8029  0.75
      L1  H    10    28       P1  8029  0.90

> <Gold.PLP.Chemscore.Internal.Correction>
0.0356

> <Gold.Rescore>
     Score         DG    S(hbond)    S(metal)    S(lipo)     H(rot)  DE(clash)    DE(int)     intcor
     16.73     -19.96       1.92        0.00     105.98       1.69       0.98       2.25       ----

> <Gold.Chemscore.Fitness>
16.7329

> <Gold.Chemscore.DG>
-19.9589

> <Gold.Chemscore.ZeroCoef>
-5.4800

> <Gold.Chemscore.Hbond>
1.9197

> <Gold.Chemscore.Metal>
0.0000

> <Gold.Chemscore.Lipo>
105.9768

> <Gold.Chemscore.Internal_Hbond>
0.0000

> <Gold.Chemscore.DEClash>
0.9777

> <Gold.Chemscore.DEInternal>
2.2483

> <Gold.Chemscore.Rot>
1.6923

> <Gold.Chemscore.Internal.Correction>
   9.000000E+99

> <Gold.Chemscore.Hbonds>
donor molecule, donor type, donor heavy atom, donor atom, acceptor molecule, acceptor atom, score
      L1  H     7    27       P1  8029  0.76
      L1  H    10    28       P1  8029  0.87

> <Gold.Chemscore.Hbond.Weighted>
-6.4119

> <Gold.Chemscore.Metal.Weighted>
-0.0000

> <Gold.Chemscore.Lipo.Weighted>
-12.3993

> <Gold.Chemscore.Internal_Hbond.Weighted>
0.0000

> <Gold.Chemscore.DEClash.Weighted>
0.9777

> <Gold.Chemscore.DEInternal.Weighted>
2.2483

> <Gold.Chemscore.Rot.Weighted>
4.3323

> <Gold.Chemscore.Internal.Correction.Weighted>
   9.000000E+99

> <Gold.Protein.RotatedTorsions>
[ 6907 6896 6895 6894 ] final  116.53 input  -60.11 | X-H torsion
[ 7974 7965 7964 7962 ] final -137.51 input  175.53 | X-H torsion
[ 8008 7997 7996 7995 ] final  112.90 input   59.86 | X-H torsion
[ 10167 10162 10161 10158 ] final    5.76 input  -65.29 | X-H torsion
[ 10718 10713 10712 10709 ] final   87.23 input   66.30 | X-H torsion
[ 10763 10752 10751 10750 ] final  -66.01 input  -60.55 | X-H torsion
[ 11005 11000 10999 10996 ] final -106.11 input  -57.11 | X-H torsion

> <Gold.Protein.ActiveResidues>
 VAL166  LYS551  ARG553  GLY616  TRP617  ASP618  TYR619  PRO620  LYS621  CYS622 
 ASP623  PHE694  ASN695  SER759  ASP760  ASP761  ALA762  ILE779  LEU786  VAL792 
 PHE793  MET794  SER795  GLU796  ALA797  LYS798  CYS799  TRP800  GLU811  SER814 

> <Gold.Protein.RotatedAtoms>
  152.4672  133.7948  159.6921 H   0  0  0  0  0  0  0  0  0  0  0  0  # atno 6907 bound_to 6896
  150.8642  133.7589  159.2988 H   0  0  0  0  0  0  0  0  0  0  0  0  # atno 6908 bound_to 6896
  151.5145  135.1069  159.9914 H   0  0  0  0  0  0  0  0  0  0  0  0  # atno 6909 bound_to 6896
  144.8836  140.6543  143.5190 H   0  0  0  0  0  0  0  0  0  0  0  0  # atno 7974 bound_to 7965
  156.2222  140.2990  155.9981 H   0  0  0  0  0  0  0  0  0  0  0  0  # atno 8008 bound_to 7997
  155.2450  140.0424  157.2997 H   0  0  0  0  0  0  0  0  0  0  0  0  # atno 8009 bound_to 7997
  154.5859  140.2388  155.7996 H   0  0  0  0  0  0  0  0  0  0  0  0  # atno 8010 bound_to 7997
  140.6465  143.7650  150.7507 H   0  0  0  0  0  0  0  0  0  0  0  0  # atno 10167 bound_to 10162
  157.6938  131.0247  150.3092 H   0  0  0  0  0  0  0  0  0  0  0  0  # atno 10718 bound_to 10713
  154.3535  135.6131  153.5655 H   0  0  0  0  0  0  0  0  0  0  0  0  # atno 10763 bound_to 10752
  152.9797  135.5798  154.4716 H   0  0  0  0  0  0  0  0  0  0  0  0  # atno 10764 bound_to 10752
  154.4441  135.2851  155.1804 H   0  0  0  0  0  0  0  0  0  0  0  0  # atno 10765 bound_to 10752
  141.1021  133.8865  157.1816 H   0  0  0  0  0  0  0  0  0  0  0  0  # atno 11005 bound_to 11000
  145.3909  139.1617  143.4229 LP  0  0  0  0  0  0  0  0  0  0  0  0  # atno 17320 bound_to 7965
  146.3010  140.3998  142.8704 LP  0  0  0  0  0  0  0  0  0  0  0  0  # atno 17321 bound_to 7965
  140.1292  143.4542  152.2265 LP  0  0  0  0  0  0  0  0  0  0  0  0  # atno 17342 bound_to 10162
  139.5676  144.7444  151.3979 LP  0  0  0  0  0  0  0  0  0  0  0  0  # atno 17343 bound_to 10162
  156.3596  130.3845  149.7262 LP  0  0  0  0  0  0  0  0  0  0  0  0  # atno 17370 bound_to 10713
  156.4712  130.7997  151.3015 LP  0  0  0  0  0  0  0  0  0  0  0  0  # atno 17371 bound_to 10713
  139.9876  135.0076  156.9899 LP  0  0  0  0  0  0  0  0  0  0  0  0  # atno 17394 bound_to 11000
  140.4996  134.1110  155.7248 LP  0  0  0  0  0  0  0  0  0  0  0  0  # atno 17395 bound_to 11000

$$$$
