AV-unprocessed.smi:3061|AV-procd|sdf|11681|dock3
  -GOLD-   2272017 83D 1   1.00000     0.00000
 Structure written by MMmdl.
 35 36  0  0  0  0  0  0  0  0  1 V2000
  154.1096  141.1866  161.5142 C   0  0  0  0  0  0  0  0  0  0  0  0
  153.2862  142.0621  160.5602 C   0  0  2  0  0  0  0  0  0  0  0  0
  152.5211  143.1630  161.3253 C   0  0  0  0  0  0  0  0  0  0  0  0
  151.7844  144.0505  160.4423 N   0  0  0  0  0  0  0  0  0  0  0  0
  152.2143  144.8887  159.4977 C   0  0  0  0  0  0  0  0  0  0  0  0
  151.2404  145.5344  158.8715 N   0  0  0  0  0  0  0  0  0  0  0  0
  150.1616  145.0114  159.5268 C   0  0  0  0  0  0  0  0  0  0  0  0
  150.4329  144.1204  160.4805 N   0  0  0  0  0  0  0  0  0  0  0  0
  152.3619  141.2116  159.8109 N   0  0  0  0  0  0  0  0  0  0  0  0
  152.7141  140.2304  158.9648 C   0  0  0  0  0  0  0  0  0  0  0  0
  153.8827  139.9010  158.7582 O   0  0  0  0  0  0  0  0  0  0  0  0
  151.5707  139.5266  158.2186 C   0  0  1  0  0  0  0  0  0  0  0  0
  150.7589  140.5294  157.3731 C   0  0  0  0  0  0  0  0  0  0  0  0
  151.0635  140.1318  155.9385 C   0  0  0  0  0  0  0  0  0  0  0  0
  150.6674  140.7757  154.9681 O   0  0  0  0  0  0  0  0  0  0  0  0
  151.8068  139.0226  155.8975 N   0  0  0  0  0  0  0  0  0  0  0  0
  152.2952  138.3688  154.6912 C   0  0  0  0  0  0  0  0  0  0  0  0
  152.0811  138.4712  157.2132 C   0  0  0  0  0  0  0  0  0  0  0  0
  154.8309  141.7852  162.0713 H   0  0  0  0  0  0  0  0  0  0  0  0
  154.6673  140.4264  160.9665 H   0  0  0  0  0  0  0  0  0  0  0  0
  153.4719  140.6767  162.2373 H   0  0  0  0  0  0  0  0  0  0  0  0
  153.9898  142.5396  159.8757 H   0  0  0  0  0  0  0  0  0  0  0  0
  151.8301  142.7201  162.0449 H   0  0  0  0  0  0  0  0  0  0  0  0
  153.2195  143.7722  161.9001 H   0  0  0  0  0  0  0  0  0  0  0  0
  153.2589  145.0217  159.2571 H   0  0  0  0  0  0  0  0  0  0  0  0
  149.1459  145.2965  159.2950 H   0  0  0  0  0  0  0  0  0  0  0  0
  151.3775  141.4118  159.9148 H   0  0  0  0  0  0  0  0  0  0  0  0
  150.9152  139.0448  158.9461 H   0  0  0  0  0  0  0  0  0  0  0  0
  149.6898  140.4263  157.5600 H   0  0  0  0  0  0  0  0  0  0  0  0
  151.0313  141.5721  157.5457 H   0  0  0  0  0  0  0  0  0  0  0  0
  151.4708  138.1480  154.0124 H   0  0  0  0  0  0  0  0  0  0  0  0
  152.7971  137.4306  154.9289 H   0  0  0  0  0  0  0  0  0  0  0  0
  153.0066  139.0118  154.1717 H   0  0  0  0  0  0  0  0  0  0  0  0
  153.1452  138.2538  157.3226 H   0  0  0  0  0  0  0  0  0  0  0  0
  151.5401  137.5315  157.3310 H   0  0  0  0  0  0  0  0  0  0  0  0
  1  2  1  0  0  0  0
  1 19  1  0  0  0  0
  1 20  1  0  0  0  0
  1 21  1  0  0  0  0
  2  3  1  0  0  0  0
  2  9  1  0  0  0  0
  2 22  1  0  0  0  0
  3  4  1  0  0  0  0
  3 23  1  0  0  0  0
  3 24  1  0  0  0  0
  4  8  1  0  0  0  0
  4  5  1  0  0  0  0
  5  6  2  0  0  0  0
  5 25  1  0  0  0  0
  6  7  1  0  0  0  0
  7  8  2  0  0  0  0
  7 26  1  0  0  0  0
  9 10  1  0  0  0  0
  9 27  1  0  0  0  0
 10 11  2  0  0  0  0
 10 12  1  0  0  0  0
 12 18  1  0  0  0  0
 12 13  1  0  0  0  0
 12 28  1  0  0  0  0
 13 14  1  0  0  0  0
 13 29  1  0  0  0  0
 13 30  1  0  0  0  0
 14 15  2  0  0  0  0
 14 16  1  0  0  0  0
 16 17  1  0  0  0  0
 16 18  1  0  0  0  0
 17 31  1  0  0  0  0
 17 32  1  0  0  0  0
 17 33  1  0  0  0  0
 18 34  1  0  0  0  0
 18 35  1  0  0  0  0
M  END
> <s_m_source_file>
AV-unprocessed.smi

> <i_m_source_file_index>
3061

> <i_lp_mmshare_version>
43012

> <i_f3d_flags>
0

> <s_epik_input>
bjFbY0hdbltjSF1uMVtDSDJdW0NAQEhdKFtDSDNdKVtOSF1DKD1PKVtDQEBIXTJbQ0gyXUMoPU8pTihbQ0gzXSlbQ0gyXTI=

> <s_epik_cmdline>
J2VwaWtfcHl0aG9uJywgJy1waCcsICc3LjAnLCAnLXRuJywgJzgnLCAnLW1hJywgJzIwMCcsICctbWV0YWxfYmluZGluZycsICctaW1hZScsICc8aW5maWxlLm1hZT4nLCAnLW9tYWUnLCAnPG91dGZpbGUubWFlPic=

> <r_lp_tautomer_probability>
1

> <r_epik_Ionization_Penalty>
4.97611e-05

> <r_epik_Ionization_Penalty_Charging>
0

> <r_epik_Ionization_Penalty_Neutral>
4.97611e-05

> <r_epik_State_Penalty>
-0

> <r_epik_Charging_Adjusted_Penalty>
0

> <i_epik_Tot_Q>
0

> <i_epik_Tot_abs_Q>
0

> <r_epik_Metal_State_Penalty>
-0

> <b_epik_Metal_Only>
0

> <s_lp_Force_Field>
OPLS_2005

> <r_lp_Energy>
12.1986

> <b_lp_Chiralities_Consistent>
1

> <s_lp_Variant>
AV-unprocessed.smi:3061-3

> <Gold.Version>
5.8.1

> <Gold.Id.Protein>
6NUR|6NUR_protein|mol2

> <Gold.PLP.Fitness>
48.7470

> <Gold.PLP.PLP>
-40.2164

> <Gold.PLP.part.hbond>
-3.8190

> <Gold.PLP.part.metal>
0.0000

> <Gold.PLP.part.buried>
-4.3541

> <Gold.PLP.part.nonpolar>
-32.1151

> <Gold.PLP.part.repulsive>
0.5221

> <Gold.PLP.ligand.clash>
0.0000

> <Gold.PLP.ligand.torsion>
0.0428

> <Gold.PLP.Chemscore.Hbond>
1.8640

> <Gold.PLP.Chemscore.CHOScore>
1.0000

> <Gold.PLP.Chemscore.Metal>
0.0000

> <Gold.Chemscore.Hbonds>
donor molecule, donor type, donor heavy atom, donor atom, acceptor molecule, acceptor atom, score
      P1  H  7989  7998       L1    15  0.86
      P1  H  7997  8008       L1    11  1.00
      L1  C     7    26       P1  8029  1.00

> <Gold.PLP.Chemscore.Internal.Correction>
0.0242

> <Gold.Rescore>
     Score         DG    S(hbond)    S(metal)    S(lipo)     H(rot)  DE(clash)    DE(int)     intcor
     12.11     -12.21       1.97        0.00      54.31       2.42       0.01       0.10       ----

> <Gold.Chemscore.Fitness>
12.1052

> <Gold.Chemscore.DG>
-12.2141

> <Gold.Chemscore.ZeroCoef>
-5.4800

> <Gold.Chemscore.Hbond>
1.9685

> <Gold.Chemscore.Metal>
0.0000

> <Gold.Chemscore.Lipo>
54.3055

> <Gold.Chemscore.Internal_Hbond>
0.0000

> <Gold.Chemscore.DEClash>
0.0089

> <Gold.Chemscore.DEInternal>
0.1001

> <Gold.Chemscore.Rot>
2.4197

> <Gold.Chemscore.Internal.Correction>
   9.000000E+99

> <Gold.Chemscore.Hbonds>
donor molecule, donor type, donor heavy atom, donor atom, acceptor molecule, acceptor atom, score
      P1  H  7989  7998       L1    15  0.84
      P1  H  7997  8008       L1    11  0.96

> <Gold.Chemscore.Hbond.Weighted>
-6.5748

> <Gold.Chemscore.Metal.Weighted>
-0.0000

> <Gold.Chemscore.Lipo.Weighted>
-6.3537

> <Gold.Chemscore.Internal_Hbond.Weighted>
0.0000

> <Gold.Chemscore.DEClash.Weighted>
0.0089

> <Gold.Chemscore.DEInternal.Weighted>
0.1001

> <Gold.Chemscore.Rot.Weighted>
6.1945

> <Gold.Chemscore.Internal.Correction.Weighted>
   9.000000E+99

> <Gold.Protein.RotatedTorsions>
[ 6907 6896 6895 6894 ] final  -50.54 input  -60.11 | X-H torsion
[ 7974 7965 7964 7962 ] final  119.00 input  175.53 | X-H torsion
[ 8008 7997 7996 7995 ] final -111.69 input   59.86 | X-H torsion
[ 10167 10162 10161 10158 ] final -138.02 input  -65.29 | X-H torsion
[ 10718 10713 10712 10709 ] final -133.67 input   66.30 | X-H torsion
[ 10763 10752 10751 10750 ] final   49.61 input  -60.55 | X-H torsion
[ 11005 11000 10999 10996 ] final   20.74 input  -57.11 | X-H torsion

> <Gold.Protein.ActiveResidues>
 VAL166  LYS551  ARG553  GLY616  TRP617  ASP618  TYR619  PRO620  LYS621  CYS622 
 ASP623  PHE694  ASN695  SER759  ASP760  ASP761  ALA762  ILE779  LEU786  VAL792 
 PHE793  MET794  SER795  GLU796  ALA797  LYS798  CYS799  TRP800  GLU811  SER814 

> <Gold.Protein.RotatedAtoms>
  150.8697  134.8068  159.7145 H   0  0  0  0  0  0  0  0  0  0  0  0  # atno 6907 bound_to 6896
  152.4706  134.4966  159.9721 H   0  0  0  0  0  0  0  0  0  0  0  0  # atno 6908 bound_to 6896
  151.5056  133.3457  159.2912 H   0  0  0  0  0  0  0  0  0  0  0  0  # atno 6909 bound_to 6896
  145.1484  139.3225  143.4579 H   0  0  0  0  0  0  0  0  0  0  0  0  # atno 7974 bound_to 7965
  154.9937  140.0395  157.2331 H   0  0  0  0  0  0  0  0  0  0  0  0  # atno 8008 bound_to 7997
  154.7605  140.2783  155.6195 H   0  0  0  0  0  0  0  0  0  0  0  0  # atno 8009 bound_to 7997
  156.2903  140.2629  156.2382 H   0  0  0  0  0  0  0  0  0  0  0  0  # atno 8010 bound_to 7997
  139.8520  143.7187  152.2657 H   0  0  0  0  0  0  0  0  0  0  0  0  # atno 10167 bound_to 10162
  156.2473  130.7132  151.1017 H   0  0  0  0  0  0  0  0  0  0  0  0  # atno 10718 bound_to 10713
  152.9786  135.5906  154.4117 H   0  0  0  0  0  0  0  0  0  0  0  0  # atno 10763 bound_to 10752
  154.3752  135.2767  155.2245 H   0  0  0  0  0  0  0  0  0  0  0  0  # atno 10764 bound_to 10752
  154.4183  135.6065  153.6049 H   0  0  0  0  0  0  0  0  0  0  0  0  # atno 10765 bound_to 10752
  140.3993  134.1736  155.7663 H   0  0  0  0  0  0  0  0  0  0  0  0  # atno 11005 bound_to 11000
  146.3497  140.1548  142.8592 LP  0  0  0  0  0  0  0  0  0  0  0  0  # atno 17320 bound_to 7965
  145.0457  140.8979  143.5025 LP  0  0  0  0  0  0  0  0  0  0  0  0  # atno 17321 bound_to 7965
  139.7456  144.7548  151.0584 LP  0  0  0  0  0  0  0  0  0  0  0  0  # atno 17342 bound_to 10162
  140.7786  143.4920  150.9881 LP  0  0  0  0  0  0  0  0  0  0  0  0  # atno 17343 bound_to 10162
  157.7200  131.0687  150.6173 LP  0  0  0  0  0  0  0  0  0  0  0  0  # atno 17370 bound_to 10713
  156.6251  130.4416  149.5807 LP  0  0  0  0  0  0  0  0  0  0  0  0  # atno 17371 bound_to 10713
  141.1863  133.8306  157.1075 LP  0  0  0  0  0  0  0  0  0  0  0  0  # atno 17394 bound_to 11000
  140.0348  134.9883  157.0851 LP  0  0  0  0  0  0  0  0  0  0  0  0  # atno 17395 bound_to 11000

$$$$
