#       Name:                AV-unprocessed.smi:1783
#       Creating user name   scv26
#       Creation time:       Fri Mar 27 08:43:30 2020


#       File generated by GOLD software.
#

@<TRIPOS>MOLECULE
AV-unprocessed.smi:1783
    36    37     1
SMALL
NO_CHARGES


@<TRIPOS>ATOM
      1 ****        -0.6975   1.1616  -0.6234 O.2            1 S1                 0.0000
      2 ****        -0.9257   0.0101  -0.2529 C.2            1 S1                 0.0000
      3 ****         0.0032  -0.8690   0.1723 N.am           1 S1                 0.0000
      4 ****         1.3924  -0.7089   0.3146 C.2            1 S1                 0.0000
      5 ****         2.0463   0.4824   0.3074 C.2            1 S1                 0.0000
      6 ****         3.4885   0.5726   0.4622 C.2            1 S1                 0.0000
      7 ****         4.2003   1.9162   0.5052 C.3            1 S1                 0.0000
      8 ****         5.3306   1.8453   1.2097 F              1 S1                 0.0000
      9 ****         4.5056   2.3066  -0.7314 F              1 S1                 0.0000
     10 ****         3.4232   2.8500   1.0542 F              1 S1                 0.0000
     11 ****         4.1464  -0.5870   0.6439 C.2            1 S1                 0.0000
     12 ****         3.4828  -1.8157   0.6530 N.am           1 S1                 0.0000
     13 ****         2.1469  -1.9592   0.5036 C.2            1 S1                 0.0000
     14 ****         1.6363  -3.0785   0.5297 O.2            1 S1                 0.0000
     15 ****        -2.3661  -0.5155  -0.2649 C.3            1 S1                 0.0000
     16 ****        -3.1692  -0.1255  -1.5207 C.3            1 S1                 0.0000
     17 ****        -4.2180   0.8361  -0.9958 C.3            1 S1                 0.0000
     18 ****        -4.3908   0.3599   0.4389 C.3            1 S1                 0.0000
     19 ****        -3.0611   0.0665   0.8358 O.3            1 S1                 0.0000
     20 ****         4.0484  -2.6416   0.7857 H              1 S1                 0.0000
     21 ****        -0.3343  -1.7950   0.3935 H              1 S1                 0.0000
     22 ****         1.5122   1.4113   0.1958 H              1 S1                 0.0000
     23 ****         5.2126  -0.6648   0.7982 H              1 S1                 0.0000
     24 ****        -2.3739  -1.6010  -0.1514 H              1 S1                 0.0000
     25 ****        -2.5700   0.3202  -2.3160 H              1 S1                 0.0000
     26 ****        -3.6507  -1.0114  -1.9365 H              1 S1                 0.0000
     27 ****        -3.8306   1.8556  -1.0056 H              1 S1                 0.0000
     28 ****        -5.1452   0.8147  -1.5690 H              1 S1                 0.0000
     29 ****        -4.8465   1.1119   1.0833 H              1 S1                 0.0000
     30 ****        -4.9958  -0.5471   0.4803 H              1 S1                 0.0000
     31 ****         0.2397   1.5104  -0.6236 LP             1 S1                 0.0000
     32 ****        -1.4494   1.7484  -0.9242 LP             1 S1                 0.0000
     33 ****         0.6477  -3.1799   0.4184 LP             1 S1                 0.0000
     34 ****         2.2100  -3.8868   0.6623 LP             1 S1                 0.0000
     35 ****        -2.6008   0.9091   1.1153 LP             1 S1                 0.0000
     36 ****        -3.0739  -0.5762   1.6019 LP             1 S1                 0.0000
@<TRIPOS>BOND
    1    1    2 2     
    2    2    3 am    
    3    2   15 1     
    4    3    4 1     
    5    3   21 1     
    6    4   13 1     
    7    4    5 2     
    8    5    6 1     
    9    5   22 1     
   10    6    7 1     
   11    6   11 2     
   12    7    8 1     
   13    7    9 1     
   14    7   10 1     
   15   11   12 1     
   16   11   23 1     
   17   12   20 1     
   18   12   13 am    
   19   13   14 2     
   20   15   19 1     
   21   15   16 1     
   22   15   24 1     
   23   16   17 1     
   24   16   25 1     
   25   16   26 1     
   26   17   18 1     
   27   17   27 1     
   28   17   28 1     
   29   18   19 1     
   30   18   29 1     
   31   18   30 1     
   32    1   31 1     
   33    1   32 1     
   34   14   33 1     
   35   14   34 1     
   36   19   35 1     
   37   19   36 1     
@<TRIPOS>SUBSTRUCTURE
      1 S1             1
@<TRIPOS>SET
LONE_PAIRS      STATIC     ATOMS    <user>   **** ""
6 31 32 33 34 35 36
DONOR_HYDROGENS      STATIC     ATOMS    <user>   **** ""
2 21 20
ATOM$BLUE        STATIC     ATOMS    COLORGROUP SYSTEM
6 31 32 33 34 35 36
ATOM$RED        STATIC     ATOMS    COLORGROUP SYSTEM
2 21 20
