AV-unprocessed.smi:2328|AV-procd|sdf|9300|dock8
  -GOLD-   2272012523D 1   1.00000     0.00000
 Structure written by MMmdl.
 40 40  0  0  0  0  0  0  0  0  1 V2000
  152.4064  138.0725  155.2205 C   0  0  0  0  0  0  0  0  0  0  0  0
  151.0649  137.3593  155.4708 C   0  0  0  0  0  0  0  0  0  0  0  0
  149.8141  138.2840  155.6608 C   0  0  1  0  0  0  0  0  0  0  0  0
  149.9773  139.1091  156.8789 N   0  0  0  0  0  0  0  0  0  0  0  0
  150.7921  140.1366  157.2002 C   0  0  0  0  0  0  0  0  0  0  0  0
  151.6027  140.5480  156.3718 O   0  0  0  0  0  0  0  0  0  0  0  0
  150.7249  140.8086  158.5837 C   0  0  0  0  0  0  0  0  0  0  0  0
  151.5610  142.0766  158.6287 C   0  0  0  0  0  0  0  0  0  0  0  0
  152.6376  142.2069  159.5303 C   0  0  0  0  0  0  0  0  0  0  0  0
  153.3773  143.4051  159.5342 C   0  0  0  0  0  0  0  0  0  0  0  0
  153.0086  144.4239  158.6332 C   0  0  0  0  0  0  0  0  0  0  0  0
  151.9813  144.3096  157.7640 N   0  0  0  0  0  0  0  0  0  0  0  0
  151.2769  143.1578  157.7672 C   0  0  0  0  0  0  0  0  0  0  0  0
  149.6226  139.1695  154.3930 C   0  0  0  0  0  0  0  0  0  0  0  0
  149.2108  138.5900  153.2590 N   0  0  0  0  0  0  0  0  0  0  0  0
  149.8409  140.3792  154.4357 O   0  0  0  0  0  0  0  0  0  0  0  0
  148.5196  137.4150  155.8912 C   0  0  0  0  0  0  0  0  0  0  0  0
  147.2074  138.2128  156.0648 C   0  0  0  0  0  0  0  0  0  0  0  0
  148.6359  136.3925  157.0464 C   0  0  0  0  0  0  0  0  0  0  0  0
  153.2004  137.3416  155.0668 H   0  0  0  0  0  0  0  0  0  0  0  0
  152.7015  138.6906  156.0673 H   0  0  0  0  0  0  0  0  0  0  0  0
  152.3745  138.7050  154.3338 H   0  0  0  0  0  0  0  0  0  0  0  0
  150.9027  136.6641  154.6493 H   0  0  0  0  0  0  0  0  0  0  0  0
  151.1893  136.7048  156.3326 H   0  0  0  0  0  0  0  0  0  0  0  0
  149.3606  138.8311  157.6281 H   0  0  0  0  0  0  0  0  0  0  0  0
  149.6857  141.0470  158.8118 H   0  0  0  0  0  0  0  0  0  0  0  0
  151.0835  140.1549  159.3750 H   0  0  0  0  0  0  0  0  0  0  0  0
  152.8910  141.4063  160.2097 H   0  0  0  0  0  0  0  0  0  0  0  0
  154.2067  143.5408  160.2127 H   0  0  0  0  0  0  0  0  0  0  0  0
  153.5542  145.3556  158.6098 H   0  0  0  0  0  0  0  0  0  0  0  0
  150.4602  143.0979  157.0626 H   0  0  0  0  0  0  0  0  0  0  0  0
  149.0798  139.1487  152.4281 H   0  0  0  0  0  0  0  0  0  0  0  0
  149.0310  137.5966  153.2390 H   0  0  0  0  0  0  0  0  0  0  0  0
  148.3815  136.8069  154.9973 H   0  0  0  0  0  0  0  0  0  0  0  0
  147.2370  138.8713  156.9326 H   0  0  0  0  0  0  0  0  0  0  0  0
  146.3630  137.5376  156.2057 H   0  0  0  0  0  0  0  0  0  0  0  0
  146.9713  138.8163  155.1896 H   0  0  0  0  0  0  0  0  0  0  0  0
  148.6995  136.8823  158.0180 H   0  0  0  0  0  0  0  0  0  0  0  0
  149.5049  135.7434  156.9415 H   0  0  0  0  0  0  0  0  0  0  0  0
  147.7617  135.7414  157.0743 H   0  0  0  0  0  0  0  0  0  0  0  0
  1  2  1  0  0  0  0
  1 20  1  0  0  0  0
  1 21  1  0  0  0  0
  1 22  1  0  0  0  0
  2  3  1  0  0  0  0
  2 23  1  0  0  0  0
  2 24  1  0  0  0  0
  3  4  1  0  0  0  0
  3 14  1  0  0  0  0
  3 17  1  0  0  0  0
  4  5  1  0  0  0  0
  4 25  1  0  0  0  0
  5  6  2  0  0  0  0
  5  7  1  0  0  0  0
  7  8  1  0  0  0  0
  7 26  1  0  0  0  0
  7 27  1  0  0  0  0
  8 13  1  0  0  0  0
  8  9  2  0  0  0  0
  9 10  1  0  0  0  0
  9 28  1  0  0  0  0
 10 11  2  0  0  0  0
 10 29  1  0  0  0  0
 11 12  1  0  0  0  0
 11 30  1  0  0  0  0
 12 13  2  0  0  0  0
 13 31  1  0  0  0  0
 14 15  1  0  0  0  0
 14 16  2  0  0  0  0
 15 32  1  0  0  0  0
 15 33  1  0  0  0  0
 17 18  1  0  0  0  0
 17 19  1  0  0  0  0
 17 34  1  0  0  0  0
 18 35  1  0  0  0  0
 18 36  1  0  0  0  0
 18 37  1  0  0  0  0
 19 38  1  0  0  0  0
 19 39  1  0  0  0  0
 19 40  1  0  0  0  0
M  END
> <s_m_source_file>
AV-unprocessed.smi

> <i_m_source_file_index>
2328

> <i_lp_mmshare_version>
43012

> <i_f3d_flags>
0

> <s_epik_input>
W0NIM11bQ0gyXVtDQEBdKEMoPU8pW05IMl0pKFtDSF0oW0NIM10pW0NIM10pW05IXUMoPU8pW0NIMl1jMVtjSF1bY0hdW2NIXW5bY0hdMQ==

> <s_epik_cmdline>
J2VwaWtfcHl0aG9uJywgJy1waCcsICc3LjAnLCAnLXRuJywgJzgnLCAnLW1hJywgJzIwMCcsICctbWV0YWxfYmluZGluZycsICctaW1hZScsICc8aW5maWxlLm1hZT4nLCAnLW9tYWUnLCAnPG91dGZpbGUubWFlPic=

> <r_epik_Ionization_Penalty>
0.00378489

> <r_epik_Ionization_Penalty_Charging>
0

> <r_epik_Ionization_Penalty_Neutral>
0.00378489

> <r_epik_State_Penalty>
0.00269972

> <r_epik_Charging_Adjusted_Penalty>
0.00269972

> <i_epik_Tot_Q>
0

> <i_epik_Tot_abs_Q>
0

> <r_epik_Metal_State_Penalty>
-0

> <b_epik_Metal_Only>
0

> <s_lp_Force_Field>
OPLS_2005

> <r_lp_Energy>
14.3821

> <b_lp_Chiralities_Consistent>
1

> <s_lp_Variant>
AV-unprocessed.smi:2328-1

> <Gold.Version>
5.8.1

> <Gold.Id.Protein>
6NUR|6NUR_protein|mol2

> <Gold.PLP.Fitness>
42.7576

> <Gold.PLP.PLP>
-32.8601

> <Gold.PLP.part.hbond>
-2.8289

> <Gold.PLP.part.metal>
0.0000

> <Gold.PLP.part.buried>
-4.8904

> <Gold.PLP.part.nonpolar>
-25.8942

> <Gold.PLP.part.repulsive>
0.3571

> <Gold.PLP.ligand.clash>
0.0000

> <Gold.PLP.ligand.torsion>
0.5464

> <Gold.PLP.Chemscore.Hbond>
2.6084

> <Gold.PLP.Chemscore.CHOScore>
0.9907

> <Gold.PLP.Chemscore.Metal>
0.0000

> <Gold.Chemscore.Hbonds>
donor molecule, donor type, donor heavy atom, donor atom, acceptor molecule, acceptor atom, score
      L1  H    15    32       P1  7957  1.00
      L1  H    15    33       P1  7948  0.69
      P1  H  7989  7998       L1    16  0.77
      L1  C    13    31       P1  8028  0.69

> <Gold.PLP.Chemscore.Internal.Correction>
0.1928

> <Gold.Rescore>
     Score         DG    S(hbond)    S(metal)    S(lipo)     H(rot)  DE(clash)    DE(int)     intcor
     12.05     -16.76       2.37        0.00      79.03       2.29       0.00       4.71       ----

> <Gold.Chemscore.Fitness>
12.0476

> <Gold.Chemscore.DG>
-16.7617

> <Gold.Chemscore.ZeroCoef>
-5.4800

> <Gold.Chemscore.Hbond>
2.3661

> <Gold.Chemscore.Metal>
0.0000

> <Gold.Chemscore.Lipo>
79.0323

> <Gold.Chemscore.Internal_Hbond>
0.0000

> <Gold.Chemscore.DEClash>
0.0048

> <Gold.Chemscore.DEInternal>
4.7094

> <Gold.Chemscore.Rot>
2.2921

> <Gold.Chemscore.Internal.Correction>
   9.000000E+99

> <Gold.Chemscore.Hbonds>
donor molecule, donor type, donor heavy atom, donor atom, acceptor molecule, acceptor atom, score
      L1  H    15    32       P1  7957  0.96
      L1  H    15    33       P1  7948  0.68
      P1  H  7989  7998       L1    16  0.61

> <Gold.Chemscore.Hbond.Weighted>
-7.9027

> <Gold.Chemscore.Metal.Weighted>
-0.0000

> <Gold.Chemscore.Lipo.Weighted>
-9.2468

> <Gold.Chemscore.Internal_Hbond.Weighted>
0.0000

> <Gold.Chemscore.DEClash.Weighted>
0.0048

> <Gold.Chemscore.DEInternal.Weighted>
4.7094

> <Gold.Chemscore.Rot.Weighted>
5.8677

> <Gold.Chemscore.Internal.Correction.Weighted>
   9.000000E+99

> <Gold.Protein.RotatedTorsions>
[ 6907 6896 6895 6894 ] final -170.28 input  -60.11 | X-H torsion
[ 7974 7965 7964 7962 ] final  102.55 input  175.53 | X-H torsion
[ 8008 7997 7996 7995 ] final   87.60 input   59.86 | X-H torsion
[ 10167 10162 10161 10158 ] final   26.44 input  -65.29 | X-H torsion
[ 10718 10713 10712 10709 ] final   -3.46 input   66.30 | X-H torsion
[ 10763 10752 10751 10750 ] final  -32.92 input  -60.55 | X-H torsion
[ 11005 11000 10999 10996 ] final  145.15 input  -57.11 | X-H torsion

> <Gold.Protein.ActiveResidues>
 VAL166  LYS551  ARG553  GLY616  TRP617  ASP618  TYR619  PRO620  LYS621  CYS622 
 ASP623  PHE694  ASN695  SER759  ASP760  ASP761  ALA762  ILE779  LEU786  VAL792 
 PHE793  MET794  SER795  GLU796  ALA797  LYS798  CYS799  TRP800  GLU811  SER814 

> <Gold.Protein.RotatedAtoms>
  151.5051  133.3496  159.2875 H   0  0  0  0  0  0  0  0  0  0  0  0  # atno 6907 bound_to 6896
  150.8748  134.8131  159.7192 H   0  0  0  0  0  0  0  0  0  0  0  0  # atno 6908 bound_to 6896
  152.4723  134.4940  159.9756 H   0  0  0  0  0  0  0  0  0  0  0  0  # atno 6909 bound_to 6896
  145.3576  139.2425  143.3524 H   0  0  0  0  0  0  0  0  0  0  0  0  # atno 7974 bound_to 7965
  155.9774  140.3380  155.6631 H   0  0  0  0  0  0  0  0  0  0  0  0  # atno 8008 bound_to 7997
  155.6594  140.0714  157.2577 H   0  0  0  0  0  0  0  0  0  0  0  0  # atno 8009 bound_to 7997
  154.4182  140.1711  156.1748 H   0  0  0  0  0  0  0  0  0  0  0  0  # atno 8010 bound_to 7997
  140.5022  144.0296  150.6337 H   0  0  0  0  0  0  0  0  0  0  0  0  # atno 10167 bound_to 10162
  156.7758  130.5314  149.5759 H   0  0  0  0  0  0  0  0  0  0  0  0  # atno 10718 bound_to 10713
  153.8217  135.6874  153.4826 H   0  0  0  0  0  0  0  0  0  0  0  0  # atno 10763 bound_to 10752
  153.1565  135.4597  154.9710 H   0  0  0  0  0  0  0  0  0  0  0  0  # atno 10764 bound_to 10752
  154.7925  135.3307  154.7688 H   0  0  0  0  0  0  0  0  0  0  0  0  # atno 10765 bound_to 10752
  140.0689  134.9163  157.1311 H   0  0  0  0  0  0  0  0  0  0  0  0  # atno 11005 bound_to 11000
  146.2941  140.4204  142.8728 LP  0  0  0  0  0  0  0  0  0  0  0  0  # atno 17320 bound_to 7965
  144.8670  140.7220  143.6071 LP  0  0  0  0  0  0  0  0  0  0  0  0  # atno 17321 bound_to 7965
  140.3595  143.2916  152.0399 LP  0  0  0  0  0  0  0  0  0  0  0  0  # atno 17342 bound_to 10162
  139.4875  144.6313  151.7064 LP  0  0  0  0  0  0  0  0  0  0  0  0  # atno 17343 bound_to 10162
  156.1249  130.6136  151.0249 LP  0  0  0  0  0  0  0  0  0  0  0  0  # atno 17370 bound_to 10713
  157.6670  131.0869  150.7705 LP  0  0  0  0  0  0  0  0  0  0  0  0  # atno 17371 bound_to 10713
  140.3657  134.2445  155.7182 LP  0  0  0  0  0  0  0  0  0  0  0  0  # atno 17394 bound_to 11000
  141.2004  133.7988  157.0491 LP  0  0  0  0  0  0  0  0  0  0  0  0  # atno 17395 bound_to 11000

$$$$
