AV-unprocessed.smi:11|AV-procd|sdf|60|dock1
  -GOLD-   2262015173D 1   1.00000     0.00000
 Structure written by MMmdl.
 33 35  0  0  0  0  0  0  0  0  1 V2000
  146.5582  138.0700  153.2032 C   0  0  0  0  0  0  0  0  0  0  0  0
  147.0951  139.5053  153.0842 C   0  0  0  0  0  0  0  0  0  0  0  0
  146.8120  140.4165  154.3044 C   0  0  2  0  0  0  0  0  0  0  0  0
  145.4205  140.4250  154.5575 O   0  0  0  0  0  0  0  0  0  0  0  0
  147.3097  141.8469  154.0743 C   0  0  0  0  0  0  0  0  0  0  0  0
  148.7783  141.8006  154.5092 C   0  0  0  0  0  0  0  0  0  0  0  0
  148.8957  140.6913  155.4518 N   0  0  0  0  0  0  0  0  0  0  0  0
  150.0682  139.9162  155.3245 C   0  0  0  0  0  0  0  0  0  0  0  0
  150.2073  139.0729  154.2695 N   0  0  0  0  0  0  0  0  0  0  0  0
  151.3612  138.3635  154.1764 C   0  0  0  0  0  0  0  0  0  0  0  0
  152.4225  138.3827  155.0206 N   0  0  0  0  0  0  0  0  0  0  0  0
  152.3002  139.2206  156.0928 C   0  0  0  0  0  0  0  0  0  0  0  0
  153.1730  139.4298  157.0732 N   0  0  0  0  0  0  0  0  0  0  0  0
  152.6041  140.3254  157.8988 C   0  0  0  0  0  0  0  0  0  0  0  0
  151.2879  140.7481  157.4676 C   0  0  0  0  0  0  0  0  0  0  0  0
  151.1304  139.9979  156.2634 C   0  0  0  0  0  0  0  0  0  0  0  0
  147.5949  140.0345  155.5684 C   0  0  0  0  0  0  0  0  0  0  0  0
  146.7638  137.5091  152.2915 H   0  0  0  0  0  0  0  0  0  0  0  0
  145.4794  138.0566  153.3589 H   0  0  0  0  0  0  0  0  0  0  0  0
  147.0248  137.5297  154.0261 H   0  0  0  0  0  0  0  0  0  0  0  0
  148.1691  139.4570  152.9009 H   0  0  0  0  0  0  0  0  0  0  0  0
  146.6648  139.9618  152.1919 H   0  0  0  0  0  0  0  0  0  0  0  0
  144.9765  140.0772  153.7992 H   0  0  0  0  0  0  0  0  0  0  0  0
  147.1811  142.1940  153.0485 H   0  0  0  0  0  0  0  0  0  0  0  0
  146.7732  142.5403  154.7241 H   0  0  0  0  0  0  0  0  0  0  0  0
  149.4179  141.6306  153.6415 H   0  0  0  0  0  0  0  0  0  0  0  0
  149.0800  142.7415  154.9693 H   0  0  0  0  0  0  0  0  0  0  0  0
  151.4433  137.7034  153.3256 H   0  0  0  0  0  0  0  0  0  0  0  0
  153.1131  140.6679  158.7911 H   0  0  0  0  0  0  0  0  0  0  0  0
  150.6080  141.4457  157.9395 H   0  0  0  0  0  0  0  0  0  0  0  0
  147.1093  140.4596  156.4479 H   0  0  0  0  0  0  0  0  0  0  0  0
  147.6328  138.9598  155.7379 H   0  0  0  0  0  0  0  0  0  0  0  0
  153.2220  137.7960  154.8285 H   0  0  0  0  0  0  0  0  0  0  0  0
  1  2  1  0  0  0  0
  1 18  1  0  0  0  0
  1 19  1  0  0  0  0
  1 20  1  0  0  0  0
  2  3  1  0  0  0  0
  2 21  1  0  0  0  0
  2 22  1  0  0  0  0
  3 17  1  0  0  0  0
  3  4  1  0  0  0  0
  3  5  1  0  0  0  0
  4 23  1  0  0  0  0
  5  6  1  0  0  0  0
  5 24  1  0  0  0  0
  5 25  1  0  0  0  0
  6  7  1  0  0  0  0
  6 26  1  0  0  0  0
  6 27  1  0  0  0  0
  7  8  1  0  0  0  0
  7 17  1  0  0  0  0
  8 16  2  0  0  0  0
  8  9  1  0  0  0  0
  9 10  2  0  0  0  0
 10 11  1  0  0  0  0
 10 28  1  0  0  0  0
 11 12  1  0  0  0  0
 11 33  1  0  0  0  0
 12 16  1  0  0  0  0
 12 13  2  0  0  0  0
 13 14  1  0  0  0  0
 14 15  2  0  0  0  0
 14 29  1  0  0  0  0
 15 16  1  0  0  0  0
 15 30  1  0  0  0  0
 17 31  1  0  0  0  0
 17 32  1  0  0  0  0
M  END
> <s_m_source_file>
AV-unprocessed.smi

> <i_m_source_file_index>
11

> <i_lp_mmshare_version>
43012

> <i_f3d_flags>
0

> <s_epik_input>
W0NIM11bQ0gyXVtDQEBdMShbT0hdKVtDSDJdW0NIMl1OKFtDSDJdMSljKG5bY0hdbjIpYyhjMjMpW2NIXVtjSF1bbkhdMw==

> <s_epik_cmdline>
J2VwaWtfcHl0aG9uJywgJy1waCcsICc3LjAnLCAnLXRuJywgJzgnLCAnLW1hJywgJzIwMCcsICctbWV0YWxfYmluZGluZycsICctaW1hZScsICc8aW5maWxlLm1hZT4nLCAnLW9tYWUnLCAnPG91dGZpbGUubWFlPic=

> <r_lp_tautomer_probability>
1.75997e-05

> <r_epik_Ionization_Penalty>
5.31594

> <r_epik_Ionization_Penalty_Charging>
0

> <r_epik_Ionization_Penalty_Neutral>
5.31594

> <r_epik_State_Penalty>
7.79803

> <r_epik_Charging_Adjusted_Penalty>
7.79803

> <i_epik_Tot_Q>
0

> <i_epik_Tot_abs_Q>
0

> <r_epik_Metal_State_Penalty>
4.83511

> <b_epik_Metal_Only>
1

> <s_lp_Force_Field>
OPLS_2005

> <r_lp_Energy>
41.8975

> <b_lp_Chiralities_Consistent>
1

> <s_lp_Variant>
AV-unprocessed.smi:11-6

> <Gold.Version>
5.8.1

> <Gold.Id.Protein>
6NUR|6NUR_protein|mol2

> <Gold.PLP.Fitness>
34.6838

> <Gold.PLP.PLP>
-25.8698

> <Gold.PLP.part.hbond>
-2.0000

> <Gold.PLP.part.metal>
0.0000

> <Gold.PLP.part.buried>
-1.7267

> <Gold.PLP.part.nonpolar>
-21.9272

> <Gold.PLP.part.repulsive>
0.4624

> <Gold.PLP.ligand.clash>
0.0000

> <Gold.PLP.ligand.torsion>
0.1825

> <Gold.PLP.Chemscore.Hbond>
2.0005

> <Gold.PLP.Chemscore.CHOScore>
1.0000

> <Gold.PLP.Chemscore.Metal>
0.0000

> <Gold.Chemscore.Hbonds>
donor molecule, donor type, donor heavy atom, donor atom, acceptor molecule, acceptor atom, score
      L1  H     4    23       P1 10175  0.86
      P1  H  7997  8010       L1    13  0.76
      L1  C    10    28       P1  7949  1.00

> <Gold.PLP.Chemscore.Internal.Correction>
0.1775

> <Gold.Rescore>
     Score         DG    S(hbond)    S(metal)    S(lipo)     H(rot)  DE(clash)    DE(int)     intcor
     10.81     -12.22       1.51        0.00      54.36       1.83       1.13       0.28       ----

> <Gold.Chemscore.Fitness>
10.8074

> <Gold.Chemscore.DG>
-12.2184

> <Gold.Chemscore.ZeroCoef>
-5.4800

> <Gold.Chemscore.Hbond>
1.5129

> <Gold.Chemscore.Metal>
0.0000

> <Gold.Chemscore.Lipo>
54.3647

> <Gold.Chemscore.Internal_Hbond>
0.0000

> <Gold.Chemscore.DEClash>
1.1274

> <Gold.Chemscore.DEInternal>
0.2836

> <Gold.Chemscore.Rot>
1.8263

> <Gold.Chemscore.Internal.Correction>
   9.000000E+99

> <Gold.Chemscore.Hbonds>
donor molecule, donor type, donor heavy atom, donor atom, acceptor molecule, acceptor atom, score
      L1  H     4    23       P1 10175  0.85
      P1  H  7997  8010       L1    13  0.29

> <Gold.Chemscore.Hbond.Weighted>
-5.0530

> <Gold.Chemscore.Metal.Weighted>
-0.0000

> <Gold.Chemscore.Lipo.Weighted>
-6.3607

> <Gold.Chemscore.Internal_Hbond.Weighted>
0.0000

> <Gold.Chemscore.DEClash.Weighted>
1.1274

> <Gold.Chemscore.DEInternal.Weighted>
0.2836

> <Gold.Chemscore.Rot.Weighted>
4.6752

> <Gold.Chemscore.Internal.Correction.Weighted>
   9.000000E+99

> <Gold.Protein.RotatedTorsions>
[ 6907 6896 6895 6894 ] final    2.78 input  -60.11 | X-H torsion
[ 7974 7965 7964 7962 ] final  -82.52 input  175.53 | X-H torsion
[ 8008 7997 7996 7995 ] final   61.34 input   59.86 | X-H torsion
[ 10167 10162 10161 10158 ] final   28.79 input  -65.29 | X-H torsion
[ 10718 10713 10712 10709 ] final -117.15 input   66.30 | X-H torsion
[ 10763 10752 10751 10750 ] final   14.16 input  -60.55 | X-H torsion
[ 11005 11000 10999 10996 ] final -177.71 input  -57.11 | X-H torsion

> <Gold.Protein.ActiveResidues>
 VAL166  LYS551  ARG553  GLY616  TRP617  ASP618  TYR619  PRO620  LYS621  CYS622 
 ASP623  PHE694  ASN695  SER759  ASP760  ASP761  ALA762  ILE779  LEU786  VAL792 
 PHE793  MET794  SER795  GLU796  ALA797  LYS798  CYS799  TRP800  GLU811  SER814 

> <Gold.Protein.RotatedAtoms>
  151.6145  135.1037  160.0088 H   0  0  0  0  0  0  0  0  0  0  0  0  # atno 6907 bound_to 6896
  152.4191  133.7082  159.6474 H   0  0  0  0  0  0  0  0  0  0  0  0  # atno 6908 bound_to 6896
  150.8078  133.8404  159.3218 H   0  0  0  0  0  0  0  0  0  0  0  0  # atno 6909 bound_to 6896
  145.5322  140.9520  143.1597 H   0  0  0  0  0  0  0  0  0  0  0  0  # atno 7974 bound_to 7965
  155.5969  140.3493  155.4582 H   0  0  0  0  0  0  0  0  0  0  0  0  # atno 8008 bound_to 7997
  156.0259  140.1264  157.0334 H   0  0  0  0  0  0  0  0  0  0  0  0  # atno 8009 bound_to 7997
  154.4333  140.1053  156.6015 H   0  0  0  0  0  0  0  0  0  0  0  0  # atno 8010 bound_to 7997
  140.4822  144.0599  150.6269 H   0  0  0  0  0  0  0  0  0  0  0  0  # atno 10167 bound_to 10162
  156.1013  130.6174  150.9127 H   0  0  0  0  0  0  0  0  0  0  0  0  # atno 10718 bound_to 10713
  153.1649  135.6802  153.8689 H   0  0  0  0  0  0  0  0  0  0  0  0  # atno 10763 bound_to 10752
  153.8072  135.3148  155.3398 H   0  0  0  0  0  0  0  0  0  0  0  0  # atno 10764 bound_to 10752
  154.7958  135.4807  154.0249 H   0  0  0  0  0  0  0  0  0  0  0  0  # atno 10765 bound_to 10752
  140.4378  134.6459  157.4743 H   0  0  0  0  0  0  0  0  0  0  0  0  # atno 11005 bound_to 11000
  144.7620  139.6934  143.7230 LP  0  0  0  0  0  0  0  0  0  0  0  0  # atno 17320 bound_to 7965
  146.2037  139.5347  142.9727 LP  0  0  0  0  0  0  0  0  0  0  0  0  # atno 17321 bound_to 7965
  140.3844  143.2785  152.0133 LP  0  0  0  0  0  0  0  0  0  0  0  0  # atno 17342 bound_to 10162
  139.4835  144.6129  151.7400 LP  0  0  0  0  0  0  0  0  0  0  0  0  # atno 17343 bound_to 10162
  157.6184  131.0931  150.8669 LP  0  0  0  0  0  0  0  0  0  0  0  0  # atno 17370 bound_to 10713
  156.8796  130.5174  149.5291 LP  0  0  0  0  0  0  0  0  0  0  0  0  # atno 17371 bound_to 10713
  140.0090  134.6720  155.9410 LP  0  0  0  0  0  0  0  0  0  0  0  0  # atno 17394 bound_to 11000
  141.1718  133.6538  156.4680 LP  0  0  0  0  0  0  0  0  0  0  0  0  # atno 17395 bound_to 11000

$$$$
