AV-unprocessed.smi:1260|AV-procd|sdf|5295|dock10
  -GOLD-   22720 4413D 1   1.00000     0.00000
 Structure written by MMmdl.
 37 39  0  0  0  0  0  0  0  0  2 V2000
  154.0993  139.3030  158.4819 O   0  0  0  0  0  0  0  0  0  0  0  0
  152.9059  139.5610  158.3294 C   0  0  0  0  0  0  0  0  0  0  0  0
  152.0098  138.5952  157.5509 C   0  0  0  0  0  0  0  0  0  0  0  0
  151.3331  139.2623  156.4538 N   0  0  0  0  0  0  0  0  0  0  0  0
  150.3633  140.1792  156.4496 C   0  0  0  0  0  0  0  0  0  0  0  0
  150.0151  140.5170  155.2177 N   0  0  0  0  0  0  0  0  0  0  0  0
  150.8486  139.7397  154.4309 N   0  0  0  0  0  0  0  0  0  0  0  0
  151.6330  138.9930  155.1588 N   0  0  0  0  0  0  0  0  0  0  0  0
  152.3257  140.6745  158.8048 N   0  0  0  0  0  0  0  0  0  0  0  0
  153.0013  141.7144  159.5745 C   0  0  2  0  0  0  0  0  0  0  0  0
  153.2179  141.3228  161.0471 C   0  0  0  0  0  0  0  0  0  0  0  0
  152.9788  142.6142  161.8542 C   0  0  0  0  0  0  0  0  0  0  0  0
  152.7569  143.6692  160.8472 N   0  3  2  0  0  0  0  0  0  0  0  0
  151.9846  144.8563  161.2744 C   0  0  0  0  0  0  0  0  0  0  0  0
  151.9322  145.8730  160.1163 C   0  0  0  0  0  0  0  0  0  0  0  0
  151.4113  145.2317  158.8139 C   0  0  0  0  0  0  0  0  0  0  0  0
  152.1941  143.9492  158.4727 C   0  0  0  0  0  0  0  0  0  0  0  0
  152.1698  142.9954  159.6790 C   0  0  1  0  0  0  0  0  0  0  0  0
  152.6109  137.7773  157.1517 H   0  0  0  0  0  0  0  0  0  0  0  0
  151.2636  138.1540  158.2136 H   0  0  0  0  0  0  0  0  0  0  0  0
  149.9123  140.5899  157.3408 H   0  0  0  0  0  0  0  0  0  0  0  0
  151.3396  140.8049  158.6301 H   0  0  0  0  0  0  0  0  0  0  0  0
  153.9743  141.9460  159.1356 H   0  0  0  0  0  0  0  0  0  0  0  0
  152.5117  140.5541  161.3650 H   0  0  0  0  0  0  0  0  0  0  0  0
  154.2223  140.9274  161.2028 H   0  0  0  0  0  0  0  0  0  0  0  0
  152.0937  142.5027  162.4825 H   0  0  0  0  0  0  0  0  0  0  0  0
  153.8218  142.8652  162.4986 H   0  0  0  0  0  0  0  0  0  0  0  0
  150.9767  144.5586  161.5676 H   0  0  0  0  0  0  0  0  0  0  0  0
  152.4565  145.3053  162.1490 H   0  0  0  0  0  0  0  0  0  0  0  0
  151.3050  146.7214  160.3921 H   0  0  0  0  0  0  0  0  0  0  0  0
  152.9319  146.2734  159.9433 H   0  0  0  0  0  0  0  0  0  0  0  0
  150.3535  144.9905  158.9270 H   0  0  0  0  0  0  0  0  0  0  0  0
  151.4792  145.9441  157.9910 H   0  0  0  0  0  0  0  0  0  0  0  0
  151.7548  143.4691  157.5979 H   0  0  0  0  0  0  0  0  0  0  0  0
  153.2229  144.1991  158.2104 H   0  0  0  0  0  0  0  0  0  0  0  0
  151.1352  142.7326  159.9130 H   0  0  0  0  0  0  0  0  0  0  0  0
  153.6708  143.9909  160.5613 H   0  0  0  0  0  0  0  0  0  0  0  0
  1  2  2  0  0  0  0
  2  3  1  0  0  0  0
  2  9  1  0  0  0  0
  3  4  1  0  0  0  0
  3 19  1  0  0  0  0
  3 20  1  0  0  0  0
  4  8  1  0  0  0  0
  4  5  1  0  0  0  0
  5  6  2  0  0  0  0
  5 21  1  0  0  0  0
  6  7  1  0  0  0  0
  7  8  2  0  0  0  0
  9 10  1  0  0  0  0
  9 22  1  0  0  0  0
 10 18  1  0  0  0  0
 10 11  1  0  0  0  0
 10 23  1  0  0  0  0
 11 12  1  0  0  0  0
 11 24  1  0  0  0  0
 11 25  1  0  0  0  0
 12 13  1  0  0  0  0
 12 26  1  0  0  0  0
 12 27  1  0  0  0  0
 13 18  1  0  0  0  0
 13 14  1  0  0  0  0
 13 37  1  0  0  0  0
 14 15  1  0  0  0  0
 14 28  1  0  0  0  0
 14 29  1  0  0  0  0
 15 16  1  0  0  0  0
 15 30  1  0  0  0  0
 15 31  1  0  0  0  0
 16 17  1  0  0  0  0
 16 32  1  0  0  0  0
 16 33  1  0  0  0  0
 17 18  1  0  0  0  0
 17 34  1  0  0  0  0
 17 35  1  0  0  0  0
 18 36  1  0  0  0  0
M  CHG  1  13   1
M  END
> <s_m_source_file>
AV-unprocessed.smi

> <i_m_source_file_index>
1260

> <i_lp_mmshare_version>
43012

> <i_f3d_flags>
0

> <s_epik_input>
bjFubltjSF1uMVtDSDJdQyg9TylbTkhdW0NASF0oW0NIMl1bQ0gyXTIpW0NAQEhdKE4yMylbQ0gyXVtDSDJdW0NIMl1bQ0gyXTM=

> <s_epik_cmdline>
J2VwaWtfcHl0aG9uJywgJy1waCcsICc3LjAnLCAnLXRuJywgJzgnLCAnLW1hJywgJzIwMCcsICctbWV0YWxfYmluZGluZycsICctaW1hZScsICc8aW5maWxlLm1hZT4nLCAnLW9tYWUnLCAnPG91dGZpbGUubWFlPic=

> <r_lp_tautomer_probability>
1

> <r_epik_Ionization_Penalty>
0.00234324

> <r_epik_Ionization_Penalty_Charging>
0.00233897

> <r_epik_Ionization_Penalty_Neutral>
4.26861e-06

> <r_epik_State_Penalty>
0.00161477

> <r_epik_Charging_Adjusted_Penalty>
0.00395374

> <i_epik_Tot_Q>
1

> <i_epik_Tot_abs_Q>
1

> <r_epik_Metal_State_Penalty>
-0

> <b_epik_Metal_Only>
0

> <s_lp_Force_Field>
OPLS_2005

> <r_lp_Energy>
37.0555

> <b_lp_Chiralities_Consistent>
1

> <s_lp_Variant>
AV-unprocessed.smi:1260-3

> <Gold.Version>
5.8.1

> <Gold.Id.Protein>
6NUR|6NUR_protein|mol2

> <Gold.PLP.Fitness>
42.4838

> <Gold.PLP.PLP>
-37.0871

> <Gold.PLP.part.hbond>
-2.5160

> <Gold.PLP.part.metal>
0.0000

> <Gold.PLP.part.buried>
-1.2460

> <Gold.PLP.part.nonpolar>
-32.9889

> <Gold.PLP.part.repulsive>
0.3751

> <Gold.PLP.ligand.clash>
0.0000

> <Gold.PLP.ligand.torsion>
0.3068

> <Gold.PLP.Chemscore.Hbond>
2.0000

> <Gold.PLP.Chemscore.CHOScore>
0.0000

> <Gold.PLP.Chemscore.Metal>
0.0000

> <Gold.Chemscore.Hbonds>
donor molecule, donor type, donor heavy atom, donor atom, acceptor molecule, acceptor atom, score
      P1  H  7989  7998       L1     7  1.00
      P1  H  7997  8009       L1     1  1.00

> <Gold.PLP.Chemscore.Internal.Correction>
0.0102

> <Gold.Rescore>
     Score         DG    S(hbond)    S(metal)    S(lipo)     H(rot)  DE(clash)    DE(int)     intcor
     15.99     -16.58       1.43        0.00      97.20       1.98       0.10       0.49       ----

> <Gold.Chemscore.Fitness>
15.9947

> <Gold.Chemscore.DG>
-16.5767

> <Gold.Chemscore.ZeroCoef>
-5.4800

> <Gold.Chemscore.Hbond>
1.4316

> <Gold.Chemscore.Metal>
0.0000

> <Gold.Chemscore.Lipo>
97.2031

> <Gold.Chemscore.Internal_Hbond>
0.0000

> <Gold.Chemscore.DEClash>
0.0952

> <Gold.Chemscore.DEInternal>
0.4867

> <Gold.Chemscore.Rot>
1.9757

> <Gold.Chemscore.Internal.Correction>
   9.000000E+99

> <Gold.Chemscore.Hbonds>
donor molecule, donor type, donor heavy atom, donor atom, acceptor molecule, acceptor atom, score
      P1  H  7989  7998       L1     7  0.36
      P1  H  7997  8009       L1     1  0.55

> <Gold.Chemscore.Hbond.Weighted>
-4.7817

> <Gold.Chemscore.Metal.Weighted>
-0.0000

> <Gold.Chemscore.Lipo.Weighted>
-11.3728

> <Gold.Chemscore.Internal_Hbond.Weighted>
0.0000

> <Gold.Chemscore.DEClash.Weighted>
0.0952

> <Gold.Chemscore.DEInternal.Weighted>
0.4867

> <Gold.Chemscore.Rot.Weighted>
5.0578

> <Gold.Chemscore.Internal.Correction.Weighted>
   9.000000E+99

> <Gold.Protein.RotatedTorsions>
[ 6907 6896 6895 6894 ] final -104.69 input  -60.11 | X-H torsion
[ 7974 7965 7964 7962 ] final   96.79 input  175.53 | X-H torsion
[ 8008 7997 7996 7995 ] final  133.80 input   59.86 | X-H torsion
[ 10167 10162 10161 10158 ] final   51.14 input  -65.29 | X-H torsion
[ 10718 10713 10712 10709 ] final -106.62 input   66.30 | X-H torsion
[ 10763 10752 10751 10750 ] final -174.43 input  -60.55 | X-H torsion
[ 11005 11000 10999 10996 ] final  -34.62 input  -57.11 | X-H torsion

> <Gold.Protein.ActiveResidues>
 VAL166  LYS551  ARG553  GLY616  TRP617  ASP618  TYR619  PRO620  LYS621  CYS622 
 ASP623  PHE694  ASN695  SER759  ASP760  ASP761  ALA762  ILE779  LEU786  VAL792 
 PHE793  MET794  SER795  GLU796  ALA797  LYS798  CYS799  TRP800  GLU811  SER814 

> <Gold.Protein.RotatedAtoms>
  150.7300  134.0239  159.3710 H   0  0  0  0  0  0  0  0  0  0  0  0  # atno 6907 bound_to 6896
  151.8205  135.0651  160.0434 H   0  0  0  0  0  0  0  0  0  0  0  0  # atno 6908 bound_to 6896
  152.3007  133.5616  159.5653 H   0  0  0  0  0  0  0  0  0  0  0  0  # atno 6909 bound_to 6896
  145.4342  139.2307  143.3127 H   0  0  0  0  0  0  0  0  0  0  0  0  # atno 7974 bound_to 7965
  156.2995  140.2512  156.3313 H   0  0  0  0  0  0  0  0  0  0  0  0  # atno 8008 bound_to 7997
  154.9142  140.0402  157.1982 H   0  0  0  0  0  0  0  0  0  0  0  0  # atno 8009 bound_to 7997
  154.8374  140.2885  155.5686 H   0  0  0  0  0  0  0  0  0  0  0  0  # atno 8010 bound_to 7997
  140.2651  144.3329  150.6306 H   0  0  0  0  0  0  0  0  0  0  0  0  # atno 10167 bound_to 10162
  156.0398  130.5622  150.7707 H   0  0  0  0  0  0  0  0  0  0  0  0  # atno 10718 bound_to 10713
  154.5963  135.2850  155.0583 H   0  0  0  0  0  0  0  0  0  0  0  0  # atno 10763 bound_to 10752
  154.1865  135.6448  153.5052 H   0  0  0  0  0  0  0  0  0  0  0  0  # atno 10764 bound_to 10752
  153.0140  135.5436  154.6666 H   0  0  0  0  0  0  0  0  0  0  0  0  # atno 10765 bound_to 10752
  140.9731  133.7098  156.1557 H   0  0  0  0  0  0  0  0  0  0  0  0  # atno 11005 bound_to 11000
  146.2591  140.5082  142.8861 LP  0  0  0  0  0  0  0  0  0  0  0  0  # atno 17320 bound_to 7965
  144.8163  140.6473  143.6382 LP  0  0  0  0  0  0  0  0  0  0  0  0  # atno 17321 bound_to 7965
  140.5935  143.2167  151.7208 LP  0  0  0  0  0  0  0  0  0  0  0  0  # atno 17342 bound_to 10162
  139.5005  144.3903  152.0286 LP  0  0  0  0  0  0  0  0  0  0  0  0  # atno 17343 bound_to 10162
  157.5201  131.0931  151.0089 LP  0  0  0  0  0  0  0  0  0  0  0  0  # atno 17370 bound_to 10713
  157.0421  130.5753  149.5358 LP  0  0  0  0  0  0  0  0  0  0  0  0  # atno 17371 bound_to 10713
  140.7299  134.4265  157.5567 LP  0  0  0  0  0  0  0  0  0  0  0  0  # atno 17394 bound_to 11000
  139.8920  134.8766  156.2293 LP  0  0  0  0  0  0  0  0  0  0  0  0  # atno 17395 bound_to 11000

$$$$
