AV-unprocessed.smi:103|AV-procd|sdf|980|dock4
  -GOLD-   2262017543D 1   1.00000     0.00000
 Structure written by MMmdl.
 53 55  0  0  0  0  0  0  0  0  1 V2000
  147.2838  134.7841  161.2126 C   0  0  0  0  0  0  0  0  0  0  0  0
  147.9801  136.0868  160.8413 C   0  0  0  0  0  0  0  0  0  0  0  0
  147.6129  137.1669  161.3036 O   0  0  0  0  0  0  0  0  0  0  0  0
  148.9978  135.8996  159.9877 O   0  0  0  0  0  0  0  0  0  0  0  0
  149.7380  137.0177  159.5266 C   0  0  0  0  0  0  0  0  0  0  0  0
  149.0810  137.5801  158.2588 C   0  0  1  0  0  0  0  0  0  0  0  0
  147.8794  138.2875  158.5653 O   0  0  0  0  0  0  0  0  0  0  0  0
  147.7015  139.3399  157.6640 C   0  0  2  0  0  0  0  0  0  0  0  0
  146.3740  139.1838  156.9865 N   0  0  0  0  0  0  0  0  0  0  0  0
  145.1029  139.4616  157.4548 C   0  0  0  0  0  0  0  0  0  0  0  0
  144.6694  140.1467  159.0523 S   0  0  0  0  0  0  0  0  0  0  0  0
  144.7025  138.6612  160.1351 C   0  0  0  0  0  0  0  0  0  0  0  0
  145.7638  141.0495  159.4429 O   0  0  0  0  0  0  0  0  0  0  0  0
  143.2904  140.6485  158.9522 O   0  0  0  0  0  0  0  0  0  0  0  0
  144.1172  139.2708  156.6205 N   0  0  0  0  0  0  0  0  0  0  0  0
  144.7475  138.7545  155.4988 C   0  0  0  0  0  0  0  0  0  0  0  0
  144.2923  138.3039  154.2340 C   0  0  0  0  0  0  0  0  0  0  0  0
  143.0007  138.3099  153.8772 N   0  0  0  0  0  0  0  0  0  0  0  0
  145.2031  137.8442  153.3450 N   0  0  0  0  0  0  0  0  0  0  0  0
  146.4974  137.8266  153.6783 C   0  0  0  0  0  0  0  0  0  0  0  0
  147.0714  138.2178  154.8190 N   0  0  0  0  0  0  0  0  0  0  0  0
  146.1533  138.6828  155.7169 C   0  0  0  0  0  0  0  0  0  0  0  0
  148.8555  139.2838  156.6604 C   0  0  1  0  0  0  0  0  0  0  0  0
  149.2143  140.5857  156.2175 O   0  0  0  0  0  0  0  0  0  0  0  0
  150.4330  140.8106  155.7015 C   0  0  0  0  0  0  0  0  0  0  0  0
  150.9179  142.2300  155.9632 C   0  0  0  0  0  0  0  0  0  0  0  0
  151.1217  139.9967  155.0867 O   0  0  0  0  0  0  0  0  0  0  0  0
  149.9311  138.5943  157.4871 C   0  0  1  0  0  0  0  0  0  0  0  0
  150.5515  139.4943  158.4056 O   0  0  0  0  0  0  0  0  0  0  0  0
  151.8176  139.9066  158.2157 C   0  0  0  0  0  0  0  0  0  0  0  0
  152.3136  140.7915  159.3509 C   0  0  0  0  0  0  0  0  0  0  0  0
  152.5330  139.6373  157.2510 O   0  0  0  0  0  0  0  0  0  0  0  0
  147.1121  134.1767  160.3237 H   0  0  0  0  0  0  0  0  0  0  0  0
  146.3213  134.9865  161.6832 H   0  0  0  0  0  0  0  0  0  0  0  0
  147.8968  134.2138  161.9103 H   0  0  0  0  0  0  0  0  0  0  0  0
  149.8008  137.7838  160.3009 H   0  0  0  0  0  0  0  0  0  0  0  0
  150.7552  136.6949  159.2996 H   0  0  0  0  0  0  0  0  0  0  0  0
  148.8374  136.7595  157.5829 H   0  0  0  0  0  0  0  0  0  0  0  0
  147.6685  140.2786  158.2102 H   0  0  0  0  0  0  0  0  0  0  0  0
  144.4950  138.9585  161.1629 H   0  0  0  0  0  0  0  0  0  0  0  0
  145.6866  138.1958  160.0833 H   0  0  0  0  0  0  0  0  0  0  0  0
  143.9465  137.9504  159.8074 H   0  0  0  0  0  0  0  0  0  0  0  0
  142.3021  138.6470  154.5241 H   0  0  0  0  0  0  0  0  0  0  0  0
  142.7281  137.9741  152.9647 H   0  0  0  0  0  0  0  0  0  0  0  0
  147.1693  137.4469  152.9227 H   0  0  0  0  0  0  0  0  0  0  0  0
  148.5688  138.6443  155.8252 H   0  0  0  0  0  0  0  0  0  0  0  0
  150.3138  142.9445  155.4041 H   0  0  0  0  0  0  0  0  0  0  0  0
  151.9586  142.3418  155.6583 H   0  0  0  0  0  0  0  0  0  0  0  0
  150.8424  142.4655  157.0249 H   0  0  0  0  0  0  0  0  0  0  0  0
  150.6670  138.0887  156.8604 H   0  0  0  0  0  0  0  0  0  0  0  0
  151.6701  141.6648  159.4582 H   0  0  0  0  0  0  0  0  0  0  0  0
  153.3302  141.1332  159.1547 H   0  0  0  0  0  0  0  0  0  0  0  0
  152.3094  140.2394  160.2908 H   0  0  0  0  0  0  0  0  0  0  0  0
  1  2  1  0  0  0  0
  1 33  1  0  0  0  0
  1 34  1  0  0  0  0
  1 35  1  0  0  0  0
  2  3  2  0  0  0  0
  2  4  1  0  0  0  0
  4  5  1  0  0  0  0
  5  6  1  0  0  0  0
  5 36  1  0  0  0  0
  5 37  1  0  0  0  0
  6 28  1  0  0  0  0
  6  7  1  0  0  0  0
  6 38  1  0  0  0  0
  7  8  1  0  0  0  0
  8  9  1  0  0  0  0
  8 23  1  0  0  0  0
  8 39  1  0  0  0  0
  9 22  1  0  0  0  0
  9 10  1  0  0  0  0
 10 11  1  0  0  0  0
 10 15  2  0  0  0  0
 11 12  1  0  0  0  0
 11 13  2  0  0  0  0
 11 14  2  0  0  0  0
 12 40  1  0  0  0  0
 12 41  1  0  0  0  0
 12 42  1  0  0  0  0
 15 16  1  0  0  0  0
 16 22  2  0  0  0  0
 16 17  1  0  0  0  0
 17 18  1  0  0  0  0
 17 19  2  0  0  0  0
 18 43  1  0  0  0  0
 18 44  1  0  0  0  0
 19 20  1  0  0  0  0
 20 21  2  0  0  0  0
 20 45  1  0  0  0  0
 21 22  1  0  0  0  0
 23 24  1  0  0  0  0
 23 28  1  0  0  0  0
 23 46  1  0  0  0  0
 24 25  1  0  0  0  0
 25 26  1  0  0  0  0
 25 27  2  0  0  0  0
 26 47  1  0  0  0  0
 26 48  1  0  0  0  0
 26 49  1  0  0  0  0
 28 29  1  0  0  0  0
 28 50  1  0  0  0  0
 29 30  1  0  0  0  0
 30 31  1  0  0  0  0
 30 32  2  0  0  0  0
 31 51  1  0  0  0  0
 31 52  1  0  0  0  0
 31 53  1  0  0  0  0
M  END
> <s_m_source_file>
AV-unprocessed.smi

> <i_m_source_file_index>
103

> <i_lp_mmshare_version>
43012

> <i_f3d_flags>
0

> <s_epik_input>
W0NIM11DKD1PKU9bQ0gyXVtDQEBIXTFPW0NASF0oW0NAQEhdKE9DKD1PKVtDSDNdKVtDQEhdMU9DKD1PKVtDSDNdKW4oYyhuMilTKD1PKSg9TylbQ0gzXSljKGMyMyluW2NIXW5jM1tOSDJd

> <s_epik_cmdline>
J2VwaWtfcHl0aG9uJywgJy1waCcsICc3LjAnLCAnLXRuJywgJzgnLCAnLW1hJywgJzIwMCcsICctbWV0YWxfYmluZGluZycsICctaW1hZScsICc8aW5maWxlLm1hZT4nLCAnLW9tYWUnLCAnPG91dGZpbGUubWFlPic=

> <r_lp_tautomer_probability>
1

> <r_epik_Ionization_Penalty>
1.51338e-05

> <r_epik_Ionization_Penalty_Charging>
0

> <r_epik_Ionization_Penalty_Neutral>
1.51338e-05

> <r_epik_State_Penalty>
-0

> <r_epik_Charging_Adjusted_Penalty>
0

> <i_epik_Tot_Q>
0

> <i_epik_Tot_abs_Q>
0

> <r_epik_Metal_State_Penalty>
-0

> <b_epik_Metal_Only>
0

> <s_epik_Chemistry_Notes>
This compound has an ester and may undergo hydrolysis at high or low pH. This compound contains an acetal/aminal-like group ( X-CH(R)-Y where X, Y are N, S, or O) that may be acid/base labile, releasing an aldehyde.

> <s_lp_Force_Field>
OPLS_2005

> <r_lp_Energy>
20.0914

> <b_lp_Chiralities_Consistent>
1

> <s_lp_Variant>
AV-unprocessed.smi:103-4

> <Gold.Version>
5.8.1

> <Gold.Id.Protein>
6NUR|6NUR_protein|mol2

> <Gold.PLP.Fitness>
39.1548

> <Gold.PLP.PLP>
-25.3672

> <Gold.PLP.part.hbond>
-7.9304

> <Gold.PLP.part.metal>
0.0000

> <Gold.PLP.part.buried>
-2.5461

> <Gold.PLP.part.nonpolar>
-15.7293

> <Gold.PLP.part.repulsive>
0.3731

> <Gold.PLP.ligand.clash>
0.0000

> <Gold.PLP.ligand.torsion>
2.9251

> <Gold.PLP.Chemscore.Hbond>
4.5193

> <Gold.PLP.Chemscore.CHOScore>
1.0000

> <Gold.PLP.Chemscore.Metal>
0.0000

> <Gold.Chemscore.Hbonds>
donor molecule, donor type, donor heavy atom, donor atom, acceptor molecule, acceptor atom, score
      P1  H  6931  6943       L1     3  0.96
      P1  H  6934  6946       L1    13  0.72
      P1  H  6934  6947       L1     3  0.86
      P1  H  7989  7998       L1    27  1.00
      P1  H  7997  8009       L1    32  1.00
      L1  C    20    45       P1  7948  1.00

> <Gold.PLP.Chemscore.Internal.Correction>
3.0800

> <Gold.Rescore>
     Score         DG    S(hbond)    S(metal)    S(lipo)     H(rot)  DE(clash)    DE(int)     intcor
      5.69     -12.14       3.97        0.00      36.60       4.25       2.18       4.27       ----

> <Gold.Chemscore.Fitness>
5.6888

> <Gold.Chemscore.DG>
-12.1441

> <Gold.Chemscore.ZeroCoef>
-5.4800

> <Gold.Chemscore.Hbond>
3.9673

> <Gold.Chemscore.Metal>
0.0000

> <Gold.Chemscore.Lipo>
36.5983

> <Gold.Chemscore.Internal_Hbond>
0.0000

> <Gold.Chemscore.DEClash>
2.1804

> <Gold.Chemscore.DEInternal>
4.2749

> <Gold.Chemscore.Rot>
4.2456

> <Gold.Chemscore.Internal.Correction>
   9.000000E+99

> <Gold.Chemscore.Hbonds>
donor molecule, donor type, donor heavy atom, donor atom, acceptor molecule, acceptor atom, score
      P1  H  6931  6943       L1     3  0.81
      P1  H  6934  6946       L1    13  0.72
      P1  H  6934  6947       L1     3  0.86
      P1  H  7989  7998       L1    27  0.55
      P1  H  7997  8009       L1    32  0.95

> <Gold.Chemscore.Hbond.Weighted>
-13.2508

> <Gold.Chemscore.Metal.Weighted>
-0.0000

> <Gold.Chemscore.Lipo.Weighted>
-4.2820

> <Gold.Chemscore.Internal_Hbond.Weighted>
0.0000

> <Gold.Chemscore.DEClash.Weighted>
2.1804

> <Gold.Chemscore.DEInternal.Weighted>
4.2749

> <Gold.Chemscore.Rot.Weighted>
10.8687

> <Gold.Chemscore.Internal.Correction.Weighted>
   9.000000E+99

> <Gold.Protein.RotatedTorsions>
[ 6907 6896 6895 6894 ] final  147.75 input  -60.11 | X-H torsion
[ 7974 7965 7964 7962 ] final  -88.32 input  175.53 | X-H torsion
[ 8008 7997 7996 7995 ] final -171.85 input   59.86 | X-H torsion
[ 10167 10162 10161 10158 ] final   65.90 input  -65.29 | X-H torsion
[ 10718 10713 10712 10709 ] final  -67.43 input   66.30 | X-H torsion
[ 10763 10752 10751 10750 ] final   81.34 input  -60.55 | X-H torsion
[ 11005 11000 10999 10996 ] final  160.05 input  -57.11 | X-H torsion

> <Gold.Protein.ActiveResidues>
 VAL166  LYS551  ARG553  GLY616  TRP617  ASP618  TYR619  PRO620  LYS621  CYS622 
 ASP623  PHE694  ASN695  SER759  ASP760  ASP761  ALA762  ILE779  LEU786  VAL792 
 PHE793  MET794  SER795  GLU796  ALA797  LYS798  CYS799  TRP800  GLU811  SER814 

> <Gold.Protein.RotatedAtoms>
  152.1506  133.4519  159.4811 H   0  0  0  0  0  0  0  0  0  0  0  0  # atno 6907 bound_to 6896
  150.6895  134.2194  159.4399 H   0  0  0  0  0  0  0  0  0  0  0  0  # atno 6908 bound_to 6896
  152.0090  134.9886  160.0618 H   0  0  0  0  0  0  0  0  0  0  0  0  # atno 6909 bound_to 6896
  145.4548  140.9561  143.2002 H   0  0  0  0  0  0  0  0  0  0  0  0  # atno 7974 bound_to 7965
  155.9370  140.1101  157.1086 H   0  0  0  0  0  0  0  0  0  0  0  0  # atno 8008 bound_to 7997
  154.4082  140.1226  156.4943 H   0  0  0  0  0  0  0  0  0  0  0  0  # atno 8009 bound_to 7997
  155.7009  140.3472  155.4935 H   0  0  0  0  0  0  0  0  0  0  0  0  # atno 8010 bound_to 7997
  140.1062  144.4859  150.7006 H   0  0  0  0  0  0  0  0  0  0  0  0  # atno 10167 bound_to 10162
  156.0558  130.4278  150.1853 H   0  0  0  0  0  0  0  0  0  0  0  0  # atno 10718 bound_to 10713
  153.1109  135.4769  154.9033 H   0  0  0  0  0  0  0  0  0  0  0  0  # atno 10763 bound_to 10752
  154.7479  135.3098  154.8613 H   0  0  0  0  0  0  0  0  0  0  0  0  # atno 10764 bound_to 10752
  153.9203  135.6856  153.4801 H   0  0  0  0  0  0  0  0  0  0  0  0  # atno 10765 bound_to 10752
  140.2022  134.8329  157.3030 H   0  0  0  0  0  0  0  0  0  0  0  0  # atno 11005 bound_to 11000
  144.8039  139.6088  143.7059 LP  0  0  0  0  0  0  0  0  0  0  0  0  # atno 17320 bound_to 7965
  146.2484  139.6147  142.9444 LP  0  0  0  0  0  0  0  0  0  0  0  0  # atno 17321 bound_to 7965
  140.6951  143.2399  151.5024 LP  0  0  0  0  0  0  0  0  0  0  0  0  # atno 17342 bound_to 10162
  139.5644  144.2078  152.1742 LP  0  0  0  0  0  0  0  0  0  0  0  0  # atno 17343 bound_to 10162
  156.9930  130.9899  151.3410 LP  0  0  0  0  0  0  0  0  0  0  0  0  # atno 17370 bound_to 10713
  157.5526  130.8192  149.8164 LP  0  0  0  0  0  0  0  0  0  0  0  0  # atno 17371 bound_to 10713
  140.2042  134.4217  155.7646 LP  0  0  0  0  0  0  0  0  0  0  0  0  # atno 17394 bound_to 11000
  141.2227  133.7086  156.8233 LP  0  0  0  0  0  0  0  0  0  0  0  0  # atno 17395 bound_to 11000

$$$$
