#       Name:                AV-unprocessed.smi:3287
#       Creating user name   scv26
#       Creation time:       Fri Mar 27 18:52:57 2020


#       File generated by GOLD software.
#

@<TRIPOS>MOLECULE
AV-unprocessed.smi:3287
    46    47     1
SMALL
NO_CHARGES


@<TRIPOS>ATOM
      1 ****        -3.9735   3.5103  -0.3072 C.3            1 S1                 0.0000
      2 ****        -3.2216   2.1755  -0.1768 C.3            1 S1                 0.0000
      3 ****        -2.8623   1.8599   1.2883 C.3            1 S1                 0.0000
      4 ****        -2.1898   0.4843   1.4168 C.3            1 S1                 0.0000
      5 ****        -0.9431   0.3725   0.5218 C.3            1 S1                 0.0000
      6 ****        -0.3559  -0.9792   0.6524 N.4            1 S1                 1.0000
      7 ****         1.0407  -1.1105   0.1830 C.3            1 S1                 0.0000
      8 ****         1.5836  -2.5298   0.4243 C.3            1 S1                 0.0000
      9 ****         0.8107  -3.4468  -0.3255 O.3            1 S1                 0.0000
     10 ****         3.0605  -2.6199   0.0731 C.ar           1 S1                 0.0000
     11 ****         3.4907  -2.6663  -1.2708 C.ar           1 S1                 0.0000
     12 ****         4.8731  -2.7425  -1.5338 C.ar           1 S1                 0.0000
     13 ****         5.8114  -2.7719  -0.5636 N.ar           1 S1                 0.0000
     14 ****         5.3949  -2.7260   0.7196 C.ar           1 S1                 0.0000
     15 ****         4.0373  -2.6484   1.0904 C.ar           1 S1                 0.0000
     16 ****        -1.3090   0.6937  -0.9450 C.3            1 S1                 0.0000
     17 ****        -1.9812   2.0745  -1.1014 C.3            1 S1                 0.0000
     18 ****        -0.9670   3.2234  -0.9273 C.3            1 S1                 0.0000
     19 ****        -3.3884   4.3447   0.0795 H              1 S1                 0.0000
     20 ****        -4.9102   3.4850   0.2505 H              1 S1                 0.0000
     21 ****        -4.2184   3.7242  -1.3480 H              1 S1                 0.0000
     22 ****        -3.9193   1.4027  -0.5042 H              1 S1                 0.0000
     23 ****        -2.2046   2.6309   1.6908 H              1 S1                 0.0000
     24 ****        -3.7631   1.8791   1.9029 H              1 S1                 0.0000
     25 ****        -1.9190   0.3074   2.4584 H              1 S1                 0.0000
     26 ****        -2.9078  -0.2928   1.1498 H              1 S1                 0.0000
     27 ****        -0.2061   1.0924   0.8800 H              1 S1                 0.0000
     28 ****        -0.3674  -1.2257   1.6316 H              1 S1                 0.0000
     29 ****         1.1085  -0.8597  -0.8758 H              1 S1                 0.0000
     30 ****         1.6564  -0.3892   0.7221 H              1 S1                 0.0000
     31 ****         1.4632  -2.7871   1.4777 H              1 S1                 0.0000
     32 ****         1.1258  -4.3203  -0.1466 H              1 S1                 0.0000
     33 ****         2.7819  -2.6434  -2.0857 H              1 S1                 0.0000
     34 ****         5.2343  -2.7793  -2.5509 H              1 S1                 0.0000
     35 ****         6.1669  -2.7505   1.4746 H              1 S1                 0.0000
     36 ****         3.7590  -2.6122   2.1335 H              1 S1                 0.0000
     37 ****        -0.4269   0.6506  -1.5838 H              1 S1                 0.0000
     38 ****        -1.9873  -0.0742  -1.3201 H              1 S1                 0.0000
     39 ****        -2.3373   2.1369  -2.1308 H              1 S1                 0.0000
     40 ****        -0.5926   3.2932   0.0934 H              1 S1                 0.0000
     41 ****        -1.4072   4.1868  -1.1839 H              1 S1                 0.0000
     42 ****        -0.1070   3.0855  -1.5831 H              1 S1                 0.0000
     43 ****        -0.9344  -1.6388   0.1513 H              1 S1                 0.0000
     44 ****         0.9034  -3.2478  -1.3011 LP             1 S1                 0.0000
     45 ****        -0.1507  -3.3739  -0.0603 LP             1 S1                 0.0000
     46 ****         6.7843  -2.8260  -0.7885 LP             1 S1                 0.0000
@<TRIPOS>BOND
    1    1    2 1     
    2    1   19 1     
    3    1   20 1     
    4    1   21 1     
    5    2   17 1     
    6    2    3 1     
    7    2   22 1     
    8    3    4 1     
    9    3   23 1     
   10    3   24 1     
   11    4    5 1     
   12    4   25 1     
   13    4   26 1     
   14    5    6 1     
   15    5   16 1     
   16    5   27 1     
   17    6    7 1     
   18    6   28 1     
   19    6   43 1     
   20    7    8 1     
   21    7   29 1     
   22    7   30 1     
   23    8    9 1     
   24    8   10 1     
   25    8   31 1     
   26    9   32 1     
   27   10   15 ar    
   28   10   11 ar    
   29   11   12 ar    
   30   11   33 1     
   31   12   13 ar    
   32   12   34 1     
   33   13   14 ar    
   34   14   15 ar    
   35   14   35 1     
   36   15   36 1     
   37   16   17 1     
   38   16   37 1     
   39   16   38 1     
   40   17   18 1     
   41   17   39 1     
   42   18   40 1     
   43   18   41 1     
   44   18   42 1     
   45    9   44 1     
   46    9   45 1     
   47   13   46 1     
@<TRIPOS>SUBSTRUCTURE
      1 S1             1
@<TRIPOS>SET
LONE_PAIRS      STATIC     ATOMS    <user>   **** ""
3 44 45 46
DONOR_HYDROGENS      STATIC     ATOMS    <user>   **** ""
3 28 43 32
ATOM$BLUE        STATIC     ATOMS    COLORGROUP SYSTEM
3 44 45 46
ATOM$RED        STATIC     ATOMS    COLORGROUP SYSTEM
3 28 43 32
