AV-unprocessed.smi:1916|AV-procd|sdf|7764|dock5
  -GOLD-   22720 9503D 1   1.00000     0.00000
 Structure written by MMmdl.
 45 47  0  0  0  0  0  0  0  0  1 V2000
  147.3226  140.4013  158.2770 O   0  0  0  0  0  0  0  0  0  0  0  0
  148.2471  139.9116  157.6271 C   0  0  0  0  0  0  0  0  0  0  0  0
  148.5597  138.6064  157.6578 N   0  0  0  0  0  0  0  0  0  0  0  0
  147.8172  137.5768  158.3819 C   0  0  0  0  0  0  0  0  0  0  0  0
  148.7276  136.7324  159.2975 C   0  0  0  0  0  0  0  0  0  0  0  0
  148.0364  136.2228  160.5521 C   0  0  0  0  0  0  0  0  0  0  0  0
  147.8638  134.8383  160.7704 C   0  0  0  0  0  0  0  0  0  0  0  0
  147.1804  134.4216  161.9290 C   0  0  0  0  0  0  0  0  0  0  0  0
  146.7003  135.3989  162.8216 C   0  0  0  0  0  0  0  0  0  0  0  0
  146.9320  136.7554  162.5179 C   0  0  0  0  0  0  0  0  0  0  0  0
  147.5880  137.1660  161.4109 N   0  0  0  0  0  0  0  0  0  0  0  0
  149.0811  140.7939  156.6852 C   0  0  2  0  0  0  0  0  0  0  0  0
  150.1981  139.9997  155.9850 C   0  0  0  0  0  0  0  0  0  0  0  0
  151.4706  140.5028  156.6470 C   0  0  0  0  0  0  0  0  0  0  0  0
  152.5664  139.9783  156.4530 O   0  0  0  0  0  0  0  0  0  0  0  0
  151.2260  141.5441  157.4551 N   0  0  0  0  0  0  0  0  0  0  0  0
  152.2316  142.1948  158.3121 C   0  0  0  0  0  0  0  0  0  0  0  0
  152.1115  141.8947  159.8203 C   0  0  0  0  0  0  0  0  0  0  0  0
  152.7044  143.1233  160.5030 C   0  0  0  0  0  0  0  0  0  0  0  0
  152.2275  144.2847  159.6349 C   0  0  0  0  0  0  0  0  0  0  0  0
  152.2006  143.7363  158.2028 C   0  0  0  0  0  0  0  0  0  0  0  0
  149.8146  141.9092  157.4569 C   0  0  0  0  0  0  0  0  0  0  0  0
  149.3375  138.2938  157.0947 H   0  0  0  0  0  0  0  0  0  0  0  0
  147.0532  138.0695  158.9833 H   0  0  0  0  0  0  0  0  0  0  0  0
  147.2811  136.9284  157.6865 H   0  0  0  0  0  0  0  0  0  0  0  0
  149.1178  135.8814  158.7379 H   0  0  0  0  0  0  0  0  0  0  0  0
  149.5971  137.3218  159.5911 H   0  0  0  0  0  0  0  0  0  0  0  0
  148.2312  134.1123  160.0603 H   0  0  0  0  0  0  0  0  0  0  0  0
  147.0208  133.3717  162.1257 H   0  0  0  0  0  0  0  0  0  0  0  0
  146.1679  135.1162  163.7178 H   0  0  0  0  0  0  0  0  0  0  0  0
  146.5799  137.5315  163.1812 H   0  0  0  0  0  0  0  0  0  0  0  0
  148.4212  141.2371  155.9374 H   0  0  0  0  0  0  0  0  0  0  0  0
  150.1063  138.9179  156.0948 H   0  0  0  0  0  0  0  0  0  0  0  0
  150.2321  140.2270  154.9191 H   0  0  0  0  0  0  0  0  0  0  0  0
  153.2167  141.8527  157.9890 H   0  0  0  0  0  0  0  0  0  0  0  0
  151.0708  141.8170  160.1349 H   0  0  0  0  0  0  0  0  0  0  0  0
  152.6152  140.9705  160.1053 H   0  0  0  0  0  0  0  0  0  0  0  0
  152.3903  143.2194  161.5428 H   0  0  0  0  0  0  0  0  0  0  0  0
  153.7936  143.0680  160.4843 H   0  0  0  0  0  0  0  0  0  0  0  0
  151.2181  144.5703  159.9343 H   0  0  0  0  0  0  0  0  0  0  0  0
  152.8617  145.1663  159.7330 H   0  0  0  0  0  0  0  0  0  0  0  0
  153.0670  144.0859  157.6402 H   0  0  0  0  0  0  0  0  0  0  0  0
  151.3140  144.1007  157.6817 H   0  0  0  0  0  0  0  0  0  0  0  0
  149.6890  142.8685  156.9529 H   0  0  0  0  0  0  0  0  0  0  0  0
  149.4406  142.0180  158.4758 H   0  0  0  0  0  0  0  0  0  0  0  0
  1  2  2  0  0  0  0
  2  3  1  0  0  0  0
  2 12  1  0  0  0  0
  3  4  1  0  0  0  0
  3 23  1  0  0  0  0
  4  5  1  0  0  0  0
  4 24  1  0  0  0  0
  4 25  1  0  0  0  0
  5  6  1  0  0  0  0
  5 26  1  0  0  0  0
  5 27  1  0  0  0  0
  6 11  1  0  0  0  0
  6  7  2  0  0  0  0
  7  8  1  0  0  0  0
  7 28  1  0  0  0  0
  8  9  2  0  0  0  0
  8 29  1  0  0  0  0
  9 10  1  0  0  0  0
  9 30  1  0  0  0  0
 10 11  2  0  0  0  0
 10 31  1  0  0  0  0
 12 22  1  0  0  0  0
 12 13  1  0  0  0  0
 12 32  1  0  0  0  0
 13 14  1  0  0  0  0
 13 33  1  0  0  0  0
 13 34  1  0  0  0  0
 14 15  2  0  0  0  0
 14 16  1  0  0  0  0
 16 17  1  0  0  0  0
 16 22  1  0  0  0  0
 17 21  1  0  0  0  0
 17 18  1  0  0  0  0
 17 35  1  0  0  0  0
 18 19  1  0  0  0  0
 18 36  1  0  0  0  0
 18 37  1  0  0  0  0
 19 20  1  0  0  0  0
 19 38  1  0  0  0  0
 19 39  1  0  0  0  0
 20 21  1  0  0  0  0
 20 40  1  0  0  0  0
 20 41  1  0  0  0  0
 21 42  1  0  0  0  0
 21 43  1  0  0  0  0
 22 44  1  0  0  0  0
 22 45  1  0  0  0  0
M  END
> <s_m_source_file>
AV-unprocessed.smi

> <i_m_source_file_index>
1916

> <i_lp_mmshare_version>
43012

> <i_f3d_flags>
0

> <s_epik_input>
W0NIMl0xW0NIMl1bQ0gyXVtDSDJdW0NIXTFOKFtDSDJdMilDKD1PKVtDSDJdW0NASF0yQyg9TylbTkhdW0NIMl1bQ0gyXWMzW2NIXVtjSF1bY0hdW2NIXW4z

> <s_epik_cmdline>
J2VwaWtfcHl0aG9uJywgJy1waCcsICc3LjAnLCAnLXRuJywgJzgnLCAnLW1hJywgJzIwMCcsICctbWV0YWxfYmluZGluZycsICctaW1hZScsICc8aW5maWxlLm1hZT4nLCAnLW9tYWUnLCAnPG91dGZpbGUubWFlPic=

> <r_epik_Ionization_Penalty>
0.0252359

> <r_epik_Ionization_Penalty_Charging>
0

> <r_epik_Ionization_Penalty_Neutral>
0.0252359

> <r_epik_State_Penalty>
0.020532

> <r_epik_Charging_Adjusted_Penalty>
0.020532

> <i_epik_Tot_Q>
0

> <i_epik_Tot_abs_Q>
0

> <r_epik_Metal_State_Penalty>
0.0196901

> <b_epik_Metal_Only>
0

> <s_lp_Force_Field>
OPLS_2005

> <r_lp_Energy>
33.617

> <b_lp_Chiralities_Consistent>
1

> <s_lp_Variant>
AV-unprocessed.smi:1916-1

> <Gold.Version>
5.8.1

> <Gold.Id.Protein>
6NUR|6NUR_protein|mol2

> <Gold.PLP.Fitness>
52.4150

> <Gold.PLP.PLP>
-45.7165

> <Gold.PLP.part.hbond>
-4.0000

> <Gold.PLP.part.metal>
0.0000

> <Gold.PLP.part.buried>
-4.2303

> <Gold.PLP.part.nonpolar>
-36.7717

> <Gold.PLP.part.repulsive>
0.0880

> <Gold.PLP.ligand.clash>
0.9182

> <Gold.PLP.ligand.torsion>
0.4800

> <Gold.PLP.Chemscore.Hbond>
2.8320

> <Gold.PLP.Chemscore.CHOScore>
0.0000

> <Gold.PLP.Chemscore.Metal>
0.0000

> <Gold.Chemscore.Hbonds>
donor molecule, donor type, donor heavy atom, donor atom, acceptor molecule, acceptor atom, score
      P1  H  6931  6943       L1    11  0.98
      P1  H  6934  6947       L1    11  0.85
      P1  H  7997  8010       L1    15  1.00

> <Gold.PLP.Chemscore.Internal.Correction>
0.0807

> <Gold.Rescore>
     Score         DG    S(hbond)    S(metal)    S(lipo)     H(rot)  DE(clash)    DE(int)     intcor
     21.96     -22.61       2.35        0.00     114.62       1.61       0.03       0.61       ----

> <Gold.Chemscore.Fitness>
21.9584

> <Gold.Chemscore.DG>
-22.6052

> <Gold.Chemscore.ZeroCoef>
-5.4800

> <Gold.Chemscore.Hbond>
2.3470

> <Gold.Chemscore.Metal>
0.0000

> <Gold.Chemscore.Lipo>
114.6201

> <Gold.Chemscore.Internal_Hbond>
0.0000

> <Gold.Chemscore.DEClash>
0.0343

> <Gold.Chemscore.DEInternal>
0.6125

> <Gold.Chemscore.Rot>
1.6110

> <Gold.Chemscore.Internal.Correction>
   9.000000E+99

> <Gold.Chemscore.Hbonds>
donor molecule, donor type, donor heavy atom, donor atom, acceptor molecule, acceptor atom, score
      P1  H  6931  6943       L1    11  0.45
      P1  H  6934  6947       L1    11  0.71
      P1  H  7997  8010       L1    15  0.98

> <Gold.Chemscore.Hbond.Weighted>
-7.8389

> <Gold.Chemscore.Metal.Weighted>
-0.0000

> <Gold.Chemscore.Lipo.Weighted>
-13.4106

> <Gold.Chemscore.Internal_Hbond.Weighted>
0.0000

> <Gold.Chemscore.DEClash.Weighted>
0.0343

> <Gold.Chemscore.DEInternal.Weighted>
0.6125

> <Gold.Chemscore.Rot.Weighted>
4.1243

> <Gold.Chemscore.Internal.Correction.Weighted>
   9.000000E+99

> <Gold.Protein.RotatedTorsions>
[ 6907 6896 6895 6894 ] final  109.72 input  -60.11 | X-H torsion
[ 7974 7965 7964 7962 ] final -154.90 input  175.53 | X-H torsion
[ 8008 7997 7996 7995 ] final   86.62 input   59.86 | X-H torsion
[ 10167 10162 10161 10158 ] final -111.16 input  -65.29 | X-H torsion
[ 10718 10713 10712 10709 ] final   71.91 input   66.30 | X-H torsion
[ 10763 10752 10751 10750 ] final  169.69 input  -60.55 | X-H torsion
[ 11005 11000 10999 10996 ] final -158.31 input  -57.11 | X-H torsion

> <Gold.Protein.ActiveResidues>
 VAL166  LYS551  ARG553  GLY616  TRP617  ASP618  TYR619  PRO620  LYS621  CYS622 
 ASP623  PHE694  ASN695  SER759  ASP760  ASP761  ALA762  ILE779  LEU786  VAL792 
 PHE793  MET794  SER795  GLU796  ALA797  LYS798  CYS799  TRP800  GLU811  SER814 

> <Gold.Protein.RotatedAtoms>
  152.5054  133.8904  159.7390 H   0  0  0  0  0  0  0  0  0  0  0  0  # atno 6907 bound_to 6896
  150.9344  133.6720  159.2810 H   0  0  0  0  0  0  0  0  0  0  0  0  # atno 6908 bound_to 6896
  151.4053  135.0982  159.9621 H   0  0  0  0  0  0  0  0  0  0  0  0  # atno 6909 bound_to 6896
  144.7666  140.4324  143.5937 H   0  0  0  0  0  0  0  0  0  0  0  0  # atno 7974 bound_to 7965
  155.9651  140.3390  155.6525 H   0  0  0  0  0  0  0  0  0  0  0  0  # atno 8008 bound_to 7997
  155.6748  140.0731  157.2525 H   0  0  0  0  0  0  0  0  0  0  0  0  # atno 8009 bound_to 7997
  154.4152  140.1685  156.1905 H   0  0  0  0  0  0  0  0  0  0  0  0  # atno 8010 bound_to 7997
  140.1366  143.4314  152.1591 H   0  0  0  0  0  0  0  0  0  0  0  0  # atno 10167 bound_to 10162
  157.6475  130.9552  150.0855 H   0  0  0  0  0  0  0  0  0  0  0  0  # atno 10718 bound_to 10713
  154.3868  135.2753  155.2179 H   0  0  0  0  0  0  0  0  0  0  0  0  # atno 10763 bound_to 10752
  154.4262  135.5988  153.6044 H   0  0  0  0  0  0  0  0  0  0  0  0  # atno 10764 bound_to 10752
  152.9833  135.5984  154.4117 H   0  0  0  0  0  0  0  0  0  0  0  0  # atno 10765 bound_to 10752
  140.6550  134.4410  157.5235 H   0  0  0  0  0  0  0  0  0  0  0  0  # atno 11005 bound_to 11000
  145.6450  139.1556  143.2894 LP  0  0  0  0  0  0  0  0  0  0  0  0  # atno 17320 bound_to 7965
  146.1779  140.6543  142.9203 LP  0  0  0  0  0  0  0  0  0  0  0  0  # atno 17321 bound_to 7965
  139.5492  144.7324  151.4486 LP  0  0  0  0  0  0  0  0  0  0  0  0  # atno 17342 bound_to 10162
  140.6785  143.8135  150.7090 LP  0  0  0  0  0  0  0  0  0  0  0  0  # atno 17343 bound_to 10162
  156.1819  130.3650  149.9024 LP  0  0  0  0  0  0  0  0  0  0  0  0  # atno 17370 bound_to 10713
  156.6975  130.8920  151.3595 LP  0  0  0  0  0  0  0  0  0  0  0  0  # atno 17371 bound_to 10713
  139.9032  134.8507  156.1809 LP  0  0  0  0  0  0  0  0  0  0  0  0  # atno 17394 bound_to 11000
  141.0508  133.6890  156.1768 LP  0  0  0  0  0  0  0  0  0  0  0  0  # atno 17395 bound_to 11000

$$$$
