#       Name:                AV-unprocessed.smi:2491
#       Creating user name   scv26
#       Creation time:       Fri Mar 27 13:44:13 2020


#       File generated by GOLD software.
#

@<TRIPOS>MOLECULE
AV-unprocessed.smi:2491
    34    35     1
SMALL
NO_CHARGES


@<TRIPOS>ATOM
      1 ****        -2.0278  -2.2183   1.1290 N.am           1 S1                 0.0000
      2 ****        -1.5957  -0.9549   1.1130 C.2            1 S1                 0.0000
      3 ****        -2.3706   0.0003   1.1207 O.2            1 S1                 0.0000
      4 ****        -0.0706  -0.7362   1.1017 C.3            1 S1                 0.0000
      5 ****         0.3814  -0.5130   2.5651 C.3            1 S1                 0.0000
      6 ****         1.7808  -0.2752   2.6328 O.3            1 S1                 0.0000
      7 ****         2.1359   0.9041   1.9271 C.3            1 S1                 0.0000
      8 ****         1.8015   0.7147   0.4417 C.3            1 S1                 0.0000
      9 ****         0.3911   0.3765   0.2530 N.3            1 S1                 0.0000
     10 ****        -0.0562   0.5052  -1.0607 C.ar           1 S1                 0.0000
     11 ****        -0.2887  -0.6150  -1.7597 N.ar           1 S1                 0.0000
     12 ****        -0.7076  -0.4727  -3.0355 C.ar           1 S1                 0.0000
     13 ****        -0.8851   0.7984  -3.6154 C.ar           1 S1                 0.0000
     14 ****        -1.4194   0.9865  -5.2449 Cl             1 S1                 0.0000
     15 ****        -0.6018   1.9081  -2.7952 C.ar           1 S1                 0.0000
     16 ****        -0.1828   1.7561  -1.5201 N.ar           1 S1                 0.0000
     17 ****        -3.0196  -2.4074   1.1315 H              1 S1                 0.0000
     18 ****        -1.3644  -2.9792   1.1332 H              1 S1                 0.0000
     19 ****         0.4075  -1.6452   0.7313 H              1 S1                 0.0000
     20 ****        -0.1519   0.3233   3.0220 H              1 S1                 0.0000
     21 ****         0.1585  -1.3932   3.1695 H              1 S1                 0.0000
     22 ****         1.6154   1.7697   2.3409 H              1 S1                 0.0000
     23 ****         3.2038   1.0843   2.0516 H              1 S1                 0.0000
     24 ****         2.0601   1.6262  -0.0987 H              1 S1                 0.0000
     25 ****         2.4144  -0.0840   0.0213 H              1 S1                 0.0000
     26 ****        -0.9004  -1.3772  -3.5933 H              1 S1                 0.0000
     27 ****        -0.7081   2.9187  -3.1608 H              1 S1                 0.0000
     28 ****        -3.3580  -0.1570   1.1394 LP             1 S1                 0.0000
     29 ****        -2.0132   0.9342   1.1081 LP             1 S1                 0.0000
     30 ****         2.2637  -1.0535   2.2313 LP             1 S1                 0.0000
     31 ****         2.0487  -0.1751   3.5910 LP             1 S1                 0.0000
     32 ****        -0.1655   1.1042   0.6537 LP             1 S1                 0.0000
     33 ****        -0.1572  -1.5190  -1.3529 LP             1 S1                 0.0000
     34 ****         0.0244   2.5459  -0.9428 LP             1 S1                 0.0000
@<TRIPOS>BOND
    1    1    2 am    
    2    1   17 1     
    3    1   18 1     
    4    2    3 2     
    5    2    4 1     
    6    4    9 1     
    7    4    5 1     
    8    4   19 1     
    9    5    6 1     
   10    5   20 1     
   11    5   21 1     
   12    6    7 1     
   13    7    8 1     
   14    7   22 1     
   15    7   23 1     
   16    8    9 1     
   17    8   24 1     
   18    8   25 1     
   19    9   10 1     
   20   10   16 ar    
   21   10   11 ar    
   22   11   12 ar    
   23   12   13 ar    
   24   12   26 1     
   25   13   14 1     
   26   13   15 ar    
   27   15   16 ar    
   28   15   27 1     
   29    3   28 1     
   30    3   29 1     
   31    6   30 1     
   32    6   31 1     
   33    9   32 1     
   34   11   33 1     
   35   16   34 1     
@<TRIPOS>SUBSTRUCTURE
      1 S1             1
@<TRIPOS>SET
LONE_PAIRS      STATIC     ATOMS    <user>   **** ""
7 28 29 30 31 32 33 34
DONOR_HYDROGENS      STATIC     ATOMS    <user>   **** ""
2 17 18
ATOM$BLUE        STATIC     ATOMS    COLORGROUP SYSTEM
7 28 29 30 31 32 33 34
ATOM$RED        STATIC     ATOMS    COLORGROUP SYSTEM
2 17 18
