#       Name:                AV-unprocessed.smi:2400
#       Creating user name   scv26
#       Creation time:       Fri Mar 27 13:13:14 2020


#       File generated by GOLD software.
#

@<TRIPOS>MOLECULE
AV-unprocessed.smi:2400
    49    50     1
SMALL
NO_CHARGES


@<TRIPOS>ATOM
      1 ****        -2.6762  -1.7900   2.2645 C.3            1 S1                 0.0000
      2 ****        -3.1289  -1.4134   0.9753 O.3            1 S1                 0.0000
      3 ****        -3.2303  -0.0775   0.8076 C.2            1 S1                 0.0000
      4 ****        -2.2867   0.8993   0.6475 C.2            1 S1                 0.0000
      5 ****        -0.8725   0.7997   0.6141 N.am           1 S1                 0.0000
      6 ****        -0.1440  -0.2351   0.1668 C.2            1 S1                 0.0000
      7 ****        -0.6080  -1.2627  -0.3267 O.2            1 S1                 0.0000
      8 ****         1.1687  -0.0009   0.3030 N.am           1 S1                 0.0000
      9 ****         2.2377  -0.9126  -0.1057 C.3            1 S1                 0.0000
     10 ****         3.4396  -0.7950   0.8533 C.3            1 S1                 0.0000
     11 ****         4.6392  -0.3851   0.0010 C.3            1 S1                 0.0000
     12 ****         4.2930  -0.8773  -1.4007 C.3            1 S1                 0.0000
     13 ****         2.7776  -0.6511  -1.5457 C.3            1 S1                 0.0000
     14 ****         2.1698  -1.6376  -2.5605 C.3            1 S1                 0.0000
     15 ****         2.5261   0.7920  -2.0470 C.3            1 S1                 0.0000
     16 ****        -3.0223   2.1149   0.5783 C.2            1 S1                 0.0000
     17 ****        -2.5218   3.5232   0.4318 C.3            1 S1                 0.0000
     18 ****        -4.3297   1.8882   0.6432 N.2            1 S1                 0.0000
     19 ****        -4.4602   0.5455   0.7747 N.pl3          1 S1                 0.0000
     20 ****        -5.7808  -0.0386   0.8874 C.3            1 S1                 0.0000
     21 ****        -2.6401  -2.8767   2.3358 H              1 S1                 0.0000
     22 ****        -3.3518  -1.4239   3.0386 H              1 S1                 0.0000
     23 ****        -1.6754  -1.4079   2.4676 H              1 S1                 0.0000
     24 ****        -0.3650   1.6274   0.8901 H              1 S1                 0.0000
     25 ****         1.4546   0.8760   0.7129 H              1 S1                 0.0000
     26 ****         1.8772  -1.9407  -0.0311 H              1 S1                 0.0000
     27 ****         3.2741  -0.0864   1.6660 H              1 S1                 0.0000
     28 ****         3.6319  -1.7652   1.3134 H              1 S1                 0.0000
     29 ****         4.7389   0.7008  -0.0007 H              1 S1                 0.0000
     30 ****         5.5761  -0.8018   0.3713 H              1 S1                 0.0000
     31 ****         4.8788  -0.3772  -2.1730 H              1 S1                 0.0000
     32 ****         4.5215  -1.9424  -1.4642 H              1 S1                 0.0000
     33 ****         2.6015  -1.5006  -3.5524 H              1 S1                 0.0000
     34 ****         1.0919  -1.4987  -2.6477 H              1 S1                 0.0000
     35 ****         2.3437  -2.6736  -2.2680 H              1 S1                 0.0000
     36 ****         3.0178   0.9665  -3.0047 H              1 S1                 0.0000
     37 ****         2.9036   1.5381  -1.3473 H              1 S1                 0.0000
     38 ****         1.4638   0.9878  -2.1973 H              1 S1                 0.0000
     39 ****        -1.4340   3.5568   0.3721 H              1 S1                 0.0000
     40 ****        -2.8251   4.1369   1.2800 H              1 S1                 0.0000
     41 ****        -2.9154   3.9863  -0.4732 H              1 S1                 0.0000
     42 ****        -5.7604  -1.0755   0.5511 H              1 S1                 0.0000
     43 ****        -6.4912   0.5152   0.2726 H              1 S1                 0.0000
     44 ****        -6.1059  -0.0078   1.9274 H              1 S1                 0.0000
     45 ****        -4.0300  -1.8203   0.8251 LP             1 S1                 0.0000
     46 ****        -2.4854  -1.7693   0.2976 LP             1 S1                 0.0000
     47 ****        -1.5980  -1.3708  -0.4178 LP             1 S1                 0.0000
     48 ****         0.0049  -1.9895  -0.6367 LP             1 S1                 0.0000
     49 ****        -5.0638   2.5661   0.6033 LP             1 S1                 0.0000
@<TRIPOS>BOND
    1    1    2 1     
    2    1   21 1     
    3    1   22 1     
    4    1   23 1     
    5    2    3 1     
    6    3   19 1     
    7    3    4 2     
    8    4    5 1     
    9    4   16 1     
   10    5    6 am    
   11    5   24 1     
   12    6    7 2     
   13    6    8 am    
   14    8    9 1     
   15    8   25 1     
   16    9   13 1     
   17    9   10 1     
   18    9   26 1     
   19   10   11 1     
   20   10   27 1     
   21   10   28 1     
   22   11   12 1     
   23   11   29 1     
   24   11   30 1     
   25   12   13 1     
   26   12   31 1     
   27   12   32 1     
   28   13   14 1     
   29   13   15 1     
   30   14   33 1     
   31   14   34 1     
   32   14   35 1     
   33   15   36 1     
   34   15   37 1     
   35   15   38 1     
   36   16   17 1     
   37   16   18 2     
   38   17   39 1     
   39   17   40 1     
   40   17   41 1     
   41   18   19 1     
   42   19   20 1     
   43   20   42 1     
   44   20   43 1     
   45   20   44 1     
   46    2   45 1     
   47    2   46 1     
   48    7   47 1     
   49    7   48 1     
   50   18   49 1     
@<TRIPOS>SUBSTRUCTURE
      1 S1             1
@<TRIPOS>SET
LONE_PAIRS      STATIC     ATOMS    <user>   **** ""
5 45 46 47 48 49
DONOR_HYDROGENS      STATIC     ATOMS    <user>   **** ""
2 24 25
ATOM$BLUE        STATIC     ATOMS    COLORGROUP SYSTEM
5 45 46 47 48 49
ATOM$RED        STATIC     ATOMS    COLORGROUP SYSTEM
2 24 25
