AV-unprocessed.smi:690|AV-procd|sdf|3363|dock5
  -GOLD-   22720 0343D 1   1.00000     0.00000
 Structure written by MMmdl.
 46 48  0  0  0  0  0  0  0  0  1 V2000
  147.5755  140.9150  153.5056 C   0  0  0  0  0  0  0  0  0  0  0  0
  148.6412  141.6554  154.3161 C   0  0  0  0  0  0  0  0  0  0  0  0
  149.7835  140.8252  154.4388 O   0  0  0  0  0  0  0  0  0  0  0  0
  150.4188  140.9478  155.7017 C   0  0  1  0  0  0  0  0  0  0  0  0
  149.4719  140.8801  156.9043 C   0  0  0  0  0  0  0  0  0  0  0  0
  150.5337  140.0228  157.6026 C   0  0  2  0  0  0  0  0  0  0  0  0
  151.4596  140.8582  158.3657 N   0  0  0  0  0  0  0  0  0  0  0  0
  152.4579  140.4039  159.1402 C   0  0  0  0  0  0  0  0  0  0  0  0
  152.6768  139.2051  159.3085 O   0  0  0  0  0  0  0  0  0  0  0  0
  153.3737  141.4352  159.8221 C   0  0  0  0  0  0  0  0  0  0  0  0
  152.8201  142.7998  159.8930 N   0  0  0  0  0  0  0  0  0  0  0  0
  152.9822  143.6110  158.7520 C   0  0  0  0  0  0  0  0  0  0  0  0
  152.5047  144.8641  158.6976 C   0  0  0  0  0  0  0  0  0  0  0  0
  151.8092  145.3797  159.8529 C   0  0  0  0  0  0  0  0  0  0  0  0
  151.6446  144.6110  160.9479 C   0  0  0  0  0  0  0  0  0  0  0  0
  152.1586  143.2377  161.0087 C   0  0  0  0  0  0  0  0  0  0  0  0
  151.9968  142.5229  161.9977 O   0  0  0  0  0  0  0  0  0  0  0  0
  151.0754  139.6373  156.2009 C   0  0  0  0  0  0  0  0  0  0  0  0
  152.5791  139.4833  155.9810 C   0  0  0  0  0  0  0  0  0  0  0  0
  152.7593  138.7594  154.6455 C   0  0  0  0  0  0  0  0  0  0  0  0
  151.4668  137.9661  154.4291 C   0  0  0  0  0  0  0  0  0  0  0  0
  150.5533  138.3275  155.6050 C   0  0  0  0  0  0  0  0  0  0  0  0
  146.6820  141.5278  153.3851 H   0  0  0  0  0  0  0  0  0  0  0  0
  147.2822  139.9885  154.0000 H   0  0  0  0  0  0  0  0  0  0  0  0
  147.9453  140.6627  152.5116 H   0  0  0  0  0  0  0  0  0  0  0  0
  148.9079  142.5881  153.8166 H   0  0  0  0  0  0  0  0  0  0  0  0
  148.2478  141.9086  155.3016 H   0  0  0  0  0  0  0  0  0  0  0  0
  151.1043  141.7969  155.7540 H   0  0  0  0  0  0  0  0  0  0  0  0
  149.2610  141.8412  157.3746 H   0  0  0  0  0  0  0  0  0  0  0  0
  148.5550  140.3271  156.6935 H   0  0  0  0  0  0  0  0  0  0  0  0
  150.1080  139.1894  158.1640 H   0  0  0  0  0  0  0  0  0  0  0  0
  151.3458  141.8576  158.2796 H   0  0  0  0  0  0  0  0  0  0  0  0
  153.6260  141.0679  160.8183 H   0  0  0  0  0  0  0  0  0  0  0  0
  154.3219  141.4518  159.2829 H   0  0  0  0  0  0  0  0  0  0  0  0
  153.5076  143.1468  157.9298 H   0  0  0  0  0  0  0  0  0  0  0  0
  152.6342  145.4693  157.8123 H   0  0  0  0  0  0  0  0  0  0  0  0
  151.4189  146.3866  159.8392 H   0  0  0  0  0  0  0  0  0  0  0  0
  151.1210  145.0140  161.8025 H   0  0  0  0  0  0  0  0  0  0  0  0
  153.1054  140.4384  155.9885 H   0  0  0  0  0  0  0  0  0  0  0  0
  153.0113  138.8776  156.7787 H   0  0  0  0  0  0  0  0  0  0  0  0
  152.8821  139.4864  153.8419 H   0  0  0  0  0  0  0  0  0  0  0  0
  153.6422  138.1197  154.6493 H   0  0  0  0  0  0  0  0  0  0  0  0
  151.0058  138.2563  153.4844 H   0  0  0  0  0  0  0  0  0  0  0  0
  151.6504  136.8919  154.3880 H   0  0  0  0  0  0  0  0  0  0  0  0
  150.6060  137.5358  156.3535 H   0  0  0  0  0  0  0  0  0  0  0  0
  149.5100  138.3879  155.2935 H   0  0  0  0  0  0  0  0  0  0  0  0
  1  2  1  0  0  0  0
  1 23  1  0  0  0  0
  1 24  1  0  0  0  0
  1 25  1  0  0  0  0
  2  3  1  0  0  0  0
  2 26  1  0  0  0  0
  2 27  1  0  0  0  0
  3  4  1  0  0  0  0
  4 18  1  0  0  0  0
  4  5  1  0  0  0  0
  4 28  1  0  0  0  0
  5  6  1  0  0  0  0
  5 29  1  0  0  0  0
  5 30  1  0  0  0  0
  6  7  1  0  0  0  0
  6 18  1  0  0  0  0
  6 31  1  0  0  0  0
  7  8  1  0  0  0  0
  7 32  1  0  0  0  0
  8  9  2  0  0  0  0
  8 10  1  0  0  0  0
 10 11  1  0  0  0  0
 10 33  1  0  0  0  0
 10 34  1  0  0  0  0
 11 16  1  0  0  0  0
 11 12  1  0  0  0  0
 12 13  2  0  0  0  0
 12 35  1  0  0  0  0
 13 14  1  0  0  0  0
 13 36  1  0  0  0  0
 14 15  2  0  0  0  0
 14 37  1  0  0  0  0
 15 16  1  0  0  0  0
 15 38  1  0  0  0  0
 16 17  2  0  0  0  0
 18 22  1  0  0  0  0
 18 19  1  0  0  0  0
 19 20  1  0  0  0  0
 19 39  1  0  0  0  0
 19 40  1  0  0  0  0
 20 21  1  0  0  0  0
 20 41  1  0  0  0  0
 20 42  1  0  0  0  0
 21 22  1  0  0  0  0
 21 43  1  0  0  0  0
 21 44  1  0  0  0  0
 22 45  1  0  0  0  0
 22 46  1  0  0  0  0
M  END
> <s_m_source_file>
AV-unprocessed.smi

> <i_m_source_file_index>
690

> <i_lp_mmshare_version>
43012

> <i_f3d_flags>
0

> <s_epik_input>
W0NIMl0xW0NIMl1bQ0gyXVtDSDJdQzEyW0NASF0oT1tDSDJdW0NIM10pW0NIMl1bQ0BIXTJbTkhdQyg9TylbQ0gyXW4zW2NIXVtjSF1bY0hdW2NIXWMzPU8=

> <s_epik_cmdline>
J2VwaWtfcHl0aG9uJywgJy1waCcsICc3LjAnLCAnLXRuJywgJzgnLCAnLW1hJywgJzIwMCcsICctbWV0YWxfYmluZGluZycsICctaW1hZScsICc8aW5maWxlLm1hZT4nLCAnLW9tYWUnLCAnPG91dGZpbGUubWFlPic=

> <r_lp_tautomer_probability>
1

> <r_epik_Ionization_Penalty>
4.11691e-07

> <r_epik_Ionization_Penalty_Charging>
3.92797e-07

> <r_epik_Ionization_Penalty_Neutral>
1.88943e-08

> <r_epik_State_Penalty>
-0

> <r_epik_Charging_Adjusted_Penalty>
3.92797e-07

> <i_epik_Tot_Q>
0

> <i_epik_Tot_abs_Q>
0

> <r_epik_Metal_State_Penalty>
-0

> <b_epik_Metal_Only>
0

> <s_lp_Force_Field>
OPLS_2005

> <r_lp_Energy>
47.2811

> <b_lp_Chiralities_Consistent>
1

> <s_lp_Variant>
AV-unprocessed.smi:690-4

> <Gold.Version>
5.8.1

> <Gold.Id.Protein>
6NUR|6NUR_protein|mol2

> <Gold.PLP.Fitness>
54.6639

> <Gold.PLP.PLP>
-54.1010

> <Gold.PLP.part.hbond>
-1.9896

> <Gold.PLP.part.metal>
0.0000

> <Gold.PLP.part.buried>
-3.7975

> <Gold.PLP.part.nonpolar>
-49.1717

> <Gold.PLP.part.repulsive>
0.3661

> <Gold.PLP.ligand.clash>
0.0000

> <Gold.PLP.ligand.torsion>
1.2675

> <Gold.PLP.Chemscore.Hbond>
0.9166

> <Gold.PLP.Chemscore.CHOScore>
0.0000

> <Gold.PLP.Chemscore.Metal>
0.0000

> <Gold.Chemscore.Hbonds>
donor molecule, donor type, donor heavy atom, donor atom, acceptor molecule, acceptor atom, score
      P1  H  6933  6945       L1    17  0.74
      P1  H  7989  7998       L1     3  0.33

> <Gold.PLP.Chemscore.Internal.Correction>
0.3481

> <Gold.Rescore>
     Score         DG    S(hbond)    S(metal)    S(lipo)     H(rot)  DE(clash)    DE(int)     intcor
     16.56     -18.96       0.85        0.00     127.83       1.69       1.20       1.20       ----

> <Gold.Chemscore.Fitness>
16.5649

> <Gold.Chemscore.DG>
-18.9626

> <Gold.Chemscore.ZeroCoef>
-5.4800

> <Gold.Chemscore.Hbond>
0.8542

> <Gold.Chemscore.Metal>
0.0000

> <Gold.Chemscore.Lipo>
127.8304

> <Gold.Chemscore.Internal_Hbond>
0.0000

> <Gold.Chemscore.DEClash>
1.1979

> <Gold.Chemscore.DEInternal>
1.1998

> <Gold.Chemscore.Rot>
1.6900

> <Gold.Chemscore.Internal.Correction>
   9.000000E+99

> <Gold.Chemscore.Hbonds>
donor molecule, donor type, donor heavy atom, donor atom, acceptor molecule, acceptor atom, score
      P1  H  6933  6945       L1    17  0.64
      P1  H  7989  7998       L1     3  0.02

> <Gold.Chemscore.Hbond.Weighted>
-2.8529

> <Gold.Chemscore.Metal.Weighted>
-0.0000

> <Gold.Chemscore.Lipo.Weighted>
-14.9562

> <Gold.Chemscore.Internal_Hbond.Weighted>
0.0000

> <Gold.Chemscore.DEClash.Weighted>
1.1979

> <Gold.Chemscore.DEInternal.Weighted>
1.1998

> <Gold.Chemscore.Rot.Weighted>
4.3265

> <Gold.Chemscore.Internal.Correction.Weighted>
   9.000000E+99

> <Gold.Protein.RotatedTorsions>
[ 6907 6896 6895 6894 ] final -133.55 input  -60.11 | X-H torsion
[ 7974 7965 7964 7962 ] final  -60.18 input  175.53 | X-H torsion
[ 8008 7997 7996 7995 ] final   99.85 input   59.86 | X-H torsion
[ 10167 10162 10161 10158 ] final   24.01 input  -65.29 | X-H torsion
[ 10718 10713 10712 10709 ] final -106.48 input   66.30 | X-H torsion
[ 10763 10752 10751 10750 ] final -152.75 input  -60.55 | X-H torsion
[ 11005 11000 10999 10996 ] final  -76.11 input  -57.11 | X-H torsion

> <Gold.Protein.ActiveResidues>
 VAL166  LYS551  ARG553  GLY616  TRP617  ASP618  TYR619  PRO620  LYS621  CYS622 
 ASP623  PHE694  ASN695  SER759  ASP760  ASP761  ALA762  ILE779  LEU786  VAL792 
 PHE793  MET794  SER795  GLU796  ALA797  LYS798  CYS799  TRP800  GLU811  SER814 

> <Gold.Protein.RotatedAtoms>
  150.9753  133.6301  159.2731 H   0  0  0  0  0  0  0  0  0  0  0  0  # atno 6907 bound_to 6896
  151.3575  135.0896  159.9433 H   0  0  0  0  0  0  0  0  0  0  0  0  # atno 6908 bound_to 6896
  152.5197  133.9333  159.7646 H   0  0  0  0  0  0  0  0  0  0  0  0  # atno 6909 bound_to 6896
  145.8186  140.8554  143.0144 H   0  0  0  0  0  0  0  0  0  0  0  0  # atno 7974 bound_to 7965
  156.1145  140.3222  155.8120 H   0  0  0  0  0  0  0  0  0  0  0  0  # atno 8008 bound_to 7997
  155.4614  140.0539  157.3007 H   0  0  0  0  0  0  0  0  0  0  0  0  # atno 8009 bound_to 7997
  154.4783  140.2042  155.9838 H   0  0  0  0  0  0  0  0  0  0  0  0  # atno 8010 bound_to 7997
  140.5222  143.9982  150.6423 H   0  0  0  0  0  0  0  0  0  0  0  0  # atno 10167 bound_to 10162
  156.0392  130.5615  150.7686 H   0  0  0  0  0  0  0  0  0  0  0  0  # atno 10718 bound_to 10713
  154.7973  135.3229  154.7635 H   0  0  0  0  0  0  0  0  0  0  0  0  # atno 10763 bound_to 10752
  153.8310  135.6879  153.4819 H   0  0  0  0  0  0  0  0  0  0  0  0  # atno 10764 bound_to 10752
  153.1672  135.4637  154.9795 H   0  0  0  0  0  0  0  0  0  0  0  0  # atno 10765 bound_to 10752
  141.1651  133.6971  156.7619 H   0  0  0  0  0  0  0  0  0  0  0  0  # atno 11005 bound_to 11000
  144.6750  140.0501  143.7479 LP  0  0  0  0  0  0  0  0  0  0  0  0  # atno 17320 bound_to 7965
  145.9699  139.2862  143.1105 LP  0  0  0  0  0  0  0  0  0  0  0  0  # atno 17321 bound_to 7965
  140.3335  143.3063  152.0663 LP  0  0  0  0  0  0  0  0  0  0  0  0  # atno 17342 bound_to 10162
  139.4927  144.6493  151.6711 LP  0  0  0  0  0  0  0  0  0  0  0  0  # atno 17343 bound_to 10162
  157.5186  131.0930  151.0107 LP  0  0  0  0  0  0  0  0  0  0  0  0  # atno 17370 bound_to 10713
  157.0443  130.5762  149.5361 LP  0  0  0  0  0  0  0  0  0  0  0  0  # atno 17371 bound_to 10713
  140.2527  134.8528  157.3683 LP  0  0  0  0  0  0  0  0  0  0  0  0  # atno 17394 bound_to 11000
  140.1687  134.4636  155.7846 LP  0  0  0  0  0  0  0  0  0  0  0  0  # atno 17395 bound_to 11000

$$$$
