#       Name:                AV-unprocessed.smi:3163
#       Creating user name   scv26
#       Creation time:       Fri Mar 27 17:50:34 2020


#       File generated by GOLD software.
#

@<TRIPOS>MOLECULE
AV-unprocessed.smi:3163
    39    40     1
SMALL
NO_CHARGES


@<TRIPOS>ATOM
      1 ****        -3.6719  -2.1018  -3.4343 C.3            1 S1                 0.0000
      2 ****        -3.2278  -1.0047  -2.5497 N.4            1 S1                 1.0000
      3 ****        -3.0279  -1.3972  -1.1350 C.3            1 S1                 0.0000
      4 ****        -1.6652  -0.8361  -0.7115 C.3            1 S1                 0.0000
      5 ****        -1.3703   0.2602  -1.7367 C.3            1 S1                 0.0000
      6 ****         0.1175   0.6276  -1.8982 C.3            1 S1                 0.0000
      7 ****         0.6713   1.2224  -0.6848 N.am           1 S1                 0.0000
      8 ****         1.3552   0.5626   0.2618 C.2            1 S1                 0.0000
      9 ****         1.5755  -0.6474   0.2200 O.2            1 S1                 0.0000
     10 ****         1.7372   1.3874   1.2526 N.am           1 S1                 0.0000
     11 ****         2.4885   1.0817   2.4207 C.ar           1 S1                 0.0000
     12 ****         2.3925   1.9741   3.5117 C.ar           1 S1                 0.0000
     13 ****         3.1317   1.7213   4.6854 C.ar           1 S1                 0.0000
     14 ****         3.9318   0.6360   4.7555 N.pl3          1 S1                 1.0000
     15 ****         4.0674  -0.2375   3.7347 C.ar           1 S1                 0.0000
     16 ****         3.3533  -0.0368   2.5357 C.ar           1 S1                 0.0000
     17 ****        -2.0015  -0.3171  -3.0043 C.3            1 S1                 0.0000
     18 ****        -2.9262  -2.8967  -3.4797 H              1 S1                 0.0000
     19 ****        -3.8411  -1.7305  -4.4455 H              1 S1                 0.0000
     20 ****        -4.6070  -2.5290  -3.0710 H              1 S1                 0.0000
     21 ****        -3.8293  -0.9583  -0.5398 H              1 S1                 0.0000
     22 ****        -3.0650  -2.4784  -0.9920 H              1 S1                 0.0000
     23 ****        -1.6648  -0.4674   0.3149 H              1 S1                 0.0000
     24 ****        -0.9129  -1.6232  -0.7824 H              1 S1                 0.0000
     25 ****        -1.9295   1.1544  -1.4552 H              1 S1                 0.0000
     26 ****         0.6989  -0.2442  -2.2038 H              1 S1                 0.0000
     27 ****         0.2252   1.3578  -2.7007 H              1 S1                 0.0000
     28 ****         0.5336   2.2156  -0.5656 H              1 S1                 0.0000
     29 ****         1.4082   2.3397   1.1868 H              1 S1                 0.0000
     30 ****         1.7541   2.8442   3.4562 H              1 S1                 0.0000
     31 ****         3.1089   2.3512   5.5628 H              1 S1                 0.0000
     32 ****         4.7437  -1.0629   3.9032 H              1 S1                 0.0000
     33 ****         3.4940  -0.7371   1.7268 H              1 S1                 0.0000
     34 ****        -1.3225  -1.0401  -3.4606 H              1 S1                 0.0000
     35 ****        -2.2257   0.4483  -3.7479 H              1 S1                 0.0000
     36 ****        -3.9602  -0.3090  -2.5449 H              1 S1                 0.0000
     37 ****         4.4594   0.4717   5.6134 H              1 S1                 0.0000
     38 ****         1.2383  -1.1908  -0.5487 LP             1 S1                 0.0000
     39 ****         2.0918  -1.0873   0.9548 LP             1 S1                 0.0000
@<TRIPOS>BOND
    1    1    2 1     
    2    1   18 1     
    3    1   19 1     
    4    1   20 1     
    5    2   17 1     
    6    2    3 1     
    7    2   36 1     
    8    3    4 1     
    9    3   21 1     
   10    3   22 1     
   11    4    5 1     
   12    4   23 1     
   13    4   24 1     
   14    5    6 1     
   15    5   17 1     
   16    5   25 1     
   17    6    7 1     
   18    6   26 1     
   19    6   27 1     
   20    7    8 am    
   21    7   28 1     
   22    8    9 2     
   23    8   10 am    
   24   10   11 1     
   25   10   29 1     
   26   11   16 ar    
   27   11   12 ar    
   28   12   13 ar    
   29   12   30 1     
   30   13   14 ar    
   31   13   31 1     
   32   14   15 ar    
   33   14   37 1     
   34   15   16 ar    
   35   15   32 1     
   36   16   33 1     
   37   17   34 1     
   38   17   35 1     
   39    9   38 1     
   40    9   39 1     
@<TRIPOS>SUBSTRUCTURE
      1 S1             1
@<TRIPOS>SET
LONE_PAIRS      STATIC     ATOMS    <user>   **** ""
2 38 39
DONOR_HYDROGENS      STATIC     ATOMS    <user>   **** ""
4 36 28 29 37
ATOM$BLUE        STATIC     ATOMS    COLORGROUP SYSTEM
2 38 39
ATOM$RED        STATIC     ATOMS    COLORGROUP SYSTEM
4 36 28 29 37
