#       Name:                AV-unprocessed.smi:1085
#       Creating user name   scv26
#       Creation time:       Fri Mar 27 03:25:10 2020


#       File generated by GOLD software.
#

@<TRIPOS>MOLECULE
AV-unprocessed.smi:1085
    38    39     1
SMALL
NO_CHARGES


@<TRIPOS>ATOM
      1 ****        -0.0155   3.2375  -0.7304 O.2            1 S1                 0.0000
      2 ****         0.6815   2.2242  -0.6950 C.2            1 S1                 0.0000
      3 ****         2.2039   2.3476  -0.6376 C.3            1 S1                 0.0000
      4 ****         2.6822   2.2132   0.7253 N.pl3          1 S1                 0.0000
      5 ****         2.9168   1.1304   1.4700 C.2            1 S1                 0.0000
      6 ****         3.3419   1.4527   2.6816 N.2            1 S1                 0.0000
      7 ****         3.3609   2.8372   2.6501 N.2            1 S1                 0.0000
      8 ****         2.9701   3.2941   1.4921 N.2            1 S1                 0.0000
      9 ****         0.1873   0.9761  -0.6962 N.am           1 S1                 0.0000
     10 ****        -1.2273   0.6054  -0.6994 C.3            1 S1                 0.0000
     11 ****        -1.5713  -0.2033  -1.9645 C.3            1 S1                 0.0000
     12 ****        -0.9459  -1.6078  -1.9416 C.3            1 S1                 0.0000
     13 ****        -1.3384  -2.3723  -0.6677 C.3            1 S1                 0.0000
     14 ****        -0.9502  -1.5942   0.6076 C.3            1 S1                 0.0000
     15 ****        -1.3218  -2.3647   1.8914 C.3            1 S1                 0.0000
     16 ****        -2.6401  -2.5488   1.9703 F              1 S1                 0.0000
     17 ****        -0.7191  -3.5537   1.9010 F              1 S1                 0.0000
     18 ****        -0.9158  -1.6851   2.9640 F              1 S1                 0.0000
     19 ****        -1.5772  -0.1810   0.5800 C.3            1 S1                 0.0000
     20 ****         2.6688   1.5757  -1.2525 H              1 S1                 0.0000
     21 ****         2.5176   3.3126  -1.0389 H              1 S1                 0.0000
     22 ****         2.7719   0.1160   1.1288 H              1 S1                 0.0000
     23 ****         0.8482   0.2130  -0.6742 H              1 S1                 0.0000
     24 ****        -1.8393   1.5087  -0.7090 H              1 S1                 0.0000
     25 ****        -2.6553  -0.2999  -2.0418 H              1 S1                 0.0000
     26 ****        -1.2513   0.3359  -2.8569 H              1 S1                 0.0000
     27 ****        -1.2630  -2.1675  -2.8220 H              1 S1                 0.0000
     28 ****         0.1403  -1.5310  -2.0029 H              1 S1                 0.0000
     29 ****        -2.4129  -2.5593  -0.6743 H              1 S1                 0.0000
     30 ****        -0.8567  -3.3503  -0.6723 H              1 S1                 0.0000
     31 ****         0.1349  -1.4801   0.6067 H              1 S1                 0.0000
     32 ****        -1.2634   0.3880   1.4560 H              1 S1                 0.0000
     33 ****        -2.6619  -0.2691   0.6525 H              1 S1                 0.0000
     34 ****         0.4141   4.1404  -0.7216 LP             1 S1                 0.0000
     35 ****        -1.0116   3.1581  -0.7680 LP             1 S1                 0.0000
     36 ****         3.5891   0.8445   3.4359 LP             1 S1                 0.0000
     37 ****         3.6391   3.4140   3.4181 LP             1 S1                 0.0000
     38 ****         2.8971   4.2543   1.2225 LP             1 S1                 0.0000
@<TRIPOS>BOND
    1    1    2 2     
    2    2    3 1     
    3    2    9 am    
    4    3    4 1     
    5    3   20 1     
    6    3   21 1     
    7    4    8 1     
    8    4    5 1     
    9    5    6 2     
   10    5   22 1     
   11    6    7 1     
   12    7    8 2     
   13    9   10 1     
   14    9   23 1     
   15   10   19 1     
   16   10   11 1     
   17   10   24 1     
   18   11   12 1     
   19   11   25 1     
   20   11   26 1     
   21   12   13 1     
   22   12   27 1     
   23   12   28 1     
   24   13   14 1     
   25   13   29 1     
   26   13   30 1     
   27   14   15 1     
   28   14   19 1     
   29   14   31 1     
   30   15   16 1     
   31   15   17 1     
   32   15   18 1     
   33   19   32 1     
   34   19   33 1     
   35    1   34 1     
   36    1   35 1     
   37    6   36 1     
   38    7   37 1     
   39    8   38 1     
@<TRIPOS>SUBSTRUCTURE
      1 S1             1
@<TRIPOS>SET
LONE_PAIRS      STATIC     ATOMS    <user>   **** ""
5 34 35 36 37 38
DONOR_HYDROGENS      STATIC     ATOMS    <user>   **** ""
1 23
ATOM$BLUE        STATIC     ATOMS    COLORGROUP SYSTEM
5 34 35 36 37 38
ATOM$RED        STATIC     ATOMS    COLORGROUP SYSTEM
1 23
