#       Name:                AV-unprocessed.smi:218
#       Creating user name   scv26
#       Creation time:       Thu Mar 26 20:06:02 2020


#       File generated by GOLD software.
#

@<TRIPOS>MOLECULE
AV-unprocessed.smi:218
    68    71     1
SMALL
NO_CHARGES


@<TRIPOS>ATOM
      1 ****        -7.6942   5.0921  -0.9505 C.3            1 S1                 0.0000
      2 ****        -6.1865   5.1310  -0.6735 C.3            1 S1                 0.0000
      3 ****        -5.4373   5.8965  -1.7779 C.3            1 S1                 0.0000
      4 ****        -5.7406   3.7744  -0.6178 O.3            1 S1                 0.0000
      5 ****        -4.5554   3.4576   0.0177 C.ar           1 S1                 0.0000
      6 ****        -4.1334   2.1123   0.0118 C.ar           1 S1                 0.0000
      7 ****        -2.9288   1.7696   0.6590 C.ar           1 S1                 0.0000
      8 ****        -2.4587   0.3268   0.6805 C.3            1 S1                 0.0000
      9 ****        -1.0148   0.1707   0.5587 N.pl3          1 S1                 0.0000
     10 ****        -0.4602  -1.0581   0.6288 C.ar           1 S1                 0.0000
     11 ****        -1.2330  -2.1703   0.7415 N.ar           1 S1                 0.0000
     12 ****        -0.6618  -3.3769   0.8138 C.ar           1 S1                 0.0000
     13 ****         0.6365  -3.6885   0.7945 N.ar           1 S1                 0.0000
     14 ****         1.4140  -2.5729   0.6828 C.ar           1 S1                 0.0000
     15 ****         0.9470  -1.2331   0.5908 C.ar           1 S1                 0.0000
     16 ****         2.0265  -0.3660   0.4819 N.2            1 S1                 0.0000
     17 ****         3.0688  -1.1533   0.5110 C.2            1 S1                 0.0000
     18 ****         2.7881  -2.4977   0.6349 N.pl3          1 S1                 0.0000
     19 ****         3.7269  -3.6583   0.7017 C.3            1 S1                 0.0000
     20 ****         4.9739  -3.1748   1.1095 O.3            1 S1                 0.0000
     21 ****         5.9713  -3.4342   0.1225 C.3            1 S1                 0.0000
     22 ****         6.9945  -2.2884   0.0962 C.3            1 S1                 0.0000
     23 ****         7.9419  -2.4624   1.1276 O.3            1 S1                 0.0000
     24 ****         5.1668  -3.5645  -1.1711 C.3            1 S1                 0.0000
     25 ****         5.8405  -4.2878  -2.1831 O.3            1 S1                 0.0000
     26 ****         3.8970  -4.2571  -0.6995 C.3            1 S1                 0.0000
     27 ****         4.0230  -5.6664  -0.6345 O.3            1 S1                 0.0000
     28 ****        -2.1957   2.7913   1.2990 C.ar           1 S1                 0.0000
     29 ****        -2.6971   4.1063   1.2522 C.ar           1 S1                 0.0000
     30 ****        -3.8471   4.4394   0.6293 N.ar           1 S1                 0.0000
     31 ****         3.2852  -4.3317   1.4376 H              1 S1                 0.0000
     32 ****         6.4519  -4.3880   0.3487 H              1 S1                 0.0000
     33 ****         4.9162  -2.5722  -1.5495 H              1 S1                 0.0000
     34 ****         3.0423  -4.0224  -1.3359 H              1 S1                 0.0000
     35 ****        -8.1110   6.0983  -1.0025 H              1 S1                 0.0000
     36 ****        -8.2212   4.5561  -0.1608 H              1 S1                 0.0000
     37 ****        -7.9102   4.5910  -1.8945 H              1 S1                 0.0000
     38 ****        -6.0483   5.6306   0.2865 H              1 S1                 0.0000
     39 ****        -5.7971   6.9229  -1.8534 H              1 S1                 0.0000
     40 ****        -5.5786   5.4226  -2.7496 H              1 S1                 0.0000
     41 ****        -4.3658   5.9412  -1.5848 H              1 S1                 0.0000
     42 ****        -4.7283   1.3577  -0.4819 H              1 S1                 0.0000
     43 ****        -2.7940  -0.1237   1.6157 H              1 S1                 0.0000
     44 ****        -2.9435  -0.2168  -0.1316 H              1 S1                 0.0000
     45 ****        -0.4792   1.0218   0.4651 H              1 S1                 0.0000
     46 ****        -1.3420  -4.2114   0.9013 H              1 S1                 0.0000
     47 ****         4.0754  -0.7676   0.4445 H              1 S1                 0.0000
     48 ****         7.5374  -2.2925  -0.8495 H              1 S1                 0.0000
     49 ****         6.5089  -1.3165   0.1863 H              1 S1                 0.0000
     50 ****         8.5666  -1.7547   1.0848 H              1 S1                 0.0000
     51 ****         5.9823  -5.1692  -1.8717 H              1 S1                 0.0000
     52 ****         3.2167  -6.0240  -0.2950 H              1 S1                 0.0000
     53 ****        -1.2737   2.5791   1.8201 H              1 S1                 0.0000
     54 ****        -2.1616   4.9124   1.7318 H              1 S1                 0.0000
     55 ****        -5.6527   3.4614  -1.5635 LP             1 S1                 0.0000
     56 ****        -6.4609   3.2533  -0.1598 LP             1 S1                 0.0000
     57 ****        -2.2290  -2.0862   0.7704 LP             1 S1                 0.0000
     58 ****         0.9934  -4.6207   0.8543 LP             1 S1                 0.0000
     59 ****         2.0098   0.6305   0.4001 LP             1 S1                 0.0000
     60 ****         5.2351  -3.6237   1.9641 LP             1 S1                 0.0000
     61 ****         4.9094  -2.1879   1.2576 LP             1 S1                 0.0000
     62 ****         8.4136  -3.3360   1.0082 LP             1 S1                 0.0000
     63 ****         7.4803  -2.4514   2.0146 LP             1 S1                 0.0000
     64 ****         6.7191  -3.8535  -2.3818 LP             1 S1                 0.0000
     65 ****         5.2832  -4.3076  -3.0132 LP             1 S1                 0.0000
     66 ****         4.7811  -5.9098  -0.0295 LP             1 S1                 0.0000
     67 ****         4.1956  -6.0322  -1.5490 LP             1 S1                 0.0000
     68 ****        -4.1689   5.3862   0.6189 LP             1 S1                 0.0000
@<TRIPOS>BOND
    1    1    2 1     
    2    1   35 1     
    3    1   36 1     
    4    1   37 1     
    5    2    3 1     
    6    2    4 1     
    7    2   38 1     
    8    3   39 1     
    9    3   40 1     
   10    3   41 1     
   11    4    5 1     
   12    5   30 ar    
   13    5    6 ar    
   14    6    7 ar    
   15    6   42 1     
   16    7    8 1     
   17    7   28 ar    
   18    8    9 1     
   19    8   43 1     
   20    8   44 1     
   21    9   10 1     
   22    9   45 1     
   23   10   15 ar    
   24   10   11 ar    
   25   11   12 ar    
   26   12   13 ar    
   27   12   46 1     
   28   13   14 ar    
   29   14   18 1     
   30   14   15 ar    
   31   15   16 1     
   32   16   17 2     
   33   17   18 1     
   34   17   47 1     
   35   18   19 1     
   36   19   31 1     
   37   19   26 1     
   38   19   20 1     
   39   20   21 1     
   40   21   32 1     
   41   21   22 1     
   42   21   24 1     
   43   22   23 1     
   44   22   48 1     
   45   22   49 1     
   46   23   50 1     
   47   24   33 1     
   48   24   25 1     
   49   24   26 1     
   50   25   51 1     
   51   26   34 1     
   52   26   27 1     
   53   27   52 1     
   54   28   29 ar    
   55   28   53 1     
   56   29   30 ar    
   57   29   54 1     
   58    4   55 1     
   59    4   56 1     
   60   11   57 1     
   61   13   58 1     
   62   16   59 1     
   63   20   60 1     
   64   20   61 1     
   65   23   62 1     
   66   23   63 1     
   67   25   64 1     
   68   25   65 1     
   69   27   66 1     
   70   27   67 1     
   71   30   68 1     
@<TRIPOS>SUBSTRUCTURE
      1 S1             1
@<TRIPOS>SET
LONE_PAIRS      STATIC     ATOMS    <user>   **** ""
14 55 56 57 58 59 60 61 62 63 64 65 66 67 68
DONOR_HYDROGENS      STATIC     ATOMS    <user>   **** ""
4 45 50 51 52
ATOM$BLUE        STATIC     ATOMS    COLORGROUP SYSTEM
14 55 56 57 58 59 60 61 62 63 64 65 66 67 68
ATOM$RED        STATIC     ATOMS    COLORGROUP SYSTEM
4 45 50 51 52
