AV-unprocessed.smi:299|AV-procd|sdf|2266|dock7
  -GOLD-   2262022153D 1   1.00000     0.00000
 Structure written by MMmdl.
 42 43  0  0  0  0  0  0  0  0  2 V2000
  151.3321  142.5315  157.8941 C   0  0  0  0  0  0  0  0  0  0  0  0
  152.6527  143.2566  158.2344 C   0  0  1  0  0  0  0  0  0  0  0  0
  152.5499  144.7841  158.0416 C   0  0  0  0  0  0  0  0  0  0  0  0
  151.7078  145.4481  159.1408 C   0  0  0  0  0  0  0  0  0  0  0  0
  152.2544  145.0702  160.5226 C   0  0  0  0  0  0  0  0  0  0  0  0
  152.3518  143.5444  160.6866 C   0  0  0  0  0  0  0  0  0  0  0  0
  153.1696  142.9385  159.5995 N   0  3  1  0  0  0  0  0  0  0  0  0
  153.4594  141.4955  159.8040 C   0  0  0  0  0  0  0  0  0  0  0  0
  154.3140  141.2408  161.0599 C   0  0  0  0  0  0  0  0  0  0  0  0
  154.9343  139.8314  161.1058 C   0  0  0  0  0  0  0  0  0  0  0  0
  156.3936  139.8519  161.1217 N   0  0  0  0  0  0  0  0  0  0  0  0
  157.1797  139.8928  160.0342 C   0  0  0  0  0  0  0  0  0  0  0  0
  156.7446  139.9489  158.8846 O   0  0  0  0  0  0  0  0  0  0  0  0
  158.6885  139.8688  160.2794 C   0  0  0  0  0  0  0  0  0  0  0  0
  159.3327  141.0163  159.6692 N   0  0  0  0  0  0  0  0  0  0  0  0
  159.4337  141.3888  158.3915 C   0  0  0  0  0  0  0  0  0  0  0  0
  160.1265  142.5100  158.2631 N   0  0  0  0  0  0  0  0  0  0  0  0
  160.4610  142.8252  159.5698 N   0  0  0  0  0  0  0  0  0  0  0  0
  159.9929  141.9423  160.4087 N   0  0  0  0  0  0  0  0  0  0  0  0
  151.0058  142.7824  156.8846 H   0  0  0  0  0  0  0  0  0  0  0  0
  150.5223  142.8024  158.5707 H   0  0  0  0  0  0  0  0  0  0  0  0
  151.4442  141.4481  157.9291 H   0  0  0  0  0  0  0  0  0  0  0  0
  153.3992  142.9035  157.5218 H   0  0  0  0  0  0  0  0  0  0  0  0
  153.5522  145.2147  158.0539 H   0  0  0  0  0  0  0  0  0  0  0  0
  152.1345  145.0157  157.0602 H   0  0  0  0  0  0  0  0  0  0  0  0
  151.7170  146.5315  159.0171 H   0  0  0  0  0  0  0  0  0  0  0  0
  150.6663  145.1374  159.0559 H   0  0  0  0  0  0  0  0  0  0  0  0
  153.2408  145.5156  160.6594 H   0  0  0  0  0  0  0  0  0  0  0  0
  151.6166  145.4887  161.3019 H   0  0  0  0  0  0  0  0  0  0  0  0
  152.7969  143.3294  161.6571 H   0  0  0  0  0  0  0  0  0  0  0  0
  151.3564  143.0999  160.7012 H   0  0  0  0  0  0  0  0  0  0  0  0
  152.5246  140.9347  159.8480 H   0  0  0  0  0  0  0  0  0  0  0  0
  154.0096  141.1158  158.9421 H   0  0  0  0  0  0  0  0  0  0  0  0
  155.1202  141.9740  161.0986 H   0  0  0  0  0  0  0  0  0  0  0  0
  153.7224  141.3990  161.9611 H   0  0  0  0  0  0  0  0  0  0  0  0
  154.5944  139.3081  161.9998 H   0  0  0  0  0  0  0  0  0  0  0  0
  154.5876  139.2410  160.2563 H   0  0  0  0  0  0  0  0  0  0  0  0
  156.8409  139.7971  162.0257 H   0  0  0  0  0  0  0  0  0  0  0  0
  158.8938  139.8815  161.3506 H   0  0  0  0  0  0  0  0  0  0  0  0
  159.1215  138.9506  159.8789 H   0  0  0  0  0  0  0  0  0  0  0  0
  159.0077  140.8413  157.5638 H   0  0  0  0  0  0  0  0  0  0  0  0
  154.0675  143.3987  159.6464 H   0  0  0  0  0  0  0  0  0  0  0  0
  1  2  1  0  0  0  0
  1 20  1  0  0  0  0
  1 21  1  0  0  0  0
  1 22  1  0  0  0  0
  2  7  1  0  0  0  0
  2  3  1  0  0  0  0
  2 23  1  0  0  0  0
  3  4  1  0  0  0  0
  3 24  1  0  0  0  0
  3 25  1  0  0  0  0
  4  5  1  0  0  0  0
  4 26  1  0  0  0  0
  4 27  1  0  0  0  0
  5  6  1  0  0  0  0
  5 28  1  0  0  0  0
  5 29  1  0  0  0  0
  6  7  1  0  0  0  0
  6 30  1  0  0  0  0
  6 31  1  0  0  0  0
  7  8  1  0  0  0  0
  7 42  1  0  0  0  0
  8  9  1  0  0  0  0
  8 32  1  0  0  0  0
  8 33  1  0  0  0  0
  9 10  1  0  0  0  0
  9 34  1  0  0  0  0
  9 35  1  0  0  0  0
 10 11  1  0  0  0  0
 10 36  1  0  0  0  0
 10 37  1  0  0  0  0
 11 12  1  0  0  0  0
 11 38  1  0  0  0  0
 12 13  2  0  0  0  0
 12 14  1  0  0  0  0
 14 15  1  0  0  0  0
 14 39  1  0  0  0  0
 14 40  1  0  0  0  0
 15 19  1  0  0  0  0
 15 16  1  0  0  0  0
 16 17  2  0  0  0  0
 16 41  1  0  0  0  0
 17 18  1  0  0  0  0
 18 19  2  0  0  0  0
M  CHG  1   7   1
M  END
> <s_m_source_file>
AV-unprocessed.smi

> <i_m_source_file_index>
299

> <i_lp_mmshare_version>
43012

> <i_f3d_flags>
0

> <s_epik_input>
W0NIM11bQ0BASF0xW0NIMl1bQ0gyXVtDSDJdW0NIMl1OMVtDSDJdW0NIMl1bQ0gyXVtOSF1DKD1PKVtDSDJdbjJbY0hdbm5uMg==

> <s_epik_cmdline>
J2VwaWtfcHl0aG9uJywgJy1waCcsICc3LjAnLCAnLXRuJywgJzgnLCAnLW1hJywgJzIwMCcsICctbWV0YWxfYmluZGluZycsICctaW1hZScsICc8aW5maWxlLm1hZT4nLCAnLW9tYWUnLCAnPG91dGZpbGUubWFlPic=

> <r_lp_tautomer_probability>
1

> <r_epik_Ionization_Penalty>
0.000544863

> <r_epik_Ionization_Penalty_Charging>
0.000543475

> <r_epik_Ionization_Penalty_Neutral>
1.38784e-06

> <r_epik_State_Penalty>
0.000340025

> <r_epik_Charging_Adjusted_Penalty>
0.0008835

> <i_epik_Tot_Q>
1

> <i_epik_Tot_abs_Q>
1

> <r_epik_Metal_State_Penalty>
-0

> <b_epik_Metal_Only>
0

> <s_lp_Force_Field>
OPLS_2005

> <r_lp_Energy>
24.6376

> <b_lp_Chiralities_Consistent>
1

> <s_lp_Variant>
AV-unprocessed.smi:299-2

> <Gold.Version>
5.8.1

> <Gold.Id.Protein>
6NUR|6NUR_protein|mol2

> <Gold.PLP.Fitness>
47.1272

> <Gold.PLP.PLP>
-45.4628

> <Gold.PLP.part.hbond>
-3.5044

> <Gold.PLP.part.metal>
0.0000

> <Gold.PLP.part.buried>
-7.1503

> <Gold.PLP.part.nonpolar>
-34.8702

> <Gold.PLP.part.repulsive>
0.1750

> <Gold.PLP.ligand.clash>
0.0000

> <Gold.PLP.ligand.torsion>
0.6914

> <Gold.PLP.Chemscore.Hbond>
0.9920

> <Gold.PLP.Chemscore.CHOScore>
0.0000

> <Gold.PLP.Chemscore.Metal>
0.0000

> <Gold.Chemscore.Hbonds>
donor molecule, donor type, donor heavy atom, donor atom, acceptor molecule, acceptor atom, score
      P1  H  7997  8008       L1    13  1.00

> <Gold.PLP.Chemscore.Internal.Correction>
0.0713

> <Gold.Rescore>
     Score         DG    S(hbond)    S(metal)    S(lipo)     H(rot)  DE(clash)    DE(int)     intcor
     11.88     -12.69       0.95        0.00      99.60       2.97       0.08       0.74       ----

> <Gold.Chemscore.Fitness>
11.8778

> <Gold.Chemscore.DG>
-12.6940

> <Gold.Chemscore.ZeroCoef>
-5.4800

> <Gold.Chemscore.Hbond>
0.9459

> <Gold.Chemscore.Metal>
0.0000

> <Gold.Chemscore.Lipo>
99.5958

> <Gold.Chemscore.Internal_Hbond>
0.0000

> <Gold.Chemscore.DEClash>
0.0765

> <Gold.Chemscore.DEInternal>
0.7396

> <Gold.Chemscore.Rot>
2.9680

> <Gold.Chemscore.Internal.Correction>
   9.000000E+99

> <Gold.Chemscore.Hbonds>
donor molecule, donor type, donor heavy atom, donor atom, acceptor molecule, acceptor atom, score
      P1  H  7997  8008       L1    13  0.99

> <Gold.Chemscore.Hbond.Weighted>
-3.1592

> <Gold.Chemscore.Metal.Weighted>
-0.0000

> <Gold.Chemscore.Lipo.Weighted>
-11.6527

> <Gold.Chemscore.Internal_Hbond.Weighted>
0.0000

> <Gold.Chemscore.DEClash.Weighted>
0.0765

> <Gold.Chemscore.DEInternal.Weighted>
0.7396

> <Gold.Chemscore.Rot.Weighted>
7.5980

> <Gold.Chemscore.Internal.Correction.Weighted>
   9.000000E+99

> <Gold.Protein.RotatedTorsions>
[ 6907 6896 6895 6894 ] final   63.92 input  -60.11 | X-H torsion
[ 7974 7965 7964 7962 ] final  144.19 input  175.53 | X-H torsion
[ 8008 7997 7996 7995 ] final -163.67 input   59.86 | X-H torsion
[ 10167 10162 10161 10158 ] final  -86.36 input  -65.29 | X-H torsion
[ 10718 10713 10712 10709 ] final  170.24 input   66.30 | X-H torsion
[ 10763 10752 10751 10750 ] final -118.29 input  -60.55 | X-H torsion
[ 11005 11000 10999 10996 ] final   84.50 input  -57.11 | X-H torsion

> <Gold.Protein.ActiveResidues>
 VAL166  LYS551  ARG553  GLY616  TRP617  ASP618  TYR619  PRO620  LYS621  CYS622 
 ASP623  PHE694  ASN695  SER759  ASP760  ASP761  ALA762  ILE779  LEU786  VAL792 
 PHE793  MET794  SER795  GLU796  ALA797  LYS798  CYS799  TRP800  GLU811  SER814 

> <Gold.Protein.RotatedAtoms>
  152.4291  134.5812  159.9948 H   0  0  0  0  0  0  0  0  0  0  0  0  # atno 6907 bound_to 6896
  151.5940  133.3358  159.3041 H   0  0  0  0  0  0  0  0  0  0  0  0  # atno 6908 bound_to 6896
  150.8182  134.7412  159.6814 H   0  0  0  0  0  0  0  0  0  0  0  0  # atno 6909 bound_to 6896
  144.8857  139.5632  143.5822 H   0  0  0  0  0  0  0  0  0  0  0  0  # atno 7974 bound_to 7965
  155.8246  140.0924  157.1829 H   0  0  0  0  0  0  0  0  0  0  0  0  # atno 8008 bound_to 7997
  154.3979  140.1430  156.3601 H   0  0  0  0  0  0  0  0  0  0  0  0  # atno 8009 bound_to 7997
  155.8230  140.3445  155.5528 H   0  0  0  0  0  0  0  0  0  0  0  0  # atno 8010 bound_to 7997
  140.3949  143.2688  151.9217 H   0  0  0  0  0  0  0  0  0  0  0  0  # atno 10167 bound_to 10162
  157.0110  131.0204  151.2803 H   0  0  0  0  0  0  0  0  0  0  0  0  # atno 10718 bound_to 10713
  154.8583  135.4279  154.2115 H   0  0  0  0  0  0  0  0  0  0  0  0  # atno 10763 bound_to 10752
  153.3140  135.6977  153.7096 H   0  0  0  0  0  0  0  0  0  0  0  0  # atno 10764 bound_to 10752
  153.6177  135.3507  155.2974 H   0  0  0  0  0  0  0  0  0  0  0  0  # atno 10765 bound_to 10752
  139.8998  134.8221  156.2454 H   0  0  0  0  0  0  0  0  0  0  0  0  # atno 11005 bound_to 11000
  146.3023  139.7465  142.9082 LP  0  0  0  0  0  0  0  0  0  0  0  0  # atno 17320 bound_to 7965
  145.3873  141.0367  143.3143 LP  0  0  0  0  0  0  0  0  0  0  0  0  # atno 17321 bound_to 7965
  139.4787  144.5691  151.8117 LP  0  0  0  0  0  0  0  0  0  0  0  0  # atno 17342 bound_to 10162
  140.4801  144.1462  150.5931 LP  0  0  0  0  0  0  0  0  0  0  0  0  # atno 17343 bound_to 10162
  157.5320  130.8064  149.7928 LP  0  0  0  0  0  0  0  0  0  0  0  0  # atno 17370 bound_to 10713
  156.0136  130.3823  150.2183 LP  0  0  0  0  0  0  0  0  0  0  0  0  # atno 17371 bound_to 10713
  141.0258  133.7016  156.1345 LP  0  0  0  0  0  0  0  0  0  0  0  0  # atno 17394 bound_to 11000
  140.7168  134.4401  157.5578 LP  0  0  0  0  0  0  0  0  0  0  0  0  # atno 17395 bound_to 11000

$$$$
