AV-unprocessed.smi:1536|AV-procd|sdf|6189|dock10
  -GOLD-   22720 6353D 1   1.00000     0.00000
 Structure written by MMmdl.
 48 49  0  0  0  0  0  0  0  0  2 V2000
  151.8931  144.2863  160.8855 C   0  0  0  0  0  0  0  0  0  0  0  0
  152.8473  143.8320  159.7669 C   0  0  2  0  0  0  0  0  0  0  0  0
  152.3647  144.2521  158.3657 C   0  0  0  0  0  0  0  0  0  0  0  0
  151.1645  143.4154  157.8897 C   0  0  0  0  0  0  0  0  0  0  0  0
  151.4866  141.9640  157.9300 N   0  3  2  0  0  0  0  0  0  0  0  0
  150.5277  141.0595  157.2190 C   0  0  1  0  0  0  0  0  0  0  0  0
  150.1233  141.5538  155.7968 C   0  0  0  0  0  0  0  0  0  0  0  0
  148.7195  141.9335  155.6625 N   0  0  0  0  0  0  0  0  0  0  0  0
  148.0039  141.8508  154.5306 C   0  0  0  0  0  0  0  0  0  0  0  0
  148.4623  141.4010  153.4796 O   0  0  0  0  0  0  0  0  0  0  0  0
  146.5512  142.3323  154.6235 C   0  0  0  0  0  0  0  0  0  0  0  0
  145.8338  141.7394  155.7385 N   0  0  0  0  0  0  0  0  0  0  0  0
  144.7458  140.9672  155.7714 C   0  0  0  0  0  0  0  0  0  0  0  0
  144.4116  140.6460  157.0117 N   0  0  0  0  0  0  0  0  0  0  0  0
  145.3805  141.2790  157.7723 N   0  0  0  0  0  0  0  0  0  0  0  0
  146.2272  141.9295  157.0223 N   0  0  0  0  0  0  0  0  0  0  0  0
  151.0832  139.6052  157.2090 C   0  0  0  0  0  0  0  0  0  0  0  0
  152.1980  139.3955  156.1662 C   0  0  0  0  0  0  0  0  0  0  0  0
  149.9719  138.5647  156.9633 C   0  0  0  0  0  0  0  0  0  0  0  0
  151.8971  141.5083  159.2846 C   0  0  0  0  0  0  0  0  0  0  0  0
  153.1078  142.3137  159.7881 C   0  0  0  0  0  0  0  0  0  0  0  0
  150.9068  143.8313  160.7978 H   0  0  0  0  0  0  0  0  0  0  0  0
  151.7592  145.3683  160.8684 H   0  0  0  0  0  0  0  0  0  0  0  0
  152.2902  144.0235  161.8663 H   0  0  0  0  0  0  0  0  0  0  0  0
  153.7990  144.3323  159.9507 H   0  0  0  0  0  0  0  0  0  0  0  0
  152.1103  145.3126  158.3551 H   0  0  0  0  0  0  0  0  0  0  0  0
  153.1834  144.1313  157.6548 H   0  0  0  0  0  0  0  0  0  0  0  0
  150.2948  143.6303  158.5101 H   0  0  0  0  0  0  0  0  0  0  0  0
  150.9063  143.7104  156.8727 H   0  0  0  0  0  0  0  0  0  0  0  0
  149.6160  141.0215  157.8169 H   0  0  0  0  0  0  0  0  0  0  0  0
  150.7327  142.4096  155.5057 H   0  0  0  0  0  0  0  0  0  0  0  0
  150.3234  140.7842  155.0513 H   0  0  0  0  0  0  0  0  0  0  0  0
  148.2687  142.3166  156.4810 H   0  0  0  0  0  0  0  0  0  0  0  0
  146.5384  143.4167  154.7393 H   0  0  0  0  0  0  0  0  0  0  0  0
  146.0227  142.0985  153.6979 H   0  0  0  0  0  0  0  0  0  0  0  0
  144.2020  140.6463  154.8951 H   0  0  0  0  0  0  0  0  0  0  0  0
  151.5170  139.3922  158.1863 H   0  0  0  0  0  0  0  0  0  0  0  0
  151.8711  139.6928  155.1692 H   0  0  0  0  0  0  0  0  0  0  0  0
  152.4964  138.3478  156.1153 H   0  0  0  0  0  0  0  0  0  0  0  0
  153.0977  139.9594  156.4101 H   0  0  0  0  0  0  0  0  0  0  0  0
  149.4631  138.7442  156.0156 H   0  0  0  0  0  0  0  0  0  0  0  0
  149.2211  138.5718  157.7534 H   0  0  0  0  0  0  0  0  0  0  0  0
  150.3806  137.5542  156.9302 H   0  0  0  0  0  0  0  0  0  0  0  0
  151.0736  141.6055  159.9892 H   0  0  0  0  0  0  0  0  0  0  0  0
  152.1644  140.4513  159.2561 H   0  0  0  0  0  0  0  0  0  0  0  0
  153.9684  142.0901  159.1561 H   0  0  0  0  0  0  0  0  0  0  0  0
  153.3805  141.9909  160.7934 H   0  0  0  0  0  0  0  0  0  0  0  0
  152.3337  141.8754  157.3868 H   0  0  0  0  0  0  0  0  0  0  0  0
  1  2  1  0  0  0  0
  1 22  1  0  0  0  0
  1 23  1  0  0  0  0
  1 24  1  0  0  0  0
  2 21  1  0  0  0  0
  2  3  1  0  0  0  0
  2 25  1  0  0  0  0
  3  4  1  0  0  0  0
  3 26  1  0  0  0  0
  3 27  1  0  0  0  0
  4  5  1  0  0  0  0
  4 28  1  0  0  0  0
  4 29  1  0  0  0  0
  5  6  1  0  0  0  0
  5 20  1  0  0  0  0
  5 48  1  0  0  0  0
  6  7  1  0  0  0  0
  6 17  1  0  0  0  0
  6 30  1  0  0  0  0
  7  8  1  0  0  0  0
  7 31  1  0  0  0  0
  7 32  1  0  0  0  0
  8  9  1  0  0  0  0
  8 33  1  0  0  0  0
  9 10  2  0  0  0  0
  9 11  1  0  0  0  0
 11 12  1  0  0  0  0
 11 34  1  0  0  0  0
 11 35  1  0  0  0  0
 12 16  1  0  0  0  0
 12 13  1  0  0  0  0
 13 14  2  0  0  0  0
 13 36  1  0  0  0  0
 14 15  1  0  0  0  0
 15 16  2  0  0  0  0
 17 18  1  0  0  0  0
 17 19  1  0  0  0  0
 17 37  1  0  0  0  0
 18 38  1  0  0  0  0
 18 39  1  0  0  0  0
 18 40  1  0  0  0  0
 19 41  1  0  0  0  0
 19 42  1  0  0  0  0
 19 43  1  0  0  0  0
 20 21  1  0  0  0  0
 20 44  1  0  0  0  0
 20 45  1  0  0  0  0
 21 46  1  0  0  0  0
 21 47  1  0  0  0  0
M  CHG  1   5   1
M  END
> <s_m_source_file>
AV-unprocessed.smi

> <i_m_source_file_index>
1536

> <i_lp_mmshare_version>
43012

> <i_f3d_flags>
0

> <s_epik_input>
W0NIM11bQ0hdMVtDSDJdW0NIMl1OKFtDSDJdW0NIMl0xKVtDQEBIXShbQ0hdKFtDSDNdKVtDSDNdKVtDSDJdW05IXUMoPU8pW0NIMl1uMltjSF1ubm4y

> <s_epik_cmdline>
J2VwaWtfcHl0aG9uJywgJy1waCcsICc3LjAnLCAnLXRuJywgJzgnLCAnLW1hJywgJzIwMCcsICctbWV0YWxfYmluZGluZycsICctaW1hZScsICc8aW5maWxlLm1hZT4nLCAnLW9tYWUnLCAnPG91dGZpbGUubWFlPic=

> <r_lp_tautomer_probability>
1

> <r_epik_Ionization_Penalty>
0.00109671

> <r_epik_Ionization_Penalty_Charging>
0.00109273

> <r_epik_Ionization_Penalty_Neutral>
3.97951e-06

> <r_epik_State_Penalty>
0.000716588

> <r_epik_Charging_Adjusted_Penalty>
0.00180932

> <i_epik_Tot_Q>
1

> <i_epik_Tot_abs_Q>
1

> <r_epik_Metal_State_Penalty>
-0

> <b_epik_Metal_Only>
0

> <s_lp_Force_Field>
OPLS_2005

> <r_lp_Energy>
37.5817

> <b_lp_Chiralities_Consistent>
1

> <s_lp_Variant>
AV-unprocessed.smi:1536-4

> <Gold.Version>
5.8.1

> <Gold.Id.Protein>
6NUR|6NUR_protein|mol2

> <Gold.PLP.Fitness>
40.8893

> <Gold.PLP.PLP>
-37.7170

> <Gold.PLP.part.hbond>
-2.0000

> <Gold.PLP.part.metal>
0.0000

> <Gold.PLP.part.buried>
-4.3099

> <Gold.PLP.part.nonpolar>
-33.5627

> <Gold.PLP.part.repulsive>
1.8091

> <Gold.PLP.ligand.clash>
0.0000

> <Gold.PLP.ligand.torsion>
1.3034

> <Gold.PLP.Chemscore.Hbond>
0.7840

> <Gold.PLP.Chemscore.CHOScore>
1.0000

> <Gold.PLP.Chemscore.Metal>
0.0000

> <Gold.Chemscore.Hbonds>
donor molecule, donor type, donor heavy atom, donor atom, acceptor molecule, acceptor atom, score
      P1  H  8011  8017       L1    10  0.77
      L1  C    13    36       P1 10175  1.00

> <Gold.PLP.Chemscore.Internal.Correction>
0.4270

> <Gold.Rescore>
     Score         DG    S(hbond)    S(metal)    S(lipo)     H(rot)  DE(clash)    DE(int)     intcor
      9.49     -12.68       0.74        0.00     101.14       2.77       0.45       2.74       ----

> <Gold.Chemscore.Fitness>
9.4912

> <Gold.Chemscore.DG>
-12.6779

> <Gold.Chemscore.ZeroCoef>
-5.4800

> <Gold.Chemscore.Hbond>
0.7360

> <Gold.Chemscore.Metal>
0.0000

> <Gold.Chemscore.Lipo>
101.1373

> <Gold.Chemscore.Internal_Hbond>
0.0000

> <Gold.Chemscore.DEClash>
0.4507

> <Gold.Chemscore.DEInternal>
2.7360

> <Gold.Chemscore.Rot>
2.7709

> <Gold.Chemscore.Internal.Correction>
   9.000000E+99

> <Gold.Chemscore.Hbonds>
donor molecule, donor type, donor heavy atom, donor atom, acceptor molecule, acceptor atom, score
      P1  H  8011  8017       L1    10  0.72

> <Gold.Chemscore.Hbond.Weighted>
-2.4583

> <Gold.Chemscore.Metal.Weighted>
-0.0000

> <Gold.Chemscore.Lipo.Weighted>
-11.8331

> <Gold.Chemscore.Internal_Hbond.Weighted>
0.0000

> <Gold.Chemscore.DEClash.Weighted>
0.4507

> <Gold.Chemscore.DEInternal.Weighted>
2.7360

> <Gold.Chemscore.Rot.Weighted>
7.0935

> <Gold.Chemscore.Internal.Correction.Weighted>
   9.000000E+99

> <Gold.Protein.RotatedTorsions>
[ 6907 6896 6895 6894 ] final   79.22 input  -60.11 | X-H torsion
[ 7974 7965 7964 7962 ] final -160.98 input  175.53 | X-H torsion
[ 8008 7997 7996 7995 ] final -116.34 input   59.86 | X-H torsion
[ 10167 10162 10161 10158 ] final   67.23 input  -65.29 | X-H torsion
[ 10718 10713 10712 10709 ] final  -96.99 input   66.30 | X-H torsion
[ 10763 10752 10751 10750 ] final   70.73 input  -60.55 | X-H torsion
[ 11005 11000 10999 10996 ] final  -31.34 input  -57.11 | X-H torsion

> <Gold.Protein.ActiveResidues>
 VAL166  LYS551  ARG553  GLY616  TRP617  ASP618  TYR619  PRO620  LYS621  CYS622 
 ASP623  PHE694  ASN695  SER759  ASP760  ASP761  ALA762  ILE779  LEU786  VAL792 
 PHE793  MET794  SER795  GLU796  ALA797  LYS798  CYS799  TRP800  GLU811  SER814 

> <Gold.Protein.RotatedAtoms>
  152.5190  134.3544  159.9262 H   0  0  0  0  0  0  0  0  0  0  0  0  # atno 6907 bound_to 6896
  151.3496  133.3924  159.2686 H   0  0  0  0  0  0  0  0  0  0  0  0  # atno 6908 bound_to 6896
  150.9738  134.9125  159.7862 H   0  0  0  0  0  0  0  0  0  0  0  0  # atno 6909 bound_to 6896
  144.7407  140.3463  143.6124 H   0  0  0  0  0  0  0  0  0  0  0  0  # atno 7974 bound_to 7965
  155.0663  140.0393  157.2593 H   0  0  0  0  0  0  0  0  0  0  0  0  # atno 8008 bound_to 7997
  154.7019  140.2675  155.6687 H   0  0  0  0  0  0  0  0  0  0  0  0  # atno 8009 bound_to 7997
  156.2763  140.2739  156.1632 H   0  0  0  0  0  0  0  0  0  0  0  0  # atno 8010 bound_to 7997
  140.0918  144.4981  150.7093 H   0  0  0  0  0  0  0  0  0  0  0  0  # atno 10167 bound_to 10162
  156.0074  130.5175  150.6308 H   0  0  0  0  0  0  0  0  0  0  0  0  # atno 10718 bound_to 10713
  153.0358  135.5163  154.7486 H   0  0  0  0  0  0  0  0  0  0  0  0  # atno 10763 bound_to 10752
  154.6463  135.2919  155.0044 H   0  0  0  0  0  0  0  0  0  0  0  0  # atno 10764 bound_to 10752
  154.0944  135.6645  153.4910 H   0  0  0  0  0  0  0  0  0  0  0  0  # atno 10765 bound_to 10752
  140.9460  133.7249  156.1147 H   0  0  0  0  0  0  0  0  0  0  0  0  # atno 11005 bound_to 11000
  145.7322  139.1739  143.2423 LP  0  0  0  0  0  0  0  0  0  0  0  0  # atno 17320 bound_to 7965
  146.1197  140.7324  142.9463 LP  0  0  0  0  0  0  0  0  0  0  0  0  # atno 17321 bound_to 7965
  140.7024  143.2444  151.4825 LP  0  0  0  0  0  0  0  0  0  0  0  0  # atno 17342 bound_to 10162
  139.5720  144.1906  152.1850 LP  0  0  0  0  0  0  0  0  0  0  0  0  # atno 17343 bound_to 10162
  157.4106  131.0823  151.1224 LP  0  0  0  0  0  0  0  0  0  0  0  0  # atno 17370 bound_to 10713
  157.1856  130.6329  149.5687 LP  0  0  0  0  0  0  0  0  0  0  0  0  # atno 17371 bound_to 10713
  140.7668  134.3877  157.5515 LP  0  0  0  0  0  0  0  0  0  0  0  0  # atno 17394 bound_to 11000
  139.8833  134.8997  156.2772 LP  0  0  0  0  0  0  0  0  0  0  0  0  # atno 17395 bound_to 11000

$$$$
