AV-unprocessed.smi:1795|AV-procd|sdf|7239|dock6
  -GOLD-   22720 8483D 1   1.00000     0.00000
 Structure written by MMmdl.
 47 48  0  0  0  0  0  0  0  0  1 V2000
  151.8054  142.4019  157.3647 C   0  0  0  0  0  0  0  0  0  0  0  0
  150.8474  141.2255  157.6207 C   0  0  2  0  0  0  0  0  0  0  0  0
  151.5316  140.0149  158.2871 C   0  0  0  0  0  0  0  0  0  0  0  0
  152.3932  139.2493  157.3777 N   0  0  0  0  0  0  0  0  0  0  0  0
  153.0183  138.0766  158.0340 C   0  0  1  0  0  0  0  0  0  0  0  0
  153.5440  138.3940  159.4580 C   0  0  0  0  0  0  0  0  0  0  0  0
  152.0736  136.8458  158.1159 C   0  0  0  0  0  0  0  0  0  0  0  0
  150.8579  137.1285  158.8723 N   0  0  0  0  0  0  0  0  0  0  0  0
  149.7452  136.3809  158.8486 C   0  0  0  0  0  0  0  0  0  0  0  0
  149.6369  135.3555  158.1745 O   0  0  0  0  0  0  0  0  0  0  0  0
  148.5855  136.8862  159.7197 C   0  0  0  0  0  0  0  0  0  0  0  0
  147.9543  135.8338  160.5338 N   0  0  0  0  0  0  0  0  0  0  0  0
  147.4955  134.6888  159.8526 C   0  0  0  0  0  0  0  0  0  0  0  0
  146.9076  133.6676  160.4955 C   0  0  0  0  0  0  0  0  0  0  0  0
  146.7489  133.7637  161.9272 C   0  0  0  0  0  0  0  0  0  0  0  0
  147.1884  134.8522  162.5896 C   0  0  0  0  0  0  0  0  0  0  0  0
  147.8340  135.9698  161.8908 C   0  0  0  0  0  0  0  0  0  0  0  0
  148.2413  136.9663  162.4886 O   0  0  0  0  0  0  0  0  0  0  0  0
  151.5953  138.8834  156.2038 C   0  0  0  0  0  0  0  0  0  0  0  0
  150.9698  140.1031  155.5043 C   0  0  1  0  0  0  0  0  0  0  0  0
  150.0808  139.6970  154.3240 C   0  0  0  0  0  0  0  0  0  0  0  0
  150.1679  140.8235  156.4337 O   0  0  0  0  0  0  0  0  0  0  0  0
  152.2165  142.7772  158.3020 H   0  0  0  0  0  0  0  0  0  0  0  0
  151.2863  143.2281  156.8787 H   0  0  0  0  0  0  0  0  0  0  0  0
  152.6463  142.1164  156.7334 H   0  0  0  0  0  0  0  0  0  0  0  0
  150.0776  141.5891  158.3018 H   0  0  0  0  0  0  0  0  0  0  0  0
  152.0964  140.3954  159.1353 H   0  0  0  0  0  0  0  0  0  0  0  0
  150.7629  139.3564  158.6948 H   0  0  0  0  0  0  0  0  0  0  0  0
  153.8812  137.7783  157.4362 H   0  0  0  0  0  0  0  0  0  0  0  0
  153.9369  137.5142  159.9664 H   0  0  0  0  0  0  0  0  0  0  0  0
  152.7538  138.8069  160.0863 H   0  0  0  0  0  0  0  0  0  0  0  0
  154.3703  139.1032  159.4435 H   0  0  0  0  0  0  0  0  0  0  0  0
  151.8295  136.5062  157.1077 H   0  0  0  0  0  0  0  0  0  0  0  0
  152.5418  136.0081  158.6294 H   0  0  0  0  0  0  0  0  0  0  0  0
  150.8637  137.9554  159.4518 H   0  0  0  0  0  0  0  0  0  0  0  0
  148.9501  137.6936  160.3576 H   0  0  0  0  0  0  0  0  0  0  0  0
  147.8442  137.3525  159.0688 H   0  0  0  0  0  0  0  0  0  0  0  0
  147.6585  134.6930  158.7846 H   0  0  0  0  0  0  0  0  0  0  0  0
  146.5660  132.7956  159.9571 H   0  0  0  0  0  0  0  0  0  0  0  0
  146.2767  132.9580  162.4699 H   0  0  0  0  0  0  0  0  0  0  0  0
  147.0628  134.9055  163.6611 H   0  0  0  0  0  0  0  0  0  0  0  0
  152.2128  138.3789  155.4631 H   0  0  0  0  0  0  0  0  0  0  0  0
  150.8111  138.1823  156.4942 H   0  0  0  0  0  0  0  0  0  0  0  0
  151.7614  140.7512  155.1271 H   0  0  0  0  0  0  0  0  0  0  0  0
  150.6525  139.1546  153.5707 H   0  0  0  0  0  0  0  0  0  0  0  0
  149.6474  140.5741  153.8430 H   0  0  0  0  0  0  0  0  0  0  0  0
  149.2609  139.0557  154.6490 H   0  0  0  0  0  0  0  0  0  0  0  0
  1  2  1  0  0  0  0
  1 23  1  0  0  0  0
  1 24  1  0  0  0  0
  1 25  1  0  0  0  0
  2 22  1  0  0  0  0
  2  3  1  0  0  0  0
  2 26  1  0  0  0  0
  3  4  1  0  0  0  0
  3 27  1  0  0  0  0
  3 28  1  0  0  0  0
  4  5  1  0  0  0  0
  4 19  1  0  0  0  0
  5  6  1  0  0  0  0
  5  7  1  0  0  0  0
  5 29  1  0  0  0  0
  6 30  1  0  0  0  0
  6 31  1  0  0  0  0
  6 32  1  0  0  0  0
  7  8  1  0  0  0  0
  7 33  1  0  0  0  0
  7 34  1  0  0  0  0
  8  9  1  0  0  0  0
  8 35  1  0  0  0  0
  9 10  2  0  0  0  0
  9 11  1  0  0  0  0
 11 12  1  0  0  0  0
 11 36  1  0  0  0  0
 11 37  1  0  0  0  0
 12 17  1  0  0  0  0
 12 13  1  0  0  0  0
 13 14  2  0  0  0  0
 13 38  1  0  0  0  0
 14 15  1  0  0  0  0
 14 39  1  0  0  0  0
 15 16  2  0  0  0  0
 15 40  1  0  0  0  0
 16 17  1  0  0  0  0
 16 41  1  0  0  0  0
 17 18  2  0  0  0  0
 19 20  1  0  0  0  0
 19 42  1  0  0  0  0
 19 43  1  0  0  0  0
 20 21  1  0  0  0  0
 20 22  1  0  0  0  0
 20 44  1  0  0  0  0
 21 45  1  0  0  0  0
 21 46  1  0  0  0  0
 21 47  1  0  0  0  0
M  END
> <s_m_source_file>
AV-unprocessed.smi

> <i_m_source_file_index>
1795

> <i_lp_mmshare_version>
43012

> <i_f3d_flags>
0

> <s_epik_input>
W0NIM11bQ0BASF0xW0NIMl1OKFtDSDJdW0NASF0oTzEpW0NIM10pW0NASF0oW0NIM10pW0NIMl1bTkhdQyg9TylbQ0gyXW4yW2NIXVtjSF1bY0hdW2NIXWMyPU8=

> <s_epik_cmdline>
J2VwaWtfcHl0aG9uJywgJy1waCcsICc3LjAnLCAnLXRuJywgJzgnLCAnLW1hJywgJzIwMCcsICctbWV0YWxfYmluZGluZycsICctaW1hZScsICc8aW5maWxlLm1hZT4nLCAnLW9tYWUnLCAnPG91dGZpbGUubWFlPic=

> <r_lp_tautomer_probability>
1

> <r_epik_Ionization_Penalty>
0.237383

> <r_epik_Ionization_Penalty_Charging>
3.58805e-07

> <r_epik_Ionization_Penalty_Neutral>
0.237382

> <r_epik_State_Penalty>
0.228245

> <r_epik_Charging_Adjusted_Penalty>
0.228245

> <i_epik_Tot_Q>
0

> <i_epik_Tot_abs_Q>
0

> <r_epik_Metal_State_Penalty>
0.228221

> <b_epik_Metal_Only>
0

> <s_lp_Force_Field>
OPLS_2005

> <r_lp_Energy>
40.7521

> <b_lp_Chiralities_Consistent>
1

> <s_lp_Variant>
AV-unprocessed.smi:1795-3

> <Gold.Version>
5.8.1

> <Gold.Id.Protein>
6NUR|6NUR_protein|mol2

> <Gold.PLP.Fitness>
43.7237

> <Gold.PLP.PLP>
-39.2616

> <Gold.PLP.part.hbond>
-2.2730

> <Gold.PLP.part.metal>
0.0000

> <Gold.PLP.part.buried>
-2.0476

> <Gold.PLP.part.nonpolar>
-34.7063

> <Gold.PLP.part.repulsive>
0.2392

> <Gold.PLP.ligand.clash>
0.0000

> <Gold.PLP.ligand.torsion>
0.6259

> <Gold.PLP.Chemscore.Hbond>
1.8800

> <Gold.PLP.Chemscore.CHOScore>
0.0000

> <Gold.PLP.Chemscore.Metal>
0.0000

> <Gold.Chemscore.Hbonds>
donor molecule, donor type, donor heavy atom, donor atom, acceptor molecule, acceptor atom, score
      P1  H  6896  6909       L1    10  0.05
      P1  H  6931  6943       L1    18  1.00
      P1  H  7997  8010       L1     4  0.26

> <Gold.PLP.Chemscore.Internal.Correction>
0.0739

> <Gold.Rescore>
     Score         DG    S(hbond)    S(metal)    S(lipo)     H(rot)  DE(clash)    DE(int)     intcor
     14.64     -18.04       2.30        0.00      81.73       1.83       0.37       3.03       ----

> <Gold.Chemscore.Fitness>
14.6423

> <Gold.Chemscore.DG>
-18.0383

> <Gold.Chemscore.ZeroCoef>
-5.4800

> <Gold.Chemscore.Hbond>
2.2959

> <Gold.Chemscore.Metal>
0.0000

> <Gold.Chemscore.Lipo>
81.7312

> <Gold.Chemscore.Internal_Hbond>
0.0000

> <Gold.Chemscore.DEClash>
0.3683

> <Gold.Chemscore.DEInternal>
3.0277

> <Gold.Chemscore.Rot>
1.8251

> <Gold.Chemscore.Internal.Correction>
   9.000000E+99

> <Gold.Chemscore.Hbonds>
donor molecule, donor type, donor heavy atom, donor atom, acceptor molecule, acceptor atom, score
      P1  H  6931  6943       L1    18  0.96
      P1  H  7997  8010       L1     4  0.02

> <Gold.Chemscore.Hbond.Weighted>
-7.6682

> <Gold.Chemscore.Metal.Weighted>
-0.0000

> <Gold.Chemscore.Lipo.Weighted>
-9.5626

> <Gold.Chemscore.Internal_Hbond.Weighted>
0.0000

> <Gold.Chemscore.DEClash.Weighted>
0.3683

> <Gold.Chemscore.DEInternal.Weighted>
3.0277

> <Gold.Chemscore.Rot.Weighted>
4.6724

> <Gold.Chemscore.Internal.Correction.Weighted>
   9.000000E+99

> <Gold.Protein.RotatedTorsions>
[ 6907 6896 6895 6894 ] final   56.64 input  -60.11 | X-H torsion
[ 7974 7965 7964 7962 ] final  -41.12 input  175.53 | X-H torsion
[ 8008 7997 7996 7995 ] final   58.54 input   59.86 | X-H torsion
[ 10167 10162 10161 10158 ] final   73.26 input  -65.29 | X-H torsion
[ 10718 10713 10712 10709 ] final  -75.51 input   66.30 | X-H torsion
[ 10763 10752 10751 10750 ] final  152.81 input  -60.55 | X-H torsion
[ 11005 11000 10999 10996 ] final  142.53 input  -57.11 | X-H torsion

> <Gold.Protein.ActiveResidues>
 VAL166  LYS551  ARG553  GLY616  TRP617  ASP618  TYR619  PRO620  LYS621  CYS622 
 ASP623  PHE694  ASN695  SER759  ASP760  ASP761  ALA762  ILE779  LEU786  VAL792 
 PHE793  MET794  SER795  GLU796  ALA797  LYS798  CYS799  TRP800  GLU811  SER814 

> <Gold.Protein.RotatedAtoms>
  152.3656  134.6809  160.0192 H   0  0  0  0  0  0  0  0  0  0  0  0  # atno 6907 bound_to 6896
  151.7119  133.3307  159.3301 H   0  0  0  0  0  0  0  0  0  0  0  0  # atno 6908 bound_to 6896
  150.7636  134.6459  159.6307 H   0  0  0  0  0  0  0  0  0  0  0  0  # atno 6909 bound_to 6896
  146.0240  140.6814  142.9164 H   0  0  0  0  0  0  0  0  0  0  0  0  # atno 7974 bound_to 7965
  155.5517  140.3486  155.4470 H   0  0  0  0  0  0  0  0  0  0  0  0  # atno 8008 bound_to 7997
  156.0579  140.1333  157.0002 H   0  0  0  0  0  0  0  0  0  0  0  0  # atno 8009 bound_to 7997
  154.4465  140.0991  156.6457 H   0  0  0  0  0  0  0  0  0  0  0  0  # atno 8010 bound_to 7997
  140.0264  144.5500  150.7541 H   0  0  0  0  0  0  0  0  0  0  0  0  # atno 10167 bound_to 10162
  156.0205  130.4442  150.3053 H   0  0  0  0  0  0  0  0  0  0  0  0  # atno 10718 bound_to 10713
  154.1261  135.2829  155.3196 H   0  0  0  0  0  0  0  0  0  0  0  0  # atno 10763 bound_to 10752
  154.6389  135.5409  153.7769 H   0  0  0  0  0  0  0  0  0  0  0  0  # atno 10764 bound_to 10752
  153.0296  135.6481  154.1413 H   0  0  0  0  0  0  0  0  0  0  0  0  # atno 10765 bound_to 10752
  140.0484  134.9268  157.0972 H   0  0  0  0  0  0  0  0  0  0  0  0  # atno 11005 bound_to 11000
  144.7002  140.3617  143.7162 LP  0  0  0  0  0  0  0  0  0  0  0  0  # atno 17320 bound_to 7965
  145.7147  139.1694  143.2518 LP  0  0  0  0  0  0  0  0  0  0  0  0  # atno 17321 bound_to 7965
  140.7321  143.2702  151.3914 LP  0  0  0  0  0  0  0  0  0  0  0  0  # atno 17342 bound_to 10162
  139.6105  144.1107  152.2294 LP  0  0  0  0  0  0  0  0  0  0  0  0  # atno 17343 bound_to 10162
  157.1155  131.0233  151.3030 LP  0  0  0  0  0  0  0  0  0  0  0  0  # atno 17370 bound_to 10713
  157.4670  130.7686  149.7288 LP  0  0  0  0  0  0  0  0  0  0  0  0  # atno 17371 bound_to 10713
  140.3956  134.2137  155.7165 LP  0  0  0  0  0  0  0  0  0  0  0  0  # atno 17394 bound_to 11000
  141.1918  133.8186  157.0863 LP  0  0  0  0  0  0  0  0  0  0  0  0  # atno 17395 bound_to 11000

$$$$
