AV-unprocessed.smi:1102|AV-procd|sdf|4768|dock10
  -GOLD-   22720 3303D 1   1.00000     0.00000
 Structure written by MMmdl.
 40 41  0  0  0  0  0  0  0  0  2 V2000
  145.4665  131.4943  150.3723 C   0  0  0  0  0  0  0  0  0  0  0  0
  145.4281  132.1297  151.6849 N   0  0  0  0  0  0  0  0  0  0  0  0
  145.9549  131.4371  152.8534 C   0  0  0  0  0  0  0  0  0  0  0  0
  144.8639  133.4161  151.8250 C   0  0  0  0  0  0  0  0  0  0  0  0
  145.1784  134.4992  150.9682 C   0  0  0  0  0  0  0  0  0  0  0  0
  144.5718  135.7553  151.1735 C   0  0  0  0  0  0  0  0  0  0  0  0
  143.6481  135.9270  152.2255 C   0  0  0  0  0  0  0  0  0  0  0  0
  143.0738  137.2160  152.3994 N   0  0  0  0  0  0  0  0  0  0  0  0
  142.1810  137.6211  153.3191 C   0  0  0  0  0  0  0  0  0  0  0  0
  141.6736  136.9053  154.1819 O   0  0  0  0  0  0  0  0  0  0  0  0
  141.8878  138.9203  153.1682 N   0  0  0  0  0  0  0  0  0  0  0  0
  140.9449  139.6766  153.9868 C   0  0  0  0  0  0  0  0  0  0  0  0
  139.4885  139.2673  153.7087 C   0  0  1  0  0  0  0  0  0  0  0  0
  139.0924  137.8821  154.2213 C   0  0  0  0  0  0  0  0  0  0  0  0
  137.5947  138.0281  154.3593 C   0  0  0  0  0  0  0  0  0  0  0  0
  137.4683  139.4586  154.8754 C   0  0  0  0  0  0  0  0  0  0  0  0
  138.5928  140.1663  154.3575 O   0  0  0  0  0  0  0  0  0  0  0  0
  143.3744  134.8178  153.0607 C   0  0  0  0  0  0  0  0  0  0  0  0
  143.9795  133.6327  152.8288 N   0  3  0  0  0  0  0  0  0  0  0  0
  144.4584  131.3821  149.9719 H   0  0  0  0  0  0  0  0  0  0  0  0
  145.9170  130.5029  150.4233 H   0  0  0  0  0  0  0  0  0  0  0  0
  146.0534  132.0922  149.6740 H   0  0  0  0  0  0  0  0  0  0  0  0
  145.1654  131.2650  153.5856 H   0  0  0  0  0  0  0  0  0  0  0  0
  146.7456  132.0231  153.3229 H   0  0  0  0  0  0  0  0  0  0  0  0
  146.3761  130.4685  152.5834 H   0  0  0  0  0  0  0  0  0  0  0  0
  145.8794  134.3890  150.1543 H   0  0  0  0  0  0  0  0  0  0  0  0
  144.8153  136.5806  150.5202 H   0  0  0  0  0  0  0  0  0  0  0  0
  143.3448  137.9069  151.7150 H   0  0  0  0  0  0  0  0  0  0  0  0
  142.3500  139.4291  152.4286 H   0  0  0  0  0  0  0  0  0  0  0  0
  141.1751  139.5763  155.0488 H   0  0  0  0  0  0  0  0  0  0  0  0
  141.0745  140.7321  153.7473 H   0  0  0  0  0  0  0  0  0  0  0  0
  139.2841  139.3244  152.6383 H   0  0  0  0  0  0  0  0  0  0  0  0
  139.3845  137.0768  153.5467 H   0  0  0  0  0  0  0  0  0  0  0  0
  139.5387  137.6901  155.1980 H   0  0  0  0  0  0  0  0  0  0  0  0
  137.1183  137.9363  153.3823 H   0  0  0  0  0  0  0  0  0  0  0  0
  137.1495  137.2915  155.0287 H   0  0  0  0  0  0  0  0  0  0  0  0
  136.5304  139.9259  154.5746 H   0  0  0  0  0  0  0  0  0  0  0  0
  137.5211  139.4767  155.9646 H   0  0  0  0  0  0  0  0  0  0  0  0
  142.7090  134.8247  153.9104 H   0  0  0  0  0  0  0  0  0  0  0  0
  143.7577  132.8543  153.4499 H   0  0  0  0  0  0  0  0  0  0  0  0
  1  2  1  0  0  0  0
  1 20  1  0  0  0  0
  1 21  1  0  0  0  0
  1 22  1  0  0  0  0
  2  3  1  0  0  0  0
  2  4  1  0  0  0  0
  3 23  1  0  0  0  0
  3 24  1  0  0  0  0
  3 25  1  0  0  0  0
  4 19  1  0  0  0  0
  4  5  2  0  0  0  0
  5  6  1  0  0  0  0
  5 26  1  0  0  0  0
  6  7  2  0  0  0  0
  6 27  1  0  0  0  0
  7  8  1  0  0  0  0
  7 18  1  0  0  0  0
  8  9  1  0  0  0  0
  8 28  1  0  0  0  0
  9 10  2  0  0  0  0
  9 11  1  0  0  0  0
 11 12  1  0  0  0  0
 11 29  1  0  0  0  0
 12 13  1  0  0  0  0
 12 30  1  0  0  0  0
 12 31  1  0  0  0  0
 13 17  1  0  0  0  0
 13 14  1  0  0  0  0
 13 32  1  0  0  0  0
 14 15  1  0  0  0  0
 14 33  1  0  0  0  0
 14 34  1  0  0  0  0
 15 16  1  0  0  0  0
 15 35  1  0  0  0  0
 15 36  1  0  0  0  0
 16 17  1  0  0  0  0
 16 37  1  0  0  0  0
 16 38  1  0  0  0  0
 18 19  2  0  0  0  0
 18 39  1  0  0  0  0
 19 40  1  0  0  0  0
M  CHG  1  19   1
M  END
> <s_m_source_file>
AV-unprocessed.smi

> <i_m_source_file_index>
1102

> <i_lp_mmshare_version>
43012

> <i_f3d_flags>
0

> <s_epik_input>
W0NIM11OKFtDSDNdKWMxW2NIXVtjSF1jKFtjSF1uMSlbTkhdQyg9TylbTkhdW0NIMl1bQ0BASF0yW0NIMl1bQ0gyXVtDSDJdTzI=

> <s_epik_cmdline>
J2VwaWtfcHl0aG9uJywgJy1waCcsICc3LjAnLCAnLXRuJywgJzgnLCAnLW1hJywgJzIwMCcsICctbWV0YWxfYmluZGluZycsICctaW1hZScsICc8aW5maWxlLm1hZT4nLCAnLW9tYWUnLCAnPG91dGZpbGUubWFlPic=

> <r_lp_tautomer_probability>
0.999994

> <r_epik_Ionization_Penalty>
0.265123

> <r_epik_Ionization_Penalty_Charging>
0.265104

> <r_epik_Ionization_Penalty_Neutral>
1.89079e-05

> <r_epik_State_Penalty>
0.257001

> <r_epik_Charging_Adjusted_Penalty>
0.522106

> <i_epik_Tot_Q>
1

> <i_epik_Tot_abs_Q>
1

> <r_epik_Metal_State_Penalty>
0.543599

> <b_epik_Metal_Only>
0

> <s_lp_Force_Field>
OPLS_2005

> <r_lp_Energy>
27.717

> <b_lp_Chiralities_Consistent>
1

> <s_lp_Variant>
AV-unprocessed.smi:1102-2

> <Gold.Version>
5.8.1

> <Gold.Id.Protein>
6NUR|6NUR_protein|mol2

> <Gold.PLP.Fitness>
40.5966

> <Gold.PLP.PLP>
-31.5751

> <Gold.PLP.part.hbond>
-3.8387

> <Gold.PLP.part.metal>
0.0000

> <Gold.PLP.part.buried>
-1.9260

> <Gold.PLP.part.nonpolar>
-25.4605

> <Gold.PLP.part.repulsive>
0.2173

> <Gold.PLP.ligand.clash>
0.0000

> <Gold.PLP.ligand.torsion>
0.9137

> <Gold.PLP.Chemscore.Hbond>
3.6145

> <Gold.PLP.Chemscore.CHOScore>
0.0000

> <Gold.PLP.Chemscore.Metal>
0.0000

> <Gold.Chemscore.Hbonds>
donor molecule, donor type, donor heavy atom, donor atom, acceptor molecule, acceptor atom, score
      L1  H     8    28       P1 10171  0.91
      L1  H    11    29       P1 10175  0.64
      L1  H    19    40       P1 10957  1.98

> <Gold.PLP.Chemscore.Internal.Correction>
0.0053

> <Gold.Rescore>
     Score         DG    S(hbond)    S(metal)    S(lipo)     H(rot)  DE(clash)    DE(int)     intcor
     14.87     -18.43       2.84        0.00      56.57       1.23       0.02       3.54       ----

> <Gold.Chemscore.Fitness>
14.8721

> <Gold.Chemscore.DG>
-18.4332

> <Gold.Chemscore.ZeroCoef>
-5.4800

> <Gold.Chemscore.Hbond>
2.8368

> <Gold.Chemscore.Metal>
0.0000

> <Gold.Chemscore.Lipo>
56.5730

> <Gold.Chemscore.Internal_Hbond>
0.0000

> <Gold.Chemscore.DEClash>
0.0174

> <Gold.Chemscore.DEInternal>
3.5438

> <Gold.Chemscore.Rot>
1.2268

> <Gold.Chemscore.Internal.Correction>
   9.000000E+99

> <Gold.Chemscore.Hbonds>
donor molecule, donor type, donor heavy atom, donor atom, acceptor molecule, acceptor atom, score
      L1  H     8    28       P1 10171  0.70
      L1  H    11    29       P1 10175  0.41
      L1  H    19    40       P1 10957  0.65

> <Gold.Chemscore.Hbond.Weighted>
-9.4748

> <Gold.Chemscore.Metal.Weighted>
-0.0000

> <Gold.Chemscore.Lipo.Weighted>
-6.6190

> <Gold.Chemscore.Internal_Hbond.Weighted>
0.0000

> <Gold.Chemscore.DEClash.Weighted>
0.0174

> <Gold.Chemscore.DEInternal.Weighted>
3.5438

> <Gold.Chemscore.Rot.Weighted>
3.1406

> <Gold.Chemscore.Internal.Correction.Weighted>
   9.000000E+99

> <Gold.Protein.RotatedTorsions>
[ 6907 6896 6895 6894 ] final  132.78 input  -60.11 | X-H torsion
[ 7974 7965 7964 7962 ] final  -49.28 input  175.53 | X-H torsion
[ 8008 7997 7996 7995 ] final  -90.56 input   59.86 | X-H torsion
[ 10167 10162 10161 10158 ] final -129.90 input  -65.29 | X-H torsion
[ 10718 10713 10712 10709 ] final  132.13 input   66.30 | X-H torsion
[ 10763 10752 10751 10750 ] final  165.79 input  -60.55 | X-H torsion
[ 11005 11000 10999 10996 ] final   63.86 input  -57.11 | X-H torsion

> <Gold.Protein.ActiveResidues>
 VAL166  LYS551  ARG553  GLY616  TRP617  ASP618  TYR619  PRO620  LYS621  CYS622 
 ASP623  PHE694  ASN695  SER759  ASP760  ASP761  ALA762  ILE779  LEU786  VAL792 
 PHE793  MET794  SER795  GLU796  ALA797  LYS798  CYS799  TRP800  GLU811  SER814 

> <Gold.Protein.RotatedAtoms>
  152.3288  133.5935  159.5795 H   0  0  0  0  0  0  0  0  0  0  0  0  # atno 6907 bound_to 6896
  150.7412  133.9899  159.3612 H   0  0  0  0  0  0  0  0  0  0  0  0  # atno 6908 bound_to 6896
  151.7776  135.0770  160.0420 H   0  0  0  0  0  0  0  0  0  0  0  0  # atno 6909 bound_to 6896
  145.9422  140.7651  142.9546 H   0  0  0  0  0  0  0  0  0  0  0  0  # atno 7974 bound_to 7965
  154.7000  140.0529  157.0448 H   0  0  0  0  0  0  0  0  0  0  0  0  # atno 8008 bound_to 7997
  155.0698  140.3198  155.4615 H   0  0  0  0  0  0  0  0  0  0  0  0  # atno 8009 bound_to 7997
  156.2757  140.2084  156.5825 H   0  0  0  0  0  0  0  0  0  0  0  0  # atno 8010 bound_to 7997
  139.9350  143.6228  152.2519 H   0  0  0  0  0  0  0  0  0  0  0  0  # atno 10167 bound_to 10162
  157.4900  131.1090  150.9568 H   0  0  0  0  0  0  0  0  0  0  0  0  # atno 10718 bound_to 10713
  154.3293  135.2755  155.2480 H   0  0  0  0  0  0  0  0  0  0  0  0  # atno 10763 bound_to 10752
  154.4799  135.5861  153.6385 H   0  0  0  0  0  0  0  0  0  0  0  0  # atno 10764 bound_to 10752
  152.9868  135.6109  154.3484 H   0  0  0  0  0  0  0  0  0  0  0  0  # atno 10765 bound_to 10752
  139.9996  134.6463  155.9952 H   0  0  0  0  0  0  0  0  0  0  0  0  # atno 11005 bound_to 11000
  144.6781  140.2299  143.7356 LP  0  0  0  0  0  0  0  0  0  0  0  0  # atno 17320 bound_to 7965
  145.8284  139.2075  143.1897 LP  0  0  0  0  0  0  0  0  0  0  0  0  # atno 17321 bound_to 7965
  139.6751  144.7659  151.1711 LP  0  0  0  0  0  0  0  0  0  0  0  0  # atno 17342 bound_to 10162
  140.7627  143.5807  150.8898 LP  0  0  0  0  0  0  0  0  0  0  0  0  # atno 17343 bound_to 10162
  157.0273  130.5697  149.5338 LP  0  0  0  0  0  0  0  0  0  0  0  0  # atno 17370 bound_to 10713
  156.0168  130.5262  150.8159 LP  0  0  0  0  0  0  0  0  0  0  0  0  # atno 17371 bound_to 10713
  141.1632  133.6538  156.4388 LP  0  0  0  0  0  0  0  0  0  0  0  0  # atno 17394 bound_to 11000
  140.4752  134.6716  157.5147 LP  0  0  0  0  0  0  0  0  0  0  0  0  # atno 17395 bound_to 11000

$$$$
