AV-unprocessed.smi:2424|AV-procd|sdf|9573|dock6
  -GOLD-   2272013203D 1   1.00000     0.00000
 Structure written by MMmdl.
 49 50  0  0  0  0  0  0  0  0  2 V2000
  144.4756  135.4852  150.0680 C   0  0  0  0  0  0  0  0  0  0  0  0
  145.3705  135.7338  151.2937 C   0  0  0  0  0  0  0  0  0  0  0  0
  144.7495  135.3377  152.6596 C   0  0  0  0  0  0  0  0  0  0  0  0
  144.5721  133.8024  152.7036 C   0  0  0  0  0  0  0  0  0  0  0  0
  145.8554  132.9875  152.4766 C   0  0  0  0  0  0  0  0  0  0  0  0
  145.4101  135.9459  153.9258 C   0  0  1  0  0  0  0  0  0  0  0  0
  146.8041  136.3449  153.7485 N   0  0  0  0  0  0  0  0  0  0  0  0
  147.5507  136.9748  154.6650 C   0  0  0  0  0  0  0  0  0  0  0  0
  147.1281  137.2996  155.7741 O   0  0  0  0  0  0  0  0  0  0  0  0
  148.7946  137.1872  154.2009 N   0  0  0  0  0  0  0  0  0  0  0  0
  149.8760  137.8042  154.8431 C   0  0  0  0  0  0  0  0  0  0  0  0
  149.7145  138.3659  156.0934 C   0  0  0  0  0  0  0  0  0  0  0  0
  150.6269  138.9978  156.8632 N   0  5  0  0  0  0  0  0  0  0  0  0
  151.8971  139.1231  156.3825 C   0  0  0  0  0  0  0  0  0  0  0  0
  152.7812  139.6853  157.0280 O   0  0  0  0  0  0  0  0  0  0  0  0
  152.2125  138.5671  155.0513 C   0  0  0  0  0  0  0  0  0  0  0  0
  153.6275  138.7100  154.5168 C   0  0  0  0  0  0  0  0  0  0  0  0
  151.2414  137.9452  154.3368 C   0  0  0  0  0  0  0  0  0  0  0  0
  144.4494  137.1350  153.8430 C   0  0  2  0  0  0  0  0  0  0  0  0
  143.9717  137.8153  155.1200 C   0  0  0  0  0  0  0  0  0  0  0  0
  143.5127  136.1928  153.0699 C   0  0  2  0  0  0  0  0  0  0  0  0
  142.6189  135.5386  153.9635 O   0  0  0  0  0  0  0  0  0  0  0  0
  141.7500  134.6282  153.3110 C   0  0  0  0  0  0  0  0  0  0  0  0
  144.9329  135.9053  149.1722 H   0  0  0  0  0  0  0  0  0  0  0  0
  143.4956  135.9479  150.1819 H   0  0  0  0  0  0  0  0  0  0  0  0
  144.3283  134.4222  149.8810 H   0  0  0  0  0  0  0  0  0  0  0  0
  146.3262  135.2331  151.1406 H   0  0  0  0  0  0  0  0  0  0  0  0
  145.6195  136.7948  151.2936 H   0  0  0  0  0  0  0  0  0  0  0  0
  144.1871  133.5078  153.6799 H   0  0  0  0  0  0  0  0  0  0  0  0
  143.8103  133.4750  151.9976 H   0  0  0  0  0  0  0  0  0  0  0  0
  145.6583  131.9237  152.6095 H   0  0  0  0  0  0  0  0  0  0  0  0
  146.6344  133.2645  153.1863 H   0  0  0  0  0  0  0  0  0  0  0  0
  146.2513  133.1161  151.4700 H   0  0  0  0  0  0  0  0  0  0  0  0
  145.2183  135.3458  154.8187 H   0  0  0  0  0  0  0  0  0  0  0  0
  147.2335  136.1173  152.8639 H   0  0  0  0  0  0  0  0  0  0  0  0
  148.9884  136.8616  153.2652 H   0  0  0  0  0  0  0  0  0  0  0  0
  148.7003  138.2971  156.5430 H   0  0  0  0  0  0  0  0  0  0  0  0
  153.7277  138.2568  153.5303 H   0  0  0  0  0  0  0  0  0  0  0  0
  154.3383  138.2227  155.1849 H   0  0  0  0  0  0  0  0  0  0  0  0
  153.8985  139.7629  154.4328 H   0  0  0  0  0  0  0  0  0  0  0  0
  151.5099  137.5529  153.3697 H   0  0  0  0  0  0  0  0  0  0  0  0
  144.8379  137.8829  153.1492 H   0  0  0  0  0  0  0  0  0  0  0  0
  143.6466  137.0890  155.8653 H   0  0  0  0  0  0  0  0  0  0  0  0
  143.1332  138.4824  154.9210 H   0  0  0  0  0  0  0  0  0  0  0  0
  144.7683  138.4086  155.5691 H   0  0  0  0  0  0  0  0  0  0  0  0
  143.0058  136.7060  152.2511 H   0  0  0  0  0  0  0  0  0  0  0  0
  141.1231  134.1292  154.0496 H   0  0  0  0  0  0  0  0  0  0  0  0
  142.3024  133.8631  152.7659 H   0  0  0  0  0  0  0  0  0  0  0  0
  141.0948  135.1482  152.6111 H   0  0  0  0  0  0  0  0  0  0  0  0
  1  2  1  0  0  0  0
  1 24  1  0  0  0  0
  1 25  1  0  0  0  0
  1 26  1  0  0  0  0
  2  3  1  0  0  0  0
  2 27  1  0  0  0  0
  2 28  1  0  0  0  0
  3 21  1  0  0  0  0
  3  4  1  0  0  0  0
  3  6  1  0  0  0  0
  4  5  1  0  0  0  0
  4 29  1  0  0  0  0
  4 30  1  0  0  0  0
  5 31  1  0  0  0  0
  5 32  1  0  0  0  0
  5 33  1  0  0  0  0
  6  7  1  0  0  0  0
  6 19  1  0  0  0  0
  6 34  1  0  0  0  0
  7  8  1  0  0  0  0
  7 35  1  0  0  0  0
  8  9  2  0  0  0  0
  8 10  1  0  0  0  0
 10 11  1  0  0  0  0
 10 36  1  0  0  0  0
 11 18  1  0  0  0  0
 11 12  2  0  0  0  0
 12 13  1  0  0  0  0
 12 37  1  0  0  0  0
 13 14  1  0  0  0  0
 14 15  2  0  0  0  0
 14 16  1  0  0  0  0
 16 17  1  0  0  0  0
 16 18  2  0  0  0  0
 17 38  1  0  0  0  0
 17 39  1  0  0  0  0
 17 40  1  0  0  0  0
 18 41  1  0  0  0  0
 19 20  1  0  0  0  0
 19 21  1  0  0  0  0
 19 42  1  0  0  0  0
 20 43  1  0  0  0  0
 20 44  1  0  0  0  0
 20 45  1  0  0  0  0
 21 22  1  0  0  0  0
 21 46  1  0  0  0  0
 22 23  1  0  0  0  0
 23 47  1  0  0  0  0
 23 48  1  0  0  0  0
 23 49  1  0  0  0  0
M  CHG  1  13  -1
M  END
> <s_m_source_file>
AV-unprocessed.smi

> <i_m_source_file_index>
2424

> <i_lp_mmshare_version>
43012

> <i_f3d_flags>
0

> <s_epik_input>
W0NIM11PW0NAQEhdMVtDQEhdKFtDSDNdKVtDQEBIXShDMShbQ0gyXVtDSDNdKVtDSDJdW0NIM10pW05IXUMoPU8pW05IXWMyW2NIXVtuSF1jKD1PKWMoW0NIM10pW2NIXTI=

> <s_epik_cmdline>
J2VwaWtfcHl0aG9uJywgJy1waCcsICc3LjAnLCAnLXRuJywgJzgnLCAnLW1hJywgJzIwMCcsICctbWV0YWxfYmluZGluZycsICctaW1hZScsICc8aW5maWxlLm1hZT4nLCAnLW9tYWUnLCAnPG91dGZpbGUubWFlPic=

> <r_lp_tautomer_probability>
1

> <r_epik_Ionization_Penalty>
7.6122

> <r_epik_Ionization_Penalty_Charging>
1.53843

> <r_epik_Ionization_Penalty_Neutral>
6.07377

> <r_epik_State_Penalty>
6.07371

> <r_epik_Charging_Adjusted_Penalty>
7.61214

> <i_epik_Tot_Q>
-1

> <i_epik_Tot_abs_Q>
1

> <r_epik_Metal_State_Penalty>
2.02136

> <b_epik_Metal_Only>
1

> <s_lp_Force_Field>
OPLS_2005

> <r_lp_Energy>
41.9258

> <b_lp_Chiralities_Consistent>
1

> <s_lp_Variant>
AV-unprocessed.smi:2424-15

> <Gold.Version>
5.8.1

> <Gold.Id.Protein>
6NUR|6NUR_protein|mol2

> <Gold.PLP.Fitness>
38.6700

> <Gold.PLP.PLP>
-30.0812

> <Gold.PLP.part.hbond>
-3.0000

> <Gold.PLP.part.metal>
0.0000

> <Gold.PLP.part.buried>
-0.6680

> <Gold.PLP.part.nonpolar>
-25.8747

> <Gold.PLP.part.repulsive>
0.1005

> <Gold.PLP.ligand.clash>
0.0000

> <Gold.PLP.ligand.torsion>
0.3728

> <Gold.PLP.Chemscore.Hbond>
2.8800

> <Gold.PLP.Chemscore.CHOScore>
0.0000

> <Gold.PLP.Chemscore.Metal>
0.0000

> <Gold.Chemscore.Hbonds>
donor molecule, donor type, donor heavy atom, donor atom, acceptor molecule, acceptor atom, score
      L1  H     7    35       P1  7948  0.86
      L1  H    10    36       P1  7948  0.98
      P1  H  7997  8010       L1    15  1.00

> <Gold.PLP.Chemscore.Internal.Correction>
0.6943

> <Gold.Rescore>
     Score         DG    S(hbond)    S(metal)    S(lipo)     H(rot)  DE(clash)    DE(int)     intcor
     17.26     -19.33       2.78        0.00      72.42       1.52       0.20       1.87       ----

> <Gold.Chemscore.Fitness>
17.2553

> <Gold.Chemscore.DG>
-19.3294

> <Gold.Chemscore.ZeroCoef>
-5.4800

> <Gold.Chemscore.Hbond>
2.7751

> <Gold.Chemscore.Metal>
0.0000

> <Gold.Chemscore.Lipo>
72.4166

> <Gold.Chemscore.Internal_Hbond>
0.0000

> <Gold.Chemscore.DEClash>
0.2024

> <Gold.Chemscore.DEInternal>
1.8717

> <Gold.Chemscore.Rot>
1.5204

> <Gold.Chemscore.Internal.Correction>
   9.000000E+99

> <Gold.Chemscore.Hbonds>
donor molecule, donor type, donor heavy atom, donor atom, acceptor molecule, acceptor atom, score
      L1  H     7    35       P1  7948  0.83
      L1  H    10    36       P1  7948  0.92
      P1  H  7997  8010       L1    15  1.00

> <Gold.Chemscore.Hbond.Weighted>
-9.2689

> <Gold.Chemscore.Metal.Weighted>
-0.0000

> <Gold.Chemscore.Lipo.Weighted>
-8.4727

> <Gold.Chemscore.Internal_Hbond.Weighted>
0.0000

> <Gold.Chemscore.DEClash.Weighted>
0.2024

> <Gold.Chemscore.DEInternal.Weighted>
1.8717

> <Gold.Chemscore.Rot.Weighted>
3.8922

> <Gold.Chemscore.Internal.Correction.Weighted>
   9.000000E+99

> <Gold.Protein.RotatedTorsions>
[ 6907 6896 6895 6894 ] final   96.38 input  -60.11 | X-H torsion
[ 7974 7965 7964 7962 ] final -179.68 input  175.53 | X-H torsion
[ 8008 7997 7996 7995 ] final   69.52 input   59.86 | X-H torsion
[ 10167 10162 10161 10158 ] final  116.96 input  -65.29 | X-H torsion
[ 10718 10713 10712 10709 ] final   28.07 input   66.30 | X-H torsion
[ 10763 10752 10751 10750 ] final -160.80 input  -60.55 | X-H torsion
[ 11005 11000 10999 10996 ] final  120.10 input  -57.11 | X-H torsion

> <Gold.Protein.ActiveResidues>
 VAL166  LYS551  ARG553  GLY616  TRP617  ASP618  TYR619  PRO620  LYS621  CYS622 
 ASP623  PHE694  ASN695  SER759  ASP760  ASP761  ALA762  ILE779  LEU786  VAL792 
 PHE793  MET794  SER795  GLU796  ALA797  LYS798  CYS799  TRP800  GLU811  SER814 

> <Gold.Protein.RotatedAtoms>
  152.5435  134.0895  159.8270 H   0  0  0  0  0  0  0  0  0  0  0  0  # atno 6907 bound_to 6896
  151.0986  133.5253  159.2618 H   0  0  0  0  0  0  0  0  0  0  0  0  # atno 6908 bound_to 6896
  151.2017  135.0454  159.8929 H   0  0  0  0  0  0  0  0  0  0  0  0  # atno 6909 bound_to 6896
  144.7138  140.0682  143.6430 H   0  0  0  0  0  0  0  0  0  0  0  0  # atno 7974 bound_to 7965
  155.7248  140.3493  155.5032 H   0  0  0  0  0  0  0  0  0  0  0  0  # atno 8008 bound_to 7997
  155.9236  140.1071  157.1209 H   0  0  0  0  0  0  0  0  0  0  0  0  # atno 8009 bound_to 7997
  154.4074  140.1244  156.4699 H   0  0  0  0  0  0  0  0  0  0  0  0  # atno 8010 bound_to 7997
  139.6211  144.7101  151.2633 H   0  0  0  0  0  0  0  0  0  0  0  0  # atno 10167 bound_to 10162
  157.2285  130.7012  149.6302 H   0  0  0  0  0  0  0  0  0  0  0  0  # atno 10718 bound_to 10713
  154.7359  135.3057  154.8812 H   0  0  0  0  0  0  0  0  0  0  0  0  # atno 10763 bound_to 10752
  153.9640  135.6749  153.4750 H   0  0  0  0  0  0  0  0  0  0  0  0  # atno 10764 bound_to 10752
  153.0962  135.4934  154.8706 H   0  0  0  0  0  0  0  0  0  0  0  0  # atno 10765 bound_to 10752
  139.9172  134.9632  156.7755 H   0  0  0  0  0  0  0  0  0  0  0  0  # atno 11005 bound_to 11000
  145.9806  139.2938  143.1044 LP  0  0  0  0  0  0  0  0  0  0  0  0  # atno 17320 bound_to 7965
  145.9015  140.9240  143.0501 LP  0  0  0  0  0  0  0  0  0  0  0  0  # atno 17321 bound_to 7965
  140.7382  143.6654  150.8127 LP  0  0  0  0  0  0  0  0  0  0  0  0  # atno 17342 bound_to 10162
  140.0265  143.5488  152.2778 LP  0  0  0  0  0  0  0  0  0  0  0  0  # atno 17343 bound_to 10162
  155.9677  130.4496  150.5666 LP  0  0  0  0  0  0  0  0  0  0  0  0  # atno 17370 bound_to 10713
  157.3502  131.0732  151.1719 LP  0  0  0  0  0  0  0  0  0  0  0  0  # atno 17371 bound_to 10713
  140.6586  133.9666  155.7793 LP  0  0  0  0  0  0  0  0  0  0  0  0  # atno 17394 bound_to 11000
  141.0659  134.0277  157.3594 LP  0  0  0  0  0  0  0  0  0  0  0  0  # atno 17395 bound_to 11000

$$$$
