AV-unprocessed.smi:2505|AV-procd|sdf|9855|dock10
  -GOLD-   2272013483D 1   1.00000     0.00000
 Structure written by MMmdl.
 48 52  0  0  0  0  0  0  0  0  1 V2000
  147.0864  136.3641  155.8248 O   0  0  0  0  0  0  0  0  0  0  0  0
  147.6280  136.3162  154.7226 C   0  0  0  0  0  0  0  0  0  0  0  0
  148.6174  137.1345  154.3158 N   0  0  0  0  0  0  0  0  0  0  0  0
  149.2657  138.1690  155.0403 C   0  0  0  0  0  0  0  0  0  0  0  0
  149.2646  138.3017  156.4508 C   0  0  0  0  0  0  0  0  0  0  0  0
  149.9205  139.3083  157.0684 N   0  0  0  0  0  0  0  0  0  0  0  0
  150.5675  140.1790  156.2890 C   0  0  0  0  0  0  0  0  0  0  0  0
  151.3214  141.2709  156.9827 C   0  0  0  0  0  0  0  0  0  0  0  0
  150.6699  142.0884  158.0796 C   0  0  0  0  0  0  0  0  0  0  0  0
  150.9673  142.7260  156.7511 C   0  0  0  0  0  0  0  0  0  0  0  0
  150.6581  140.1402  154.9566 N   0  0  0  0  0  0  0  0  0  0  0  0
  150.0068  139.1368  154.3308 C   0  0  0  0  0  0  0  0  0  0  0  0
  147.2246  135.4417  153.7854 N   0  0  0  0  0  0  0  0  0  0  0  0
  146.1758  134.4206  153.9028 C   0  0  2  0  0  0  0  0  0  0  0  0
  146.6954  133.0425  154.3815 C   0  0  2  0  0  0  0  0  0  0  0  0
  148.0751  132.8307  154.9573 C   0  0  0  0  0  0  0  0  0  0  0  0
  148.8825  132.3543  153.7462 C   0  0  0  0  0  0  0  0  0  0  0  0
  148.1309  132.7820  152.6125 O   0  0  0  0  0  0  0  0  0  0  0  0
  146.7487  132.6229  152.9211 C   0  0  2  0  0  0  0  0  0  0  0  0
  145.8209  133.7923  152.5344 C   0  0  0  0  0  0  0  0  0  0  0  0
  146.1230  134.5398  151.2350 C   0  0  0  0  0  0  0  0  0  0  0  0
  145.3563  133.8211  150.1235 C   0  0  0  0  0  0  0  0  0  0  0  0
  144.1763  133.1353  150.8182 C   0  0  0  0  0  0  0  0  0  0  0  0
  144.3576  133.4093  152.3149 C   0  0  0  0  0  0  0  0  0  0  0  0
  148.9062  137.0312  153.3539 H   0  0  0  0  0  0  0  0  0  0  0  0
  148.7653  137.6034  157.1037 H   0  0  0  0  0  0  0  0  0  0  0  0
  152.3727  141.0142  157.0973 H   0  0  0  0  0  0  0  0  0  0  0  0
  149.6270  141.8846  158.3147 H   0  0  0  0  0  0  0  0  0  0  0  0
  151.2906  142.3761  158.9256 H   0  0  0  0  0  0  0  0  0  0  0  0
  151.7868  143.4403  156.7079 H   0  0  0  0  0  0  0  0  0  0  0  0
  150.1218  142.9472  156.1026 H   0  0  0  0  0  0  0  0  0  0  0  0
  150.0780  139.1086  153.2531 H   0  0  0  0  0  0  0  0  0  0  0  0
  147.6532  135.5257  152.8747 H   0  0  0  0  0  0  0  0  0  0  0  0
  145.2881  134.7546  154.4425 H   0  0  0  0  0  0  0  0  0  0  0  0
  145.9119  132.5011  154.9139 H   0  0  0  0  0  0  0  0  0  0  0  0
  148.4944  133.7435  155.3778 H   0  0  0  0  0  0  0  0  0  0  0  0
  148.0794  132.0803  155.7484 H   0  0  0  0  0  0  0  0  0  0  0  0
  149.8943  132.7594  153.7303 H   0  0  0  0  0  0  0  0  0  0  0  0
  148.9496  131.2655  153.7354 H   0  0  0  0  0  0  0  0  0  0  0  0
  146.3695  131.6182  152.7291 H   0  0  0  0  0  0  0  0  0  0  0  0
  145.7685  135.5690  151.3085 H   0  0  0  0  0  0  0  0  0  0  0  0
  147.1891  134.5903  151.0117 H   0  0  0  0  0  0  0  0  0  0  0  0
  145.0340  134.5104  149.3426 H   0  0  0  0  0  0  0  0  0  0  0  0
  145.9952  133.0701  149.6570 H   0  0  0  0  0  0  0  0  0  0  0  0
  143.2182  133.5145  150.4614 H   0  0  0  0  0  0  0  0  0  0  0  0
  144.1999  132.0631  150.6202 H   0  0  0  0  0  0  0  0  0  0  0  0
  144.0550  132.5503  152.9148 H   0  0  0  0  0  0  0  0  0  0  0  0
  143.7104  134.2371  152.6080 H   0  0  0  0  0  0  0  0  0  0  0  0
  1  2  2  0  0  0  0
  2  3  1  0  0  0  0
  2 13  1  0  0  0  0
  3  4  1  0  0  0  0
  3 25  1  0  0  0  0
  4 12  1  0  0  0  0
  4  5  2  0  0  0  0
  5  6  1  0  0  0  0
  5 26  1  0  0  0  0
  6  7  2  0  0  0  0
  7  8  1  0  0  0  0
  7 11  1  0  0  0  0
  8 10  1  0  0  0  0
  8  9  1  0  0  0  0
  8 27  1  0  0  0  0
  9 10  1  0  0  0  0
  9 28  1  0  0  0  0
  9 29  1  0  0  0  0
 10 30  1  0  0  0  0
 10 31  1  0  0  0  0
 11 12  2  0  0  0  0
 12 32  1  0  0  0  0
 13 14  1  0  0  0  0
 13 33  1  0  0  0  0
 14 20  1  0  0  0  0
 14 15  1  0  0  0  0
 14 34  1  0  0  0  0
 15 19  1  0  0  0  0
 15 16  1  0  0  0  0
 15 35  1  0  0  0  0
 16 17  1  0  0  0  0
 16 36  1  0  0  0  0
 16 37  1  0  0  0  0
 17 18  1  0  0  0  0
 17 38  1  0  0  0  0
 17 39  1  0  0  0  0
 18 19  1  0  0  0  0
 19 20  1  0  0  0  0
 19 40  1  0  0  0  0
 20 24  1  0  0  0  0
 20 21  1  0  0  0  0
 21 22  1  0  0  0  0
 21 41  1  0  0  0  0
 21 42  1  0  0  0  0
 22 23  1  0  0  0  0
 22 43  1  0  0  0  0
 22 44  1  0  0  0  0
 23 24  1  0  0  0  0
 23 45  1  0  0  0  0
 23 46  1  0  0  0  0
 24 47  1  0  0  0  0
 24 48  1  0  0  0  0
M  END
> <s_m_source_file>
AV-unprocessed.smi

> <i_m_source_file_index>
2505

> <i_lp_mmshare_version>
43012

> <i_f3d_flags>
0

> <s_epik_input>
W0NIMl0xW0NIMl1bQ0hdMWMobltjSF0yKW5bY0hdYzJbTkhdQyg9TylbTkhdW0NAQEhdM1tDQEBIXShbQ0gyXVtDSDJdTzQpW0NASF00QzM1W0NIMl1bQ0gyXVtDSDJdW0NIMl01

> <s_epik_cmdline>
J2VwaWtfcHl0aG9uJywgJy1waCcsICc3LjAnLCAnLXRuJywgJzgnLCAnLW1hJywgJzIwMCcsICctbWV0YWxfYmluZGluZycsICctaW1hZScsICc8aW5maWxlLm1hZT4nLCAnLW9tYWUnLCAnPG91dGZpbGUubWFlPic=

> <r_lp_tautomer_probability>
1

> <r_epik_Ionization_Penalty>
2.6075e-05

> <r_epik_Ionization_Penalty_Charging>
0

> <r_epik_Ionization_Penalty_Neutral>
2.6075e-05

> <r_epik_State_Penalty>
-0

> <r_epik_Charging_Adjusted_Penalty>
0

> <i_epik_Tot_Q>
0

> <i_epik_Tot_abs_Q>
0

> <r_epik_Metal_State_Penalty>
-0

> <b_epik_Metal_Only>
0

> <s_lp_Force_Field>
OPLS_2005

> <r_lp_Energy>
63.7277

> <b_lp_Chiralities_Consistent>
1

> <s_lp_Variant>
AV-unprocessed.smi:2505-3

> <Gold.Version>
5.8.1

> <Gold.Id.Protein>
6NUR|6NUR_protein|mol2

> <Gold.PLP.Fitness>
40.3280

> <Gold.PLP.PLP>
-28.9718

> <Gold.PLP.part.hbond>
-3.0000

> <Gold.PLP.part.metal>
0.0000

> <Gold.PLP.part.buried>
-2.2966

> <Gold.PLP.part.nonpolar>
-24.6426

> <Gold.PLP.part.repulsive>
0.5487

> <Gold.PLP.ligand.clash>
0.0000

> <Gold.PLP.ligand.torsion>
0.4672

> <Gold.PLP.Chemscore.Hbond>
2.9920

> <Gold.PLP.Chemscore.CHOScore>
1.0000

> <Gold.PLP.Chemscore.Metal>
0.0000

> <Gold.Chemscore.Hbonds>
donor molecule, donor type, donor heavy atom, donor atom, acceptor molecule, acceptor atom, score
      L1  H     3    25       P1  7948  1.00
      L1  H    13    33       P1  7948  0.99
      P1  H  7989  7998       L1    11  1.00
      L1  C    12    32       P1  7957  1.00

> <Gold.PLP.Chemscore.Internal.Correction>
0.3147

> <Gold.Rescore>
     Score         DG    S(hbond)    S(metal)    S(lipo)     H(rot)  DE(clash)    DE(int)     intcor
     18.80     -20.46       2.59        0.00      79.67       1.17       0.22       1.44       ----

> <Gold.Chemscore.Fitness>
18.7958

> <Gold.Chemscore.DG>
-20.4602

> <Gold.Chemscore.ZeroCoef>
-5.4800

> <Gold.Chemscore.Hbond>
2.5944

> <Gold.Chemscore.Metal>
0.0000

> <Gold.Chemscore.Lipo>
79.6704

> <Gold.Chemscore.Internal_Hbond>
0.0000

> <Gold.Chemscore.DEClash>
0.2223

> <Gold.Chemscore.DEInternal>
1.4420

> <Gold.Chemscore.Rot>
1.1744

> <Gold.Chemscore.Internal.Correction>
   9.000000E+99

> <Gold.Chemscore.Hbonds>
donor molecule, donor type, donor heavy atom, donor atom, acceptor molecule, acceptor atom, score
      L1  H     3    25       P1  7948  0.98
      L1  H    13    33       P1  7948  0.93
      P1  H  7989  7998       L1    11  0.25

> <Gold.Chemscore.Hbond.Weighted>
-8.6652

> <Gold.Chemscore.Metal.Weighted>
-0.0000

> <Gold.Chemscore.Lipo.Weighted>
-9.3214

> <Gold.Chemscore.Internal_Hbond.Weighted>
0.0000

> <Gold.Chemscore.DEClash.Weighted>
0.2223

> <Gold.Chemscore.DEInternal.Weighted>
1.4420

> <Gold.Chemscore.Rot.Weighted>
3.0064

> <Gold.Chemscore.Internal.Correction.Weighted>
   9.000000E+99

> <Gold.Protein.RotatedTorsions>
[ 6907 6896 6895 6894 ] final -170.70 input  -60.11 | X-H torsion
[ 7974 7965 7964 7962 ] final  106.52 input  175.53 | X-H torsion
[ 8008 7997 7996 7995 ] final  -70.35 input   59.86 | X-H torsion
[ 10167 10162 10161 10158 ] final  -80.54 input  -65.29 | X-H torsion
[ 10718 10713 10712 10709 ] final  174.10 input   66.30 | X-H torsion
[ 10763 10752 10751 10750 ] final -162.95 input  -60.55 | X-H torsion
[ 11005 11000 10999 10996 ] final  152.62 input  -57.11 | X-H torsion

> <Gold.Protein.ActiveResidues>
 VAL166  LYS551  ARG553  GLY616  TRP617  ASP618  TYR619  PRO620  LYS621  CYS622 
 ASP623  PHE694  ASN695  SER759  ASP760  ASP761  ALA762  ILE779  LEU786  VAL792 
 PHE793  MET794  SER795  GLU796  ALA797  LYS798  CYS799  TRP800  GLU811  SER814 

> <Gold.Protein.RotatedAtoms>
  151.5120  133.3483  159.2886 H   0  0  0  0  0  0  0  0  0  0  0  0  # atno 6907 bound_to 6896
  150.8706  134.8081  159.7163 H   0  0  0  0  0  0  0  0  0  0  0  0  # atno 6908 bound_to 6896
  152.4695  134.5004  159.9774 H   0  0  0  0  0  0  0  0  0  0  0  0  # atno 6909 bound_to 6896
  145.3055  139.2556  143.3791 H   0  0  0  0  0  0  0  0  0  0  0  0  # atno 7974 bound_to 7965
  154.5005  140.0836  156.7788 H   0  0  0  0  0  0  0  0  0  0  0  0  # atno 8008 bound_to 7997
  155.4013  140.3437  155.4239 H   0  0  0  0  0  0  0  0  0  0  0  0  # atno 8009 bound_to 7997
  156.1451  140.1541  156.8848 H   0  0  0  0  0  0  0  0  0  0  0  0  # atno 8010 bound_to 7997
  140.4494  143.2488  151.8511 H   0  0  0  0  0  0  0  0  0  0  0  0  # atno 10167 bound_to 10162
  156.9546  131.0041  151.2941 H   0  0  0  0  0  0  0  0  0  0  0  0  # atno 10718 bound_to 10713
  154.7167  135.3017  154.9112 H   0  0  0  0  0  0  0  0  0  0  0  0  # atno 10763 bound_to 10752
  153.9996  135.6708  153.4762 H   0  0  0  0  0  0  0  0  0  0  0  0  # atno 10764 bound_to 10752
  153.0800  135.5014  154.8398 H   0  0  0  0  0  0  0  0  0  0  0  0  # atno 10765 bound_to 10752
  140.1324  134.8793  157.2222 H   0  0  0  0  0  0  0  0  0  0  0  0  # atno 11005 bound_to 11000
  146.3137  140.3579  142.8662 LP  0  0  0  0  0  0  0  0  0  0  0  0  # atno 17320 bound_to 7965
  144.9058  140.7698  143.5838 LP  0  0  0  0  0  0  0  0  0  0  0  0  # atno 17321 bound_to 7965
  139.4795  144.5137  151.8897 LP  0  0  0  0  0  0  0  0  0  0  0  0  # atno 17342 bound_to 10162
  140.4225  144.2224  150.5887 LP  0  0  0  0  0  0  0  0  0  0  0  0  # atno 17343 bound_to 10162
  157.5699  130.8303  149.8377 LP  0  0  0  0  0  0  0  0  0  0  0  0  # atno 17370 bound_to 10713
  156.0348  130.3754  150.1589 LP  0  0  0  0  0  0  0  0  0  0  0  0  # atno 17371 bound_to 10713
  140.2825  134.3333  155.7339 LP  0  0  0  0  0  0  0  0  0  0  0  0  # atno 17394 bound_to 11000
  141.2172  133.7487  156.9385 LP  0  0  0  0  0  0  0  0  0  0  0  0  # atno 17395 bound_to 11000

$$$$
