AV-unprocessed.smi:348|AV-procd|sdf|2395|dock8
  -GOLD-   2262022323D 1   1.00000     0.00000
 Structure written by MMmdl.
 39 40  0  0  0  0  0  0  0  0  1 V2000
  150.7700  139.9201  155.5883 C   0  0  0  0  0  0  0  0  0  0  0  0
  150.1331  140.3493  154.3955 O   0  0  0  0  0  0  0  0  0  0  0  0
  149.2116  141.4141  154.5813 C   0  0  0  0  0  0  0  0  0  0  0  0
  147.9730  141.2572  153.6795 C   0  0  0  0  0  0  0  0  0  0  0  0
  147.1248  140.1556  154.0899 N   0  0  0  0  0  0  0  0  0  0  0  0
  147.2305  138.8616  153.5721 C   0  0  0  0  0  0  0  0  0  0  0  0
  148.2174  138.6184  152.6275 N   0  0  0  0  0  0  0  0  0  0  0  0
  146.4137  137.8440  153.9756 C   0  0  0  0  0  0  0  0  0  0  0  0
  146.5530  136.5653  153.4338 N   0  0  0  0  0  0  0  0  0  0  0  0
  145.8182  135.3363  153.6946 C   0  0  0  0  0  0  0  0  0  0  0  0
  145.5309  134.5358  152.4384 C   0  0  0  0  0  0  0  0  0  0  0  0
  144.6809  135.0608  151.4413 C   0  0  0  0  0  0  0  0  0  0  0  0
  144.4150  134.3190  150.2738 C   0  0  0  0  0  0  0  0  0  0  0  0
  144.9992  133.0499  150.0971 C   0  0  0  0  0  0  0  0  0  0  0  0
  145.8501  132.5235  151.0880 C   0  0  0  0  0  0  0  0  0  0  0  0
  146.1167  133.2650  152.2555 C   0  0  0  0  0  0  0  0  0  0  0  0
  145.3820  138.0944  154.9984 C   0  0  0  0  0  0  0  0  0  0  0  0
  144.5758  137.2804  155.4457 O   0  0  0  0  0  0  0  0  0  0  0  0
  145.3480  139.3956  155.4941 N   0  0  0  0  0  0  0  0  0  0  0  0
  146.1776  140.4375  155.1008 C   0  0  0  0  0  0  0  0  0  0  0  0
  146.0589  141.5401  155.6366 O   0  0  0  0  0  0  0  0  0  0  0  0
  144.6628  139.5980  156.2073 H   0  0  0  0  0  0  0  0  0  0  0  0
  151.4857  139.1326  155.3527 H   0  0  0  0  0  0  0  0  0  0  0  0
  150.0584  139.5142  156.3070 H   0  0  0  0  0  0  0  0  0  0  0  0
  151.3165  140.7376  156.0598 H   0  0  0  0  0  0  0  0  0  0  0  0
  148.9285  141.5031  155.6314 H   0  0  0  0  0  0  0  0  0  0  0  0
  149.7312  142.3371  154.3234 H   0  0  0  0  0  0  0  0  0  0  0  0
  147.3679  142.1651  153.6597 H   0  0  0  0  0  0  0  0  0  0  0  0
  148.2394  141.0753  152.6394 H   0  0  0  0  0  0  0  0  0  0  0  0
  148.8464  139.3436  152.3146 H   0  0  0  0  0  0  0  0  0  0  0  0
  148.3612  137.7006  152.2315 H   0  0  0  0  0  0  0  0  0  0  0  0
  147.2559  136.4696  152.7159 H   0  0  0  0  0  0  0  0  0  0  0  0
  146.3958  134.7066  154.3721 H   0  0  0  0  0  0  0  0  0  0  0  0
  144.8808  135.5807  154.1960 H   0  0  0  0  0  0  0  0  0  0  0  0
  144.2318  136.0351  151.5693 H   0  0  0  0  0  0  0  0  0  0  0  0
  143.7636  134.7242  149.5138 H   0  0  0  0  0  0  0  0  0  0  0  0
  144.7955  132.4813  149.2017 H   0  0  0  0  0  0  0  0  0  0  0  0
  146.2987  131.5504  150.9526 H   0  0  0  0  0  0  0  0  0  0  0  0
  146.7709  132.8526  153.0097 H   0  0  0  0  0  0  0  0  0  0  0  0
  1  2  1  0  0  0  0
  1 23  1  0  0  0  0
  1 24  1  0  0  0  0
  1 25  1  0  0  0  0
  2  3  1  0  0  0  0
  3  4  1  0  0  0  0
  3 26  1  0  0  0  0
  3 27  1  0  0  0  0
  4  5  1  0  0  0  0
  4 28  1  0  0  0  0
  4 29  1  0  0  0  0
  5 20  1  0  0  0  0
  5  6  1  0  0  0  0
  6  7  1  0  0  0  0
  6  8  2  0  0  0  0
  7 30  1  0  0  0  0
  7 31  1  0  0  0  0
  8  9  1  0  0  0  0
  8 17  1  0  0  0  0
  9 10  1  0  0  0  0
  9 32  1  0  0  0  0
 10 11  1  0  0  0  0
 10 33  1  0  0  0  0
 10 34  1  0  0  0  0
 11 16  1  0  0  0  0
 11 12  2  0  0  0  0
 12 13  1  0  0  0  0
 12 35  1  0  0  0  0
 13 14  2  0  0  0  0
 13 36  1  0  0  0  0
 14 15  1  0  0  0  0
 14 37  1  0  0  0  0
 15 16  2  0  0  0  0
 15 38  1  0  0  0  0
 16 39  1  0  0  0  0
 17 18  2  0  0  0  0
 17 19  1  0  0  0  0
 19 22  1  0  0  0  0
 19 20  1  0  0  0  0
 20 21  2  0  0  0  0
M  END
> <s_m_source_file>
AV-unprocessed.smi

> <i_m_source_file_index>
348

> <i_lp_mmshare_version>
43012

> <i_f3d_flags>
0

> <s_epik_input>
W0NIM11PW0NIMl1bQ0gyXW4xYyhbTkgyXSljKGMoPU8pW25IXWMxPU8pW05IXVtDSDJdYzJbY0hdW2NIXVtjSF1bY0hdW2NIXTI=

> <s_epik_cmdline>
J2VwaWtfcHl0aG9uJywgJy1waCcsICc3LjAnLCAnLXRuJywgJzgnLCAnLW1hJywgJzIwMCcsICctbWV0YWxfYmluZGluZycsICctaW1hZScsICc8aW5maWxlLm1hZT4nLCAnLW9tYWUnLCAnPG91dGZpbGUubWFlPic=

> <r_lp_tautomer_probability>
1

> <r_epik_Ionization_Penalty>
5.85579e-06

> <r_epik_Ionization_Penalty_Charging>
2.30036e-06

> <r_epik_Ionization_Penalty_Neutral>
3.55543e-06

> <r_epik_State_Penalty>
-0

> <r_epik_Charging_Adjusted_Penalty>
2.30036e-06

> <i_epik_Tot_Q>
0

> <i_epik_Tot_abs_Q>
0

> <r_epik_Metal_State_Penalty>
-0

> <b_epik_Metal_Only>
0

> <s_epik_Chemistry_Notes>
This compound has an imine and may undergo hydrolysis.

> <s_lp_Force_Field>
OPLS_2005

> <r_lp_Energy>
18.6076

> <b_lp_Chiralities_Consistent>
1

> <s_lp_Variant>
AV-unprocessed.smi:348-1

> <Gold.Version>
5.8.1

> <Gold.Id.Protein>
6NUR|6NUR_protein|mol2

> <Gold.PLP.Fitness>
40.7779

> <Gold.PLP.PLP>
-30.6626

> <Gold.PLP.part.hbond>
-3.7169

> <Gold.PLP.part.metal>
0.0000

> <Gold.PLP.part.buried>
-4.0582

> <Gold.PLP.part.nonpolar>
-23.2142

> <Gold.PLP.part.repulsive>
0.3090

> <Gold.PLP.ligand.clash>
0.0000

> <Gold.PLP.ligand.torsion>
0.8102

> <Gold.PLP.Chemscore.Hbond>
3.9040

> <Gold.PLP.Chemscore.CHOScore>
0.0000

> <Gold.PLP.Chemscore.Metal>
0.0000

> <Gold.Chemscore.Hbonds>
donor molecule, donor type, donor heavy atom, donor atom, acceptor molecule, acceptor atom, score
      L1  H     7    30       P1  7957  0.96
      L1  H     7    31       P1  7948  1.00
      L1  H     9    32       P1  7948  1.00
      P1  H  7989  7998       L1     2  0.85

> <Gold.PLP.Chemscore.Internal.Correction>
0.0238

> <Gold.Rescore>
     Score         DG    S(hbond)    S(metal)    S(lipo)     H(rot)  DE(clash)    DE(int)     intcor
     17.35     -19.40       3.63        0.00      61.29       2.10       0.04       2.01       ----

> <Gold.Chemscore.Fitness>
17.3521

> <Gold.Chemscore.DG>
-19.3977

> <Gold.Chemscore.ZeroCoef>
-5.4800

> <Gold.Chemscore.Hbond>
3.6272

> <Gold.Chemscore.Metal>
0.0000

> <Gold.Chemscore.Lipo>
61.2874

> <Gold.Chemscore.Internal_Hbond>
0.0000

> <Gold.Chemscore.DEClash>
0.0368

> <Gold.Chemscore.DEInternal>
2.0087

> <Gold.Chemscore.Rot>
2.0968

> <Gold.Chemscore.Internal.Correction>
   9.000000E+99

> <Gold.Chemscore.Hbonds>
donor molecule, donor type, donor heavy atom, donor atom, acceptor molecule, acceptor atom, score
      L1  H     7    30       P1  7957  0.86
      L1  H     7    31       P1  7948  0.99
      L1  H     9    32       P1  7948  1.00
      P1  H  7989  7998       L1     2  0.14

> <Gold.Chemscore.Hbond.Weighted>
-12.1147

> <Gold.Chemscore.Metal.Weighted>
-0.0000

> <Gold.Chemscore.Lipo.Weighted>
-7.1706

> <Gold.Chemscore.Internal_Hbond.Weighted>
0.0000

> <Gold.Chemscore.DEClash.Weighted>
0.0368

> <Gold.Chemscore.DEInternal.Weighted>
2.0087

> <Gold.Chemscore.Rot.Weighted>
5.3677

> <Gold.Chemscore.Internal.Correction.Weighted>
   9.000000E+99

> <Gold.Protein.RotatedTorsions>
[ 6907 6896 6895 6894 ] final  155.81 input  -60.11 | X-H torsion
[ 7974 7965 7964 7962 ] final   88.08 input  175.53 | X-H torsion
[ 8008 7997 7996 7995 ] final  -21.02 input   59.86 | X-H torsion
[ 10167 10162 10161 10158 ] final  162.18 input  -65.29 | X-H torsion
[ 10718 10713 10712 10709 ] final   52.96 input   66.30 | X-H torsion
[ 10763 10752 10751 10750 ] final -105.85 input  -60.55 | X-H torsion
[ 11005 11000 10999 10996 ] final   74.73 input  -57.11 | X-H torsion

> <Gold.Protein.ActiveResidues>
 VAL166  LYS551  ARG553  GLY616  TRP617  ASP618  TYR619  PRO620  LYS621  CYS622 
 ASP623  PHE694  ASN695  SER759  ASP760  ASP761  ALA762  ILE779  LEU786  VAL792 
 PHE793  MET794  SER795  GLU796  ALA797  LYS798  CYS799  TRP800  GLU811  SER814 

> <Gold.Protein.RotatedAtoms>
  152.0388  133.3968  159.4327 H   0  0  0  0  0  0  0  0  0  0  0  0  # atno 6907 bound_to 6896
  150.6877  134.3438  159.4889 H   0  0  0  0  0  0  0  0  0  0  0  0  # atno 6908 bound_to 6896
  152.1234  134.9188  160.0612 H   0  0  0  0  0  0  0  0  0  0  0  0  # atno 6909 bound_to 6896
  145.5504  139.2295  143.2516 H   0  0  0  0  0  0  0  0  0  0  0  0  # atno 7974 bound_to 7965
  154.4732  140.2046  155.9942 H   0  0  0  0  0  0  0  0  0  0  0  0  # atno 8008 bound_to 7997
  156.1046  140.3238  155.7958 H   0  0  0  0  0  0  0  0  0  0  0  0  # atno 8009 bound_to 7997
  155.4740  140.0533  157.2966 H   0  0  0  0  0  0  0  0  0  0  0  0  # atno 8010 bound_to 7997
  139.4857  144.4463  151.8887 H   0  0  0  0  0  0  0  0  0  0  0  0  # atno 10167 bound_to 10162
  157.5123  130.8509  149.8451 H   0  0  0  0  0  0  0  0  0  0  0  0  # atno 10718 bound_to 10713
  154.7974  135.4734  154.0193 H   0  0  0  0  0  0  0  0  0  0  0  0  # atno 10763 bound_to 10752
  153.1725  135.6827  153.8595 H   0  0  0  0  0  0  0  0  0  0  0  0  # atno 10764 bound_to 10752
  153.8172  135.3209  155.3384 H   0  0  0  0  0  0  0  0  0  0  0  0  # atno 10765 bound_to 10752
  139.9377  134.7457  156.1183 H   0  0  0  0  0  0  0  0  0  0  0  0  # atno 11005 bound_to 11000
  146.1921  140.6326  142.9141 LP  0  0  0  0  0  0  0  0  0  0  0  0  # atno 17320 bound_to 7965
  144.7532  140.5243  143.6787 LP  0  0  0  0  0  0  0  0  0  0  0  0  # atno 17321 bound_to 7965
  140.3918  144.2606  150.5899 LP  0  0  0  0  0  0  0  0  0  0  0  0  # atno 17342 bound_to 10162
  140.5139  143.2283  151.8493 LP  0  0  0  0  0  0  0  0  0  0  0  0  # atno 17343 bound_to 10162
  156.0297  130.3768  150.1721 LP  0  0  0  0  0  0  0  0  0  0  0  0  # atno 17370 bound_to 10713
  156.9911  130.9893  151.3414 LP  0  0  0  0  0  0  0  0  0  0  0  0  # atno 17371 bound_to 10713
  141.0998  133.6681  156.2728 LP  0  0  0  0  0  0  0  0  0  0  0  0  # atno 17394 bound_to 11000
  140.6032  134.5533  157.5521 LP  0  0  0  0  0  0  0  0  0  0  0  0  # atno 17395 bound_to 11000

$$$$
