AV-unprocessed.smi:1715|AV-procd|sdf|6914|dock3
  -GOLD-   22720 8113D 1   1.00000     0.00000
 Structure written by MMmdl.
 41 42  0  0  0  0  0  0  0  0  2 V2000
  152.8903  139.1486  154.9347 C   0  0  0  0  0  0  0  0  0  0  0  0
  151.3733  138.9564  155.0345 C   0  0  2  0  0  0  0  0  0  0  0  0
  150.8633  137.8574  154.0807 C   0  0  0  0  0  0  0  0  0  0  0  0
  149.3859  137.7383  154.1390 N   0  3  1  0  0  0  0  0  0  0  0  0
  148.8941  137.0148  155.3412 C   0  0  0  0  0  0  0  0  0  0  0  0
  147.4936  136.4097  155.1268 C   0  0  0  0  0  0  0  0  0  0  0  0
  147.3771  135.7843  153.8143 N   0  0  0  0  0  0  0  0  0  0  0  0
  146.4113  134.9253  153.4579 C   0  0  0  0  0  0  0  0  0  0  0  0
  145.5106  134.5654  154.2165 O   0  0  0  0  0  0  0  0  0  0  0  0
  146.5544  134.5272  152.1833 N   0  0  0  0  0  0  0  0  0  0  0  0
  145.7162  133.6414  151.4600 C   0  0  0  0  0  0  0  0  0  0  0  0
  144.3003  133.5919  151.5749 C   0  0  0  0  0  0  0  0  0  0  0  0
  143.7824  132.6676  150.7786 N   0  0  0  0  0  0  0  0  0  0  0  0
  144.8539  132.1278  150.1551 N   0  0  0  0  0  0  0  0  0  0  0  0
  146.0519  132.6895  150.5381 C   0  0  0  0  0  0  0  0  0  0  0  0
  148.7506  139.0602  153.9039 C   0  0  0  0  0  0  0  0  0  0  0  0
  149.3300  140.1465  154.8366 C   0  0  2  0  0  0  0  0  0  0  0  0
  148.7793  141.5384  154.5076 C   0  0  0  0  0  0  0  0  0  0  0  0
  150.7459  140.1874  154.6910 O   0  0  0  0  0  0  0  0  0  0  0  0
  144.7527  131.3853  149.4777 H   0  0  0  0  0  0  0  0  0  0  0  0
  153.4199  138.2330  155.1993 H   0  0  0  0  0  0  0  0  0  0  0  0
  153.2285  139.9342  155.6108 H   0  0  0  0  0  0  0  0  0  0  0  0
  153.1884  139.4281  153.9239 H   0  0  0  0  0  0  0  0  0  0  0  0
  151.1282  138.7015  156.0670 H   0  0  0  0  0  0  0  0  0  0  0  0
  151.1445  138.1054  153.0561 H   0  0  0  0  0  0  0  0  0  0  0  0
  151.3341  136.8983  154.3010 H   0  0  0  0  0  0  0  0  0  0  0  0
  149.5859  136.2021  155.5658 H   0  0  0  0  0  0  0  0  0  0  0  0
  148.9001  137.6664  156.2151 H   0  0  0  0  0  0  0  0  0  0  0  0
  147.2838  135.6425  155.8710 H   0  0  0  0  0  0  0  0  0  0  0  0
  146.7238  137.1746  155.2434 H   0  0  0  0  0  0  0  0  0  0  0  0
  148.0802  136.0216  153.1295 H   0  0  0  0  0  0  0  0  0  0  0  0
  147.3380  134.9056  151.6715 H   0  0  0  0  0  0  0  0  0  0  0  0
  143.6447  134.1824  152.1979 H   0  0  0  0  0  0  0  0  0  0  0  0
  146.9981  132.3677  150.1288 H   0  0  0  0  0  0  0  0  0  0  0  0
  148.9378  139.3398  152.8660 H   0  0  0  0  0  0  0  0  0  0  0  0
  147.6679  138.9994  154.0091 H   0  0  0  0  0  0  0  0  0  0  0  0
  149.0850  139.9229  155.8756 H   0  0  0  0  0  0  0  0  0  0  0  0
  147.6951  141.5680  154.6188 H   0  0  0  0  0  0  0  0  0  0  0  0
  149.0191  141.8269  153.4837 H   0  0  0  0  0  0  0  0  0  0  0  0
  149.2020  142.2917  155.1729 H   0  0  0  0  0  0  0  0  0  0  0  0
  149.1292  137.1508  153.3582 H   0  0  0  0  0  0  0  0  0  0  0  0
  1  2  1  0  0  0  0
  1 21  1  0  0  0  0
  1 22  1  0  0  0  0
  1 23  1  0  0  0  0
  2 19  1  0  0  0  0
  2  3  1  0  0  0  0
  2 24  1  0  0  0  0
  3  4  1  0  0  0  0
  3 25  1  0  0  0  0
  3 26  1  0  0  0  0
  4  5  1  0  0  0  0
  4 16  1  0  0  0  0
  4 41  1  0  0  0  0
  5  6  1  0  0  0  0
  5 27  1  0  0  0  0
  5 28  1  0  0  0  0
  6  7  1  0  0  0  0
  6 29  1  0  0  0  0
  6 30  1  0  0  0  0
  7  8  1  0  0  0  0
  7 31  1  0  0  0  0
  8  9  2  0  0  0  0
  8 10  1  0  0  0  0
 10 11  1  0  0  0  0
 10 32  1  0  0  0  0
 11 15  2  0  0  0  0
 11 12  1  0  0  0  0
 12 13  2  0  0  0  0
 12 33  1  0  0  0  0
 13 14  1  0  0  0  0
 14 20  1  0  0  0  0
 14 15  1  0  0  0  0
 15 34  1  0  0  0  0
 16 17  1  0  0  0  0
 16 35  1  0  0  0  0
 16 36  1  0  0  0  0
 17 18  1  0  0  0  0
 17 19  1  0  0  0  0
 17 37  1  0  0  0  0
 18 38  1  0  0  0  0
 18 39  1  0  0  0  0
 18 40  1  0  0  0  0
M  CHG  1   4   1
M  END
> <s_m_source_file>
AV-unprocessed.smi

> <i_m_source_file_index>
1715

> <i_lp_mmshare_version>
43012

> <i_f3d_flags>
0

> <s_epik_input>
W0NIM11bQ0BASF0xW0NIMl1OKFtDSDJdW0NASF0oTzEpW0NIM10pW0NIMl1bQ0gyXVtOSF1DKD1PKVtOSF1jMltjSF1uW25IXVtjSF0y

> <s_epik_cmdline>
J2VwaWtfcHl0aG9uJywgJy1waCcsICc3LjAnLCAnLXRuJywgJzgnLCAnLW1hJywgJzIwMCcsICctbWV0YWxfYmluZGluZycsICctaW1hZScsICc8aW5maWxlLm1hZT4nLCAnLW9tYWUnLCAnPG91dGZpbGUubWFlPic=

> <r_lp_tautomer_probability>
0.5

> <r_epik_Ionization_Penalty>
0.646007

> <r_epik_Ionization_Penalty_Charging>
0.645968

> <r_epik_Ionization_Penalty_Neutral>
3.91671e-05

> <r_epik_State_Penalty>
0.664063

> <r_epik_Charging_Adjusted_Penalty>
1.31003

> <i_epik_Tot_Q>
1

> <i_epik_Tot_abs_Q>
1

> <r_epik_Metal_State_Penalty>
0.664064

> <b_epik_Metal_Only>
0

> <s_lp_Force_Field>
OPLS_2005

> <r_lp_Energy>
19.3555

> <b_lp_Chiralities_Consistent>
1

> <s_lp_Variant>
AV-unprocessed.smi:1715-6

> <Gold.Version>
5.8.1

> <Gold.Id.Protein>
6NUR|6NUR_protein|mol2

> <Gold.PLP.Fitness>
45.8279

> <Gold.PLP.PLP>
-29.4021

> <Gold.PLP.part.hbond>
-4.0000

> <Gold.PLP.part.metal>
0.0000

> <Gold.PLP.part.buried>
-1.7511

> <Gold.PLP.part.nonpolar>
-24.2145

> <Gold.PLP.part.repulsive>
0.4892

> <Gold.PLP.ligand.clash>
0.0000

> <Gold.PLP.ligand.torsion>
0.6269

> <Gold.PLP.Chemscore.Hbond>
4.8800

> <Gold.PLP.Chemscore.CHOScore>
1.0000

> <Gold.PLP.Chemscore.Metal>
0.0000

> <Gold.Chemscore.Hbonds>
donor molecule, donor type, donor heavy atom, donor atom, acceptor molecule, acceptor atom, score
      L1  H     4    41       P1  7948  2.00
      L1  H     7    31       P1  7948  1.00
      L1  H    10    32       P1  7948  0.84
      P1  H  7989  7998       L1    19  1.00
      L1  C    15    34       P1 10747  1.00

> <Gold.PLP.Chemscore.Internal.Correction>
0.0397

> <Gold.Rescore>
     Score         DG    S(hbond)    S(metal)    S(lipo)     H(rot)  DE(clash)    DE(int)     intcor
     20.20     -21.03       3.63        0.00      65.83       1.67       0.14       0.69       ----

> <Gold.Chemscore.Fitness>
20.2017

> <Gold.Chemscore.DG>
-21.0280

> <Gold.Chemscore.ZeroCoef>
-5.4800

> <Gold.Chemscore.Hbond>
3.6268

> <Gold.Chemscore.Metal>
0.0000

> <Gold.Chemscore.Lipo>
65.8312

> <Gold.Chemscore.Internal_Hbond>
0.0000

> <Gold.Chemscore.DEClash>
0.1399

> <Gold.Chemscore.DEInternal>
0.6863

> <Gold.Chemscore.Rot>
1.6671

> <Gold.Chemscore.Internal.Correction>
   9.000000E+99

> <Gold.Chemscore.Hbonds>
donor molecule, donor type, donor heavy atom, donor atom, acceptor molecule, acceptor atom, score
      L1  H     4    41       P1  7948  1.00
      L1  H     7    31       P1  7948  0.95
      L1  H    10    32       P1  7948  0.58
      P1  H  7989  7998       L1    19  0.65

> <Gold.Chemscore.Hbond.Weighted>
-12.1134

> <Gold.Chemscore.Metal.Weighted>
-0.0000

> <Gold.Chemscore.Lipo.Weighted>
-7.7023

> <Gold.Chemscore.Internal_Hbond.Weighted>
0.0000

> <Gold.Chemscore.DEClash.Weighted>
0.1399

> <Gold.Chemscore.DEInternal.Weighted>
0.6863

> <Gold.Chemscore.Rot.Weighted>
4.2677

> <Gold.Chemscore.Internal.Correction.Weighted>
   9.000000E+99

> <Gold.Protein.RotatedTorsions>
[ 6907 6896 6895 6894 ] final   32.52 input  -60.11 | X-H torsion
[ 7974 7965 7964 7962 ] final  -42.26 input  175.53 | X-H torsion
[ 8008 7997 7996 7995 ] final  -58.06 input   59.86 | X-H torsion
[ 10167 10162 10161 10158 ] final  127.56 input  -65.29 | X-H torsion
[ 10718 10713 10712 10709 ] final  -91.66 input   66.30 | X-H torsion
[ 10763 10752 10751 10750 ] final  169.55 input  -60.55 | X-H torsion
[ 11005 11000 10999 10996 ] final  164.59 input  -57.11 | X-H torsion

> <Gold.Protein.ActiveResidues>
 VAL166  LYS551  ARG553  GLY616  TRP617  ASP618  TYR619  PRO620  LYS621  CYS622 
 ASP623  PHE694  ASN695  SER759  ASP760  ASP761  ALA762  ILE779  LEU786  VAL792 
 PHE793  MET794  SER795  GLU796  ALA797  LYS798  CYS799  TRP800  GLU811  SER814 

> <Gold.Protein.RotatedAtoms>
  152.0756  134.9505  160.0573 H   0  0  0  0  0  0  0  0  0  0  0  0  # atno 6907 bound_to 6896
  152.0814  133.4150  159.4511 H   0  0  0  0  0  0  0  0  0  0  0  0  # atno 6908 bound_to 6896
  150.6836  134.2898  159.4705 H   0  0  0  0  0  0  0  0  0  0  0  0  # atno 6909 bound_to 6896
  146.0133  140.6938  142.9214 H   0  0  0  0  0  0  0  0  0  0  0  0  # atno 7974 bound_to 7965
  154.4293  140.1092  156.5896 H   0  0  0  0  0  0  0  0  0  0  0  0  # atno 8008 bound_to 7997
  155.6026  140.3493  155.4579 H   0  0  0  0  0  0  0  0  0  0  0  0  # atno 8009 bound_to 7997
  156.0162  140.1229  157.0394 H   0  0  0  0  0  0  0  0  0  0  0  0  # atno 8010 bound_to 7997
  139.5572  144.6857  151.4148 H   0  0  0  0  0  0  0  0  0  0  0  0  # atno 10167 bound_to 10162
  155.9995  130.4957  150.5508 H   0  0  0  0  0  0  0  0  0  0  0  0  # atno 10718 bound_to 10713
  154.3847  135.2753  155.2190 H   0  0  0  0  0  0  0  0  0  0  0  0  # atno 10763 bound_to 10752
  154.4282  135.5984  153.6055 H   0  0  0  0  0  0  0  0  0  0  0  0  # atno 10764 bound_to 10752
  152.9833  135.5989  154.4094 H   0  0  0  0  0  0  0  0  0  0  0  0  # atno 10765 bound_to 10752
  140.2475  134.8003  157.3470 H   0  0  0  0  0  0  0  0  0  0  0  0  # atno 11005 bound_to 11000
  144.6961  140.3436  143.7194 LP  0  0  0  0  0  0  0  0  0  0  0  0  # atno 17320 bound_to 7965
  145.7308  139.1736  143.2431 LP  0  0  0  0  0  0  0  0  0  0  0  0  # atno 17321 bound_to 7965
  140.6846  143.8002  150.7169 LP  0  0  0  0  0  0  0  0  0  0  0  0  # atno 17342 bound_to 10162
  140.1466  143.4394  152.2158 LP  0  0  0  0  0  0  0  0  0  0  0  0  # atno 17343 bound_to 10162
  157.3431  131.0720  151.1772 LP  0  0  0  0  0  0  0  0  0  0  0  0  # atno 17370 bound_to 10713
  157.2614  130.6660  149.5976 LP  0  0  0  0  0  0  0  0  0  0  0  0  # atno 17371 bound_to 10713
  140.1591  134.4751  155.7907 LP  0  0  0  0  0  0  0  0  0  0  0  0  # atno 17394 bound_to 11000
  141.2205  133.6894  156.7513 LP  0  0  0  0  0  0  0  0  0  0  0  0  # atno 17395 bound_to 11000

$$$$
