AV-unprocessed.smi:45|AV-procd|sdf|411|dock1
  -GOLD-   2262016273D 1   1.00000     0.00000
 Structure written by MMmdl.
 61 64  0  0  0  0  0  0  0  0  2 V2000
  151.7609  141.9618  158.0302 C   0  0  0  0  0  0  0  0  0  0  0  0
  151.9690  140.5903  158.3340 O   0  0  0  0  0  0  0  0  0  0  0  0
  151.5538  139.6481  157.4158 C   0  0  0  0  0  0  0  0  0  0  0  0
  151.2478  139.9464  156.0634 C   0  0  0  0  0  0  0  0  0  0  0  0
  150.8272  138.9309  155.1831 C   0  0  0  0  0  0  0  0  0  0  0  0
  150.7053  137.6035  155.6377 C   0  0  0  0  0  0  0  0  0  0  0  0
  150.2416  136.5126  154.6951 C   0  0  0  0  0  0  0  0  0  0  0  0
  150.4553  135.1769  155.2315 N   0  0  0  0  0  0  0  0  0  0  0  0
  149.7025  134.0794  154.7841 C   0  0  0  0  0  0  0  0  0  0  0  0
  148.7456  134.2993  153.8437 N   0  3  0  0  0  0  0  0  0  0  0  0
  147.9809  133.2940  153.3878 C   0  0  0  0  0  0  0  0  0  0  0  0
  147.0155  133.5644  152.4221 N   0  0  0  0  0  0  0  0  0  0  0  0
  146.8150  132.7579  151.2246 C   0  0  0  0  0  0  0  0  0  0  0  0
  145.6520  133.4049  150.4703 C   0  0  0  0  0  0  0  0  0  0  0  0
  145.6616  134.8480  150.9699 C   0  0  0  0  0  0  0  0  0  0  0  0
  146.1326  134.7269  152.4268 C   0  0  1  0  0  0  0  0  0  0  0  0
  144.9650  134.5446  153.4188 C   0  0  0  0  0  0  0  0  0  0  0  0
  144.2739  133.3462  153.1393 O   0  0  0  0  0  0  0  0  0  0  0  0
  148.1210  132.0377  153.8291 N   0  0  0  0  0  0  0  0  0  0  0  0
  149.0562  131.7664  154.7585 C   0  0  0  0  0  0  0  0  0  0  0  0
  149.8918  132.7676  155.2912 C   0  0  0  0  0  0  0  0  0  0  0  0
  150.9510  132.4194  156.3022 C   0  0  0  0  0  0  0  0  0  0  0  0
  151.1080  133.0944  157.3195 O   0  0  0  0  0  0  0  0  0  0  0  0
  151.6783  131.3273  156.0179 N   0  0  0  0  0  0  0  0  0  0  0  0
  152.8007  130.8470  156.8152 C   0  0  0  0  0  0  0  0  0  0  0  0
  154.0886  130.7811  156.0131 C   0  0  0  0  0  0  0  0  0  0  0  0
  155.1288  131.4792  156.4797 N   0  0  0  0  0  0  0  0  0  0  0  0
  156.2683  131.4345  155.7559 C   0  0  0  0  0  0  0  0  0  0  0  0
  156.3607  130.6877  154.5639 C   0  0  0  0  0  0  0  0  0  0  0  0
  155.1989  129.9932  154.1712 C   0  0  0  0  0  0  0  0  0  0  0  0
  154.0613  130.0426  154.8982 N   0  0  0  0  0  0  0  0  0  0  0  0
  151.0071  137.2985  156.9794 C   0  0  0  0  0  0  0  0  0  0  0  0
  151.4291  138.3129  157.8611 C   0  0  0  0  0  0  0  0  0  0  0  0
  151.7916  137.9050  159.5001 Cl  0  0  0  0  0  0  0  0  0  0  0  0
  146.7022  135.6169  152.6987 H   0  0  0  0  0  0  0  0  0  0  0  0
  152.1305  142.5725  158.8538 H   0  0  0  0  0  0  0  0  0  0  0  0
  150.7008  142.1861  157.9044 H   0  0  0  0  0  0  0  0  0  0  0  0
  152.3032  142.2579  157.1312 H   0  0  0  0  0  0  0  0  0  0  0  0
  151.3264  140.9502  155.6746 H   0  0  0  0  0  0  0  0  0  0  0  0
  150.5949  139.1778  154.1573 H   0  0  0  0  0  0  0  0  0  0  0  0
  149.1823  136.6512  154.4746 H   0  0  0  0  0  0  0  0  0  0  0  0
  150.7811  136.6129  153.7526 H   0  0  0  0  0  0  0  0  0  0  0  0
  151.1899  135.0379  155.9118 H   0  0  0  0  0  0  0  0  0  0  0  0
  147.7243  132.7876  150.6229 H   0  0  0  0  0  0  0  0  0  0  0  0
  146.6030  131.7171  151.4716 H   0  0  0  0  0  0  0  0  0  0  0  0
  145.7555  133.3276  149.3876 H   0  0  0  0  0  0  0  0  0  0  0  0
  144.7146  132.9239  150.7524 H   0  0  0  0  0  0  0  0  0  0  0  0
  146.3920  135.4225  150.3981 H   0  0  0  0  0  0  0  0  0  0  0  0
  144.6962  135.3429  150.8595 H   0  0  0  0  0  0  0  0  0  0  0  0
  145.3192  134.5288  154.4502 H   0  0  0  0  0  0  0  0  0  0  0  0
  144.2525  135.3659  153.3377 H   0  0  0  0  0  0  0  0  0  0  0  0
  143.7024  133.1488  153.8659 H   0  0  0  0  0  0  0  0  0  0  0  0
  149.1389  130.7346  155.0680 H   0  0  0  0  0  0  0  0  0  0  0  0
  151.4752  130.8170  155.1710 H   0  0  0  0  0  0  0  0  0  0  0  0
  152.9305  131.4731  157.7003 H   0  0  0  0  0  0  0  0  0  0  0  0
  152.5623  129.8476  157.1803 H   0  0  0  0  0  0  0  0  0  0  0  0
  157.1110  131.9973  156.1297 H   0  0  0  0  0  0  0  0  0  0  0  0
  157.2709  130.6499  153.9840 H   0  0  0  0  0  0  0  0  0  0  0  0
  155.1814  129.3972  153.2707 H   0  0  0  0  0  0  0  0  0  0  0  0
  150.9130  136.2829  157.3357 H   0  0  0  0  0  0  0  0  0  0  0  0
  148.6158  135.2449  153.4853 H   0  0  0  0  0  0  0  0  0  0  0  0
  1  2  1  0  0  0  0
  1 36  1  0  0  0  0
  1 37  1  0  0  0  0
  1 38  1  0  0  0  0
  2  3  1  0  0  0  0
  3 33  1  0  0  0  0
  3  4  2  0  0  0  0
  4  5  1  0  0  0  0
  4 39  1  0  0  0  0
  5  6  2  0  0  0  0
  5 40  1  0  0  0  0
  6  7  1  0  0  0  0
  6 32  1  0  0  0  0
  7  8  1  0  0  0  0
  7 41  1  0  0  0  0
  7 42  1  0  0  0  0
  8  9  1  0  0  0  0
  8 43  1  0  0  0  0
  9 21  1  0  0  0  0
  9 10  2  0  0  0  0
 10 11  1  0  0  0  0
 10 61  1  0  0  0  0
 11 12  1  0  0  0  0
 11 19  2  0  0  0  0
 12 16  1  0  0  0  0
 12 13  1  0  0  0  0
 13 14  1  0  0  0  0
 13 44  1  0  0  0  0
 13 45  1  0  0  0  0
 14 15  1  0  0  0  0
 14 46  1  0  0  0  0
 14 47  1  0  0  0  0
 15 16  1  0  0  0  0
 15 48  1  0  0  0  0
 15 49  1  0  0  0  0
 16 35  1  0  0  0  0
 16 17  1  0  0  0  0
 17 18  1  0  0  0  0
 17 50  1  0  0  0  0
 17 51  1  0  0  0  0
 18 52  1  0  0  0  0
 19 20  1  0  0  0  0
 20 21  2  0  0  0  0
 20 53  1  0  0  0  0
 21 22  1  0  0  0  0
 22 23  2  0  0  0  0
 22 24  1  0  0  0  0
 24 25  1  0  0  0  0
 24 54  1  0  0  0  0
 25 26  1  0  0  0  0
 25 55  1  0  0  0  0
 25 56  1  0  0  0  0
 26 31  1  0  0  0  0
 26 27  2  0  0  0  0
 27 28  1  0  0  0  0
 28 29  2  0  0  0  0
 28 57  1  0  0  0  0
 29 30  1  0  0  0  0
 29 58  1  0  0  0  0
 30 31  2  0  0  0  0
 30 59  1  0  0  0  0
 32 33  2  0  0  0  0
 32 60  1  0  0  0  0
 33 34  1  0  0  0  0
M  CHG  1  10   1
M  END
> <s_m_source_file>
AV-unprocessed.smi

> <i_m_source_file_index>
45

> <i_lp_mmshare_version>
43012

> <i_f3d_flags>
0

> <s_epik_input>
W0NIM11PYzFbY0hdW2NIXWMoW2NIXWMxQ2wpW0NIMl1bTkhdYzJuYyhOM1tDSDJdW0NIMl1bQ0gyXVtDQEhdM1tDSDJdW09IXSluW2NIXWMyQyg9TylbTkhdW0NIMl1jNG5bY0hdW2NIXVtjSF1uNA==

> <s_epik_cmdline>
J2VwaWtfcHl0aG9uJywgJy1waCcsICc3LjAnLCAnLXRuJywgJzgnLCAnLW1hJywgJzIwMCcsICctbWV0YWxfYmluZGluZycsICctaW1hZScsICc8aW5maWxlLm1hZT4nLCAnLW9tYWUnLCAnPG91dGZpbGUubWFlPic=

> <r_lp_tautomer_probability>
0.424989

> <r_epik_Ionization_Penalty>
2.31209

> <r_epik_Ionization_Penalty_Charging>
2.31199

> <r_epik_Ionization_Penalty_Neutral>
9.65277e-05

> <r_epik_State_Penalty>
2.29675

> <r_epik_Charging_Adjusted_Penalty>
4.60874

> <i_epik_Tot_Q>
1

> <i_epik_Tot_abs_Q>
1

> <r_epik_Metal_State_Penalty>
2.3404

> <b_epik_Metal_Only>
0

> <s_epik_Chemistry_Notes>
This compound contains an electron-poor aromatic ring that is susceptible to covalent hydrolysis at low pH, typically resulting in measured values for nitrogen ring protonation that are around two units higher than predicted values.

> <s_lp_Force_Field>
OPLS_2005

> <r_lp_Energy>
34.7273

> <b_lp_Chiralities_Consistent>
1

> <s_lp_Variant>
AV-unprocessed.smi:45-5

> <Gold.Version>
5.8.1

> <Gold.Id.Protein>
6NUR|6NUR_protein|mol2

> <Gold.PLP.Fitness>
53.3708

> <Gold.PLP.PLP>
-46.3630

> <Gold.PLP.part.hbond>
-3.0000

> <Gold.PLP.part.metal>
0.0000

> <Gold.PLP.part.buried>
-3.8769

> <Gold.PLP.part.nonpolar>
-39.3031

> <Gold.PLP.part.repulsive>
0.2236

> <Gold.PLP.ligand.clash>
0.0000

> <Gold.PLP.ligand.torsion>
2.0689

> <Gold.PLP.Chemscore.Hbond>
3.1680

> <Gold.PLP.Chemscore.CHOScore>
0.0000

> <Gold.PLP.Chemscore.Metal>
0.0000

> <Gold.Chemscore.Hbonds>
donor molecule, donor type, donor heavy atom, donor atom, acceptor molecule, acceptor atom, score
      L1  H    10    61       P1  7948  1.47
      L1  H    18    52       P1 10957  0.91
      P1  H  6896  6907       L1    23  0.72

> <Gold.PLP.Chemscore.Internal.Correction>
1.6415

> <Gold.Rescore>
     Score         DG    S(hbond)    S(metal)    S(lipo)     H(rot)  DE(clash)    DE(int)     intcor
     14.44     -17.71       2.18        0.00     106.52       2.94       0.10       3.17       ----

> <Gold.Chemscore.Fitness>
14.4420

> <Gold.Chemscore.DG>
-17.7129

> <Gold.Chemscore.ZeroCoef>
-5.4800

> <Gold.Chemscore.Hbond>
2.1843

> <Gold.Chemscore.Metal>
0.0000

> <Gold.Chemscore.Lipo>
106.5178

> <Gold.Chemscore.Internal_Hbond>
0.0000

> <Gold.Chemscore.DEClash>
0.1048

> <Gold.Chemscore.DEInternal>
3.1661

> <Gold.Chemscore.Rot>
2.9395

> <Gold.Chemscore.Internal.Correction>
   9.000000E+99

> <Gold.Chemscore.Hbonds>
donor molecule, donor type, donor heavy atom, donor atom, acceptor molecule, acceptor atom, score
      L1  H    10    61       P1  7948  0.65
      L1  H    18    52       P1 10957  0.86
      P1  H  6896  6907       L1    23  0.70

> <Gold.Chemscore.Hbond.Weighted>
-7.2955

> <Gold.Chemscore.Metal.Weighted>
-0.0000

> <Gold.Chemscore.Lipo.Weighted>
-12.4626

> <Gold.Chemscore.Internal_Hbond.Weighted>
0.0000

> <Gold.Chemscore.DEClash.Weighted>
0.1048

> <Gold.Chemscore.DEInternal.Weighted>
3.1661

> <Gold.Chemscore.Rot.Weighted>
7.5251

> <Gold.Chemscore.Internal.Correction.Weighted>
   9.000000E+99

> <Gold.Protein.RotatedTorsions>
[ 6907 6896 6895 6894 ] final -174.81 input  -60.11 | X-H torsion
[ 7974 7965 7964 7962 ] final  144.37 input  175.53 | X-H torsion
[ 8008 7997 7996 7995 ] final -114.41 input   59.86 | X-H torsion
[ 10167 10162 10161 10158 ] final   47.12 input  -65.29 | X-H torsion
[ 10718 10713 10712 10709 ] final -171.52 input   66.30 | X-H torsion
[ 10763 10752 10751 10750 ] final  -55.43 input  -60.55 | X-H torsion
[ 11005 11000 10999 10996 ] final  -24.42 input  -57.11 | X-H torsion

> <Gold.Protein.ActiveResidues>
 VAL166  LYS551  ARG553  GLY616  TRP617  ASP618  TYR619  PRO620  LYS621  CYS622 
 ASP623  PHE694  ASN695  SER759  ASP760  ASP761  ALA762  ILE779  LEU786  VAL792 
 PHE793  MET794  SER795  GLU796  ALA797  LYS798  CYS799  TRP800  GLU811  SER814 

> <Gold.Protein.RotatedAtoms>
  151.5784  133.3381  159.3003 H   0  0  0  0  0  0  0  0  0  0  0  0  # atno 6907 bound_to 6896
  150.8327  134.7590  159.6878 H   0  0  0  0  0  0  0  0  0  0  0  0  # atno 6908 bound_to 6896
  152.4408  134.5600  159.9943 H   0  0  0  0  0  0  0  0  0  0  0  0  # atno 6909 bound_to 6896
  144.8842  139.5654  143.5829 H   0  0  0  0  0  0  0  0  0  0  0  0  # atno 7974 bound_to 7965
  155.0359  140.0392  157.2491 H   0  0  0  0  0  0  0  0  0  0  0  0  # atno 8008 bound_to 7997
  154.7257  140.2720  155.6477 H   0  0  0  0  0  0  0  0  0  0  0  0  # atno 8009 bound_to 7997
  156.2828  140.2694  156.1942 H   0  0  0  0  0  0  0  0  0  0  0  0  # atno 8010 bound_to 7997
  140.3069  144.2867  150.6207 H   0  0  0  0  0  0  0  0  0  0  0  0  # atno 10167 bound_to 10162
  156.7421  130.9346  151.3110 H   0  0  0  0  0  0  0  0  0  0  0  0  # atno 10718 bound_to 10713
  154.1906  135.6428  153.5059 H   0  0  0  0  0  0  0  0  0  0  0  0  # atno 10763 bound_to 10752
  153.0036  135.5428  154.6419 H   0  0  0  0  0  0  0  0  0  0  0  0  # atno 10764 bound_to 10752
  154.5807  135.2925  155.0709 H   0  0  0  0  0  0  0  0  0  0  0  0  # atno 10765 bound_to 10752
  140.8843  133.7632  156.0341 H   0  0  0  0  0  0  0  0  0  0  0  0  # atno 11005 bound_to 11000
  146.3013  139.7437  142.9089 LP  0  0  0  0  0  0  0  0  0  0  0  0  # atno 17320 bound_to 7965
  145.3900  141.0371  143.3129 LP  0  0  0  0  0  0  0  0  0  0  0  0  # atno 17321 bound_to 7965
  140.5602  143.2193  151.7777 LP  0  0  0  0  0  0  0  0  0  0  0  0  # atno 17342 bound_to 10162
  139.4902  144.4358  151.9820 LP  0  0  0  0  0  0  0  0  0  0  0  0  # atno 17343 bound_to 10162
  157.6814  130.9143  150.0276 LP  0  0  0  0  0  0  0  0  0  0  0  0  # atno 17370 bound_to 10713
  156.1457  130.3642  149.9513 LP  0  0  0  0  0  0  0  0  0  0  0  0  # atno 17371 bound_to 10713
  140.8423  134.3051  157.5308 LP  0  0  0  0  0  0  0  0  0  0  0  0  # atno 17394 bound_to 11000
  139.8723  134.9423  156.3821 LP  0  0  0  0  0  0  0  0  0  0  0  0  # atno 17395 bound_to 11000

$$$$
