AV-unprocessed.smi:1222|AV-procd|sdf|5120|dock2
  -GOLD-   22720 4173D 1   1.00000     0.00000
 Structure written by MMmdl.
 37 39  0  0  0  0  0  0  0  0  2 V2000
  146.7305  137.2511  152.9884 O   0  0  0  0  0  0  0  0  0  0  0  0
  145.9098  138.1591  152.8548 C   0  0  0  0  0  0  0  0  0  0  0  0
  146.1067  139.4437  153.1992 N   0  0  0  0  0  0  0  0  0  0  0  0
  147.2695  140.0328  153.7615 C   0  0  0  0  0  0  0  0  0  0  0  0
  148.3878  139.3606  154.0579 N   0  0  0  0  0  0  0  0  0  0  0  0
  149.3728  140.1931  154.5951 C   0  0  0  0  0  0  0  0  0  0  0  0
  148.9849  141.5057  154.7010 C   0  0  0  0  0  0  0  0  0  0  0  0
  147.3570  141.7500  154.1268 S   0  0  0  0  0  0  0  0  0  0  0  0
  144.6866  137.9761  152.3359 N   0  0  0  0  0  0  0  0  0  0  0  0
  144.1557  136.6976  151.8717 C   0  0  2  0  0  0  0  0  0  0  0  0
  143.8071  135.7802  153.0597 C   0  0  0  0  0  0  0  0  0  0  0  0
  143.3465  134.3955  152.5753 C   0  0  0  0  0  0  0  0  0  0  0  0
  144.3727  133.7659  151.7080 N   0  3  1  0  0  0  0  0  0  0  0  0
  144.0055  132.3864  151.3209 C   0  0  0  0  0  0  0  0  0  0  0  0
  145.0814  131.3663  151.6134 C   0  0  0  0  0  0  0  0  0  0  0  0
  144.8420  131.8284  150.1931 C   0  0  0  0  0  0  0  0  0  0  0  0
  144.6910  134.6116  150.5307 C   0  0  0  0  0  0  0  0  0  0  0  0
  145.1855  136.0011  150.9668 C   0  0  0  0  0  0  0  0  0  0  0  0
  145.3371  140.0763  153.0377 H   0  0  0  0  0  0  0  0  0  0  0  0
  150.3245  139.7667  154.8756 H   0  0  0  0  0  0  0  0  0  0  0  0
  149.5562  142.3402  155.0799 H   0  0  0  0  0  0  0  0  0  0  0  0
  144.0779  138.7780  152.2615 H   0  0  0  0  0  0  0  0  0  0  0  0
  143.2530  136.8802  151.2849 H   0  0  0  0  0  0  0  0  0  0  0  0
  144.6767  135.6666  153.7088 H   0  0  0  0  0  0  0  0  0  0  0  0
  143.0237  136.2314  153.6697 H   0  0  0  0  0  0  0  0  0  0  0  0
  143.1524  133.7557  153.4369 H   0  0  0  0  0  0  0  0  0  0  0  0
  142.4068  134.4818  152.0273 H   0  0  0  0  0  0  0  0  0  0  0  0
  142.9533  132.1218  151.4116 H   0  0  0  0  0  0  0  0  0  0  0  0
  145.9930  131.7033  152.1037 H   0  0  0  0  0  0  0  0  0  0  0  0
  144.7619  130.3581  151.8693 H   0  0  0  0  0  0  0  0  0  0  0  0
  144.3643  131.1245  149.5146 H   0  0  0  0  0  0  0  0  0  0  0  0
  145.5955  132.4711  149.7414 H   0  0  0  0  0  0  0  0  0  0  0  0
  145.4583  134.1255  149.9270 H   0  0  0  0  0  0  0  0  0  0  0  0
  143.8059  134.7079  149.8996 H   0  0  0  0  0  0  0  0  0  0  0  0
  145.3860  136.6135  150.0868 H   0  0  0  0  0  0  0  0  0  0  0  0
  146.1351  135.8969  151.4943 H   0  0  0  0  0  0  0  0  0  0  0  0
  145.2179  133.6979  152.2567 H   0  0  0  0  0  0  0  0  0  0  0  0
  1  2  2  0  0  0  0
  2  3  1  0  0  0  0
  2  9  1  0  0  0  0
  3  4  1  0  0  0  0
  3 19  1  0  0  0  0
  4  8  1  0  0  0  0
  4  5  2  0  0  0  0
  5  6  1  0  0  0  0
  6  7  2  0  0  0  0
  6 20  1  0  0  0  0
  7  8  1  0  0  0  0
  7 21  1  0  0  0  0
  9 10  1  0  0  0  0
  9 22  1  0  0  0  0
 10 18  1  0  0  0  0
 10 11  1  0  0  0  0
 10 23  1  0  0  0  0
 11 12  1  0  0  0  0
 11 24  1  0  0  0  0
 11 25  1  0  0  0  0
 12 13  1  0  0  0  0
 12 26  1  0  0  0  0
 12 27  1  0  0  0  0
 13 14  1  0  0  0  0
 13 17  1  0  0  0  0
 13 37  1  0  0  0  0
 14 16  1  0  0  0  0
 14 15  1  0  0  0  0
 14 28  1  0  0  0  0
 15 16  1  0  0  0  0
 15 29  1  0  0  0  0
 15 30  1  0  0  0  0
 16 31  1  0  0  0  0
 16 32  1  0  0  0  0
 17 18  1  0  0  0  0
 17 33  1  0  0  0  0
 17 34  1  0  0  0  0
 18 35  1  0  0  0  0
 18 36  1  0  0  0  0
M  CHG  1  13   1
M  END
> <s_m_source_file>
AV-unprocessed.smi

> <i_m_source_file_index>
1222

> <i_lp_mmshare_version>
43012

> <i_f3d_flags>
0

> <s_epik_input>
czFbY0hdW2NIXW5jMVtOSF1DKD1PKVtOSF1bQ0hdMltDSDJdW0NIMl1OKFtDSDJdW0NIMl0yKVtDSF0zW0NIMl1bQ0gyXTM=

> <s_epik_cmdline>
J2VwaWtfcHl0aG9uJywgJy1waCcsICc3LjAnLCAnLXRuJywgJzgnLCAnLW1hJywgJzIwMCcsICctbWV0YWxfYmluZGluZycsICctaW1hZScsICc8aW5maWxlLm1hZT4nLCAnLW9tYWUnLCAnPG91dGZpbGUubWFlPic=

> <r_lp_tautomer_probability>
0.999

> <r_epik_Ionization_Penalty>
0.124652

> <r_epik_Ionization_Penalty_Charging>
0.124514

> <r_epik_Ionization_Penalty_Neutral>
0.000138693

> <r_epik_State_Penalty>
0.113992

> <r_epik_Charging_Adjusted_Penalty>
0.238505

> <i_epik_Tot_Q>
1

> <i_epik_Tot_abs_Q>
1

> <r_epik_Metal_State_Penalty>
0.160715

> <b_epik_Metal_Only>
0

> <s_lp_Force_Field>
OPLS_2005

> <r_lp_Energy>
23.5858

> <b_lp_Chiralities_Consistent>
1

> <s_lp_Variant>
AV-unprocessed.smi:1222-1

> <Gold.Version>
5.8.1

> <Gold.Id.Protein>
6NUR|6NUR_protein|mol2

> <Gold.PLP.Fitness>
39.7162

> <Gold.PLP.PLP>
-31.4053

> <Gold.PLP.part.hbond>
-3.0000

> <Gold.PLP.part.metal>
0.0000

> <Gold.PLP.part.buried>
-2.3469

> <Gold.PLP.part.nonpolar>
-29.4710

> <Gold.PLP.part.repulsive>
3.1883

> <Gold.PLP.ligand.clash>
0.0000

> <Gold.PLP.ligand.torsion>
0.9761

> <Gold.PLP.Chemscore.Hbond>
2.0000

> <Gold.PLP.Chemscore.CHOScore>
1.0000

> <Gold.PLP.Chemscore.Metal>
0.0000

> <Gold.Chemscore.Hbonds>
donor molecule, donor type, donor heavy atom, donor atom, acceptor molecule, acceptor atom, score
      L1  H     3    19       P1 10175  1.00
      L1  H     9    22       P1 10175  1.00
      L1  C     7    21       P1  8028  1.00

> <Gold.PLP.Chemscore.Internal.Correction>
1.2631

> <Gold.Rescore>
     Score         DG    S(hbond)    S(metal)    S(lipo)     H(rot)  DE(clash)    DE(int)     intcor
     12.55     -16.28       1.92        0.00      64.99       1.26       0.17       3.57       ----

> <Gold.Chemscore.Fitness>
12.5459

> <Gold.Chemscore.DG>
-16.2831

> <Gold.Chemscore.ZeroCoef>
-5.4800

> <Gold.Chemscore.Hbond>
1.9241

> <Gold.Chemscore.Metal>
0.0000

> <Gold.Chemscore.Lipo>
64.9950

> <Gold.Chemscore.Internal_Hbond>
0.0000

> <Gold.Chemscore.DEClash>
0.1669

> <Gold.Chemscore.DEInternal>
3.5703

> <Gold.Chemscore.Rot>
1.2609

> <Gold.Chemscore.Internal.Correction>
   9.000000E+99

> <Gold.Chemscore.Hbonds>
donor molecule, donor type, donor heavy atom, donor atom, acceptor molecule, acceptor atom, score
      L1  H     3    19       P1 10175  0.97
      L1  H     9    22       P1 10175  0.98

> <Gold.Chemscore.Hbond.Weighted>
-6.4266

> <Gold.Chemscore.Metal.Weighted>
-0.0000

> <Gold.Chemscore.Lipo.Weighted>
-7.6044

> <Gold.Chemscore.Internal_Hbond.Weighted>
0.0000

> <Gold.Chemscore.DEClash.Weighted>
0.1669

> <Gold.Chemscore.DEInternal.Weighted>
3.5703

> <Gold.Chemscore.Rot.Weighted>
3.2279

> <Gold.Chemscore.Internal.Correction.Weighted>
   9.000000E+99

> <Gold.Protein.RotatedTorsions>
[ 6907 6896 6895 6894 ] final -143.36 input  -60.11 | X-H torsion
[ 7974 7965 7964 7962 ] final  -11.81 input  175.53 | X-H torsion
[ 8008 7997 7996 7995 ] final  -88.88 input   59.86 | X-H torsion
[ 10167 10162 10161 10158 ] final  -58.03 input  -65.29 | X-H torsion
[ 10718 10713 10712 10709 ] final   96.21 input   66.30 | X-H torsion
[ 10763 10752 10751 10750 ] final  -23.88 input  -60.55 | X-H torsion
[ 11005 11000 10999 10996 ] final  162.98 input  -57.11 | X-H torsion

> <Gold.Protein.ActiveResidues>
 VAL166  LYS551  ARG553  GLY616  TRP617  ASP618  TYR619  PRO620  LYS621  CYS622 
 ASP623  PHE694  ASN695  SER759  ASP760  ASP761  ALA762  ILE779  LEU786  VAL792 
 PHE793  MET794  SER795  GLU796  ALA797  LYS798  CYS799  TRP800  GLU811  SER814 

> <Gold.Protein.RotatedAtoms>
  151.0994  133.5255  159.2610 H   0  0  0  0  0  0  0  0  0  0  0  0  # atno 6907 bound_to 6896
  151.2091  135.0473  159.8914 H   0  0  0  0  0  0  0  0  0  0  0  0  # atno 6908 bound_to 6896
  152.5441  134.0812  159.8290 H   0  0  0  0  0  0  0  0  0  0  0  0  # atno 6909 bound_to 6896
  146.2174  140.2966  142.8372 H   0  0  0  0  0  0  0  0  0  0  0  0  # atno 7974 bound_to 7965
  154.6800  140.0548  157.0255 H   0  0  0  0  0  0  0  0  0  0  0  0  # atno 8008 bound_to 7997
  155.0966  140.3224  155.4540 H   0  0  0  0  0  0  0  0  0  0  0  0  # atno 8009 bound_to 7997
  156.2690  140.2038  156.6092 H   0  0  0  0  0  0  0  0  0  0  0  0  # atno 8010 bound_to 7997
  140.6222  143.2424  151.5452 H   0  0  0  0  0  0  0  0  0  0  0  0  # atno 10167 bound_to 10162
  157.6929  131.0571  150.4457 H   0  0  0  0  0  0  0  0  0  0  0  0  # atno 10718 bound_to 10713
  153.6748  135.6970  153.5136 H   0  0  0  0  0  0  0  0  0  0  0  0  # atno 10763 bound_to 10752
  153.2530  135.4269  155.0816 H   0  0  0  0  0  0  0  0  0  0  0  0  # atno 10764 bound_to 10752
  154.8416  135.3536  154.6292 H   0  0  0  0  0  0  0  0  0  0  0  0  # atno 10765 bound_to 10752
  140.2312  134.8123  157.3318 H   0  0  0  0  0  0  0  0  0  0  0  0  # atno 11005 bound_to 11000
  144.9088  140.7732  143.5821 LP  0  0  0  0  0  0  0  0  0  0  0  0  # atno 17320 bound_to 7965
  145.2896  139.1888  143.4747 LP  0  0  0  0  0  0  0  0  0  0  0  0  # atno 17321 bound_to 7965
  139.5449  144.2549  152.1422 LP  0  0  0  0  0  0  0  0  0  0  0  0  # atno 17342 bound_to 10162
  140.1772  144.4880  150.6548 LP  0  0  0  0  0  0  0  0  0  0  0  0  # atno 17343 bound_to 10162
  156.4812  130.4074  149.6460 LP  0  0  0  0  0  0  0  0  0  0  0  0  # atno 17370 bound_to 10713
  156.3505  130.7429  151.2388 LP  0  0  0  0  0  0  0  0  0  0  0  0  # atno 17371 bound_to 10713
  140.1749  134.4562  155.7808 LP  0  0  0  0  0  0  0  0  0  0  0  0  # atno 17394 bound_to 11000
  141.2217  133.6958  156.7770 LP  0  0  0  0  0  0  0  0  0  0  0  0  # atno 17395 bound_to 11000

$$$$
