AV-unprocessed.smi:2108|AV-procd|sdf|8604|dock7
  -GOLD-   2272011343D 1   1.00000     0.00000
 Structure written by MMmdl.
 35 36  0  0  0  0  0  0  0  0  1 V2000
  150.9265  140.3965  155.0160 O   0  0  0  0  0  0  0  0  0  0  0  0
  151.9034  139.4904  155.6384 S   0  0  0  0  0  0  0  0  0  0  0  0
  153.2823  139.3907  155.1357 O   0  0  0  0  0  0  0  0  0  0  0  0
  151.9699  139.8294  157.3293 N   0  0  0  0  0  0  0  0  0  0  0  0
  151.3849  141.0680  157.8437 C   0  0  0  0  0  0  0  0  0  0  0  0
  152.0632  141.4765  159.1575 C   0  0  0  0  0  0  0  0  0  0  0  0
  151.7158  142.8979  159.5586 C   0  0  0  0  0  0  0  0  0  0  0  0
  152.0587  143.3899  160.8360 C   0  0  0  0  0  0  0  0  0  0  0  0
  151.6992  144.7111  161.1651 C   0  0  0  0  0  0  0  0  0  0  0  0
  151.0130  145.4851  160.2092 C   0  0  0  0  0  0  0  0  0  0  0  0
  150.7154  144.9008  158.9621 C   0  0  0  0  0  0  0  0  0  0  0  0
  151.0551  143.6346  158.6367 N   0  0  0  0  0  0  0  0  0  0  0  0
  151.2163  137.9010  155.6894 N   0  0  0  0  0  0  0  0  0  0  0  0
  151.7762  136.9544  156.6667 C   0  0  0  0  0  0  0  0  0  0  0  0
  150.8843  135.7090  156.7973 C   0  0  0  0  0  0  0  0  0  0  0  0
  150.6713  135.1233  155.5218 O   0  0  0  0  0  0  0  0  0  0  0  0
  149.9927  136.0129  154.6479 C   0  0  0  0  0  0  0  0  0  0  0  0
  150.8434  137.2708  154.4107 C   0  0  0  0  0  0  0  0  0  0  0  0
  152.8609  139.5762  157.7557 H   0  0  0  0  0  0  0  0  0  0  0  0
  151.4984  141.8547  157.0970 H   0  0  0  0  0  0  0  0  0  0  0  0
  150.3157  140.9224  158.0022 H   0  0  0  0  0  0  0  0  0  0  0  0
  151.7685  140.7957  159.9575 H   0  0  0  0  0  0  0  0  0  0  0  0
  153.1468  141.3894  159.0633 H   0  0  0  0  0  0  0  0  0  0  0  0
  152.5809  142.7693  161.5497 H   0  0  0  0  0  0  0  0  0  0  0  0
  151.9435  145.1224  162.1334 H   0  0  0  0  0  0  0  0  0  0  0  0
  150.7210  146.5020  160.4267 H   0  0  0  0  0  0  0  0  0  0  0  0
  150.1887  145.4647  158.2065 H   0  0  0  0  0  0  0  0  0  0  0  0
  152.7791  136.6690  156.3471 H   0  0  0  0  0  0  0  0  0  0  0  0
  151.8738  137.4394  157.6379 H   0  0  0  0  0  0  0  0  0  0  0  0
  151.3607  134.9756  157.4480 H   0  0  0  0  0  0  0  0  0  0  0  0
  149.9282  135.9650  157.2567 H   0  0  0  0  0  0  0  0  0  0  0  0
  149.8061  135.5044  153.7019 H   0  0  0  0  0  0  0  0  0  0  0  0
  149.0185  136.2777  155.0627 H   0  0  0  0  0  0  0  0  0  0  0  0
  150.2920  137.9762  153.7898 H   0  0  0  0  0  0  0  0  0  0  0  0
  151.7530  137.0109  153.8679 H   0  0  0  0  0  0  0  0  0  0  0  0
  1  2  2  0  0  0  0
  2  3  2  0  0  0  0
  2  4  1  0  0  0  0
  2 13  1  0  0  0  0
  4  5  1  0  0  0  0
  4 19  1  0  0  0  0
  5  6  1  0  0  0  0
  5 20  1  0  0  0  0
  5 21  1  0  0  0  0
  6  7  1  0  0  0  0
  6 22  1  0  0  0  0
  6 23  1  0  0  0  0
  7 12  1  0  0  0  0
  7  8  2  0  0  0  0
  8  9  1  0  0  0  0
  8 24  1  0  0  0  0
  9 10  2  0  0  0  0
  9 25  1  0  0  0  0
 10 11  1  0  0  0  0
 10 26  1  0  0  0  0
 11 12  2  0  0  0  0
 11 27  1  0  0  0  0
 13 18  1  0  0  0  0
 13 14  1  0  0  0  0
 14 15  1  0  0  0  0
 14 28  1  0  0  0  0
 14 29  1  0  0  0  0
 15 16  1  0  0  0  0
 15 30  1  0  0  0  0
 15 31  1  0  0  0  0
 16 17  1  0  0  0  0
 17 18  1  0  0  0  0
 17 32  1  0  0  0  0
 17 33  1  0  0  0  0
 18 34  1  0  0  0  0
 18 35  1  0  0  0  0
M  END
> <s_m_source_file>
AV-unprocessed.smi

> <i_m_source_file_index>
2108

> <i_lp_mmshare_version>
43012

> <i_f3d_flags>
0

> <s_epik_input>
W0NIMl0xW0NIMl1PW0NIMl1bQ0gyXU4xUyg9TykoPU8pW05IXVtDSDJdW0NIMl1jMltjSF1bY0hdW2NIXVtjSF1uMg==

> <s_epik_cmdline>
J2VwaWtfcHl0aG9uJywgJy1waCcsICc3LjAnLCAnLXRuJywgJzgnLCAnLW1hJywgJzIwMCcsICctbWV0YWxfYmluZGluZycsICctaW1hZScsICc8aW5maWxlLm1hZT4nLCAnLW9tYWUnLCAnPG91dGZpbGUubWFlPic=

> <r_epik_Ionization_Penalty>
0.085378

> <r_epik_Ionization_Penalty_Charging>
0

> <r_epik_Ionization_Penalty_Neutral>
0.085378

> <r_epik_State_Penalty>
0.0441186

> <r_epik_Charging_Adjusted_Penalty>
0.0441186

> <i_epik_Tot_Q>
0

> <i_epik_Tot_abs_Q>
0

> <r_epik_Metal_State_Penalty>
0.24397

> <b_epik_Metal_Only>
0

> <s_lp_Force_Field>
OPLS_2005

> <r_lp_Energy>
7.91242

> <b_lp_Chiralities_Consistent>
1

> <s_lp_Variant>
AV-unprocessed.smi:2108-1

> <Gold.Version>
5.8.1

> <Gold.Id.Protein>
6NUR|6NUR_protein|mol2

> <Gold.PLP.Fitness>
44.8546

> <Gold.PLP.PLP>
-34.6754

> <Gold.PLP.part.hbond>
-4.6665

> <Gold.PLP.part.metal>
0.0000

> <Gold.PLP.part.buried>
-2.9717

> <Gold.PLP.part.nonpolar>
-27.8891

> <Gold.PLP.part.repulsive>
0.2601

> <Gold.PLP.ligand.clash>
0.0000

> <Gold.PLP.ligand.torsion>
0.7674

> <Gold.PLP.Chemscore.Hbond>
2.6496

> <Gold.PLP.Chemscore.CHOScore>
0.9806

> <Gold.PLP.Chemscore.Metal>
0.0000

> <Gold.Chemscore.Hbonds>
donor molecule, donor type, donor heavy atom, donor atom, acceptor molecule, acceptor atom, score
      P1  H  7989  7998       L1     1  1.00
      P1  H  7997  8010       L1     3  1.00
      L1  C    11    27       P1  8028  0.01
      L1  C    11    27       P1  8029  1.00

> <Gold.PLP.Chemscore.Internal.Correction>
0.8235

> <Gold.Rescore>
     Score         DG    S(hbond)    S(metal)    S(lipo)     H(rot)  DE(clash)    DE(int)     intcor
     16.64     -17.43       1.77        0.00      91.80       1.84       0.03       0.76       ----

> <Gold.Chemscore.Fitness>
16.6440

> <Gold.Chemscore.DG>
-17.4345

> <Gold.Chemscore.ZeroCoef>
-5.4800

> <Gold.Chemscore.Hbond>
1.7722

> <Gold.Chemscore.Metal>
0.0000

> <Gold.Chemscore.Lipo>
91.8026

> <Gold.Chemscore.Internal_Hbond>
0.0000

> <Gold.Chemscore.DEClash>
0.0310

> <Gold.Chemscore.DEInternal>
0.7595

> <Gold.Chemscore.Rot>
1.8382

> <Gold.Chemscore.Internal.Correction>
   9.000000E+99

> <Gold.Chemscore.Hbonds>
donor molecule, donor type, donor heavy atom, donor atom, acceptor molecule, acceptor atom, score
      P1  H  7989  7998       L1     1  0.54
      P1  H  7997  8010       L1     3  0.92

> <Gold.Chemscore.Hbond.Weighted>
-5.9192

> <Gold.Chemscore.Metal.Weighted>
-0.0000

> <Gold.Chemscore.Lipo.Weighted>
-10.7409

> <Gold.Chemscore.Internal_Hbond.Weighted>
0.0000

> <Gold.Chemscore.DEClash.Weighted>
0.0310

> <Gold.Chemscore.DEInternal.Weighted>
0.7595

> <Gold.Chemscore.Rot.Weighted>
4.7057

> <Gold.Chemscore.Internal.Correction.Weighted>
   9.000000E+99

> <Gold.Protein.RotatedTorsions>
[ 6907 6896 6895 6894 ] final   37.10 input  -60.11 | X-H torsion
[ 7974 7965 7964 7962 ] final -152.15 input  175.53 | X-H torsion
[ 8008 7997 7996 7995 ] final   96.27 input   59.86 | X-H torsion
[ 10167 10162 10161 10158 ] final   98.70 input  -65.29 | X-H torsion
[ 10718 10713 10712 10709 ] final  -52.28 input   66.30 | X-H torsion
[ 10763 10752 10751 10750 ] final -170.17 input  -60.55 | X-H torsion
[ 11005 11000 10999 10996 ] final  -74.60 input  -57.11 | X-H torsion

> <Gold.Protein.ActiveResidues>
 VAL166  LYS551  ARG553  GLY616  TRP617  ASP618  TYR619  PRO620  LYS621  CYS622 
 ASP623  PHE694  ASN695  SER759  ASP760  ASP761  ALA762  ILE779  LEU786  VAL792 
 PHE793  MET794  SER795  GLU796  ALA797  LYS798  CYS799  TRP800  GLU811  SER814 

> <Gold.Protein.RotatedAtoms>
  152.1386  134.9080  160.0554 H   0  0  0  0  0  0  0  0  0  0  0  0  # atno 6907 bound_to 6896
  152.0156  133.3873  159.4245 H   0  0  0  0  0  0  0  0  0  0  0  0  # atno 6908 bound_to 6896
  150.6863  134.3604  159.4991 H   0  0  0  0  0  0  0  0  0  0  0  0  # atno 6909 bound_to 6896
  144.7810  140.4702  143.5839 H   0  0  0  0  0  0  0  0  0  0  0  0  # atno 7974 bound_to 7965
  156.0778  140.3275  155.7655 H   0  0  0  0  0  0  0  0  0  0  0  0  # atno 8008 bound_to 7997
  155.5202  140.0584  157.2925 H   0  0  0  0  0  0  0  0  0  0  0  0  # atno 8009 bound_to 7997
  154.4565  140.1945  156.0382 H   0  0  0  0  0  0  0  0  0  0  0  0  # atno 8010 bound_to 7997
  139.7685  144.6930  151.0190 H   0  0  0  0  0  0  0  0  0  0  0  0  # atno 10167 bound_to 10162
  156.1636  130.4149  149.9755 H   0  0  0  0  0  0  0  0  0  0  0  0  # atno 10718 bound_to 10713
  154.6444  135.2903  155.0064 H   0  0  0  0  0  0  0  0  0  0  0  0  # atno 10763 bound_to 10752
  154.1179  135.6552  153.4901 H   0  0  0  0  0  0  0  0  0  0  0  0  # atno 10764 bound_to 10752
  153.0343  135.5280  154.7325 H   0  0  0  0  0  0  0  0  0  0  0  0  # atno 10765 bound_to 10752
  141.1637  133.6917  156.7390 H   0  0  0  0  0  0  0  0  0  0  0  0  # atno 11005 bound_to 11000
  145.6050  139.1507  143.3108 LP  0  0  0  0  0  0  0  0  0  0  0  0  # atno 17320 bound_to 7965
  146.2018  140.6169  142.9099 LP  0  0  0  0  0  0  0  0  0  0  0  0  # atno 17321 bound_to 7965
  140.7812  143.4615  151.0271 LP  0  0  0  0  0  0  0  0  0  0  0  0  # atno 17342 bound_to 10162
  139.8300  143.7704  152.3179 LP  0  0  0  0  0  0  0  0  0  0  0  0  # atno 17343 bound_to 10162
  156.7577  130.9139  151.3640 LP  0  0  0  0  0  0  0  0  0  0  0  0  # atno 17370 bound_to 10713
  157.6751  130.9087  150.0131 LP  0  0  0  0  0  0  0  0  0  0  0  0  # atno 17371 bound_to 10713
  140.2689  134.8408  157.3828 LP  0  0  0  0  0  0  0  0  0  0  0  0  # atno 17394 bound_to 11000
  140.1540  134.4813  155.7941 LP  0  0  0  0  0  0  0  0  0  0  0  0  # atno 17395 bound_to 11000

$$$$
