AV-unprocessed.smi:2254|AV-procd|sdf|9123|dock2
  -GOLD-   2272012323D 1   1.00000     0.00000
 Structure written by MMmdl.
 41 42  0  0  0  0  0  0  0  0  1 V2000
  152.5110  143.5198  161.4503 C   0  0  0  0  0  0  0  0  0  0  0  0
  152.1566  142.9809  160.0756 C   0  0  0  0  0  0  0  0  0  0  0  0
  151.2033  143.7167  159.3656 N   0  0  0  0  0  0  0  0  0  0  0  0
  150.8301  143.3252  158.1912 C   0  0  0  0  0  0  0  0  0  0  0  0
  151.3584  142.1676  157.5980 N   0  0  0  0  0  0  0  0  0  0  0  0
  150.8456  141.8280  156.2613 C   0  0  0  0  0  0  0  0  0  0  0  0
  150.5003  140.3255  156.1380 C   0  0  2  0  0  0  0  0  0  0  0  0
  151.2599  139.7655  155.0859 O   0  0  0  0  0  0  0  0  0  0  0  0
  149.0182  140.0946  155.8072 C   0  0  0  0  0  0  0  0  0  0  0  0
  148.2361  140.6914  156.8278 O   0  0  0  0  0  0  0  0  0  0  0  0
  146.8436  140.4858  156.6598 C   0  0  0  0  0  0  0  0  0  0  0  0
  146.1893  141.6098  155.8774 C   0  0  0  0  0  0  0  0  0  0  0  0
  146.6192  141.9228  154.5691 C   0  0  0  0  0  0  0  0  0  0  0  0
  146.0154  142.9780  153.8580 C   0  0  0  0  0  0  0  0  0  0  0  0
  144.9837  143.7298  154.4529 C   0  0  0  0  0  0  0  0  0  0  0  0
  144.2451  145.0235  153.5820 Cl  0  0  0  0  0  0  0  0  0  0  0  0
  144.5577  143.4270  155.7607 C   0  0  0  0  0  0  0  0  0  0  0  0
  145.1612  142.3714  156.4720 C   0  0  0  0  0  0  0  0  0  0  0  0
  152.3088  141.4041  158.2111 C   0  0  0  0  0  0  0  0  0  0  0  0
  152.7861  140.4055  157.6683 O   0  0  0  0  0  0  0  0  0  0  0  0
  152.7175  141.8572  159.5505 C   0  0  0  0  0  0  0  0  0  0  0  0
  153.7579  141.0147  160.2779 C   0  0  0  0  0  0  0  0  0  0  0  0
  153.5689  143.7788  161.4979 H   0  0  0  0  0  0  0  0  0  0  0  0
  152.2982  142.7761  162.2188 H   0  0  0  0  0  0  0  0  0  0  0  0
  151.9361  144.4163  161.6860 H   0  0  0  0  0  0  0  0  0  0  0  0
  150.0930  143.8650  157.5942 H   0  0  0  0  0  0  0  0  0  0  0  0
  149.9523  142.4289  156.0803 H   0  0  0  0  0  0  0  0  0  0  0  0
  151.5274  142.1371  155.4659 H   0  0  0  0  0  0  0  0  0  0  0  0
  150.7389  139.7872  157.0564 H   0  0  0  0  0  0  0  0  0  0  0  0
  150.9102  138.9111  154.8841 H   0  0  0  0  0  0  0  0  0  0  0  0
  148.7683  140.5170  154.8323 H   0  0  0  0  0  0  0  0  0  0  0  0
  148.8031  139.0253  155.7695 H   0  0  0  0  0  0  0  0  0  0  0  0
  146.6745  139.5417  156.1391 H   0  0  0  0  0  0  0  0  0  0  0  0
  146.3570  140.4148  157.6337 H   0  0  0  0  0  0  0  0  0  0  0  0
  147.4126  141.3569  154.1031 H   0  0  0  0  0  0  0  0  0  0  0  0
  146.3468  143.2101  152.8565 H   0  0  0  0  0  0  0  0  0  0  0  0
  143.7690  144.0042  156.2204 H   0  0  0  0  0  0  0  0  0  0  0  0
  144.8312  142.1474  157.4759 H   0  0  0  0  0  0  0  0  0  0  0  0
  153.3716  140.0097  160.4512 H   0  0  0  0  0  0  0  0  0  0  0  0
  154.0478  141.4273  161.2427 H   0  0  0  0  0  0  0  0  0  0  0  0
  154.6621  140.9293  159.6744 H   0  0  0  0  0  0  0  0  0  0  0  0
  1  2  1  0  0  0  0
  1 23  1  0  0  0  0
  1 24  1  0  0  0  0
  1 25  1  0  0  0  0
  2 21  2  0  0  0  0
  2  3  1  0  0  0  0
  3  4  2  0  0  0  0
  4  5  1  0  0  0  0
  4 26  1  0  0  0  0
  5  6  1  0  0  0  0
  5 19  1  0  0  0  0
  6  7  1  0  0  0  0
  6 27  1  0  0  0  0
  6 28  1  0  0  0  0
  7  8  1  0  0  0  0
  7  9  1  0  0  0  0
  7 29  1  0  0  0  0
  8 30  1  0  0  0  0
  9 10  1  0  0  0  0
  9 31  1  0  0  0  0
  9 32  1  0  0  0  0
 10 11  1  0  0  0  0
 11 12  1  0  0  0  0
 11 33  1  0  0  0  0
 11 34  1  0  0  0  0
 12 18  1  0  0  0  0
 12 13  2  0  0  0  0
 13 14  1  0  0  0  0
 13 35  1  0  0  0  0
 14 15  2  0  0  0  0
 14 36  1  0  0  0  0
 15 16  1  0  0  0  0
 15 17  1  0  0  0  0
 17 18  2  0  0  0  0
 17 37  1  0  0  0  0
 18 38  1  0  0  0  0
 19 20  2  0  0  0  0
 19 21  1  0  0  0  0
 21 22  1  0  0  0  0
 22 39  1  0  0  0  0
 22 40  1  0  0  0  0
 22 41  1  0  0  0  0
M  END
> <s_m_source_file>
AV-unprocessed.smi

> <i_m_source_file_index>
2254

> <i_lp_mmshare_version>
43012

> <i_f3d_flags>
0

> <s_epik_input>
W0NIM11jMW5bY0hdbihjKD1PKWMxW0NIM10pW0NIMl1bQ0BIXShbT0hdKVtDSDJdT1tDSDJdYzJbY0hdW2NIXWMoQ2wpW2NIXVtjSF0y

> <s_epik_cmdline>
J2VwaWtfcHl0aG9uJywgJy1waCcsICc3LjAnLCAnLXRuJywgJzgnLCAnLW1hJywgJzIwMCcsICctbWV0YWxfYmluZGluZycsICctaW1hZScsICc8aW5maWxlLm1hZT4nLCAnLW9tYWUnLCAnPG91dGZpbGUubWFlPic=

> <r_lp_tautomer_probability>
1

> <r_epik_Ionization_Penalty>
5.36e-05

> <r_epik_Ionization_Penalty_Charging>
1.17753e-07

> <r_epik_Ionization_Penalty_Neutral>
5.34822e-05

> <r_epik_State_Penalty>
-0

> <r_epik_Charging_Adjusted_Penalty>
1.17753e-07

> <i_epik_Tot_Q>
0

> <i_epik_Tot_abs_Q>
0

> <r_epik_Metal_State_Penalty>
-0

> <b_epik_Metal_Only>
0

> <s_lp_Force_Field>
OPLS_2005

> <r_lp_Energy>
20.9698

> <b_lp_Chiralities_Consistent>
1

> <s_lp_Variant>
AV-unprocessed.smi:2254-1

> <Gold.Version>
5.8.1

> <Gold.Id.Protein>
6NUR|6NUR_protein|mol2

> <Gold.PLP.Fitness>
51.5097

> <Gold.PLP.PLP>
-44.7927

> <Gold.PLP.part.hbond>
-2.0000

> <Gold.PLP.part.metal>
0.0000

> <Gold.PLP.part.buried>
-6.4989

> <Gold.PLP.part.nonpolar>
-35.9081

> <Gold.PLP.part.repulsive>
0.1100

> <Gold.PLP.ligand.clash>
0.0000

> <Gold.PLP.ligand.torsion>
1.1337

> <Gold.PLP.Chemscore.Hbond>
1.9120

> <Gold.PLP.Chemscore.CHOScore>
1.0000

> <Gold.PLP.Chemscore.Metal>
0.0000

> <Gold.Chemscore.Hbonds>
donor molecule, donor type, donor heavy atom, donor atom, acceptor molecule, acceptor atom, score
      P1  H  7989  7998       L1     8  1.00
      P1  H  7997  8009       L1    20  0.88
      L1  C     4    26       P1  8028  1.00

> <Gold.PLP.Chemscore.Internal.Correction>
0.2484

> <Gold.Rescore>
     Score         DG    S(hbond)    S(metal)    S(lipo)     H(rot)  DE(clash)    DE(int)     intcor
     14.25     -16.77       1.89        0.00      97.55       2.52       0.02       2.50       ----

> <Gold.Chemscore.Fitness>
14.2456

> <Gold.Chemscore.DG>
-16.7671

> <Gold.Chemscore.ZeroCoef>
-5.4800

> <Gold.Chemscore.Hbond>
1.8907

> <Gold.Chemscore.Metal>
0.0000

> <Gold.Chemscore.Lipo>
97.5524

> <Gold.Chemscore.Internal_Hbond>
0.0000

> <Gold.Chemscore.DEClash>
0.0230

> <Gold.Chemscore.DEInternal>
2.4985

> <Gold.Chemscore.Rot>
2.5162

> <Gold.Chemscore.Internal.Correction>
   9.000000E+99

> <Gold.Chemscore.Hbonds>
donor molecule, donor type, donor heavy atom, donor atom, acceptor molecule, acceptor atom, score
      P1  H  7989  7998       L1     8  0.84
      P1  H  7997  8009       L1    20  0.86

> <Gold.Chemscore.Hbond.Weighted>
-6.3148

> <Gold.Chemscore.Metal.Weighted>
-0.0000

> <Gold.Chemscore.Lipo.Weighted>
-11.4136

> <Gold.Chemscore.Internal_Hbond.Weighted>
0.0000

> <Gold.Chemscore.DEClash.Weighted>
0.0230

> <Gold.Chemscore.DEInternal.Weighted>
2.4985

> <Gold.Chemscore.Rot.Weighted>
6.4414

> <Gold.Chemscore.Internal.Correction.Weighted>
   9.000000E+99

> <Gold.Protein.RotatedTorsions>
[ 6907 6896 6895 6894 ] final  139.21 input  -60.11 | X-H torsion
[ 7974 7965 7964 7962 ] final   85.38 input  175.53 | X-H torsion
[ 8008 7997 7996 7995 ] final  172.24 input   59.86 | X-H torsion
[ 10167 10162 10161 10158 ] final  173.90 input  -65.29 | X-H torsion
[ 10718 10713 10712 10709 ] final   31.46 input   66.30 | X-H torsion
[ 10763 10752 10751 10750 ] final  -58.03 input  -60.55 | X-H torsion
[ 11005 11000 10999 10996 ] final  -61.30 input  -57.11 | X-H torsion

> <Gold.Protein.ActiveResidues>
 VAL166  LYS551  ARG553  GLY616  TRP617  ASP618  TYR619  PRO620  LYS621  CYS622 
 ASP623  PHE694  ASN695  SER759  ASP760  ASP761  ALA762  ILE779  LEU786  VAL792 
 PHE793  MET794  SER795  GLU796  ALA797  LYS798  CYS799  TRP800  GLU811  SER814 

> <Gold.Protein.RotatedAtoms>
  152.2575  133.5268  159.5361 H   0  0  0  0  0  0  0  0  0  0  0  0  # atno 6907 bound_to 6896
  150.7114  134.0875  159.3929 H   0  0  0  0  0  0  0  0  0  0  0  0  # atno 6908 bound_to 6896
  151.8794  135.0459  160.0538 H   0  0  0  0  0  0  0  0  0  0  0  0  # atno 6909 bound_to 6896
  145.5862  139.2332  143.2325 H   0  0  0  0  0  0  0  0  0  0  0  0  # atno 7974 bound_to 7965
  156.1194  140.1491  156.9226 H   0  0  0  0  0  0  0  0  0  0  0  0  # atno 8008 bound_to 7997
  154.4824  140.0875  156.7451 H   0  0  0  0  0  0  0  0  0  0  0  0  # atno 8009 bound_to 7997
  155.4456  140.3432  155.4297 H   0  0  0  0  0  0  0  0  0  0  0  0  # atno 8010 bound_to 7997
  139.5124  144.3207  152.0205 H   0  0  0  0  0  0  0  0  0  0  0  0  # atno 10167 bound_to 10162
  157.2728  130.7216  149.6513 H   0  0  0  0  0  0  0  0  0  0  0  0  # atno 10718 bound_to 10713
  154.2318  135.6359  153.5178 H   0  0  0  0  0  0  0  0  0  0  0  0  # atno 10763 bound_to 10752
  152.9947  135.5521  154.6004 H   0  0  0  0  0  0  0  0  0  0  0  0  # atno 10764 bound_to 10752
  154.5489  135.2900  155.1001 H   0  0  0  0  0  0  0  0  0  0  0  0  # atno 10765 bound_to 10752
  141.1319  133.6629  156.5354 H   0  0  0  0  0  0  0  0  0  0  0  0  # atno 11005 bound_to 11000
  146.1680  140.6689  142.9246 LP  0  0  0  0  0  0  0  0  0  0  0  0  # atno 17320 bound_to 7965
  144.7371  140.4840  143.6895 LP  0  0  0  0  0  0  0  0  0  0  0  0  # atno 17321 bound_to 7965
  140.2649  144.4027  150.6172 LP  0  0  0  0  0  0  0  0  0  0  0  0  # atno 17342 bound_to 10162
  140.6130  143.2170  151.6848 LP  0  0  0  0  0  0  0  0  0  0  0  0  # atno 17343 bound_to 10162
  155.9663  130.4362  150.5125 LP  0  0  0  0  0  0  0  0  0  0  0  0  # atno 17370 bound_to 10713
  157.3052  131.0653  151.2040 LP  0  0  0  0  0  0  0  0  0  0  0  0  # atno 17371 bound_to 10713
  140.4182  134.7211  157.4875 LP  0  0  0  0  0  0  0  0  0  0  0  0  # atno 17394 bound_to 11000
  140.0378  134.6311  155.9020 LP  0  0  0  0  0  0  0  0  0  0  0  0  # atno 17395 bound_to 11000

$$$$
