AV-unprocessed.smi:3149|AV-procd|sdf|12005|dock6
  -GOLD-   2272017413D 1   1.00000     0.00000
 Structure written by MMmdl.
 37 38  0  0  0  0  0  0  0  0  1 V2000
  152.8938  138.2556  155.6827 C   0  0  0  0  0  0  0  0  0  0  0  0
  151.7217  139.2541  155.5613 C   0  0  2  0  0  0  0  0  0  0  0  0
  151.1728  139.5243  156.8880 N   0  0  0  0  0  0  0  0  0  0  0  0
  151.7786  140.6897  157.5468 C   0  0  0  0  0  0  0  0  0  0  0  0
  152.6930  140.2739  158.7037 C   0  0  0  0  0  0  0  0  0  0  0  0
  153.5829  139.4438  158.5206 O   0  0  0  0  0  0  0  0  0  0  0  0
  152.5402  140.9310  159.9286 N   0  0  0  0  0  0  0  0  0  0  0  0
  153.6457  141.0465  160.8668 C   0  0  0  0  0  0  0  0  0  0  0  0
  152.9702  142.3418  161.3301 C   0  0  0  0  0  0  0  0  0  0  0  0
  152.1974  142.3430  160.0072 C   0  0  0  0  0  0  0  0  0  0  0  0
  150.5704  138.7339  154.6571 C   0  0  1  0  0  0  0  0  0  0  0  0
  149.8981  137.4662  155.2207 C   0  0  0  0  0  0  0  0  0  0  0  0
  149.5645  139.7588  154.4041 N   0  0  0  0  0  0  0  0  0  0  0  0
  148.3002  139.6006  153.8747 C   0  0  0  0  0  0  0  0  0  0  0  0
  147.7220  140.8362  153.8188 C   0  0  0  0  0  0  0  0  0  0  0  0
  148.7205  141.7008  154.3467 C   0  0  0  0  0  0  0  0  0  0  0  0
  149.8205  141.0547  154.6967 N   0  0  0  0  0  0  0  0  0  0  0  0
  153.3478  138.0489  154.7137 H   0  0  0  0  0  0  0  0  0  0  0  0
  152.5624  137.3046  156.1006 H   0  0  0  0  0  0  0  0  0  0  0  0
  153.6926  138.6376  156.3171 H   0  0  0  0  0  0  0  0  0  0  0  0
  152.0960  140.1835  155.1289 H   0  0  0  0  0  0  0  0  0  0  0  0
  151.2281  138.6948  157.4614 H   0  0  0  0  0  0  0  0  0  0  0  0
  152.3626  141.2625  156.8267 H   0  0  0  0  0  0  0  0  0  0  0  0
  151.0039  141.3557  157.9276 H   0  0  0  0  0  0  0  0  0  0  0  0
  153.6775  140.2551  161.6160 H   0  0  0  0  0  0  0  0  0  0  0  0
  154.6118  141.2135  160.3860 H   0  0  0  0  0  0  0  0  0  0  0  0
  152.3306  142.2079  162.2045 H   0  0  0  0  0  0  0  0  0  0  0  0
  153.6519  143.1842  161.4511 H   0  0  0  0  0  0  0  0  0  0  0  0
  152.6724  142.9543  159.2373 H   0  0  0  0  0  0  0  0  0  0  0  0
  151.1293  142.5387  160.1040 H   0  0  0  0  0  0  0  0  0  0  0  0
  150.9954  138.4748  153.6856 H   0  0  0  0  0  0  0  0  0  0  0  0
  150.6006  136.6352  155.2823 H   0  0  0  0  0  0  0  0  0  0  0  0
  149.0741  137.1439  154.5834 H   0  0  0  0  0  0  0  0  0  0  0  0
  149.4981  137.6352  156.2211 H   0  0  0  0  0  0  0  0  0  0  0  0
  147.9219  138.6320  153.5823 H   0  0  0  0  0  0  0  0  0  0  0  0
  146.7354  141.0848  153.4566 H   0  0  0  0  0  0  0  0  0  0  0  0
  148.6789  142.7710  154.4851 H   0  0  0  0  0  0  0  0  0  0  0  0
  1  2  1  0  0  0  0
  1 18  1  0  0  0  0
  1 19  1  0  0  0  0
  1 20  1  0  0  0  0
  2  3  1  0  0  0  0
  2 11  1  0  0  0  0
  2 21  1  0  0  0  0
  3  4  1  0  0  0  0
  3 22  1  0  0  0  0
  4  5  1  0  0  0  0
  4 23  1  0  0  0  0
  4 24  1  0  0  0  0
  5  6  2  0  0  0  0
  5  7  1  0  0  0  0
  7 10  1  0  0  0  0
  7  8  1  0  0  0  0
  8  9  1  0  0  0  0
  8 25  1  0  0  0  0
  8 26  1  0  0  0  0
  9 10  1  0  0  0  0
  9 27  1  0  0  0  0
  9 28  1  0  0  0  0
 10 29  1  0  0  0  0
 10 30  1  0  0  0  0
 11 12  1  0  0  0  0
 11 13  1  0  0  0  0
 11 31  1  0  0  0  0
 12 32  1  0  0  0  0
 12 33  1  0  0  0  0
 12 34  1  0  0  0  0
 13 17  1  0  0  0  0
 13 14  1  0  0  0  0
 14 15  2  0  0  0  0
 14 35  1  0  0  0  0
 15 16  1  0  0  0  0
 15 36  1  0  0  0  0
 16 17  2  0  0  0  0
 16 37  1  0  0  0  0
M  END
> <s_m_source_file>
AV-unprocessed.smi

> <i_m_source_file_index>
3149

> <i_lp_mmshare_version>
43012

> <i_f3d_flags>
0

> <s_epik_input>
bjFbY0hdW2NIXVtjSF1uMVtDQEBIXShbQ0gzXSlbQ0BIXShbQ0gzXSlbTkhdW0NIMl1DKD1PKU4yW0NIMl1bQ0gyXVtDSDJdMg==

> <s_epik_cmdline>
J2VwaWtfcHl0aG9uJywgJy1waCcsICc3LjAnLCAnLXRuJywgJzgnLCAnLW1hJywgJzIwMCcsICctbWV0YWxfYmluZGluZycsICctaW1hZScsICc8aW5maWxlLm1hZT4nLCAnLW9tYWUnLCAnPG91dGZpbGUubWFlPic=

> <r_lp_tautomer_probability>
1

> <r_epik_Ionization_Penalty>
0.918674

> <r_epik_Ionization_Penalty_Charging>
0

> <r_epik_Ionization_Penalty_Neutral>
0.918674

> <r_epik_State_Penalty>
0.958258

> <r_epik_Charging_Adjusted_Penalty>
0.958258

> <i_epik_Tot_Q>
0

> <i_epik_Tot_abs_Q>
0

> <r_epik_Metal_State_Penalty>
0.956881

> <b_epik_Metal_Only>
0

> <s_lp_Force_Field>
OPLS_2005

> <r_lp_Energy>
23.4504

> <b_lp_Chiralities_Consistent>
1

> <s_lp_Variant>
AV-unprocessed.smi:3149-7

> <Gold.Version>
5.8.1

> <Gold.Id.Protein>
6NUR|6NUR_protein|mol2

> <Gold.PLP.Fitness>
42.1170

> <Gold.PLP.PLP>
-38.1839

> <Gold.PLP.part.hbond>
-2.0000

> <Gold.PLP.part.metal>
0.0000

> <Gold.PLP.part.buried>
-0.7033

> <Gold.PLP.part.nonpolar>
-34.2532

> <Gold.PLP.part.repulsive>
0.1304

> <Gold.PLP.ligand.clash>
0.0000

> <Gold.PLP.ligand.torsion>
1.7521

> <Gold.PLP.Chemscore.Hbond>
1.1818

> <Gold.PLP.Chemscore.CHOScore>
1.0000

> <Gold.PLP.Chemscore.Metal>
0.0000

> <Gold.Chemscore.Hbonds>
donor molecule, donor type, donor heavy atom, donor atom, acceptor molecule, acceptor atom, score
      P1  H  7989  7998       L1    17  0.16
      P1  H  7997  8008       L1     6  1.00
      L1  C    16    37       P1  8028  1.00

> <Gold.PLP.Chemscore.Internal.Correction>
0.8919

> <Gold.Rescore>
     Score         DG    S(hbond)    S(metal)    S(lipo)     H(rot)  DE(clash)    DE(int)     intcor
     13.42     -15.35       1.51        0.00      80.52       1.79       0.02       1.92       ----

> <Gold.Chemscore.Fitness>
13.4196

> <Gold.Chemscore.DG>
-15.3546

> <Gold.Chemscore.ZeroCoef>
-5.4800

> <Gold.Chemscore.Hbond>
1.5059

> <Gold.Chemscore.Metal>
0.0000

> <Gold.Chemscore.Lipo>
80.5199

> <Gold.Chemscore.Internal_Hbond>
0.0000

> <Gold.Chemscore.DEClash>
0.0156

> <Gold.Chemscore.DEInternal>
1.9194

> <Gold.Chemscore.Rot>
1.7874

> <Gold.Chemscore.Internal.Correction>
   9.000000E+99

> <Gold.Chemscore.Hbonds>
donor molecule, donor type, donor heavy atom, donor atom, acceptor molecule, acceptor atom, score
      P1  H  7997  8008       L1     6  0.70

> <Gold.Chemscore.Hbond.Weighted>
-5.0296

> <Gold.Chemscore.Metal.Weighted>
-0.0000

> <Gold.Chemscore.Lipo.Weighted>
-9.4208

> <Gold.Chemscore.Internal_Hbond.Weighted>
0.0000

> <Gold.Chemscore.DEClash.Weighted>
0.0156

> <Gold.Chemscore.DEInternal.Weighted>
1.9194

> <Gold.Chemscore.Rot.Weighted>
4.5758

> <Gold.Chemscore.Internal.Correction.Weighted>
   9.000000E+99

> <Gold.Protein.RotatedTorsions>
[ 6907 6896 6895 6894 ] final -104.12 input  -60.11 | X-H torsion
[ 7974 7965 7964 7962 ] final   61.62 input  175.53 | X-H torsion
[ 8008 7997 7996 7995 ] final  -90.76 input   59.86 | X-H torsion
[ 10167 10162 10161 10158 ] final -160.03 input  -65.29 | X-H torsion
[ 10718 10713 10712 10709 ] final -142.74 input   66.30 | X-H torsion
[ 10763 10752 10751 10750 ] final  -93.96 input  -60.55 | X-H torsion
[ 11005 11000 10999 10996 ] final  -37.23 input  -57.11 | X-H torsion

> <Gold.Protein.ActiveResidues>
 VAL166  LYS551  ARG553  GLY616  TRP617  ASP618  TYR619  PRO620  LYS621  CYS622 
 ASP623  PHE694  ASN695  SER759  ASP760  ASP761  ALA762  ILE779  LEU786  VAL792 
 PHE793  MET794  SER795  GLU796  ALA797  LYS798  CYS799  TRP800  GLU811  SER814 

> <Gold.Protein.RotatedAtoms>
  150.7272  134.0326  159.3738 H   0  0  0  0  0  0  0  0  0  0  0  0  # atno 6907 bound_to 6896
  151.8296  135.0623  160.0444 H   0  0  0  0  0  0  0  0  0  0  0  0  # atno 6908 bound_to 6896
  152.2943  133.5556  159.5614 H   0  0  0  0  0  0  0  0  0  0  0  0  # atno 6909 bound_to 6896
  145.8826  139.3454  143.0697 H   0  0  0  0  0  0  0  0  0  0  0  0  # atno 7974 bound_to 7965
  154.7024  140.0527  157.0471 H   0  0  0  0  0  0  0  0  0  0  0  0  # atno 8008 bound_to 7997
  155.0666  140.3195  155.4625 H   0  0  0  0  0  0  0  0  0  0  0  0  # atno 8009 bound_to 7997
  156.2764  140.2089  156.5793 H   0  0  0  0  0  0  0  0  0  0  0  0  # atno 8010 bound_to 7997
  139.6570  143.9980  152.2200 H   0  0  0  0  0  0  0  0  0  0  0  0  # atno 10167 bound_to 10162
  156.3495  130.7681  151.1831 H   0  0  0  0  0  0  0  0  0  0  0  0  # atno 10718 bound_to 10713
  154.7009  135.5175  153.8526 H   0  0  0  0  0  0  0  0  0  0  0  0  # atno 10763 bound_to 10752
  153.0703  135.6599  154.0270 H   0  0  0  0  0  0  0  0  0  0  0  0  # atno 10764 bound_to 10752
  154.0129  135.3000  155.3370 H   0  0  0  0  0  0  0  0  0  0  0  0  # atno 10765 bound_to 10752
  140.9936  133.6992  156.1894 H   0  0  0  0  0  0  0  0  0  0  0  0  # atno 11005 bound_to 11000
  145.9005  140.9246  143.0505 LP  0  0  0  0  0  0  0  0  0  0  0  0  # atno 17320 bound_to 7965
  144.6727  140.1026  143.7459 LP  0  0  0  0  0  0  0  0  0  0  0  0  # atno 17321 bound_to 7965
  139.9710  144.6494  150.7989 LP  0  0  0  0  0  0  0  0  0  0  0  0  # atno 17342 bound_to 10162
  140.7563  143.3064  151.2951 LP  0  0  0  0  0  0  0  0  0  0  0  0  # atno 17343 bound_to 10162
  157.7459  131.0431  150.4729 LP  0  0  0  0  0  0  0  0  0  0  0  0  # atno 17370 bound_to 10713
  156.4922  130.4098  149.6400 LP  0  0  0  0  0  0  0  0  0  0  0  0  # atno 17371 bound_to 10713
  140.7001  134.4573  157.5586 LP  0  0  0  0  0  0  0  0  0  0  0  0  # atno 17394 bound_to 11000
  139.9004  134.8570  156.1922 LP  0  0  0  0  0  0  0  0  0  0  0  0  # atno 17395 bound_to 11000

$$$$
