#       Name:                AV-unprocessed.smi:3338
#       Creating user name   scv26
#       Creation time:       Fri Mar 27 19:26:57 2020


#       File generated by GOLD software.
#

@<TRIPOS>MOLECULE
AV-unprocessed.smi:3338
    47    48     1
SMALL
NO_CHARGES


@<TRIPOS>ATOM
      1 ****        -2.3389   1.5382  -4.4677 C.3            1 S1                 0.0000
      2 ****        -2.6508   0.9943  -3.0664 C.3            1 S1                 0.0000
      3 ****        -3.6831   1.8723  -2.3397 C.3            1 S1                 0.0000
      4 ****        -3.9556   1.3194  -0.9356 C.3            1 S1                 0.0000
      5 ****        -2.6498   1.1741  -0.1385 C.3            1 S1                 0.0000
      6 ****        -1.6726   0.3193  -0.8613 N.4            1 S1                 1.0000
      7 ****        -0.4563   0.0541  -0.0525 C.3            1 S1                 0.0000
      8 ****         0.2816  -1.2236  -0.4980 C.3            1 S1                 0.0000
      9 ****         1.4425  -1.4845   0.3440 N.am           1 S1                 0.0000
     10 ****         1.3964  -2.0325   1.5693 C.2            1 S1                 0.0000
     11 ****         0.3462  -2.4077   2.0926 O.2            1 S1                 0.0000
     12 ****         2.7402  -2.1681   2.3070 C.3            1 S1                 0.0000
     13 ****         2.6410  -3.0099   3.5951 C.3            1 S1                 0.0000
     14 ****         3.3210  -0.8556   2.5688 N.pl3          1 S1                 0.0000
     15 ****         4.4408  -0.2916   1.9919 C.2            1 S1                 0.0000
     16 ****         4.5943   0.9555   2.5261 C.2            1 S1                 0.0000
     17 ****         3.5043   1.0712   3.4326 C.2            1 S1                 0.0000
     18 ****         2.7422  -0.0098   3.4532 N.2            1 S1                 0.0000
     19 ****        -1.3719   0.8582  -2.2152 C.3            1 S1                 0.0000
     20 ****        -1.9038   2.5369  -4.4187 H              1 S1                 0.0000
     21 ****        -3.2421   1.5986  -5.0755 H              1 S1                 0.0000
     22 ****        -1.6330   0.8930  -4.9918 H              1 S1                 0.0000
     23 ****        -3.0807  -0.0010  -3.1896 H              1 S1                 0.0000
     24 ****        -3.3156   2.8969  -2.2653 H              1 S1                 0.0000
     25 ****        -4.6128   1.9147  -2.9083 H              1 S1                 0.0000
     26 ****        -4.6454   1.9760  -0.4046 H              1 S1                 0.0000
     27 ****        -4.4488   0.3494  -1.0122 H              1 S1                 0.0000
     28 ****        -2.2095   2.1551   0.0478 H              1 S1                 0.0000
     29 ****        -2.8754   0.7372   0.8352 H              1 S1                 0.0000
     30 ****         0.2081   0.9190  -0.0860 H              1 S1                 0.0000
     31 ****        -0.7476  -0.0663   0.9921 H              1 S1                 0.0000
     32 ****        -0.3926  -2.0818  -0.4810 H              1 S1                 0.0000
     33 ****         0.6410  -1.1306  -1.5221 H              1 S1                 0.0000
     34 ****         2.3439  -1.2071  -0.0178 H              1 S1                 0.0000
     35 ****         3.4176  -2.6914   1.6302 H              1 S1                 0.0000
     36 ****         2.2647  -4.0115   3.3844 H              1 S1                 0.0000
     37 ****         1.9769  -2.5536   4.3304 H              1 S1                 0.0000
     38 ****         3.6204  -3.1223   4.0611 H              1 S1                 0.0000
     39 ****         5.0300  -0.8189   1.2562 H              1 S1                 0.0000
     40 ****         5.3680   1.6757   2.3037 H              1 S1                 0.0000
     41 ****         3.2447   1.9035   4.0700 H              1 S1                 0.0000
     42 ****        -0.6740   0.2007  -2.7325 H              1 S1                 0.0000
     43 ****        -0.8779   1.8266  -2.1186 H              1 S1                 0.0000
     44 ****        -2.1270  -0.5732  -0.9923 H              1 S1                 0.0000
     45 ****        -0.5198  -2.3095   1.6022 LP             1 S1                 0.0000
     46 ****         0.3596  -2.8104   3.0078 LP             1 S1                 0.0000
     47 ****         1.9204  -0.1673   4.0008 LP             1 S1                 0.0000
@<TRIPOS>BOND
    1    1    2 1     
    2    1   20 1     
    3    1   21 1     
    4    1   22 1     
    5    2   19 1     
    6    2    3 1     
    7    2   23 1     
    8    3    4 1     
    9    3   24 1     
   10    3   25 1     
   11    4    5 1     
   12    4   26 1     
   13    4   27 1     
   14    5    6 1     
   15    5   28 1     
   16    5   29 1     
   17    6    7 1     
   18    6   19 1     
   19    6   44 1     
   20    7    8 1     
   21    7   30 1     
   22    7   31 1     
   23    8    9 1     
   24    8   32 1     
   25    8   33 1     
   26    9   10 am    
   27    9   34 1     
   28   10   11 2     
   29   10   12 1     
   30   12   13 1     
   31   12   14 1     
   32   12   35 1     
   33   13   36 1     
   34   13   37 1     
   35   13   38 1     
   36   14   18 1     
   37   14   15 1     
   38   15   16 2     
   39   15   39 1     
   40   16   17 1     
   41   16   40 1     
   42   17   18 2     
   43   17   41 1     
   44   19   42 1     
   45   19   43 1     
   46   11   45 1     
   47   11   46 1     
   48   18   47 1     
@<TRIPOS>SUBSTRUCTURE
      1 S1             1
@<TRIPOS>SET
LONE_PAIRS      STATIC     ATOMS    <user>   **** ""
3 45 46 47
DONOR_HYDROGENS      STATIC     ATOMS    <user>   **** ""
2 44 34
ATOM$BLUE        STATIC     ATOMS    COLORGROUP SYSTEM
3 45 46 47
ATOM$RED        STATIC     ATOMS    COLORGROUP SYSTEM
2 44 34
