#       Name:                AV-unprocessed.smi:261
#       Creating user name   scv26
#       Creation time:       Thu Mar 26 21:16:11 2020


#       File generated by GOLD software.
#

@<TRIPOS>MOLECULE
AV-unprocessed.smi:261
    62    65     1
SMALL
NO_CHARGES


@<TRIPOS>ATOM
      1 ****        -6.1125   2.7185  -0.0296 C.3            1 S1                 0.0000
      2 ****        -4.7349   2.6758  -0.3637 O.3            1 S1                 0.0000
      3 ****        -3.9997   1.7188   0.3849 C.3            1 S1                 0.0000
      4 ****        -3.7579   2.1377   1.8383 C.3            1 S1                 0.0000
      5 ****        -2.4886   1.3730   2.2508 C.3            1 S1                 0.0000
      6 ****        -2.8211   0.0080   2.8793 C.2            1 S1                 0.0000
      7 ****        -2.8725  -0.0417   4.2123 N.am           1 S1                 0.0000
      8 ****        -3.0411  -0.9803   2.1809 O.2            1 S1                 0.0000
      9 ****        -1.7559   1.2311   0.9899 N.pl3          1 S1                 0.0000
     10 ****        -0.4106   1.0322   0.9190 C.ar           1 S1                 0.0000
     11 ****         0.2733   0.8290   2.0767 N.ar           1 S1                 0.0000
     12 ****         1.5923   0.6232   2.0654 C.ar           1 S1                 0.0000
     13 ****         2.4194   0.5814   1.0214 N.ar           1 S1                 0.0000
     14 ****         1.7471   0.7840  -0.1470 C.ar           1 S1                 0.0000
     15 ****         0.3477   1.0156  -0.2911 C.ar           1 S1                 0.0000
     16 ****         0.0444   1.1748  -1.6398 N.2            1 S1                 0.0000
     17 ****         1.1876   1.0366  -2.2520 C.2            1 S1                 0.0000
     18 ****         2.2633   0.7926  -1.4311 N.pl3          1 S1                 0.0000
     19 ****         3.6438   0.5892  -1.8388 C.3            1 S1                 0.0000
     20 ****         3.9443  -0.8346  -2.3590 C.3            1 S1                 0.0000
     21 ****         3.2677  -1.0785  -3.5774 O.3            1 S1                 0.0000
     22 ****         3.6768  -1.9756  -1.3500 C.3            1 S1                 0.0000
     23 ****         4.0241  -3.3846  -1.8254 C.3            1 S1                 0.0000
     24 ****         3.2810  -4.2429  -0.8202 C.3            1 S1                 0.0000
     25 ****         2.0870  -3.3731  -0.4104 C.3            1 S1                 0.0000
     26 ****         2.3111  -2.0862  -0.9776 O.3            1 S1                 0.0000
     27 ****        -2.5782   1.5788  -0.1611 C.3            1 S1                 0.0000
     28 ****        -4.4893   0.7434   0.3532 H              1 S1                 0.0000
     29 ****        -1.9233   1.9761   2.9636 H              1 S1                 0.0000
     30 ****        -6.6184   3.4459  -0.6644 H              1 S1                 0.0000
     31 ****        -6.2647   3.0196   1.0071 H              1 S1                 0.0000
     32 ****        -6.5872   1.7492  -0.1864 H              1 S1                 0.0000
     33 ****        -3.5625   3.2102   1.8832 H              1 S1                 0.0000
     34 ****        -4.6149   1.9361   2.4825 H              1 S1                 0.0000
     35 ****        -3.0943  -0.9103   4.6764 H              1 S1                 0.0000
     36 ****        -2.6966   0.7940   4.7511 H              1 S1                 0.0000
     37 ****         2.0495   0.4686   3.0314 H              1 S1                 0.0000
     38 ****         1.2764   1.1028  -3.3264 H              1 S1                 0.0000
     39 ****         3.8853   1.3274  -2.6044 H              1 S1                 0.0000
     40 ****         4.2905   0.8131  -0.9896 H              1 S1                 0.0000
     41 ****         5.0070  -0.8651  -2.6018 H              1 S1                 0.0000
     42 ****         3.5312  -0.4220  -4.2035 H              1 S1                 0.0000
     43 ****         4.2423  -1.7698  -0.4391 H              1 S1                 0.0000
     44 ****         3.6311  -3.5696  -2.8256 H              1 S1                 0.0000
     45 ****         5.0972  -3.5769  -1.8387 H              1 S1                 0.0000
     46 ****         2.9787  -5.2044  -1.2359 H              1 S1                 0.0000
     47 ****         3.9143  -4.4353   0.0468 H              1 S1                 0.0000
     48 ****         1.1454  -3.7750  -0.7850 H              1 S1                 0.0000
     49 ****         2.0142  -3.2952   0.6750 H              1 S1                 0.0000
     50 ****        -2.5359   0.8172  -0.9402 H              1 S1                 0.0000
     51 ****        -2.2276   2.5251  -0.5761 H              1 S1                 0.0000
     52 ****        -4.3405   3.5794  -0.1963 LP             1 S1                 0.0000
     53 ****        -4.6515   2.4503  -1.3343 LP             1 S1                 0.0000
     54 ****        -3.0058  -0.9062   1.1843 LP             1 S1                 0.0000
     55 ****        -3.2553  -1.8579   2.6098 LP             1 S1                 0.0000
     56 ****        -0.2181   0.8338   2.9477 LP             1 S1                 0.0000
     57 ****         3.4045   0.4222   1.0866 LP             1 S1                 0.0000
     58 ****        -0.8504   1.3550  -2.0483 LP             1 S1                 0.0000
     59 ****         2.2798  -1.0274  -3.4307 LP             1 S1                 0.0000
     60 ****         3.5072  -1.9868  -3.9202 LP             1 S1                 0.0000
     61 ****         1.7331  -1.9707  -1.7854 LP             1 S1                 0.0000
     62 ****         2.0889  -1.3802  -0.3050 LP             1 S1                 0.0000
@<TRIPOS>BOND
    1    1    2 1     
    2    1   30 1     
    3    1   31 1     
    4    1   32 1     
    5    2    3 1     
    6    3   28 1     
    7    3   27 1     
    8    3    4 1     
    9    4    5 1     
   10    4   33 1     
   11    4   34 1     
   12    5   29 1     
   13    5    6 1     
   14    5    9 1     
   15    6    7 am    
   16    6    8 2     
   17    7   35 1     
   18    7   36 1     
   19    9   10 1     
   20    9   27 1     
   21   10   15 ar    
   22   10   11 ar    
   23   11   12 ar    
   24   12   13 ar    
   25   12   37 1     
   26   13   14 ar    
   27   14   18 1     
   28   14   15 ar    
   29   15   16 1     
   30   16   17 2     
   31   17   18 1     
   32   17   38 1     
   33   18   19 1     
   34   19   20 1     
   35   19   39 1     
   36   19   40 1     
   37   20   21 1     
   38   20   22 1     
   39   20   41 1     
   40   21   42 1     
   41   22   26 1     
   42   22   23 1     
   43   22   43 1     
   44   23   24 1     
   45   23   44 1     
   46   23   45 1     
   47   24   25 1     
   48   24   46 1     
   49   24   47 1     
   50   25   26 1     
   51   25   48 1     
   52   25   49 1     
   53   27   50 1     
   54   27   51 1     
   55    2   52 1     
   56    2   53 1     
   57    8   54 1     
   58    8   55 1     
   59   11   56 1     
   60   13   57 1     
   61   16   58 1     
   62   21   59 1     
   63   21   60 1     
   64   26   61 1     
   65   26   62 1     
@<TRIPOS>SUBSTRUCTURE
      1 S1             1
@<TRIPOS>SET
LONE_PAIRS      STATIC     ATOMS    <user>   **** ""
11 52 53 54 55 56 57 58 59 60 61 62
DONOR_HYDROGENS      STATIC     ATOMS    <user>   **** ""
3 35 36 42
ATOM$BLUE        STATIC     ATOMS    COLORGROUP SYSTEM
11 52 53 54 55 56 57 58 59 60 61 62
ATOM$RED        STATIC     ATOMS    COLORGROUP SYSTEM
3 35 36 42
