#       Name:                AV-unprocessed.smi:2042
#       Creating user name   scv26
#       Creation time:       Fri Mar 27 10:56:07 2020


#       File generated by GOLD software.
#

@<TRIPOS>MOLECULE
AV-unprocessed.smi:2042
    33    34     1
SMALL
NO_CHARGES


@<TRIPOS>ATOM
      1 ****         0.4545   2.7790   0.1914 O.2            1 S1                 0.0000
      2 ****         0.1382   1.5918   0.1826 C.2            1 S1                 0.0000
      3 ****         1.0092   0.5639   0.1472 N.am           1 S1                 0.0000
      4 ****         2.4302   0.5948   0.1700 C.ar           1 S1                 0.0000
      5 ****         3.2021   1.6994   0.6058 C.ar           1 S1                 0.0000
      6 ****         4.6064   1.5933   0.5974 C.ar           1 S1                 0.0000
      7 ****         5.1879   0.3875   0.1605 C.ar           1 S1                 0.0000
      8 ****         4.4651  -0.6769  -0.2465 N.ar           1 S1                 0.0000
      9 ****         3.1194  -0.5681  -0.2348 C.ar           1 S1                 0.0000
     10 ****        -1.1547   1.2202   0.1759 N.am           1 S1                 0.0000
     11 ****        -2.3452   2.0713   0.2070 C.3            1 S1                 0.0000
     12 ****        -3.5735   1.3207  -0.3408 C.3            1 S1                 0.0000
     13 ****        -4.8375   2.1025   0.0380 C.3            1 S1                 0.0000
     14 ****        -4.4636   2.9327   1.6290 S.o2           1 S1                 0.0000
     15 ****        -4.6404   4.3833   1.4622 O.2            1 S1                 0.0000
     16 ****        -5.1205   2.2110   2.7292 O.2            1 S1                 0.0000
     17 ****        -2.6755   2.5342   1.6353 C.3            1 S1                 0.0000
     18 ****         0.6008  -0.3547   0.0555 H              1 S1                 0.0000
     19 ****         2.7532   2.6148   0.9577 H              1 S1                 0.0000
     20 ****         5.2238   2.4171   0.9236 H              1 S1                 0.0000
     21 ****         6.2618   0.2734   0.1430 H              1 S1                 0.0000
     22 ****         2.5739  -1.4410  -0.5631 H              1 S1                 0.0000
     23 ****        -1.3309   0.2275   0.1169 H              1 S1                 0.0000
     24 ****        -2.1963   2.9499  -0.4236 H              1 S1                 0.0000
     25 ****        -3.5075   1.1666  -1.4184 H              1 S1                 0.0000
     26 ****        -3.6256   0.3323   0.1183 H              1 S1                 0.0000
     27 ****        -5.0501   2.8748  -0.7016 H              1 S1                 0.0000
     28 ****        -5.7170   1.4667   0.1403 H              1 S1                 0.0000
     29 ****        -2.5173   1.7319   2.3572 H              1 S1                 0.0000
     30 ****        -2.0991   3.4041   1.9506 H              1 S1                 0.0000
     31 ****         1.4198   3.0394   0.1716 LP             1 S1                 0.0000
     32 ****        -0.2534   3.4848   0.2184 LP             1 S1                 0.0000
     33 ****         4.9120  -1.5195  -0.5472 LP             1 S1                 0.0000
@<TRIPOS>BOND
    1    1    2 2     
    2    2    3 am    
    3    2   10 am    
    4    3    4 1     
    5    3   18 1     
    6    4    9 ar    
    7    4    5 ar    
    8    5    6 ar    
    9    5   19 1     
   10    6    7 ar    
   11    6   20 1     
   12    7    8 ar    
   13    7   21 1     
   14    8    9 ar    
   15    9   22 1     
   16   10   11 1     
   17   10   23 1     
   18   11   17 1     
   19   11   12 1     
   20   11   24 1     
   21   12   13 1     
   22   12   25 1     
   23   12   26 1     
   24   13   14 1     
   25   13   27 1     
   26   13   28 1     
   27   14   15 2     
   28   14   16 2     
   29   14   17 1     
   30   17   29 1     
   31   17   30 1     
   32    1   31 1     
   33    1   32 1     
   34    8   33 1     
@<TRIPOS>SUBSTRUCTURE
      1 S1             1
@<TRIPOS>SET
LONE_PAIRS      STATIC     ATOMS    <user>   **** ""
5 31 32 33 15 16
DONOR_HYDROGENS      STATIC     ATOMS    <user>   **** ""
2 18 23
ATOM$BLUE        STATIC     ATOMS    COLORGROUP SYSTEM
5 31 32 33 15 16
ATOM$RED        STATIC     ATOMS    COLORGROUP SYSTEM
2 18 23
