#       Name:                AV-unprocessed.smi:2838
#       Creating user name   scv26
#       Creation time:       Fri Mar 27 15:37:39 2020


#       File generated by GOLD software.
#

@<TRIPOS>MOLECULE
AV-unprocessed.smi:2838
    54    55     1
SMALL
NO_CHARGES


@<TRIPOS>ATOM
      1 ****        -3.5430  -2.3226  -1.9828 C.3            1 S1                 0.0000
      2 ****        -3.0632  -1.5724  -0.7283 C.3            1 S1                 0.0000
      3 ****        -1.6045  -1.4718  -0.8003 N.am           1 S1                 0.0000
      4 ****        -0.8835  -0.3518  -0.6402 C.2            1 S1                 0.0000
      5 ****        -1.3750   0.7451  -0.3757 O.2            1 S1                 0.0000
      6 ****         0.4264  -0.5878  -0.8228 N.am           1 S1                 0.0000
      7 ****         1.5019   0.3334  -0.7164 C.ar           1 S1                 0.0000
      8 ****         1.4711   1.5299   0.0382 C.ar           1 S1                 0.0000
      9 ****         2.5408   2.3506   0.1073 N.ar           1 S1                 0.0000
     10 ****         3.6560   1.9805  -0.5358 C.ar           1 S1                 0.0000
     11 ****         4.8087   2.9992  -0.5809 C.3            1 S1                 0.0000
     12 ****         6.1723   2.2940  -0.7728 C.3            1 S1                 0.0000
     13 ****         4.9135   3.7767   0.7521 C.3            1 S1                 0.0000
     14 ****         4.5745   3.9855  -1.7400 C.3            1 S1                 0.0000
     15 ****         3.7771   0.8851  -1.2975 N.ar           1 S1                 0.0000
     16 ****         2.7172   0.0530  -1.3718 C.ar           1 S1                 0.0000
     17 ****        -3.5122  -2.2472   0.5972 C.3            1 S1                 0.0000
     18 ****        -5.0476  -2.3297   0.7262 C.3            1 S1                 0.0000
     19 ****        -5.4657  -2.9334   2.0766 C.3            1 S1                 0.0000
     20 ****        -4.9160  -2.1709   3.1431 O.3            1 S1                 0.0000
     21 ****        -3.4944  -2.1771   3.1423 C.3            1 S1                 0.0000
     22 ****        -2.9664  -1.5309   1.8515 C.3            1 S1                 0.0000
     23 ****        -4.6284  -2.3042  -2.0756 H              1 S1                 0.0000
     24 ****        -3.2239  -3.3654  -1.9694 H              1 S1                 0.0000
     25 ****        -3.1425  -1.8654  -2.8884 H              1 S1                 0.0000
     26 ****        -3.4985  -0.5722  -0.7665 H              1 S1                 0.0000
     27 ****        -1.1069  -2.3234  -1.0154 H              1 S1                 0.0000
     28 ****         0.6767  -1.5180  -1.1249 H              1 S1                 0.0000
     29 ****         0.6062   1.8400   0.6037 H              1 S1                 0.0000
     30 ****         6.9954   3.0093  -0.7553 H              1 S1                 0.0000
     31 ****         6.2309   1.7716  -1.7282 H              1 S1                 0.0000
     32 ****         6.3566   1.5635   0.0159 H              1 S1                 0.0000
     33 ****         5.0499   3.1000   1.5967 H              1 S1                 0.0000
     34 ****         4.0234   4.3753   0.9480 H              1 S1                 0.0000
     35 ****         5.7591   4.4653   0.7451 H              1 S1                 0.0000
     36 ****         5.3729   4.7255  -1.8018 H              1 S1                 0.0000
     37 ****         3.6347   4.5250  -1.6172 H              1 S1                 0.0000
     38 ****         4.5318   3.4660  -2.6981 H              1 S1                 0.0000
     39 ****         2.8388  -0.8368  -1.9719 H              1 S1                 0.0000
     40 ****        -3.1220  -3.2663   0.6045 H              1 S1                 0.0000
     41 ****        -5.4811  -1.3338   0.6262 H              1 S1                 0.0000
     42 ****        -5.4723  -2.9368  -0.0725 H              1 S1                 0.0000
     43 ****        -6.5521  -2.9300   2.1670 H              1 S1                 0.0000
     44 ****        -5.1440  -3.9731   2.1540 H              1 S1                 0.0000
     45 ****        -3.1401  -1.6218   4.0108 H              1 S1                 0.0000
     46 ****        -3.1239  -3.1982   3.2457 H              1 S1                 0.0000
     47 ****        -1.8771  -1.5554   1.8693 H              1 S1                 0.0000
     48 ****        -3.2533  -0.4788   1.8298 H              1 S1                 0.0000
     49 ****        -2.3649   0.8366  -0.2683 LP             1 S1                 0.0000
     50 ****        -0.7843   1.5449  -0.2682 LP             1 S1                 0.0000
     51 ****         2.5018   3.2071   0.6219 LP             1 S1                 0.0000
     52 ****         4.6234   0.6908  -1.7937 LP             1 S1                 0.0000
     53 ****        -5.2376  -2.5532   4.0093 LP             1 S1                 0.0000
     54 ****        -5.2323  -1.2261   3.0578 LP             1 S1                 0.0000
@<TRIPOS>BOND
    1    1    2 1     
    2    1   23 1     
    3    1   24 1     
    4    1   25 1     
    5    2    3 1     
    6    2   17 1     
    7    2   26 1     
    8    3    4 am    
    9    3   27 1     
   10    4    5 2     
   11    4    6 am    
   12    6    7 1     
   13    6   28 1     
   14    7   16 ar    
   15    7    8 ar    
   16    8    9 ar    
   17    8   29 1     
   18    9   10 ar    
   19   10   11 1     
   20   10   15 ar    
   21   11   12 1     
   22   11   13 1     
   23   11   14 1     
   24   12   30 1     
   25   12   31 1     
   26   12   32 1     
   27   13   33 1     
   28   13   34 1     
   29   13   35 1     
   30   14   36 1     
   31   14   37 1     
   32   14   38 1     
   33   15   16 ar    
   34   16   39 1     
   35   17   22 1     
   36   17   18 1     
   37   17   40 1     
   38   18   19 1     
   39   18   41 1     
   40   18   42 1     
   41   19   20 1     
   42   19   43 1     
   43   19   44 1     
   44   20   21 1     
   45   21   22 1     
   46   21   45 1     
   47   21   46 1     
   48   22   47 1     
   49   22   48 1     
   50    5   49 1     
   51    5   50 1     
   52    9   51 1     
   53   15   52 1     
   54   20   53 1     
   55   20   54 1     
@<TRIPOS>SUBSTRUCTURE
      1 S1             1
@<TRIPOS>SET
LONE_PAIRS      STATIC     ATOMS    <user>   **** ""
6 49 50 51 52 53 54
DONOR_HYDROGENS      STATIC     ATOMS    <user>   **** ""
2 27 28
ATOM$BLUE        STATIC     ATOMS    COLORGROUP SYSTEM
6 49 50 51 52 53 54
ATOM$RED        STATIC     ATOMS    COLORGROUP SYSTEM
2 27 28
