AV-unprocessed.smi:2458|AV-procd|sdf|9709|dock7
  -GOLD-   2272013353D 1   1.00000     0.00000
 Structure written by MMmdl.
 47 48  0  0  0  0  0  0  0  0  1 V2000
  152.5178  144.4140  158.6088 C   0  0  0  0  0  0  0  0  0  0  0  0
  151.8347  143.3061  159.4339 C   0  0  0  0  0  0  0  0  0  0  0  0
  152.7560  142.9254  160.6092 C   0  0  0  0  0  0  0  0  0  0  0  0
  151.4238  142.0775  158.5698 C   0  0  1  0  0  0  0  0  0  0  0  0
  150.6783  142.4903  157.2764 C   0  0  0  0  0  0  0  0  0  0  0  0
  150.2856  141.2821  156.4111 C   0  0  0  0  0  0  0  0  0  0  0  0
  151.5157  140.4333  156.0422 C   0  0  2  0  0  0  0  0  0  0  0  0
  151.1252  139.2202  155.1881 C   0  0  0  0  0  0  0  0  0  0  0  0
  150.6166  139.3769  154.0775 O   0  0  0  0  0  0  0  0  0  0  0  0
  151.3500  138.0133  155.7287 N   0  0  0  0  0  0  0  0  0  0  0  0
  150.9798  136.7390  155.1203 C   0  0  0  0  0  0  0  0  0  0  0  0
  151.4424  135.5190  155.9491 C   0  0  1  0  0  0  0  0  0  0  0  0
  151.0598  135.7220  157.2937 O   0  0  0  0  0  0  0  0  0  0  0  0
  150.9263  134.1957  155.4000 C   0  0  0  0  0  0  0  0  0  0  0  0
  151.3742  132.9696  155.9358 C   0  0  0  0  0  0  0  0  0  0  0  0
  150.8924  131.7679  155.3830 C   0  0  0  0  0  0  0  0  0  0  0  0
  149.9780  131.8414  154.3138 C   0  0  0  0  0  0  0  0  0  0  0  0
  149.5413  133.0072  153.7911 N   0  0  0  0  0  0  0  0  0  0  0  0
  150.0092  134.1552  154.3267 C   0  0  0  0  0  0  0  0  0  0  0  0
  152.2373  139.9853  157.3255 C   0  0  0  0  0  0  0  0  0  0  0  0
  152.6354  141.1883  158.1948 C   0  0  0  0  0  0  0  0  0  0  0  0
  150.7401  141.4680  159.1632 H   0  0  0  0  0  0  0  0  0  0  0  0
  152.1995  141.0569  155.4631 H   0  0  0  0  0  0  0  0  0  0  0  0
  153.3810  144.0289  158.0651 H   0  0  0  0  0  0  0  0  0  0  0  0
  152.8667  145.2236  159.2503 H   0  0  0  0  0  0  0  0  0  0  0  0
  151.8374  144.8662  157.8883 H   0  0  0  0  0  0  0  0  0  0  0  0
  150.9284  143.7371  159.8614 H   0  0  0  0  0  0  0  0  0  0  0  0
  153.6422  142.3932  160.2624 H   0  0  0  0  0  0  0  0  0  0  0  0
  152.2486  142.2976  161.3407 H   0  0  0  0  0  0  0  0  0  0  0  0
  153.0937  143.8113  161.1477 H   0  0  0  0  0  0  0  0  0  0  0  0
  149.7663  143.0364  157.5144 H   0  0  0  0  0  0  0  0  0  0  0  0
  151.3021  143.1684  156.6923 H   0  0  0  0  0  0  0  0  0  0  0  0
  149.5563  140.6774  156.9525 H   0  0  0  0  0  0  0  0  0  0  0  0
  149.7858  141.6306  155.5061 H   0  0  0  0  0  0  0  0  0  0  0  0
  151.7713  137.9749  156.6456 H   0  0  0  0  0  0  0  0  0  0  0  0
  149.9038  136.7011  154.9421 H   0  0  0  0  0  0  0  0  0  0  0  0
  151.4544  136.7152  154.1386 H   0  0  0  0  0  0  0  0  0  0  0  0
  152.5327  135.4861  155.9384 H   0  0  0  0  0  0  0  0  0  0  0  0
  151.8352  135.9069  157.8012 H   0  0  0  0  0  0  0  0  0  0  0  0
  152.0832  132.9472  156.7506 H   0  0  0  0  0  0  0  0  0  0  0  0
  151.2179  130.8126  155.7675 H   0  0  0  0  0  0  0  0  0  0  0  0
  149.5886  130.9394  153.8653 H   0  0  0  0  0  0  0  0  0  0  0  0
  149.6460  135.0689  153.8794 H   0  0  0  0  0  0  0  0  0  0  0  0
  151.5971  139.3185  157.9057 H   0  0  0  0  0  0  0  0  0  0  0  0
  153.1298  139.4114  157.0725 H   0  0  0  0  0  0  0  0  0  0  0  0
  153.3818  141.7856  157.6694 H   0  0  0  0  0  0  0  0  0  0  0  0
  153.1222  140.8015  159.0891 H   0  0  0  0  0  0  0  0  0  0  0  0
  1  2  1  0  0  0  0
  1 24  1  0  0  0  0
  1 25  1  0  0  0  0
  1 26  1  0  0  0  0
  2  3  1  0  0  0  0
  2  4  1  0  0  0  0
  2 27  1  0  0  0  0
  3 28  1  0  0  0  0
  3 29  1  0  0  0  0
  3 30  1  0  0  0  0
  4 22  1  0  0  0  0
  4 21  1  0  0  0  0
  4  5  1  0  0  0  0
  5  6  1  0  0  0  0
  5 31  1  0  0  0  0
  5 32  1  0  0  0  0
  6  7  1  0  0  0  0
  6 33  1  0  0  0  0
  6 34  1  0  0  0  0
  7 23  1  0  0  0  0
  7  8  1  0  0  0  0
  7 20  1  0  0  0  0
  8  9  2  0  0  0  0
  8 10  1  0  0  0  0
 10 11  1  0  0  0  0
 10 35  1  0  0  0  0
 11 12  1  0  0  0  0
 11 36  1  0  0  0  0
 11 37  1  0  0  0  0
 12 13  1  0  0  0  0
 12 14  1  0  0  0  0
 12 38  1  0  0  0  0
 13 39  1  0  0  0  0
 14 19  1  0  0  0  0
 14 15  2  0  0  0  0
 15 16  1  0  0  0  0
 15 40  1  0  0  0  0
 16 17  2  0  0  0  0
 16 41  1  0  0  0  0
 17 18  1  0  0  0  0
 17 42  1  0  0  0  0
 18 19  2  0  0  0  0
 19 43  1  0  0  0  0
 20 21  1  0  0  0  0
 20 44  1  0  0  0  0
 20 45  1  0  0  0  0
 21 46  1  0  0  0  0
 21 47  1  0  0  0  0
M  END
> <s_m_source_file>
AV-unprocessed.smi

> <i_m_source_file_index>
2458

> <i_lp_mmshare_version>
43012

> <i_f3d_flags>
0

> <s_epik_input>
W0NIM11bQ0hdKFtDSDNdKVtDQEhdMVtDSDJdW0NIMl1bQ0BASF0oW0NIMl1bQ0gyXTEpQyg9TylbTkhdW0NIMl1bQ0BIXShbT0hdKWMyW2NIXVtjSF1bY0hdbltjSF0y

> <s_epik_cmdline>
J2VwaWtfcHl0aG9uJywgJy1waCcsICc3LjAnLCAnLXRuJywgJzgnLCAnLW1hJywgJzIwMCcsICctbWV0YWxfYmluZGluZycsICctaW1hZScsICc8aW5maWxlLm1hZT4nLCAnLW9tYWUnLCAnPG91dGZpbGUubWFlPic=

> <r_epik_Ionization_Penalty>
0.00169206

> <r_epik_Ionization_Penalty_Charging>
0

> <r_epik_Ionization_Penalty_Neutral>
0.00169206

> <r_epik_State_Penalty>
0.0011427

> <r_epik_Charging_Adjusted_Penalty>
0.0011427

> <i_epik_Tot_Q>
0

> <i_epik_Tot_abs_Q>
0

> <r_epik_Metal_State_Penalty>
-0

> <b_epik_Metal_Only>
0

> <s_lp_Force_Field>
OPLS_2005

> <r_lp_Energy>
14.1606

> <b_lp_Chiralities_Consistent>
1

> <s_lp_Variant>
AV-unprocessed.smi:2458-2

> <Gold.Version>
5.8.1

> <Gold.Id.Protein>
6NUR|6NUR_protein|mol2

> <Gold.PLP.Fitness>
45.4636

> <Gold.PLP.PLP>
-42.2295

> <Gold.PLP.part.hbond>
-1.6442

> <Gold.PLP.part.metal>
0.0000

> <Gold.PLP.part.buried>
-4.2902

> <Gold.PLP.part.nonpolar>
-36.7359

> <Gold.PLP.part.repulsive>
0.3965

> <Gold.PLP.ligand.clash>
2.2253

> <Gold.PLP.ligand.torsion>
0.3006

> <Gold.PLP.Chemscore.Hbond>
1.0000

> <Gold.PLP.Chemscore.CHOScore>
1.0000

> <Gold.PLP.Chemscore.Metal>
0.0000

> <Gold.Chemscore.Hbonds>
donor molecule, donor type, donor heavy atom, donor atom, acceptor molecule, acceptor atom, score
      P1  H  7989  7998       L1     9  1.00
      L1  C    19    43       P1  7948  0.68

> <Gold.PLP.Chemscore.Internal.Correction>
0.0605

> <Gold.Rescore>
     Score         DG    S(hbond)    S(metal)    S(lipo)     H(rot)  DE(clash)    DE(int)     intcor
     16.97     -17.30       0.99        0.00     117.87       2.06       0.02       0.32       ----

> <Gold.Chemscore.Fitness>
16.9687

> <Gold.Chemscore.DG>
-17.3031

> <Gold.Chemscore.ZeroCoef>
-5.4800

> <Gold.Chemscore.Hbond>
0.9889

> <Gold.Chemscore.Metal>
0.0000

> <Gold.Chemscore.Lipo>
117.8703

> <Gold.Chemscore.Internal_Hbond>
0.0000

> <Gold.Chemscore.DEClash>
0.0191

> <Gold.Chemscore.DEInternal>
0.3153

> <Gold.Chemscore.Rot>
2.0588

> <Gold.Chemscore.Internal.Correction>
   9.000000E+99

> <Gold.Chemscore.Hbonds>
donor molecule, donor type, donor heavy atom, donor atom, acceptor molecule, acceptor atom, score
      P1  H  7989  7998       L1     9  0.25

> <Gold.Chemscore.Hbond.Weighted>
-3.3028

> <Gold.Chemscore.Metal.Weighted>
-0.0000

> <Gold.Chemscore.Lipo.Weighted>
-13.7908

> <Gold.Chemscore.Internal_Hbond.Weighted>
0.0000

> <Gold.Chemscore.DEClash.Weighted>
0.0191

> <Gold.Chemscore.DEInternal.Weighted>
0.3153

> <Gold.Chemscore.Rot.Weighted>
5.2705

> <Gold.Chemscore.Internal.Correction.Weighted>
   9.000000E+99

> <Gold.Protein.RotatedTorsions>
[ 6907 6896 6895 6894 ] final   81.62 input  -60.11 | X-H torsion
[ 7974 7965 7964 7962 ] final  -30.77 input  175.53 | X-H torsion
[ 8008 7997 7996 7995 ] final  172.11 input   59.86 | X-H torsion
[ 10167 10162 10161 10158 ] final -176.10 input  -65.29 | X-H torsion
[ 10718 10713 10712 10709 ] final   60.63 input   66.30 | X-H torsion
[ 10763 10752 10751 10750 ] final  165.77 input  -60.55 | X-H torsion
[ 11005 11000 10999 10996 ] final   23.90 input  -57.11 | X-H torsion

> <Gold.Protein.ActiveResidues>
 VAL166  LYS551  ARG553  GLY616  TRP617  ASP618  TYR619  PRO620  LYS621  CYS622 
 ASP623  PHE694  ASN695  SER759  ASP760  ASP761  ALA762  ILE779  LEU786  VAL792 
 PHE793  MET794  SER795  GLU796  ALA797  LYS798  CYS799  TRP800  GLU811  SER814 

> <Gold.Protein.RotatedAtoms>
  152.5274  134.3176  159.9136 H   0  0  0  0  0  0  0  0  0  0  0  0  # atno 6907 bound_to 6896
  151.3125  133.4068  159.2655 H   0  0  0  0  0  0  0  0  0  0  0  0  # atno 6908 bound_to 6896
  151.0026  134.9351  159.8020 H   0  0  0  0  0  0  0  0  0  0  0  0  # atno 6909 bound_to 6896
  146.1118  140.5582  142.8774 H   0  0  0  0  0  0  0  0  0  0  0  0  # atno 7974 bound_to 7965
  156.1206  140.1494  156.9209 H   0  0  0  0  0  0  0  0  0  0  0  0  # atno 8008 bound_to 7997
  154.4833  140.0873  156.7470 H   0  0  0  0  0  0  0  0  0  0  0  0  # atno 8009 bound_to 7997
  155.4434  140.3432  155.4295 H   0  0  0  0  0  0  0  0  0  0  0  0  # atno 8010 bound_to 7997
  139.5547  144.2020  152.1138 H   0  0  0  0  0  0  0  0  0  0  0  0  # atno 10167 bound_to 10162
  157.5768  130.8950  149.9360 H   0  0  0  0  0  0  0  0  0  0  0  0  # atno 10718 bound_to 10713
  154.3289  135.2755  155.2482 H   0  0  0  0  0  0  0  0  0  0  0  0  # atno 10763 bound_to 10752
  154.4802  135.5860  153.6387 H   0  0  0  0  0  0  0  0  0  0  0  0  # atno 10764 bound_to 10752
  152.9868  135.6109  154.3480 H   0  0  0  0  0  0  0  0  0  0  0  0  # atno 10765 bound_to 10752
  140.3645  134.2089  155.7670 H   0  0  0  0  0  0  0  0  0  0  0  0  # atno 11005 bound_to 11000
  144.7518  140.5210  143.6796 LP  0  0  0  0  0  0  0  0  0  0  0  0  # atno 17320 bound_to 7965
  145.5648  139.1481  143.3321 LP  0  0  0  0  0  0  0  0  0  0  0  0  # atno 17321 bound_to 7965
  140.1522  144.5104  150.6680 LP  0  0  0  0  0  0  0  0  0  0  0  0  # atno 17342 bound_to 10162
  140.6817  143.2330  151.5367 LP  0  0  0  0  0  0  0  0  0  0  0  0  # atno 17343 bound_to 10162
  156.0812  130.3673  150.0576 LP  0  0  0  0  0  0  0  0  0  0  0  0  # atno 17370 bound_to 10713
  156.8721  130.9528  151.3608 LP  0  0  0  0  0  0  0  0  0  0  0  0  # atno 17371 bound_to 10713
  141.1974  133.8060  157.0630 LP  0  0  0  0  0  0  0  0  0  0  0  0  # atno 17394 bound_to 11000
  140.0600  134.9760  157.1288 LP  0  0  0  0  0  0  0  0  0  0  0  0  # atno 17395 bound_to 11000

$$$$
