AV-unprocessed.smi:83|AV-procd|sdf|804|dock8
  -GOLD-   2262017193D 1   1.00000     0.00000
 Structure written by MMmdl.
 56 59  0  0  0  0  0  0  0  0  1 V2000
  151.8842  144.3577  159.6067 C   0  0  0  0  0  0  0  0  0  0  0  0
  152.4108  143.5542  160.7972 C   0  0  0  0  0  0  0  0  0  0  0  0
  152.1752  143.9543  161.9369 O   0  0  0  0  0  0  0  0  0  0  0  0
  153.1195  142.4328  160.5554 N   0  0  0  0  0  0  0  0  0  0  0  0
  153.6826  141.5841  161.6023 C   0  0  0  0  0  0  0  0  0  0  0  0
  154.4476  140.4802  160.8653 C   0  0  0  0  0  0  0  0  0  0  0  0
  153.7612  140.3868  159.5028 C   0  0  1  0  0  0  0  0  0  0  0  0
  152.5515  139.4228  159.5832 C   0  0  0  0  0  0  0  0  0  0  0  0
  152.4700  138.4631  158.4805 N   0  0  0  0  0  0  0  0  0  0  0  0
  153.5129  138.5353  157.4589 C   0  0  0  0  0  0  0  0  0  0  0  0
  151.2949  137.8348  158.1767 C   0  0  0  0  0  0  0  0  0  0  0  0
  150.3173  137.8105  159.1239 N   0  0  0  0  0  0  0  0  0  0  0  0
  149.1649  137.1720  158.9101 C   0  0  0  0  0  0  0  0  0  0  0  0
  148.7777  136.4926  157.8318 N   0  0  0  0  0  0  0  0  0  0  0  0
  149.7372  136.5189  156.8650 C   0  0  0  0  0  0  0  0  0  0  0  0
  151.0066  137.1658  156.9443 C   0  0  0  0  0  0  0  0  0  0  0  0
  151.6880  136.9734  155.7456 N   0  0  0  0  0  0  0  0  0  0  0  0
  150.8890  136.2434  155.0196 C   0  0  0  0  0  0  0  0  0  0  0  0
  149.6950  135.9223  155.6173 N   0  0  0  0  0  0  0  0  0  0  0  0
  148.6283  135.1228  155.0420 C   0  0  0  0  0  0  0  0  0  0  0  0
  149.1623  133.9615  154.1809 C   0  0  2  0  0  0  0  0  0  0  0  0
  148.2230  133.6639  153.1653 O   0  0  0  0  0  0  0  0  0  0  0  0
  149.4193  132.6912  155.0122 C   0  0  1  0  0  0  0  0  0  0  0  0
  149.8280  131.4689  154.1904 C   0  0  0  0  0  0  0  0  0  0  0  0
  150.5158  130.6173  155.2326 C   0  0  0  0  0  0  0  0  0  0  0  0
  151.2271  131.6635  156.0880 C   0  0  0  0  0  0  0  0  0  0  0  0
  150.5212  132.8870  155.8941 O   0  0  0  0  0  0  0  0  0  0  0  0
  153.3949  141.8567  159.2419 C   0  0  0  0  0  0  0  0  0  0  0  0
  152.6935  144.6114  158.9221 H   0  0  0  0  0  0  0  0  0  0  0  0
  151.4251  145.2874  159.9433 H   0  0  0  0  0  0  0  0  0  0  0  0
  151.1298  143.7909  159.0620 H   0  0  0  0  0  0  0  0  0  0  0  0
  154.3352  142.1448  162.2728 H   0  0  0  0  0  0  0  0  0  0  0  0
  152.8705  141.1595  162.1943 H   0  0  0  0  0  0  0  0  0  0  0  0
  155.4846  140.7893  160.7273 H   0  0  0  0  0  0  0  0  0  0  0  0
  154.4587  139.5369  161.4125 H   0  0  0  0  0  0  0  0  0  0  0  0
  154.4573  140.0240  158.7458 H   0  0  0  0  0  0  0  0  0  0  0  0
  152.6447  138.8398  160.5000 H   0  0  0  0  0  0  0  0  0  0  0  0
  151.6279  139.9739  159.7220 H   0  0  0  0  0  0  0  0  0  0  0  0
  153.7417  137.5441  157.0654 H   0  0  0  0  0  0  0  0  0  0  0  0
  154.4354  138.9456  157.8705 H   0  0  0  0  0  0  0  0  0  0  0  0
  153.2007  139.1756  156.6331 H   0  0  0  0  0  0  0  0  0  0  0  0
  148.4545  137.2048  159.7231 H   0  0  0  0  0  0  0  0  0  0  0  0
  151.1504  135.9170  154.0235 H   0  0  0  0  0  0  0  0  0  0  0  0
  148.0189  134.7385  155.8607 H   0  0  0  0  0  0  0  0  0  0  0  0
  147.9796  135.7716  154.4522 H   0  0  0  0  0  0  0  0  0  0  0  0
  150.0910  134.2693  153.6985 H   0  0  0  0  0  0  0  0  0  0  0  0
  148.5327  132.9139  152.6809 H   0  0  0  0  0  0  0  0  0  0  0  0
  148.5436  132.4458  155.6159 H   0  0  0  0  0  0  0  0  0  0  0  0
  148.9809  130.9669  153.7220 H   0  0  0  0  0  0  0  0  0  0  0  0
  150.5361  131.7485  153.4090 H   0  0  0  0  0  0  0  0  0  0  0  0
  149.7716  130.0881  155.8289 H   0  0  0  0  0  0  0  0  0  0  0  0
  151.1967  129.8810  154.8048 H   0  0  0  0  0  0  0  0  0  0  0  0
  151.2465  131.3832  157.1413 H   0  0  0  0  0  0  0  0  0  0  0  0
  152.2564  131.8011  155.7556 H   0  0  0  0  0  0  0  0  0  0  0  0
  152.5764  141.9749  158.5364 H   0  0  0  0  0  0  0  0  0  0  0  0
  154.2518  142.3820  158.8182 H   0  0  0  0  0  0  0  0  0  0  0  0
  1  2  1  0  0  0  0
  1 29  1  0  0  0  0
  1 30  1  0  0  0  0
  1 31  1  0  0  0  0
  2  3  2  0  0  0  0
  2  4  1  0  0  0  0
  4 28  1  0  0  0  0
  4  5  1  0  0  0  0
  5  6  1  0  0  0  0
  5 32  1  0  0  0  0
  5 33  1  0  0  0  0
  6  7  1  0  0  0  0
  6 34  1  0  0  0  0
  6 35  1  0  0  0  0
  7  8  1  0  0  0  0
  7 28  1  0  0  0  0
  7 36  1  0  0  0  0
  8  9  1  0  0  0  0
  8 37  1  0  0  0  0
  8 38  1  0  0  0  0
  9 10  1  0  0  0  0
  9 11  1  0  0  0  0
 10 39  1  0  0  0  0
 10 40  1  0  0  0  0
 10 41  1  0  0  0  0
 11 16  1  0  0  0  0
 11 12  2  0  0  0  0
 12 13  1  0  0  0  0
 13 14  2  0  0  0  0
 13 42  1  0  0  0  0
 14 15  1  0  0  0  0
 15 19  1  0  0  0  0
 15 16  2  0  0  0  0
 16 17  1  0  0  0  0
 17 18  2  0  0  0  0
 18 19  1  0  0  0  0
 18 43  1  0  0  0  0
 19 20  1  0  0  0  0
 20 21  1  0  0  0  0
 20 44  1  0  0  0  0
 20 45  1  0  0  0  0
 21 22  1  0  0  0  0
 21 23  1  0  0  0  0
 21 46  1  0  0  0  0
 22 47  1  0  0  0  0
 23 27  1  0  0  0  0
 23 24  1  0  0  0  0
 23 48  1  0  0  0  0
 24 25  1  0  0  0  0
 24 49  1  0  0  0  0
 24 50  1  0  0  0  0
 25 26  1  0  0  0  0
 25 51  1  0  0  0  0
 25 52  1  0  0  0  0
 26 27  1  0  0  0  0
 26 53  1  0  0  0  0
 26 54  1  0  0  0  0
 28 55  1  0  0  0  0
 28 56  1  0  0  0  0
M  END
> <s_m_source_file>
AV-unprocessed.smi

> <i_m_source_file_index>
83

> <i_lp_mmshare_version>
43012

> <i_f3d_flags>
0

> <s_epik_input>
W0NIM11DKD1PKU4xW0NIMl1bQ0gyXVtDQEhdKFtDSDJdMSlbQ0gyXU4oW0NIM10pYyhuW2NIXW4yKWMoYzIzKW5bY0hdbjNbQ0gyXVtDQEhdKFtPSF0pW0NAQEhdNFtDSDJdW0NIMl1bQ0gyXU80

> <s_epik_cmdline>
J2VwaWtfcHl0aG9uJywgJy1waCcsICc3LjAnLCAnLXRuJywgJzgnLCAnLW1hJywgJzIwMCcsICctbWV0YWxfYmluZGluZycsICctaW1hZScsICc8aW5maWxlLm1hZT4nLCAnLW9tYWUnLCAnPG91dGZpbGUubWFlPic=

> <r_lp_tautomer_probability>
1

> <r_epik_Ionization_Penalty>
0.00109752

> <r_epik_Ionization_Penalty_Charging>
0

> <r_epik_Ionization_Penalty_Neutral>
0.00109752

> <r_epik_State_Penalty>
0.000634803

> <r_epik_Charging_Adjusted_Penalty>
0.000634803

> <i_epik_Tot_Q>
0

> <i_epik_Tot_abs_Q>
0

> <r_epik_Metal_State_Penalty>
-0

> <b_epik_Metal_Only>
0

> <s_lp_Force_Field>
OPLS_2005

> <r_lp_Energy>
53.0153

> <b_lp_Chiralities_Consistent>
1

> <s_lp_Variant>
AV-unprocessed.smi:83-5

> <Gold.Version>
5.8.1

> <Gold.Id.Protein>
6NUR|6NUR_protein|mol2

> <Gold.PLP.Fitness>
44.9099

> <Gold.PLP.PLP>
-44.6981

> <Gold.PLP.part.hbond>
-1.9669

> <Gold.PLP.part.metal>
0.0000

> <Gold.PLP.part.buried>
-3.4387

> <Gold.PLP.part.nonpolar>
-38.0282

> <Gold.PLP.part.repulsive>
0.2203

> <Gold.PLP.ligand.clash>
0.0000

> <Gold.PLP.ligand.torsion>
1.6429

> <Gold.PLP.Chemscore.Hbond>
0.0000

> <Gold.PLP.Chemscore.CHOScore>
0.9994

> <Gold.PLP.Chemscore.Metal>
0.0000

> <Gold.Chemscore.Hbonds>
donor molecule, donor type, donor heavy atom, donor atom, acceptor molecule, acceptor atom, score
      L1  C    18    43       P1  7949  1.00

> <Gold.PLP.Chemscore.Internal.Correction>
0.4995

> <Gold.Rescore>
     Score         DG    S(hbond)    S(metal)    S(lipo)     H(rot)  DE(clash)    DE(int)     intcor
      5.97     -10.00       0.00        0.00      95.81       2.62       1.29       2.73       ----

> <Gold.Chemscore.Fitness>
5.9729

> <Gold.Chemscore.DG>
-9.9952

> <Gold.Chemscore.ZeroCoef>
-5.4800

> <Gold.Chemscore.Hbond>
0.0000

> <Gold.Chemscore.Metal>
0.0000

> <Gold.Chemscore.Lipo>
95.8127

> <Gold.Chemscore.Internal_Hbond>
0.0000

> <Gold.Chemscore.DEClash>
1.2909

> <Gold.Chemscore.DEInternal>
2.7315

> <Gold.Chemscore.Rot>
2.6152

> <Gold.Chemscore.Internal.Correction>
   9.000000E+99

> <Gold.Chemscore.Hbond.Weighted>
-0.0000

> <Gold.Chemscore.Metal.Weighted>
-0.0000

> <Gold.Chemscore.Lipo.Weighted>
-11.2101

> <Gold.Chemscore.Internal_Hbond.Weighted>
0.0000

> <Gold.Chemscore.DEClash.Weighted>
1.2909

> <Gold.Chemscore.DEInternal.Weighted>
2.7315

> <Gold.Chemscore.Rot.Weighted>
6.6949

> <Gold.Chemscore.Internal.Correction.Weighted>
   9.000000E+99

> <Gold.Protein.RotatedTorsions>
[ 6907 6896 6895 6894 ] final -161.42 input  -60.11 | X-H torsion
[ 7974 7965 7964 7962 ] final  -20.36 input  175.53 | X-H torsion
[ 8008 7997 7996 7995 ] final   -0.32 input   59.86 | X-H torsion
[ 10167 10162 10161 10158 ] final -165.12 input  -65.29 | X-H torsion
[ 10718 10713 10712 10709 ] final   24.14 input   66.30 | X-H torsion
[ 10763 10752 10751 10750 ] final  -59.29 input  -60.55 | X-H torsion
[ 11005 11000 10999 10996 ] final   66.47 input  -57.11 | X-H torsion

> <Gold.Protein.ActiveResidues>
 VAL166  LYS551  ARG553  GLY616  TRP617  ASP618  TYR619  PRO620  LYS621  CYS622 
 ASP623  PHE694  ASN695  SER759  ASP760  ASP761  ALA762  ILE779  LEU786  VAL792 
 PHE793  MET794  SER795  GLU796  ALA797  LYS798  CYS799  TRP800  GLU811  SER814 

> <Gold.Protein.RotatedAtoms>
  151.3644  133.3877  159.2692 H   0  0  0  0  0  0  0  0  0  0  0  0  # atno 6907 bound_to 6896
  150.9700  134.9075  159.7792 H   0  0  0  0  0  0  0  0  0  0  0  0  # atno 6908 bound_to 6896
  152.5181  134.3606  159.9335 H   0  0  0  0  0  0  0  0  0  0  0  0  # atno 6909 bound_to 6896
  146.1792  140.4191  142.8501 H   0  0  0  0  0  0  0  0  0  0  0  0  # atno 7974 bound_to 7965
  154.6593  140.2587  155.7126 H   0  0  0  0  0  0  0  0  0  0  0  0  # atno 8008 bound_to 7997
  156.2611  140.2852  156.0981 H   0  0  0  0  0  0  0  0  0  0  0  0  # atno 8009 bound_to 7997
  155.1332  140.0379  157.2770 H   0  0  0  0  0  0  0  0  0  0  0  0  # atno 8010 bound_to 7997
  139.6204  144.0636  152.1927 H   0  0  0  0  0  0  0  0  0  0  0  0  # atno 10167 bound_to 10162
  157.1757  130.6780  149.6094 H   0  0  0  0  0  0  0  0  0  0  0  0  # atno 10718 bound_to 10713
  154.2514  135.6325  153.5242 H   0  0  0  0  0  0  0  0  0  0  0  0  # atno 10763 bound_to 10752
  152.9911  135.5566  154.5803 H   0  0  0  0  0  0  0  0  0  0  0  0  # atno 10764 bound_to 10752
  154.5331  135.2889  155.1137 H   0  0  0  0  0  0  0  0  0  0  0  0  # atno 10765 bound_to 10752
  139.9830  134.6713  156.0227 H   0  0  0  0  0  0  0  0  0  0  0  0  # atno 11005 bound_to 11000
  144.8287  140.6671  143.6305 LP  0  0  0  0  0  0  0  0  0  0  0  0  # atno 17320 bound_to 7965
  145.4124  139.1578  143.4118 LP  0  0  0  0  0  0  0  0  0  0  0  0  # atno 17321 bound_to 7965
  140.0277  144.6105  150.7514 LP  0  0  0  0  0  0  0  0  0  0  0  0  # atno 17342 bound_to 10162
  140.7378  143.2770  151.3712 LP  0  0  0  0  0  0  0  0  0  0  0  0  # atno 17343 bound_to 10162
  155.9731  130.4664  150.6287 LP  0  0  0  0  0  0  0  0  0  0  0  0  # atno 17370 bound_to 10713
  157.4001  131.0808  151.1316 LP  0  0  0  0  0  0  0  0  0  0  0  0  # atno 17371 bound_to 10713
  141.1499  133.6550  156.3982 LP  0  0  0  0  0  0  0  0  0  0  0  0  # atno 17394 bound_to 11000
  140.5058  134.6442  157.5266 LP  0  0  0  0  0  0  0  0  0  0  0  0  # atno 17395 bound_to 11000

$$$$
