AV-unprocessed.smi:2061|AV-procd|sdf|8366|dock2
  -GOLD-   2272011 43D 1   1.00000     0.00000
 Structure written by MMmdl.
 46 47  0  0  0  0  0  0  0  0  2 V2000
  150.8004  142.3341  156.7420 C   0  0  0  0  0  0  0  0  0  0  0  0
  150.5296  141.2198  155.7902 C   0  0  0  0  0  0  0  0  0  0  0  0
  149.3965  140.7900  155.1595 C   0  0  0  0  0  0  0  0  0  0  0  0
  149.8575  139.6754  154.3998 C   0  0  0  0  0  0  0  0  0  0  0  0
  149.0687  138.8473  153.5601 N   0  0  0  0  0  0  0  0  0  0  0  0
  147.7672  138.9733  153.2517 C   0  0  0  0  0  0  0  0  0  0  0  0
  147.0279  139.8822  153.6299 O   0  0  0  0  0  0  0  0  0  0  0  0
  147.3529  137.9704  152.4640 N   0  0  0  0  0  0  0  0  0  0  0  0
  145.9899  137.8177  151.9635 C   0  0  0  0  0  0  0  0  0  0  0  0
  145.2983  136.5224  152.4669 C   0  0  2  0  0  0  0  0  0  0  0  0
  145.0032  136.6343  153.9826 C   0  0  0  0  0  0  0  0  0  0  0  0
  146.1183  135.3212  152.1019 N   0  3  1  0  0  0  0  0  0  0  0  0
  146.5731  134.4787  153.2418 C   0  0  0  0  0  0  0  0  0  0  0  0
  147.4454  133.3070  152.7508 C   0  0  1  0  0  0  0  0  0  0  0  0
  147.8648  132.3790  153.8963 C   0  0  0  0  0  0  0  0  0  0  0  0
  146.7139  132.5392  151.8044 O   0  0  0  0  0  0  0  0  0  0  0  0
  146.3562  133.2977  150.6570 C   0  0  1  0  0  0  0  0  0  0  0  0
  145.6605  132.3602  149.6640 C   0  0  0  0  0  0  0  0  0  0  0  0
  145.4451  134.4596  151.0924 C   0  0  0  0  0  0  0  0  0  0  0  0
  151.1484  139.4495  154.5594 N   0  0  0  0  0  0  0  0  0  0  0  0
  151.5887  140.4377  155.4477 O   0  0  0  0  0  0  0  0  0  0  0  0
  149.8841  142.8749  156.9798 H   0  0  0  0  0  0  0  0  0  0  0  0
  151.5108  143.0426  156.3158 H   0  0  0  0  0  0  0  0  0  0  0  0
  151.2188  141.9527  157.6736 H   0  0  0  0  0  0  0  0  0  0  0  0
  148.4074  141.2145  155.2431 H   0  0  0  0  0  0  0  0  0  0  0  0
  149.5546  138.0623  153.1518 H   0  0  0  0  0  0  0  0  0  0  0  0
  148.0228  137.2647  152.1938 H   0  0  0  0  0  0  0  0  0  0  0  0
  145.4327  138.7137  152.2341 H   0  0  0  0  0  0  0  0  0  0  0  0
  146.0331  137.8107  150.8740 H   0  0  0  0  0  0  0  0  0  0  0  0
  144.3328  136.4183  151.9691 H   0  0  0  0  0  0  0  0  0  0  0  0
  144.4335  137.5332  154.2177 H   0  0  0  0  0  0  0  0  0  0  0  0
  145.9234  136.6704  154.5667 H   0  0  0  0  0  0  0  0  0  0  0  0
  144.3992  135.8019  154.3444 H   0  0  0  0  0  0  0  0  0  0  0  0
  147.1733  135.0628  153.9389 H   0  0  0  0  0  0  0  0  0  0  0  0
  145.7052  134.1044  153.7877 H   0  0  0  0  0  0  0  0  0  0  0  0
  148.3476  133.6969  152.2759 H   0  0  0  0  0  0  0  0  0  0  0  0
  148.4346  132.9204  154.6520 H   0  0  0  0  0  0  0  0  0  0  0  0
  148.4910  131.5658  153.5288 H   0  0  0  0  0  0  0  0  0  0  0  0
  146.9966  131.9357  154.3849 H   0  0  0  0  0  0  0  0  0  0  0  0
  147.2588  133.6922  150.1868 H   0  0  0  0  0  0  0  0  0  0  0  0
  145.3724  132.8920  148.7566 H   0  0  0  0  0  0  0  0  0  0  0  0
  144.7594  131.9246  150.0968 H   0  0  0  0  0  0  0  0  0  0  0  0
  146.3196  131.5418  149.3731 H   0  0  0  0  0  0  0  0  0  0  0  0
  144.5181  134.0666  151.5137 H   0  0  0  0  0  0  0  0  0  0  0  0
  145.1675  135.0326  150.2097 H   0  0  0  0  0  0  0  0  0  0  0  0
  146.9605  135.6764  151.6721 H   0  0  0  0  0  0  0  0  0  0  0  0
  1  2  1  0  0  0  0
  1 22  1  0  0  0  0
  1 23  1  0  0  0  0
  1 24  1  0  0  0  0
  2 21  1  0  0  0  0
  2  3  2  0  0  0  0
  3  4  1  0  0  0  0
  3 25  1  0  0  0  0
  4  5  1  0  0  0  0
  4 20  2  0  0  0  0
  5  6  1  0  0  0  0
  5 26  1  0  0  0  0
  6  7  2  0  0  0  0
  6  8  1  0  0  0  0
  8  9  1  0  0  0  0
  8 27  1  0  0  0  0
  9 10  1  0  0  0  0
  9 28  1  0  0  0  0
  9 29  1  0  0  0  0
 10 11  1  0  0  0  0
 10 12  1  0  0  0  0
 10 30  1  0  0  0  0
 11 31  1  0  0  0  0
 11 32  1  0  0  0  0
 11 33  1  0  0  0  0
 12 19  1  0  0  0  0
 12 13  1  0  0  0  0
 12 46  1  0  0  0  0
 13 14  1  0  0  0  0
 13 34  1  0  0  0  0
 13 35  1  0  0  0  0
 14 15  1  0  0  0  0
 14 16  1  0  0  0  0
 14 36  1  0  0  0  0
 15 37  1  0  0  0  0
 15 38  1  0  0  0  0
 15 39  1  0  0  0  0
 16 17  1  0  0  0  0
 17 18  1  0  0  0  0
 17 19  1  0  0  0  0
 17 40  1  0  0  0  0
 18 41  1  0  0  0  0
 18 42  1  0  0  0  0
 18 43  1  0  0  0  0
 19 44  1  0  0  0  0
 19 45  1  0  0  0  0
 20 21  1  0  0  0  0
M  CHG  1  12   1
M  END
> <s_m_source_file>
AV-unprocessed.smi

> <i_m_source_file_index>
2061

> <i_lp_mmshare_version>
43012

> <i_f3d_flags>
0

> <s_epik_input>
W0NIM11jMVtjSF1jKG5vMSlbTkhdQyg9TylbTkhdW0NIMl1bQ0BIXShbQ0gzXSlOMltDSDJdW0NAQEhdKFtDSDNdKU9bQ0BASF0oW0NIM10pW0NIMl0y

> <s_epik_cmdline>
J2VwaWtfcHl0aG9uJywgJy1waCcsICc3LjAnLCAnLXRuJywgJzgnLCAnLW1hJywgJzIwMCcsICctbWV0YWxfYmluZGluZycsICctaW1hZScsICc8aW5maWxlLm1hZT4nLCAnLW9tYWUnLCAnPG91dGZpbGUubWFlPic=

> <r_epik_Ionization_Penalty>
0.707076

> <r_epik_Ionization_Penalty_Charging>
0.707039

> <r_epik_Ionization_Penalty_Neutral>
3.6548e-05

> <r_epik_State_Penalty>
0.730276

> <r_epik_Charging_Adjusted_Penalty>
1.43732

> <i_epik_Tot_Q>
1

> <i_epik_Tot_abs_Q>
1

> <r_epik_Metal_State_Penalty>
0.743132

> <b_epik_Metal_Only>
0

> <s_lp_Force_Field>
OPLS_2005

> <r_lp_Energy>
18.102

> <b_lp_Chiralities_Consistent>
1

> <s_lp_Variant>
AV-unprocessed.smi:2061-7

> <Gold.Version>
5.8.1

> <Gold.Id.Protein>
6NUR|6NUR_protein|mol2

> <Gold.PLP.Fitness>
41.4293

> <Gold.PLP.PLP>
-35.5155

> <Gold.PLP.part.hbond>
-5.5419

> <Gold.PLP.part.metal>
0.0000

> <Gold.PLP.part.buried>
-2.5543

> <Gold.PLP.part.nonpolar>
-28.8433

> <Gold.PLP.part.repulsive>
0.5959

> <Gold.PLP.ligand.clash>
0.0000

> <Gold.PLP.ligand.torsion>
1.5146

> <Gold.PLP.Chemscore.Hbond>
2.9578

> <Gold.PLP.Chemscore.CHOScore>
0.0000

> <Gold.PLP.Chemscore.Metal>
0.0000

> <Gold.Chemscore.Hbonds>
donor molecule, donor type, donor heavy atom, donor atom, acceptor molecule, acceptor atom, score
      L1  H     5    26       P1  7948  0.28
      L1  H     8    27       P1  7948  0.70
      L1  H    12    46       P1  7948  1.95

> <Gold.PLP.Chemscore.Internal.Correction>
0.0695

> <Gold.Rescore>
     Score         DG    S(hbond)    S(metal)    S(lipo)     H(rot)  DE(clash)    DE(int)     intcor
     13.50     -16.36       1.98        0.00      71.02       1.58       0.21       2.65       ----

> <Gold.Chemscore.Fitness>
13.4969

> <Gold.Chemscore.DG>
-16.3611

> <Gold.Chemscore.ZeroCoef>
-5.4800

> <Gold.Chemscore.Hbond>
1.9834

> <Gold.Chemscore.Metal>
0.0000

> <Gold.Chemscore.Lipo>
71.0241

> <Gold.Chemscore.Internal_Hbond>
0.0000

> <Gold.Chemscore.DEClash>
0.2111

> <Gold.Chemscore.DEInternal>
2.6531

> <Gold.Chemscore.Rot>
1.5834

> <Gold.Chemscore.Internal.Correction>
   9.000000E+99

> <Gold.Chemscore.Hbonds>
donor molecule, donor type, donor heavy atom, donor atom, acceptor molecule, acceptor atom, score
      L1  H     5    26       P1  7948  0.23
      L1  H     8    27       P1  7948  0.71
      L1  H    12    46       P1  7948  0.86

> <Gold.Chemscore.Hbond.Weighted>
-6.6247

> <Gold.Chemscore.Metal.Weighted>
-0.0000

> <Gold.Chemscore.Lipo.Weighted>
-8.3098

> <Gold.Chemscore.Internal_Hbond.Weighted>
0.0000

> <Gold.Chemscore.DEClash.Weighted>
0.2111

> <Gold.Chemscore.DEInternal.Weighted>
2.6531

> <Gold.Chemscore.Rot.Weighted>
4.0535

> <Gold.Chemscore.Internal.Correction.Weighted>
   9.000000E+99

> <Gold.Protein.RotatedTorsions>
[ 6907 6896 6895 6894 ] final  -17.97 input  -60.11 | X-H torsion
[ 7974 7965 7964 7962 ] final  -90.46 input  175.53 | X-H torsion
[ 8008 7997 7996 7995 ] final -173.93 input   59.86 | X-H torsion
[ 10167 10162 10161 10158 ] final  109.56 input  -65.29 | X-H torsion
[ 10718 10713 10712 10709 ] final  -37.92 input   66.30 | X-H torsion
[ 10763 10752 10751 10750 ] final   63.18 input  -60.55 | X-H torsion
[ 11005 11000 10999 10996 ] final  -24.98 input  -57.11 | X-H torsion

> <Gold.Protein.ActiveResidues>
 VAL166  LYS551  ARG553  GLY616  TRP617  ASP618  TYR619  PRO620  LYS621  CYS622 
 ASP623  PHE694  ASN695  SER759  ASP760  ASP761  ALA762  ILE779  LEU786  VAL792 
 PHE793  MET794  SER795  GLU796  ALA797  LYS798  CYS799  TRP800  GLU811  SER814 

> <Gold.Protein.RotatedAtoms>
  151.2852  135.0726  159.9183 H   0  0  0  0  0  0  0  0  0  0  0  0  # atno 6907 bound_to 6896
  152.5326  133.9989  159.7895 H   0  0  0  0  0  0  0  0  0  0  0  0  # atno 6908 bound_to 6896
  151.0249  133.5792  159.2698 H   0  0  0  0  0  0  0  0  0  0  0  0  # atno 6909 bound_to 6896
  145.4262  140.9553  143.2153 H   0  0  0  0  0  0  0  0  0  0  0  0  # atno 7974 bound_to 7965
  155.9637  140.1149  157.0873 H   0  0  0  0  0  0  0  0  0  0  0  0  # atno 8008 bound_to 7997
  154.4138  140.1177  156.5280 H   0  0  0  0  0  0  0  0  0  0  0  0  # atno 8009 bound_to 7997
  155.6687  140.3473  155.4812 H   0  0  0  0  0  0  0  0  0  0  0  0  # atno 8010 bound_to 7997
  139.6757  144.7122  151.1606 H   0  0  0  0  0  0  0  0  0  0  0  0  # atno 10167 bound_to 10162
  156.3096  130.4251  149.8063 H   0  0  0  0  0  0  0  0  0  0  0  0  # atno 10718 bound_to 10713
  153.0008  135.5438  154.6311 H   0  0  0  0  0  0  0  0  0  0  0  0  # atno 10763 bound_to 10752
  154.5588  135.2832  155.0941 H   0  0  0  0  0  0  0  0  0  0  0  0  # atno 10764 bound_to 10752
  154.2152  135.6460  153.5180 H   0  0  0  0  0  0  0  0  0  0  0  0  # atno 10765 bound_to 10752
  140.8895  133.7598  156.0403 H   0  0  0  0  0  0  0  0  0  0  0  0  # atno 11005 bound_to 11000
  144.8213  139.5787  143.6985 LP  0  0  0  0  0  0  0  0  0  0  0  0  # atno 17320 bound_to 7965
  146.2631  139.6456  142.9348 LP  0  0  0  0  0  0  0  0  0  0  0  0  # atno 17321 bound_to 7965
  140.7634  143.5775  150.8929 LP  0  0  0  0  0  0  0  0  0  0  0  0  # atno 17342 bound_to 10162
  139.9444  143.6344  152.3045 LP  0  0  0  0  0  0  0  0  0  0  0  0  # atno 17343 bound_to 10162
  156.5411  130.8300  151.3269 LP  0  0  0  0  0  0  0  0  0  0  0  0  # atno 17370 bound_to 10713
  157.7388  130.9819  150.2273 LP  0  0  0  0  0  0  0  0  0  0  0  0  # atno 17371 bound_to 10713
  140.8364  134.3118  157.5330 LP  0  0  0  0  0  0  0  0  0  0  0  0  # atno 17394 bound_to 11000
  139.8728  134.9392  156.3735 LP  0  0  0  0  0  0  0  0  0  0  0  0  # atno 17395 bound_to 11000

$$$$
