#       Name:                AV-unprocessed.smi:1588
#       Creating user name   scv26
#       Creation time:       Fri Mar 27 07:02:50 2020


#       File generated by GOLD software.
#

@<TRIPOS>MOLECULE
AV-unprocessed.smi:1588
    40    41     1
SMALL
NO_CHARGES


@<TRIPOS>ATOM
      1 ****        -3.4417  -1.4277   4.0047 C.3            1 S1                 0.0000
      2 ****        -2.9815  -1.9320   2.6303 C.3            1 S1                 0.0000
      3 ****        -2.5252  -0.8285   1.7524 N.4            1 S1                 1.0000
      4 ****        -2.3222  -1.2195   0.3368 C.3            1 S1                 0.0000
      5 ****        -0.9659  -0.6480  -0.0913 C.3            1 S1                 0.0000
      6 ****        -0.6734   0.4460   0.9359 C.3            1 S1                 0.0000
      7 ****         0.8129   0.8201   1.0944 C.3            1 S1                 0.0000
      8 ****         1.3542   1.4357  -0.1135 N.am           1 S1                 0.0000
      9 ****         2.0114   0.7905  -1.0880 C.2            1 S1                 0.0000
     10 ****         2.2303  -0.4209  -1.0753 O.2            1 S1                 0.0000
     11 ****         2.3855   1.6326  -2.0650 N.am           1 S1                 0.0000
     12 ****         3.0854   1.3132  -3.2560 C.2            1 S1                 0.0000
     13 ****         3.4483   2.2537  -4.2581 C.2            1 S1                 0.0000
     14 ****         4.0960   1.6708  -5.2568 N.2            1 S1                 0.0000
     15 ****         4.1501   0.3672  -4.9018 N.pl3          1 S1                 0.0000
     16 ****         3.5470   0.1027  -3.6920 C.2            1 S1                 0.0000
     17 ****        -1.2969  -0.1382   2.2033 C.3            1 S1                 0.0000
     18 ****         4.5983  -0.3222  -5.4886 H              1 S1                 0.0000
     19 ****        -3.8205  -2.2516   4.6097 H              1 S1                 0.0000
     20 ****        -4.2421  -0.6936   3.9077 H              1 S1                 0.0000
     21 ****        -2.6252  -0.9643   4.5589 H              1 S1                 0.0000
     22 ****        -2.1885  -2.6729   2.7417 H              1 S1                 0.0000
     23 ****        -3.8185  -2.4384   2.1476 H              1 S1                 0.0000
     24 ****        -2.3470  -2.3011   0.1943 H              1 S1                 0.0000
     25 ****        -3.1290  -0.7903  -0.2579 H              1 S1                 0.0000
     26 ****        -0.2079  -1.4302  -0.0272 H              1 S1                 0.0000
     27 ****        -0.9723  -0.2761  -1.1163 H              1 S1                 0.0000
     28 ****        -1.2381   1.3383   0.6592 H              1 S1                 0.0000
     29 ****         0.9208   1.5394   1.9067 H              1 S1                 0.0000
     30 ****         1.4020  -0.0525   1.3823 H              1 S1                 0.0000
     31 ****         1.2240   2.4322  -0.2115 H              1 S1                 0.0000
     32 ****         2.1432   2.6054  -1.9468 H              1 S1                 0.0000
     33 ****         3.2676   3.3180  -4.2933 H              1 S1                 0.0000
     34 ****         3.5071  -0.8910  -3.2709 H              1 S1                 0.0000
     35 ****        -1.5177   0.6275   2.9477 H              1 S1                 0.0000
     36 ****        -0.6132  -0.8594   2.6548 H              1 S1                 0.0000
     37 ****        -3.2580  -0.1332   1.7415 H              1 S1                 0.0000
     38 ****         1.9119  -0.9786  -0.3087 LP             1 S1                 0.0000
     39 ****         2.7265  -0.8473  -1.8316 LP             1 S1                 0.0000
     40 ****         4.4613   2.0976  -6.0840 LP             1 S1                 0.0000
@<TRIPOS>BOND
    1    1    2 1     
    2    1   19 1     
    3    1   20 1     
    4    1   21 1     
    5    2    3 1     
    6    2   22 1     
    7    2   23 1     
    8    3   17 1     
    9    3    4 1     
   10    3   37 1     
   11    4    5 1     
   12    4   24 1     
   13    4   25 1     
   14    5    6 1     
   15    5   26 1     
   16    5   27 1     
   17    6    7 1     
   18    6   17 1     
   19    6   28 1     
   20    7    8 1     
   21    7   29 1     
   22    7   30 1     
   23    8    9 am    
   24    8   31 1     
   25    9   10 2     
   26    9   11 am    
   27   11   12 1     
   28   11   32 1     
   29   12   16 2     
   30   12   13 1     
   31   13   14 2     
   32   13   33 1     
   33   14   15 1     
   34   15   18 1     
   35   15   16 1     
   36   16   34 1     
   37   17   35 1     
   38   17   36 1     
   39   10   38 1     
   40   10   39 1     
   41   14   40 1     
@<TRIPOS>SUBSTRUCTURE
      1 S1             1
@<TRIPOS>SET
LONE_PAIRS      STATIC     ATOMS    <user>   **** ""
3 38 39 40
DONOR_HYDROGENS      STATIC     ATOMS    <user>   **** ""
4 37 31 32 18
ATOM$BLUE        STATIC     ATOMS    COLORGROUP SYSTEM
3 38 39 40
ATOM$RED        STATIC     ATOMS    COLORGROUP SYSTEM
4 37 31 32 18
