AV-unprocessed.smi:2210|AV-procd|sdf|8949|dock10
  -GOLD-   2272012163D 1   1.00000     0.00000
 Structure written by MMmdl.
 37 38  0  0  0  0  0  0  0  0  1 V2000
  150.6108  134.8739  155.8417 O   0  0  0  0  0  0  0  0  0  0  0  0
  150.0137  135.2817  154.8456 C   0  0  0  0  0  0  0  0  0  0  0  0
  149.2345  134.5032  154.0812 N   0  0  0  0  0  0  0  0  0  0  0  0
  148.9808  133.0860  154.3139 C   0  0  0  0  0  0  0  0  0  0  0  0
  147.4732  132.7811  154.3604 C   0  0  0  0  0  0  0  0  0  0  0  0
  146.8750  132.5586  152.9813 C   0  0  0  0  0  0  0  0  0  0  0  0
  147.0793  133.4229  151.9680 C   0  0  0  0  0  0  0  0  0  0  0  0
  146.4960  133.2588  150.5756 C   0  0  0  0  0  0  0  0  0  0  0  0
  145.3769  132.2050  150.5296 C   0  0  0  0  0  0  0  0  0  0  0  0
  145.7594  130.9566  151.3338 C   0  0  0  0  0  0  0  0  0  0  0  0
  146.0294  131.3015  152.8094 C   0  0  0  0  0  0  0  0  0  0  0  0
  150.0626  136.5375  154.3688 N   0  0  0  0  0  0  0  0  0  0  0  0
  150.7694  137.6547  154.8903 C   0  0  0  0  0  0  0  0  0  0  0  0
  151.6481  137.5952  155.9993 C   0  0  0  0  0  0  0  0  0  0  0  0
  152.2784  138.7782  156.4310 C   0  0  0  0  0  0  0  0  0  0  0  0
  152.0013  139.9770  155.7455 C   0  0  0  0  0  0  0  0  0  0  0  0
  151.1547  140.0512  154.6971 N   0  0  0  0  0  0  0  0  0  0  0  0
  150.5543  138.9130  154.2887 C   0  0  0  0  0  0  0  0  0  0  0  0
  148.7875  134.9193  153.2773 H   0  0  0  0  0  0  0  0  0  0  0  0
  149.4553  132.5292  153.5059 H   0  0  0  0  0  0  0  0  0  0  0  0
  149.4647  132.7658  155.2383 H   0  0  0  0  0  0  0  0  0  0  0  0
  147.2971  131.8952  154.9723 H   0  0  0  0  0  0  0  0  0  0  0  0
  146.9382  133.5984  154.8450 H   0  0  0  0  0  0  0  0  0  0  0  0
  147.6995  134.2942  152.1211 H   0  0  0  0  0  0  0  0  0  0  0  0
  146.1148  134.2199  150.2297 H   0  0  0  0  0  0  0  0  0  0  0  0
  147.3065  132.9777  149.9026 H   0  0  0  0  0  0  0  0  0  0  0  0
  144.4604  132.6287  150.9425 H   0  0  0  0  0  0  0  0  0  0  0  0
  145.1559  131.9394  149.4954 H   0  0  0  0  0  0  0  0  0  0  0  0
  144.9723  130.2050  151.2659 H   0  0  0  0  0  0  0  0  0  0  0  0
  146.6521  130.5083  150.8955 H   0  0  0  0  0  0  0  0  0  0  0  0
  146.5242  130.4592  153.2939 H   0  0  0  0  0  0  0  0  0  0  0  0
  145.0827  131.4535  153.3285 H   0  0  0  0  0  0  0  0  0  0  0  0
  149.5833  136.6992  153.4951 H   0  0  0  0  0  0  0  0  0  0  0  0
  151.8400  136.6773  156.5325 H   0  0  0  0  0  0  0  0  0  0  0  0
  152.9556  138.7673  157.2723 H   0  0  0  0  0  0  0  0  0  0  0  0
  152.4671  140.9020  156.0518 H   0  0  0  0  0  0  0  0  0  0  0  0
  149.8825  139.0110  153.4484 H   0  0  0  0  0  0  0  0  0  0  0  0
  1  2  2  0  0  0  0
  2  3  1  0  0  0  0
  2 12  1  0  0  0  0
  3  4  1  0  0  0  0
  3 19  1  0  0  0  0
  4  5  1  0  0  0  0
  4 20  1  0  0  0  0
  4 21  1  0  0  0  0
  5  6  1  0  0  0  0
  5 22  1  0  0  0  0
  5 23  1  0  0  0  0
  6 11  1  0  0  0  0
  6  7  2  0  0  0  0
  7  8  1  0  0  0  0
  7 24  1  0  0  0  0
  8  9  1  0  0  0  0
  8 25  1  0  0  0  0
  8 26  1  0  0  0  0
  9 10  1  0  0  0  0
  9 27  1  0  0  0  0
  9 28  1  0  0  0  0
 10 11  1  0  0  0  0
 10 29  1  0  0  0  0
 10 30  1  0  0  0  0
 11 31  1  0  0  0  0
 11 32  1  0  0  0  0
 12 13  1  0  0  0  0
 12 33  1  0  0  0  0
 13 18  1  0  0  0  0
 13 14  2  0  0  0  0
 14 15  1  0  0  0  0
 14 34  1  0  0  0  0
 15 16  2  0  0  0  0
 15 35  1  0  0  0  0
 16 17  1  0  0  0  0
 16 36  1  0  0  0  0
 17 18  2  0  0  0  0
 18 37  1  0  0  0  0
M  END
> <s_m_source_file>
AV-unprocessed.smi

> <i_m_source_file_index>
2210

> <i_lp_mmshare_version>
43012

> <i_f3d_flags>
0

> <s_epik_input>
W2NIXTFuW2NIXVtjSF1bY0hdYzFbTkhdQyg9TylbTkhdW0NIMl1bQ0gyXUMyPVtDSF1bQ0gyXVtDSDJdW0NIMl1bQ0gyXTI=

> <s_epik_cmdline>
J2VwaWtfcHl0aG9uJywgJy1waCcsICc3LjAnLCAnLXRuJywgJzgnLCAnLW1hJywgJzIwMCcsICctbWV0YWxfYmluZGluZycsICctaW1hZScsICc8aW5maWxlLm1hZT4nLCAnLW9tYWUnLCAnPG91dGZpbGUubWFlPic=

> <r_epik_Ionization_Penalty>
0.00482236

> <r_epik_Ionization_Penalty_Charging>
0

> <r_epik_Ionization_Penalty_Neutral>
0.00482236

> <r_epik_State_Penalty>
0.0034674

> <r_epik_Charging_Adjusted_Penalty>
0.0034674

> <i_epik_Tot_Q>
0

> <i_epik_Tot_abs_Q>
0

> <r_epik_Metal_State_Penalty>
-0

> <b_epik_Metal_Only>
0

> <s_lp_Force_Field>
OPLS_2005

> <r_lp_Energy>
10.3884

> <b_lp_Chiralities_Consistent>
1

> <s_lp_Variant>
AV-unprocessed.smi:2210-1

> <Gold.Version>
5.8.1

> <Gold.Id.Protein>
6NUR|6NUR_protein|mol2

> <Gold.PLP.Fitness>
45.9952

> <Gold.PLP.PLP>
-35.1492

> <Gold.PLP.part.hbond>
-4.3111

> <Gold.PLP.part.metal>
0.0000

> <Gold.PLP.part.buried>
-2.0587

> <Gold.PLP.part.nonpolar>
-28.7538

> <Gold.PLP.part.repulsive>
0.2241

> <Gold.PLP.ligand.clash>
0.0000

> <Gold.PLP.ligand.torsion>
0.2615

> <Gold.PLP.Chemscore.Hbond>
2.8208

> <Gold.PLP.Chemscore.CHOScore>
0.9675

> <Gold.PLP.Chemscore.Metal>
0.0000

> <Gold.Chemscore.Hbonds>
donor molecule, donor type, donor heavy atom, donor atom, acceptor molecule, acceptor atom, score
      L1  H     3    19       P1  7948  0.90
      L1  H    12    33       P1  7948  1.00
      P1  H  7989  7998       L1    17  0.99
      L1  C    18    37       P1  7957  1.00

> <Gold.PLP.Chemscore.Internal.Correction>
0.0038

> <Gold.Rescore>
     Score         DG    S(hbond)    S(metal)    S(lipo)     H(rot)  DE(clash)    DE(int)     intcor
     15.79     -17.43       1.47        0.00      90.16       1.37       0.07       1.56       ----

> <Gold.Chemscore.Fitness>
15.7943

> <Gold.Chemscore.DG>
-17.4302

> <Gold.Chemscore.ZeroCoef>
-5.4800

> <Gold.Chemscore.Hbond>
1.4734

> <Gold.Chemscore.Metal>
0.0000

> <Gold.Chemscore.Lipo>
90.1560

> <Gold.Chemscore.Internal_Hbond>
0.0000

> <Gold.Chemscore.DEClash>
0.0742

> <Gold.Chemscore.DEInternal>
1.5616

> <Gold.Chemscore.Rot>
1.3747

> <Gold.Chemscore.Internal.Correction>
   9.000000E+99

> <Gold.Chemscore.Hbonds>
donor molecule, donor type, donor heavy atom, donor atom, acceptor molecule, acceptor atom, score
      L1  H     3    19       P1  7948  0.35
      L1  H    12    33       P1  7948  0.68
      P1  H  7989  7998       L1    17  0.67

> <Gold.Chemscore.Hbond.Weighted>
-4.9212

> <Gold.Chemscore.Metal.Weighted>
-0.0000

> <Gold.Chemscore.Lipo.Weighted>
-10.5482

> <Gold.Chemscore.Internal_Hbond.Weighted>
0.0000

> <Gold.Chemscore.DEClash.Weighted>
0.0742

> <Gold.Chemscore.DEInternal.Weighted>
1.5616

> <Gold.Chemscore.Rot.Weighted>
3.5192

> <Gold.Chemscore.Internal.Correction.Weighted>
   9.000000E+99

> <Gold.Protein.RotatedTorsions>
[ 6907 6896 6895 6894 ] final  -45.08 input  -60.11 | X-H torsion
[ 7974 7965 7964 7962 ] final  162.02 input  175.53 | X-H torsion
[ 8008 7997 7996 7995 ] final -110.68 input   59.86 | X-H torsion
[ 10167 10162 10161 10158 ] final -103.26 input  -65.29 | X-H torsion
[ 10718 10713 10712 10709 ] final   61.60 input   66.30 | X-H torsion
[ 10763 10752 10751 10750 ] final  -91.80 input  -60.55 | X-H torsion
[ 11005 11000 10999 10996 ] final -165.99 input  -57.11 | X-H torsion

> <Gold.Protein.ActiveResidues>
 VAL166  LYS551  ARG553  GLY616  TRP617  ASP618  TYR619  PRO620  LYS621  CYS622 
 ASP623  PHE694  ASN695  SER759  ASP760  ASP761  ALA762  ILE779  LEU786  VAL792 
 PHE793  MET794  SER795  GLU796  ALA797  LYS798  CYS799  TRP800  GLU811  SER814 

> <Gold.Protein.RotatedAtoms>
  150.9259  134.8675  159.7518 H   0  0  0  0  0  0  0  0  0  0  0  0  # atno 6907 bound_to 6896
  152.5015  134.4150  159.9471 H   0  0  0  0  0  0  0  0  0  0  0  0  # atno 6908 bound_to 6896
  151.4181  133.3667  159.2787 H   0  0  0  0  0  0  0  0  0  0  0  0  # atno 6909 bound_to 6896
  144.7657  139.7980  143.6316 H   0  0  0  0  0  0  0  0  0  0  0  0  # atno 7974 bound_to 7965
  154.9782  140.0396  157.2266 H   0  0  0  0  0  0  0  0  0  0  0  0  # atno 8008 bound_to 7997
  154.7738  140.2806  155.6094 H   0  0  0  0  0  0  0  0  0  0  0  0  # atno 8009 bound_to 7997
  156.2925  140.2605  156.2547 H   0  0  0  0  0  0  0  0  0  0  0  0  # atno 8010 bound_to 7997
  140.2219  143.3670  152.0962 H   0  0  0  0  0  0  0  0  0  0  0  0  # atno 10167 bound_to 10162
  157.5840  130.9004  149.9482 H   0  0  0  0  0  0  0  0  0  0  0  0  # atno 10718 bound_to 10713
  154.6797  135.5255  153.8246 H   0  0  0  0  0  0  0  0  0  0  0  0  # atno 10763 bound_to 10752
  153.0556  135.6549  154.0595 H   0  0  0  0  0  0  0  0  0  0  0  0  # atno 10764 bound_to 10752
  154.0484  135.2971  155.3324 H   0  0  0  0  0  0  0  0  0  0  0  0  # atno 10765 bound_to 10752
  140.5695  134.5252  157.5159 H   0  0  0  0  0  0  0  0  0  0  0  0  # atno 11005 bound_to 11000
  146.1762  139.4934  142.9896 LP  0  0  0  0  0  0  0  0  0  0  0  0  # atno 17320 bound_to 7965
  145.6478  141.0270  143.1777 LP  0  0  0  0  0  0  0  0  0  0  0  0  # atno 17321 bound_to 7965
  139.5141  144.6943  151.5674 LP  0  0  0  0  0  0  0  0  0  0  0  0  # atno 17342 bound_to 10162
  140.6249  143.9188  150.6556 LP  0  0  0  0  0  0  0  0  0  0  0  0  # atno 17343 bound_to 10162
  156.0887  130.3665  150.0436 LP  0  0  0  0  0  0  0  0  0  0  0  0  # atno 17370 bound_to 10713
  156.8571  130.9479  151.3621 LP  0  0  0  0  0  0  0  0  0  0  0  0  # atno 17371 bound_to 10713
  139.9369  134.7859  156.0780 LP  0  0  0  0  0  0  0  0  0  0  0  0  # atno 17394 bound_to 11000
  141.1065  133.6658  156.2876 LP  0  0  0  0  0  0  0  0  0  0  0  0  # atno 17395 bound_to 11000

$$$$
