#       Name:                AV-unprocessed.smi:1450
#       Creating user name   scv26
#       Creation time:       Fri Mar 27 05:58:18 2020


#       File generated by GOLD software.
#

@<TRIPOS>MOLECULE
AV-unprocessed.smi:1450
    36    37     1
SMALL
NO_CHARGES


@<TRIPOS>ATOM
      1 ****         0.2024   1.5786   0.6026 O.2            1 S1                 0.0000
      2 ****        -0.3242   0.4807   0.7804 C.2            1 S1                 0.0000
      3 ****         0.3710  -0.6553   0.9325 N.am           1 S1                 0.0000
      4 ****         1.8256  -0.7613   0.8853 C.3            1 S1                 0.0000
      5 ****         2.3598  -0.7582  -0.5602 C.3            1 S1                 0.0000
      6 ****         3.8711  -0.9176  -0.6625 C.3            1 S1                 0.0000
      7 ****         4.0799  -1.7450  -1.9363 C.3            1 S1                 0.0000
      8 ****         2.7857  -1.9276  -2.4956 O.3            1 S1                 0.0000
      9 ****         1.8493  -1.9028  -1.4326 C.3            1 S1                 0.0000
     10 ****        -1.6464   0.2538   0.8637 N.am           1 S1                 0.0000
     11 ****        -2.7179   1.1776   0.7241 C.ar           1 S1                 0.0000
     12 ****        -3.9837   0.7962   1.2146 C.ar           1 S1                 0.0000
     13 ****        -5.0700   1.6806   1.0752 C.ar           1 S1                 0.0000
     14 ****        -4.8486   2.9171   0.4390 C.ar           1 S1                 0.0000
     15 ****        -3.6480   3.2932  -0.0489 N.ar           1 S1                 0.0000
     16 ****        -2.6097   2.4405   0.0896 C.ar           1 S1                 0.0000
     17 ****        -0.1424  -1.5114   1.0830 H              1 S1                 0.0000
     18 ****         2.2766   0.0511   1.4574 H              1 S1                 0.0000
     19 ****         2.1107  -1.6860   1.3881 H              1 S1                 0.0000
     20 ****         2.0894   0.1811  -1.0455 H              1 S1                 0.0000
     21 ****         4.3686   0.0514  -0.7168 H              1 S1                 0.0000
     22 ****         4.2778  -1.4520   0.1973 H              1 S1                 0.0000
     23 ****         4.7400  -1.2510  -2.6497 H              1 S1                 0.0000
     24 ****         4.5093  -2.7181  -1.6942 H              1 S1                 0.0000
     25 ****         1.8750  -2.8539  -0.8980 H              1 S1                 0.0000
     26 ****         0.8352  -1.7369  -1.7971 H              1 S1                 0.0000
     27 ****        -1.9191  -0.6908   1.0923 H              1 S1                 0.0000
     28 ****        -4.1231  -0.1611   1.6955 H              1 S1                 0.0000
     29 ****        -6.0496   1.4173   1.4458 H              1 S1                 0.0000
     30 ****        -5.6587   3.6202   0.3138 H              1 S1                 0.0000
     31 ****        -1.6849   2.7882  -0.3429 H              1 S1                 0.0000
     32 ****         1.1987   1.6552   0.5655 LP             1 S1                 0.0000
     33 ****        -0.3661   2.3943   0.4952 LP             1 S1                 0.0000
     34 ****         2.7403  -2.8073  -2.9689 LP             1 S1                 0.0000
     35 ****         2.5869  -1.1907  -3.1418 LP             1 S1                 0.0000
     36 ****        -3.5304   4.1779  -0.5001 LP             1 S1                 0.0000
@<TRIPOS>BOND
    1    1    2 2     
    2    2    3 am    
    3    2   10 am    
    4    3    4 1     
    5    3   17 1     
    6    4    5 1     
    7    4   18 1     
    8    4   19 1     
    9    5    9 1     
   10    5    6 1     
   11    5   20 1     
   12    6    7 1     
   13    6   21 1     
   14    6   22 1     
   15    7    8 1     
   16    7   23 1     
   17    7   24 1     
   18    8    9 1     
   19    9   25 1     
   20    9   26 1     
   21   10   11 1     
   22   10   27 1     
   23   11   16 ar    
   24   11   12 ar    
   25   12   13 ar    
   26   12   28 1     
   27   13   14 ar    
   28   13   29 1     
   29   14   15 ar    
   30   14   30 1     
   31   15   16 ar    
   32   16   31 1     
   33    1   32 1     
   34    1   33 1     
   35    8   34 1     
   36    8   35 1     
   37   15   36 1     
@<TRIPOS>SUBSTRUCTURE
      1 S1             1
@<TRIPOS>SET
LONE_PAIRS      STATIC     ATOMS    <user>   **** ""
5 32 33 34 35 36
DONOR_HYDROGENS      STATIC     ATOMS    <user>   **** ""
2 17 27
ATOM$BLUE        STATIC     ATOMS    COLORGROUP SYSTEM
5 32 33 34 35 36
ATOM$RED        STATIC     ATOMS    COLORGROUP SYSTEM
2 17 27
