#       Name:                AV-unprocessed.smi:246
#       Creating user name   scv26
#       Creation time:       Thu Mar 26 20:53:01 2020


#       File generated by GOLD software.
#

@<TRIPOS>MOLECULE
AV-unprocessed.smi:246
    68    71     1
SMALL
NO_CHARGES


@<TRIPOS>ATOM
      1 ****        -5.7941   2.6708   2.8023 C.3            1 S1                 0.0000
      2 ****        -5.3477   4.1371   2.8841 C.3            1 S1                 0.0000
      3 ****        -3.9323   4.2524   2.9065 O.3            1 S1                 0.0000
      4 ****        -3.3142   4.1250   1.6342 C.3            1 S1                 0.0000
      5 ****        -1.7981   4.2462   1.8114 C.3            1 S1                 0.0000
      6 ****        -1.3129   3.0428   2.3880 O.3            1 S1                 0.0000
      7 ****         0.0779   3.0549   2.6828 C.3            1 S1                 0.0000
      8 ****         0.3830   1.8797   3.6140 C.3            1 S1                 0.0000
      9 ****         0.6098   0.6951   2.6721 C.3            1 S1                 0.0000
     10 ****         1.0242   1.2828   1.4080 N.pl3          1 S1                 0.0000
     11 ****         1.7990   0.6235   0.5092 C.ar           1 S1                 0.0000
     12 ****         2.5094   1.3517  -0.3927 N.ar           1 S1                 0.0000
     13 ****         3.2869   0.7452  -1.2939 C.ar           1 S1                 0.0000
     14 ****         3.4924  -0.5600  -1.4739 N.ar           1 S1                 0.0000
     15 ****         2.7729  -1.2997  -0.5831 C.ar           1 S1                 0.0000
     16 ****         1.9103  -0.7964   0.4332 C.ar           1 S1                 0.0000
     17 ****         1.3471  -1.8587   1.1330 N.2            1 S1                 0.0000
     18 ****         1.8472  -2.9221   0.5669 C.2            1 S1                 0.0000
     19 ****         2.7063  -2.6776  -0.4789 N.pl3          1 S1                 0.0000
     20 ****         3.3900  -3.6679  -1.2910 C.3            1 S1                 0.0000
     21 ****         2.9039  -3.7005  -2.7566 C.3            1 S1                 0.0000
     22 ****         3.6122  -4.7391  -3.4034 O.3            1 S1                 0.0000
     23 ****         1.3858  -3.9379  -2.9303 C.3            1 S1                 0.0000
     24 ****         0.9397  -4.1139  -4.3849 C.3            1 S1                 0.0000
     25 ****        -0.5158  -3.7145  -4.3178 C.3            1 S1                 0.0000
     26 ****        -0.4661  -2.5471  -3.3400 C.3            1 S1                 0.0000
     27 ****         0.6312  -2.8152  -2.4727 O.3            1 S1                 0.0000
     28 ****         0.9150   2.7346   1.4362 C.3            1 S1                 0.0000
     29 ****         0.3632   4.0021   3.1435 H              1 S1                 0.0000
     30 ****        -6.8780   2.5931   2.8881 H              1 S1                 0.0000
     31 ****        -5.3539   2.0837   3.6088 H              1 S1                 0.0000
     32 ****        -5.5082   2.2104   1.8571 H              1 S1                 0.0000
     33 ****        -5.7774   4.7267   2.0728 H              1 S1                 0.0000
     34 ****        -5.7251   4.5665   3.8125 H              1 S1                 0.0000
     35 ****        -3.5612   3.1777   1.1546 H              1 S1                 0.0000
     36 ****        -3.6702   4.9247   0.9832 H              1 S1                 0.0000
     37 ****        -1.3302   4.4060   0.8401 H              1 S1                 0.0000
     38 ****        -1.5589   5.1082   2.4362 H              1 S1                 0.0000
     39 ****         1.3053   2.0844   4.1590 H              1 S1                 0.0000
     40 ****        -0.4017   1.6965   4.3486 H              1 S1                 0.0000
     41 ****         1.3577   0.0129   3.0774 H              1 S1                 0.0000
     42 ****        -0.3167   0.1418   2.5163 H              1 S1                 0.0000
     43 ****         3.8192   1.3995  -1.9684 H              1 S1                 0.0000
     44 ****         1.5917  -3.9202   0.8920 H              1 S1                 0.0000
     45 ****         4.4592  -3.4550  -1.2531 H              1 S1                 0.0000
     46 ****         3.2510  -4.6460  -0.8281 H              1 S1                 0.0000
     47 ****         3.1757  -2.7666  -3.2496 H              1 S1                 0.0000
     48 ****         3.3783  -4.7353  -4.3190 H              1 S1                 0.0000
     49 ****         1.0716  -4.8095  -2.3535 H              1 S1                 0.0000
     50 ****         1.4819  -3.4302  -5.0403 H              1 S1                 0.0000
     51 ****         1.0846  -5.1295  -4.7547 H              1 S1                 0.0000
     52 ****        -0.9342  -3.4427  -5.2872 H              1 S1                 0.0000
     53 ****        -1.1098  -4.5301  -3.9029 H              1 S1                 0.0000
     54 ****        -0.2677  -1.6137  -3.8682 H              1 S1                 0.0000
     55 ****        -1.3957  -2.4306  -2.7827 H              1 S1                 0.0000
     56 ****         0.4744   3.1206   0.5173 H              1 S1                 0.0000
     57 ****         1.9130   3.1629   1.5390 H              1 S1                 0.0000
     58 ****        -3.5695   3.5371   3.5037 LP             1 S1                 0.0000
     59 ****        -3.6973   5.1497   3.2802 LP             1 S1                 0.0000
     60 ****        -1.4911   2.2950   1.7485 LP             1 S1                 0.0000
     61 ****        -1.8121   2.8797   3.2390 LP             1 S1                 0.0000
     62 ****         2.4494   2.3498  -0.3814 LP             1 S1                 0.0000
     63 ****         4.0958  -0.9460  -2.1717 LP             1 S1                 0.0000
     64 ****         0.7039  -1.8165   1.8975 LP             1 S1                 0.0000
     65 ****         3.3676  -5.6190  -2.9962 LP             1 S1                 0.0000
     66 ****         4.5959  -4.5886  -3.3057 LP             1 S1                 0.0000
     67 ****         1.2265  -2.0123  -2.4415 LP             1 S1                 0.0000
     68 ****         0.2829  -3.0078  -1.5553 LP             1 S1                 0.0000
@<TRIPOS>BOND
    1    1    2 1     
    2    1   30 1     
    3    1   31 1     
    4    1   32 1     
    5    2    3 1     
    6    2   33 1     
    7    2   34 1     
    8    3    4 1     
    9    4    5 1     
   10    4   35 1     
   11    4   36 1     
   12    5    6 1     
   13    5   37 1     
   14    5   38 1     
   15    6    7 1     
   16    7   29 1     
   17    7   28 1     
   18    7    8 1     
   19    8    9 1     
   20    8   39 1     
   21    8   40 1     
   22    9   10 1     
   23    9   41 1     
   24    9   42 1     
   25   10   11 1     
   26   10   28 1     
   27   11   16 ar    
   28   11   12 ar    
   29   12   13 ar    
   30   13   14 ar    
   31   13   43 1     
   32   14   15 ar    
   33   15   19 1     
   34   15   16 ar    
   35   16   17 1     
   36   17   18 2     
   37   18   19 1     
   38   18   44 1     
   39   19   20 1     
   40   20   21 1     
   41   20   45 1     
   42   20   46 1     
   43   21   22 1     
   44   21   23 1     
   45   21   47 1     
   46   22   48 1     
   47   23   27 1     
   48   23   24 1     
   49   23   49 1     
   50   24   25 1     
   51   24   50 1     
   52   24   51 1     
   53   25   26 1     
   54   25   52 1     
   55   25   53 1     
   56   26   27 1     
   57   26   54 1     
   58   26   55 1     
   59   28   56 1     
   60   28   57 1     
   61    3   58 1     
   62    3   59 1     
   63    6   60 1     
   64    6   61 1     
   65   12   62 1     
   66   14   63 1     
   67   17   64 1     
   68   22   65 1     
   69   22   66 1     
   70   27   67 1     
   71   27   68 1     
@<TRIPOS>SUBSTRUCTURE
      1 S1             1
@<TRIPOS>SET
LONE_PAIRS      STATIC     ATOMS    <user>   **** ""
11 58 59 60 61 62 63 64 65 66 67 68
DONOR_HYDROGENS      STATIC     ATOMS    <user>   **** ""
1 48
ATOM$BLUE        STATIC     ATOMS    COLORGROUP SYSTEM
11 58 59 60 61 62 63 64 65 66 67 68
ATOM$RED        STATIC     ATOMS    COLORGROUP SYSTEM
1 48
