AV-unprocessed.smi:2040|AV-procd|sdf|8286|dock10
  -GOLD-   2272010553D 1   1.00000     0.00000
 Structure written by MMmdl.
 38 39  0  0  0  0  0  0  0  0  1 V2000
  153.7772  141.7258  160.4804 C   0  0  0  0  0  0  0  0  0  0  0  0
  152.7196  142.3570  159.6240 C   0  0  0  0  0  0  0  0  0  0  0  0
  151.8752  141.7258  158.6651 C   0  0  0  0  0  0  0  0  0  0  0  0
  151.1207  142.7665  158.1964 C   0  0  0  0  0  0  0  0  0  0  0  0
  150.1350  142.7545  157.2602 N   0  0  0  0  0  0  0  0  0  0  0  0
  149.5202  141.6976  156.7012 C   0  0  0  0  0  0  0  0  0  0  0  0
  149.7775  140.5170  156.9360 O   0  0  0  0  0  0  0  0  0  0  0  0
  148.5742  142.0931  155.8370 N   0  0  0  0  0  0  0  0  0  0  0  0
  147.7038  141.2121  155.0605 C   0  0  2  0  0  0  0  0  0  0  0  0
  148.3386  140.9532  153.6857 C   0  0  0  0  0  0  0  0  0  0  0  0
  146.2990  141.8344  154.9434 C   0  0  2  0  0  0  0  0  0  0  0  0
  146.2128  143.0361  153.9983 C   0  0  0  0  0  0  0  0  0  0  0  0
  145.0219  143.7815  154.5538 C   0  0  0  0  0  0  0  0  0  0  0  0
  145.2165  143.5928  156.0542 C   0  0  0  0  0  0  0  0  0  0  0  0
  145.8637  142.3323  156.2077 O   0  0  0  0  0  0  0  0  0  0  0  0
  151.5028  143.9200  158.8444 N   0  0  0  0  0  0  0  0  0  0  0  0
  150.9989  145.2711  158.6934 C   0  0  0  0  0  0  0  0  0  0  0  0
  152.4938  143.6622  159.7252 N   0  0  0  0  0  0  0  0  0  0  0  0
  153.7972  140.6439  160.3480 H   0  0  0  0  0  0  0  0  0  0  0  0
  153.6000  141.9266  161.5374 H   0  0  0  0  0  0  0  0  0  0  0  0
  154.7661  142.1090  160.2280 H   0  0  0  0  0  0  0  0  0  0  0  0
  151.8446  140.6834  158.3855 H   0  0  0  0  0  0  0  0  0  0  0  0
  149.8253  143.6638  156.9503 H   0  0  0  0  0  0  0  0  0  0  0  0
  148.4375  143.0851  155.7088 H   0  0  0  0  0  0  0  0  0  0  0  0
  147.5979  140.2523  155.5694 H   0  0  0  0  0  0  0  0  0  0  0  0
  147.7268  140.2748  153.0909 H   0  0  0  0  0  0  0  0  0  0  0  0
  149.3246  140.4986  153.7881 H   0  0  0  0  0  0  0  0  0  0  0  0
  148.4547  141.8784  153.1205 H   0  0  0  0  0  0  0  0  0  0  0  0
  145.5785  141.0804  154.6214 H   0  0  0  0  0  0  0  0  0  0  0  0
  147.1086  143.6541  154.0783 H   0  0  0  0  0  0  0  0  0  0  0  0
  146.0878  142.7493  152.9537 H   0  0  0  0  0  0  0  0  0  0  0  0
  144.9916  144.8297  154.2553 H   0  0  0  0  0  0  0  0  0  0  0  0
  144.0959  143.3045  154.2300 H   0  0  0  0  0  0  0  0  0  0  0  0
  145.8720  144.3681  156.4527 H   0  0  0  0  0  0  0  0  0  0  0  0
  144.2758  143.6289  156.6042 H   0  0  0  0  0  0  0  0  0  0  0  0
  151.2029  145.6266  157.6832 H   0  0  0  0  0  0  0  0  0  0  0  0
  151.4771  145.9424  159.4079 H   0  0  0  0  0  0  0  0  0  0  0  0
  149.9224  145.2821  158.8653 H   0  0  0  0  0  0  0  0  0  0  0  0
  1  2  1  0  0  0  0
  1 19  1  0  0  0  0
  1 20  1  0  0  0  0
  1 21  1  0  0  0  0
  2 18  2  0  0  0  0
  2  3  1  0  0  0  0
  3  4  2  0  0  0  0
  3 22  1  0  0  0  0
  4  5  1  0  0  0  0
  4 16  1  0  0  0  0
  5  6  1  0  0  0  0
  5 23  1  0  0  0  0
  6  7  2  0  0  0  0
  6  8  1  0  0  0  0
  8  9  1  0  0  0  0
  8 24  1  0  0  0  0
  9 10  1  0  0  0  0
  9 11  1  0  0  0  0
  9 25  1  0  0  0  0
 10 26  1  0  0  0  0
 10 27  1  0  0  0  0
 10 28  1  0  0  0  0
 11 15  1  0  0  0  0
 11 12  1  0  0  0  0
 11 29  1  0  0  0  0
 12 13  1  0  0  0  0
 12 30  1  0  0  0  0
 12 31  1  0  0  0  0
 13 14  1  0  0  0  0
 13 32  1  0  0  0  0
 13 33  1  0  0  0  0
 14 15  1  0  0  0  0
 14 34  1  0  0  0  0
 14 35  1  0  0  0  0
 16 17  1  0  0  0  0
 16 18  1  0  0  0  0
 17 36  1  0  0  0  0
 17 37  1  0  0  0  0
 17 38  1  0  0  0  0
M  END
> <s_m_source_file>
AV-unprocessed.smi

> <i_m_source_file_index>
2040

> <i_lp_mmshare_version>
43012

> <i_f3d_flags>
0

> <s_epik_input>
W0NIM11jMVtjSF1jKG4objEpW0NIM10pW05IXUMoPU8pW05IXVtDQEhdKFtDSDNdKVtDQEBIXTJbQ0gyXVtDSDJdW0NIMl1PMg==

> <s_epik_cmdline>
J2VwaWtfcHl0aG9uJywgJy1waCcsICc3LjAnLCAnLXRuJywgJzgnLCAnLW1hJywgJzIwMCcsICctbWV0YWxfYmluZGluZycsICctaW1hZScsICc8aW5maWxlLm1hZT4nLCAnLW9tYWUnLCAnPG91dGZpbGUubWFlPic=

> <r_lp_tautomer_probability>
1

> <r_epik_Ionization_Penalty>
9.09088e-05

> <r_epik_Ionization_Penalty_Charging>
0

> <r_epik_Ionization_Penalty_Neutral>
9.09088e-05

> <r_epik_State_Penalty>
-0

> <r_epik_Charging_Adjusted_Penalty>
0

> <i_epik_Tot_Q>
0

> <i_epik_Tot_abs_Q>
0

> <r_epik_Metal_State_Penalty>
-0

> <b_epik_Metal_Only>
0

> <s_lp_Force_Field>
OPLS_2005

> <r_lp_Energy>
18.8843

> <b_lp_Chiralities_Consistent>
1

> <s_lp_Variant>
AV-unprocessed.smi:2040-1

> <Gold.Version>
5.8.1

> <Gold.Id.Protein>
6NUR|6NUR_protein|mol2

> <Gold.PLP.Fitness>
41.8994

> <Gold.PLP.PLP>
-36.9666

> <Gold.PLP.part.hbond>
-2.0000

> <Gold.PLP.part.metal>
0.0000

> <Gold.PLP.part.buried>
-4.6259

> <Gold.PLP.part.nonpolar>
-30.5153

> <Gold.PLP.part.repulsive>
0.2373

> <Gold.PLP.ligand.clash>
0.0000

> <Gold.PLP.ligand.torsion>
0.5388

> <Gold.PLP.Chemscore.Hbond>
2.0000

> <Gold.PLP.Chemscore.CHOScore>
0.0000

> <Gold.PLP.Chemscore.Metal>
0.0000

> <Gold.Chemscore.Hbonds>
donor molecule, donor type, donor heavy atom, donor atom, acceptor molecule, acceptor atom, score
      L1  H     5    23       P1  8028  0.99
      L1  H     8    24       P1  8028  1.00

> <Gold.PLP.Chemscore.Internal.Correction>
0.0104

> <Gold.Rescore>
     Score         DG    S(hbond)    S(metal)    S(lipo)     H(rot)  DE(clash)    DE(int)     intcor
     15.69     -17.48       1.89        0.00      75.51       1.23       0.11       1.68       ----

> <Gold.Chemscore.Fitness>
15.6903

> <Gold.Chemscore.DG>
-17.4791

> <Gold.Chemscore.ZeroCoef>
-5.4800

> <Gold.Chemscore.Hbond>
1.8931

> <Gold.Chemscore.Metal>
0.0000

> <Gold.Chemscore.Lipo>
75.5101

> <Gold.Chemscore.Internal_Hbond>
0.0000

> <Gold.Chemscore.DEClash>
0.1053

> <Gold.Chemscore.DEInternal>
1.6834

> <Gold.Chemscore.Rot>
1.2338

> <Gold.Chemscore.Internal.Correction>
   9.000000E+99

> <Gold.Chemscore.Hbonds>
donor molecule, donor type, donor heavy atom, donor atom, acceptor molecule, acceptor atom, score
      L1  H     5    23       P1  8028  0.92
      L1  H     8    24       P1  8028  0.98

> <Gold.Chemscore.Hbond.Weighted>
-6.3228

> <Gold.Chemscore.Metal.Weighted>
-0.0000

> <Gold.Chemscore.Lipo.Weighted>
-8.8347

> <Gold.Chemscore.Internal_Hbond.Weighted>
0.0000

> <Gold.Chemscore.DEClash.Weighted>
0.1053

> <Gold.Chemscore.DEInternal.Weighted>
1.6834

> <Gold.Chemscore.Rot.Weighted>
3.1584

> <Gold.Chemscore.Internal.Correction.Weighted>
   9.000000E+99

> <Gold.Protein.RotatedTorsions>
[ 6907 6896 6895 6894 ] final   63.29 input  -60.11 | X-H torsion
[ 7974 7965 7964 7962 ] final   29.90 input  175.53 | X-H torsion
[ 8008 7997 7996 7995 ] final -126.80 input   59.86 | X-H torsion
[ 10167 10162 10161 10158 ] final  -88.26 input  -65.29 | X-H torsion
[ 10718 10713 10712 10709 ] final  138.30 input   66.30 | X-H torsion
[ 10763 10752 10751 10750 ] final   87.85 input  -60.55 | X-H torsion
[ 11005 11000 10999 10996 ] final  117.64 input  -57.11 | X-H torsion

> <Gold.Protein.ActiveResidues>
 VAL166  LYS551  ARG553  GLY616  TRP617  ASP618  TYR619  PRO620  LYS621  CYS622 
 ASP623  PHE694  ASN695  SER759  ASP760  ASP761  ALA762  ILE779  LEU786  VAL792 
 PHE793  MET794  SER795  GLU796  ALA797  LYS798  CYS799  TRP800  GLU811  SER814 

> <Gold.Protein.RotatedAtoms>
  152.4241  134.5900  159.9971 H   0  0  0  0  0  0  0  0  0  0  0  0  # atno 6907 bound_to 6896
  151.6042  133.3348  159.3061 H   0  0  0  0  0  0  0  0  0  0  0  0  # atno 6908 bound_to 6896
  150.8130  134.7333  159.6770 H   0  0  0  0  0  0  0  0  0  0  0  0  # atno 6909 bound_to 6896
  146.1644  139.6859  142.9011 H   0  0  0  0  0  0  0  0  0  0  0  0  # atno 7974 bound_to 7965
  155.2356  140.0427  157.2968 H   0  0  0  0  0  0  0  0  0  0  0  0  # atno 8008 bound_to 7997
  154.5860  140.2414  155.7956 H   0  0  0  0  0  0  0  0  0  0  0  0  # atno 8009 bound_to 7997
  156.2227  140.2965  155.9999 H   0  0  0  0  0  0  0  0  0  0  0  0  # atno 8010 bound_to 7997
  140.3765  143.2769  151.9437 H   0  0  0  0  0  0  0  0  0  0  0  0  # atno 10167 bound_to 10162
  157.4268  131.1044  151.0294 H   0  0  0  0  0  0  0  0  0  0  0  0  # atno 10718 bound_to 10713
  153.1709  135.4528  154.9901 H   0  0  0  0  0  0  0  0  0  0  0  0  # atno 10763 bound_to 10752
  154.7965  135.3239  154.7657 H   0  0  0  0  0  0  0  0  0  0  0  0  # atno 10764 bound_to 10752
  153.8133  135.6953  153.4892 H   0  0  0  0  0  0  0  0  0  0  0  0  # atno 10765 bound_to 10752
  139.9081  134.9612  156.7382 H   0  0  0  0  0  0  0  0  0  0  0  0  # atno 11005 bound_to 11000
  145.4506  141.0428  143.2806 LP  0  0  0  0  0  0  0  0  0  0  0  0  # atno 17320 bound_to 7965
  144.8071  139.6030  143.7046 LP  0  0  0  0  0  0  0  0  0  0  0  0  # atno 17321 bound_to 7965
  139.4799  144.5859  151.7855 LP  0  0  0  0  0  0  0  0  0  0  0  0  # atno 17342 bound_to 10162
  140.4981  144.1210  150.5965 LP  0  0  0  0  0  0  0  0  0  0  0  0  # atno 17343 bound_to 10162
  157.1204  130.6059  149.5504 LP  0  0  0  0  0  0  0  0  0  0  0  0  # atno 17370 bound_to 10713
  155.9899  130.4948  150.7235 LP  0  0  0  0  0  0  0  0  0  0  0  0  # atno 17371 bound_to 10713
  140.6870  133.9423  155.7944 LP  0  0  0  0  0  0  0  0  0  0  0  0  # atno 17394 bound_to 11000
  141.0469  134.0541  157.3833 LP  0  0  0  0  0  0  0  0  0  0  0  0  # atno 17395 bound_to 11000

$$$$
