AV-unprocessed.smi:2698|AV-procd|sdf|10417|dock1
  -GOLD-   2272014453D 1   1.00000     0.00000
 Structure written by MMmdl.
 34 34  0  0  0  0  0  0  0  0  3 V2000
  151.9686  141.5647  159.4084 C   0  0  0  0  0  0  0  0  0  0  0  0
  151.8934  142.4671  158.1626 C   0  0  0  0  0  0  0  0  0  0  0  0
  151.9584  143.9472  158.5678 C   0  0  0  0  0  0  0  0  0  0  0  0
  150.6472  142.2000  157.2871 C   0  0  0  0  0  0  0  0  0  0  0  0
  150.6279  140.7981  156.6732 C   0  0  0  0  0  0  0  0  0  0  0  0
  150.6231  139.8060  157.4017 O   0  0  0  0  0  0  0  0  0  0  0  0
  150.6190  140.7382  155.3329 N   0  0  0  0  0  0  0  0  0  0  0  0
  150.6305  139.5225  154.5197 C   0  0  2  0  0  0  0  0  0  0  0  0
  149.3762  138.6773  154.8283 C   0  0  0  0  0  0  0  0  0  0  0  0
  148.1130  139.0878  154.1066 C   0  0  0  0  0  0  0  0  0  0  0  0
  147.0342  139.8584  154.5047 C   0  0  0  0  0  0  0  0  0  0  0  0
  146.1532  139.9259  153.4382 N   0  0  0  0  0  0  0  0  0  0  0  0
  146.7031  139.2348  152.4423 C   0  0  0  0  0  0  0  0  0  0  0  0
  147.8807  138.7196  152.7902 N   0  3  0  0  0  0  0  0  0  0  0  0
  151.9098  138.7321  154.8139 C   0  0  0  0  0  0  0  0  0  0  0  0
  152.0007  137.5822  154.3286 O   0  0  0  0  0  0  0  0  0  0  0  0
  152.7793  139.2953  155.5131 O   0  5  0  0  0  0  0  0  0  0  0  0
  145.2685  140.4130  153.4190 H   0  0  0  0  0  0  0  0  0  0  0  0
  151.0814  141.6777  160.0323 H   0  0  0  0  0  0  0  0  0  0  0  0
  152.8371  141.8127  160.0192 H   0  0  0  0  0  0  0  0  0  0  0  0
  152.0579  140.5117  159.1421 H   0  0  0  0  0  0  0  0  0  0  0  0
  152.7791  142.2633  157.5585 H   0  0  0  0  0  0  0  0  0  0  0  0
  151.0978  144.2299  159.1749 H   0  0  0  0  0  0  0  0  0  0  0  0
  151.9745  144.5951  157.6909 H   0  0  0  0  0  0  0  0  0  0  0  0
  152.8579  144.1593  159.1464 H   0  0  0  0  0  0  0  0  0  0  0  0
  149.7395  142.3371  157.8765 H   0  0  0  0  0  0  0  0  0  0  0  0
  150.5957  142.9332  156.4805 H   0  0  0  0  0  0  0  0  0  0  0  0
  150.5881  141.6104  154.8243 H   0  0  0  0  0  0  0  0  0  0  0  0
  150.6329  139.7683  153.4559 H   0  0  0  0  0  0  0  0  0  0  0  0
  149.5635  137.6317  154.5790 H   0  0  0  0  0  0  0  0  0  0  0  0
  149.1741  138.7016  155.9005 H   0  0  0  0  0  0  0  0  0  0  0  0
  146.8129  140.3585  155.4357 H   0  0  0  0  0  0  0  0  0  0  0  0
  146.2507  139.1094  151.4694 H   0  0  0  0  0  0  0  0  0  0  0  0
  148.4880  138.1595  152.2088 H   0  0  0  0  0  0  0  0  0  0  0  0
  1  2  1  0  0  0  0
  1 19  1  0  0  0  0
  1 20  1  0  0  0  0
  1 21  1  0  0  0  0
  2  3  1  0  0  0  0
  2  4  1  0  0  0  0
  2 22  1  0  0  0  0
  3 23  1  0  0  0  0
  3 24  1  0  0  0  0
  3 25  1  0  0  0  0
  4  5  1  0  0  0  0
  4 26  1  0  0  0  0
  4 27  1  0  0  0  0
  5  6  2  0  0  0  0
  5  7  1  0  0  0  0
  7  8  1  0  0  0  0
  7 28  1  0  0  0  0
  8  9  1  0  0  0  0
  8 15  1  0  0  0  0
  8 29  1  0  0  0  0
  9 10  1  0  0  0  0
  9 30  1  0  0  0  0
  9 31  1  0  0  0  0
 10 14  1  0  0  0  0
 10 11  2  0  0  0  0
 11 12  1  0  0  0  0
 11 32  1  0  0  0  0
 12 18  1  0  0  0  0
 12 13  1  0  0  0  0
 13 14  2  0  0  0  0
 13 33  1  0  0  0  0
 14 34  1  0  0  0  0
 15 16  2  0  0  0  0
 15 17  1  0  0  0  0
M  CHG  1  14   1
M  CHG  1  17  -1
M  END
> <s_m_source_file>
AV-unprocessed.smi

> <i_m_source_file_index>
2698

> <i_lp_mmshare_version>
43012

> <i_f3d_flags>
0

> <s_epik_input>
W0NIM11bQ0hdKFtDSDNdKVtDSDJdQyg9TylbTkhdW0NAQEhdKEMoPU8pW09IXSlbQ0gyXWMxW2NIXVtuSF1bY0hdbjE=

> <s_epik_cmdline>
J2VwaWtfcHl0aG9uJywgJy1waCcsICc3LjAnLCAnLXRuJywgJzgnLCAnLW1hJywgJzIwMCcsICctbWV0YWxfYmluZGluZycsICctaW1hZScsICc8aW5maWxlLm1hZT4nLCAnLW9tYWUnLCAnPG91dGZpbGUubWFlPic=

> <r_lp_tautomer_probability>
1

> <r_epik_Ionization_Penalty>
0.478676

> <r_epik_Ionization_Penalty_Charging>
5.56794e-05

> <r_epik_Ionization_Penalty_Neutral>
0.478621

> <r_epik_State_Penalty>
0.385221

> <r_epik_Charging_Adjusted_Penalty>
0.385276

> <i_epik_Tot_Q>
0

> <i_epik_Tot_abs_Q>
2

> <r_epik_Metal_State_Penalty>
0.800557

> <b_epik_Metal_Only>
0

> <s_lp_Force_Field>
OPLS_2005

> <r_lp_Energy>
0.68782

> <b_lp_Chiralities_Consistent>
1

> <s_lp_Variant>
AV-unprocessed.smi:2698-1

> <Gold.Version>
5.8.1

> <Gold.Id.Protein>
6NUR|6NUR_protein|mol2

> <Gold.PLP.Fitness>
54.3940

> <Gold.PLP.PLP>
-32.0302

> <Gold.PLP.part.hbond>
-5.0000

> <Gold.PLP.part.metal>
0.0000

> <Gold.PLP.part.buried>
-5.5639

> <Gold.PLP.part.nonpolar>
-23.0502

> <Gold.PLP.part.repulsive>
1.5193

> <Gold.PLP.ligand.clash>
0.0000

> <Gold.PLP.ligand.torsion>
0.7268

> <Gold.PLP.Chemscore.Hbond>
7.8880

> <Gold.PLP.Chemscore.CHOScore>
0.0000

> <Gold.PLP.Chemscore.Metal>
0.0000

> <Gold.Chemscore.Hbonds>
donor molecule, donor type, donor heavy atom, donor atom, acceptor molecule, acceptor atom, score
      L1  H    12    18       P1 10175  1.66
      L1  H    14    34       P1  7948  1.66
      P1  H  7997  8008       L1    17  2.00
      P1  H 10752 10765       L1    16  1.24

> <Gold.PLP.Chemscore.Internal.Correction>
0.1534

> <Gold.Rescore>
     Score         DG    S(hbond)    S(metal)    S(lipo)     H(rot)  DE(clash)    DE(int)     intcor
     13.28     -16.71       3.80        0.00      55.03       3.09       0.07       3.36       ----

> <Gold.Chemscore.Fitness>
13.2838

> <Gold.Chemscore.DG>
-16.7094

> <Gold.Chemscore.ZeroCoef>
-5.4800

> <Gold.Chemscore.Hbond>
3.8018

> <Gold.Chemscore.Metal>
0.0000

> <Gold.Chemscore.Lipo>
55.0295

> <Gold.Chemscore.Internal_Hbond>
0.0000

> <Gold.Chemscore.DEClash>
0.0672

> <Gold.Chemscore.DEInternal>
3.3583

> <Gold.Chemscore.Rot>
3.0887

> <Gold.Chemscore.Internal.Correction>
   9.000000E+99

> <Gold.Chemscore.Hbonds>
donor molecule, donor type, donor heavy atom, donor atom, acceptor molecule, acceptor atom, score
      L1  H    12    18       P1 10175  0.83
      L1  H    14    34       P1  7948  0.81
      P1  H  7997  8008       L1    17  1.00
      P1  H 10752 10765       L1    16  0.61

> <Gold.Chemscore.Hbond.Weighted>
-12.6979

> <Gold.Chemscore.Metal.Weighted>
-0.0000

> <Gold.Chemscore.Lipo.Weighted>
-6.4385

> <Gold.Chemscore.Internal_Hbond.Weighted>
0.0000

> <Gold.Chemscore.DEClash.Weighted>
0.0672

> <Gold.Chemscore.DEInternal.Weighted>
3.3583

> <Gold.Chemscore.Rot.Weighted>
7.9070

> <Gold.Chemscore.Internal.Correction.Weighted>
   9.000000E+99

> <Gold.Protein.RotatedTorsions>
[ 6907 6896 6895 6894 ] final   98.52 input  -60.11 | X-H torsion
[ 7974 7965 7964 7962 ] final   58.11 input  175.53 | X-H torsion
[ 8008 7997 7996 7995 ] final  -31.57 input   59.86 | X-H torsion
[ 10167 10162 10161 10158 ] final   26.09 input  -65.29 | X-H torsion
[ 10718 10713 10712 10709 ] final  132.75 input   66.30 | X-H torsion
[ 10763 10752 10751 10750 ] final  167.49 input  -60.55 | X-H torsion
[ 11005 11000 10999 10996 ] final  -35.86 input  -57.11 | X-H torsion

> <Gold.Protein.ActiveResidues>
 VAL166  LYS551  ARG553  GLY616  TRP617  ASP618  TYR619  PRO620  LYS621  CYS622 
 ASP623  PHE694  ASN695  SER759  ASP760  ASP761  ALA762  ILE779  LEU786  VAL792 
 PHE793  MET794  SER795  GLU796  ALA797  LYS798  CYS799  TRP800  GLU811  SER814 

> <Gold.Protein.RotatedAtoms>
  152.5408  134.0568  159.8134 H   0  0  0  0  0  0  0  0  0  0  0  0  # atno 6907 bound_to 6896
  151.0702  133.5465  159.2635 H   0  0  0  0  0  0  0  0  0  0  0  0  # atno 6908 bound_to 6896
  151.2331  135.0570  159.9049 H   0  0  0  0  0  0  0  0  0  0  0  0  # atno 6909 bound_to 6896
  145.9217  139.3735  143.0474 H   0  0  0  0  0  0  0  0  0  0  0  0  # atno 7974 bound_to 7965
  154.4209  140.1761  156.1588 H   0  0  0  0  0  0  0  0  0  0  0  0  # atno 8008 bound_to 7997
  155.9855  140.3373  155.6679 H   0  0  0  0  0  0  0  0  0  0  0  0  # atno 8009 bound_to 7997
  155.6443  140.0683  157.2599 H   0  0  0  0  0  0  0  0  0  0  0  0  # atno 8010 bound_to 7997
  140.5052  144.0250  150.6349 H   0  0  0  0  0  0  0  0  0  0  0  0  # atno 10167 bound_to 10162
  157.4840  131.1087  150.9644 H   0  0  0  0  0  0  0  0  0  0  0  0  # atno 10718 bound_to 10713
  154.3546  135.2753  155.2353 H   0  0  0  0  0  0  0  0  0  0  0  0  # atno 10763 bound_to 10752
  154.4568  135.5917  153.6232 H   0  0  0  0  0  0  0  0  0  0  0  0  # atno 10764 bound_to 10752
  152.9847  135.6055  154.3760 H   0  0  0  0  0  0  0  0  0  0  0  0  # atno 10765 bound_to 10752
  140.9830  133.7046  156.1716 H   0  0  0  0  0  0  0  0  0  0  0  0  # atno 11005 bound_to 11000
  145.8541  140.9512  143.0734 LP  0  0  0  0  0  0  0  0  0  0  0  0  # atno 17320 bound_to 7965
  144.6754  140.0445  143.7480 LP  0  0  0  0  0  0  0  0  0  0  0  0  # atno 17321 bound_to 7965
  140.3557  143.2937  152.0438 LP  0  0  0  0  0  0  0  0  0  0  0  0  # atno 17342 bound_to 10162
  139.4882  144.6340  151.7012 LP  0  0  0  0  0  0  0  0  0  0  0  0  # atno 17343 bound_to 10162
  157.0368  130.5733  149.5350 LP  0  0  0  0  0  0  0  0  0  0  0  0  # atno 17370 bound_to 10713
  156.0137  130.5230  150.8068 LP  0  0  0  0  0  0  0  0  0  0  0  0  # atno 17371 bound_to 10713
  140.7158  134.4412  157.5578 LP  0  0  0  0  0  0  0  0  0  0  0  0  # atno 17394 bound_to 11000
  139.8958  134.8674  156.2115 LP  0  0  0  0  0  0  0  0  0  0  0  0  # atno 17395 bound_to 11000

$$$$
