AV-unprocessed.smi:47|AV-procd|sdf|431|dock2
  -GOLD-   2262016303D 1   1.00000     0.00000
 Structure written by MMmdl.
 32 34  0  0  0  0  0  0  0  0  2 V2000
  145.2526  141.1454  154.5393 O   0  0  0  0  0  0  0  0  0  0  0  0
  146.6110  140.8079  154.7236 C   0  0  1  0  0  0  0  0  0  0  0  0
  147.1242  139.8645  153.6361 C   0  0  0  0  0  0  0  0  0  0  0  0
  148.5832  140.0732  153.6008 N   0  3  0  0  0  0  0  0  0  0  0  0
  148.8735  141.4201  154.1425 C   0  0  2  0  0  0  0  0  0  0  0  0
  149.8272  141.1670  155.2749 C   0  0  0  0  0  0  0  0  0  0  0  0
  150.3923  139.9691  155.4594 N   0  0  0  0  0  0  0  0  0  0  0  0
  151.2151  140.0166  156.5289 N   0  0  0  0  0  0  0  0  0  0  0  0
  151.0796  141.2837  156.9153 C   0  0  0  0  0  0  0  0  0  0  0  0
  151.8098  141.8260  158.0847 C   0  0  0  0  0  0  0  0  0  0  0  0
  151.8671  143.2202  158.3267 C   0  0  0  0  0  0  0  0  0  0  0  0
  152.5596  143.7398  159.4376 C   0  0  0  0  0  0  0  0  0  0  0  0
  153.2114  142.8711  160.3304 C   0  0  0  0  0  0  0  0  0  0  0  0
  153.1674  141.4836  160.1081 C   0  0  0  0  0  0  0  0  0  0  0  0
  152.4730  140.9687  158.9963 C   0  0  0  0  0  0  0  0  0  0  0  0
  150.2308  142.0611  156.1773 N   0  0  0  0  0  0  0  0  0  0  0  0
  147.5302  142.0199  154.5842 C   0  0  0  0  0  0  0  0  0  0  0  0
  146.7444  140.3505  155.7050 H   0  0  0  0  0  0  0  0  0  0  0  0
  149.3545  142.0397  153.3844 H   0  0  0  0  0  0  0  0  0  0  0  0
  144.9530  140.7667  153.7263 H   0  0  0  0  0  0  0  0  0  0  0  0
  146.8677  138.8214  153.8227 H   0  0  0  0  0  0  0  0  0  0  0  0
  146.7180  140.1459  152.6634 H   0  0  0  0  0  0  0  0  0  0  0  0
  149.0208  139.3966  154.2107 H   0  0  0  0  0  0  0  0  0  0  0  0
  151.3751  143.9120  157.6593 H   0  0  0  0  0  0  0  0  0  0  0  0
  152.5900  144.8065  159.6039 H   0  0  0  0  0  0  0  0  0  0  0  0
  153.7430  143.2677  161.1829 H   0  0  0  0  0  0  0  0  0  0  0  0
  153.6673  140.8118  160.7903 H   0  0  0  0  0  0  0  0  0  0  0  0
  152.4575  139.8987  158.8507 H   0  0  0  0  0  0  0  0  0  0  0  0
  147.1566  142.6645  153.7869 H   0  0  0  0  0  0  0  0  0  0  0  0
  147.5978  142.6244  155.4897 H   0  0  0  0  0  0  0  0  0  0  0  0
  148.9406  139.9682  152.6622 H   0  0  0  0  0  0  0  0  0  0  0  0
  150.2569  139.1333  154.9079 H   0  0  0  0  0  0  0  0  0  0  0  0
  1  2  1  0  0  0  0
  1 20  1  0  0  0  0
  2 18  1  0  0  0  0
  2 17  1  0  0  0  0
  2  3  1  0  0  0  0
  3  4  1  0  0  0  0
  3 21  1  0  0  0  0
  3 22  1  0  0  0  0
  4  5  1  0  0  0  0
  4 23  1  0  0  0  0
  4 31  1  0  0  0  0
  5 19  1  0  0  0  0
  5  6  1  0  0  0  0
  5 17  1  0  0  0  0
  6 16  2  0  0  0  0
  6  7  1  0  0  0  0
  7  8  1  0  0  0  0
  7 32  1  0  0  0  0
  8  9  2  0  0  0  0
  9 10  1  0  0  0  0
  9 16  1  0  0  0  0
 10 15  1  0  0  0  0
 10 11  2  0  0  0  0
 11 12  1  0  0  0  0
 11 24  1  0  0  0  0
 12 13  2  0  0  0  0
 12 25  1  0  0  0  0
 13 14  1  0  0  0  0
 13 26  1  0  0  0  0
 14 15  2  0  0  0  0
 14 27  1  0  0  0  0
 15 28  1  0  0  0  0
 17 29  1  0  0  0  0
 17 30  1  0  0  0  0
M  CHG  1   4   1
M  END
> <s_m_source_file>
AV-unprocessed.smi

> <i_m_source_file_index>
47

> <i_lp_mmshare_version>
43012

> <i_f3d_flags>
0

> <s_epik_input>
W09IXVtDQEhdMVtDSDJdW05IXVtDQEBIXShbQ0gyXTEpYzJuW25IXWMobjIpLWMzW2NIXVtjSF1bY0hdW2NIXVtjSF0z

> <s_epik_cmdline>
J2VwaWtfcHl0aG9uJywgJy1waCcsICc3LjAnLCAnLXRuJywgJzgnLCAnLW1hJywgJzIwMCcsICctbWV0YWxfYmluZGluZycsICctaW1hZScsICc8aW5maWxlLm1hZT4nLCAnLW9tYWUnLCAnPG91dGZpbGUubWFlPic=

> <r_epik_Ionization_Penalty>
1.14296

> <r_epik_Ionization_Penalty_Charging>
0.0688988

> <r_epik_Ionization_Penalty_Neutral>
1.07406

> <r_epik_State_Penalty>
1.72347

> <r_epik_Charging_Adjusted_Penalty>
1.79237

> <i_epik_Tot_Q>
1

> <i_epik_Tot_abs_Q>
1

> <r_epik_Metal_State_Penalty>
2.22085

> <b_epik_Metal_Only>
0

> <s_lp_Force_Field>
OPLS_2005

> <r_lp_Energy>
30.356

> <b_lp_Chiralities_Consistent>
1

> <s_lp_Variant>
AV-unprocessed.smi:47-9

> <Gold.Version>
5.8.1

> <Gold.Id.Protein>
6NUR|6NUR_protein|mol2

> <Gold.PLP.Fitness>
40.8244

> <Gold.PLP.PLP>
-35.3469

> <Gold.PLP.part.hbond>
-2.0000

> <Gold.PLP.part.metal>
0.0000

> <Gold.PLP.part.buried>
-3.5366

> <Gold.PLP.part.nonpolar>
-30.1026

> <Gold.PLP.part.repulsive>
0.6796

> <Gold.PLP.ligand.clash>
0.0000

> <Gold.PLP.ligand.torsion>
0.2106

> <Gold.PLP.Chemscore.Hbond>
1.9600

> <Gold.PLP.Chemscore.CHOScore>
0.0000

> <Gold.PLP.Chemscore.Metal>
0.0000

> <Gold.Chemscore.Hbonds>
donor molecule, donor type, donor heavy atom, donor atom, acceptor molecule, acceptor atom, score
      L1  H     1    20       P1 10175  1.00
      L1  H     4    31       P1  7957  1.00

> <Gold.PLP.Chemscore.Internal.Correction>
0.0187

> <Gold.Rescore>
     Score         DG    S(hbond)    S(metal)    S(lipo)     H(rot)  DE(clash)    DE(int)     intcor
     18.27     -18.59       1.94        0.00      89.42       1.50       0.13       0.19       ----

> <Gold.Chemscore.Fitness>
18.2750

> <Gold.Chemscore.DG>
-18.5944

> <Gold.Chemscore.ZeroCoef>
-5.4800

> <Gold.Chemscore.Hbond>
1.9413

> <Gold.Chemscore.Metal>
0.0000

> <Gold.Chemscore.Lipo>
89.4177

> <Gold.Chemscore.Internal_Hbond>
0.0000

> <Gold.Chemscore.DEClash>
0.1286

> <Gold.Chemscore.DEInternal>
0.1909

> <Gold.Chemscore.Rot>
1.4966

> <Gold.Chemscore.Internal.Correction>
   9.000000E+99

> <Gold.Chemscore.Hbonds>
donor molecule, donor type, donor heavy atom, donor atom, acceptor molecule, acceptor atom, score
      L1  H     1    20       P1 10175  0.90
      L1  H     4    31       P1  7957  1.00

> <Gold.Chemscore.Hbond.Weighted>
-6.4838

> <Gold.Chemscore.Metal.Weighted>
-0.0000

> <Gold.Chemscore.Lipo.Weighted>
-10.4619

> <Gold.Chemscore.Internal_Hbond.Weighted>
0.0000

> <Gold.Chemscore.DEClash.Weighted>
0.1286

> <Gold.Chemscore.DEInternal.Weighted>
0.1909

> <Gold.Chemscore.Rot.Weighted>
3.8312

> <Gold.Chemscore.Internal.Correction.Weighted>
   9.000000E+99

> <Gold.Protein.RotatedTorsions>
[ 6907 6896 6895 6894 ] final   72.71 input  -60.11 | X-H torsion
[ 7974 7965 7964 7962 ] final -170.72 input  175.53 | X-H torsion
[ 8008 7997 7996 7995 ] final   45.70 input   59.86 | X-H torsion
[ 10167 10162 10161 10158 ] final -103.53 input  -65.29 | X-H torsion
[ 10718 10713 10712 10709 ] final -127.08 input   66.30 | X-H torsion
[ 10763 10752 10751 10750 ] final    3.41 input  -60.55 | X-H torsion
[ 11005 11000 10999 10996 ] final  -18.21 input  -57.11 | X-H torsion

> <Gold.Protein.ActiveResidues>
 VAL166  LYS551  ARG553  GLY616  TRP617  ASP618  TYR619  PRO620  LYS621  CYS622 
 ASP623  PHE694  ASN695  SER759  ASP760  ASP761  ALA762  ILE779  LEU786  VAL792 
 PHE793  MET794  SER795  GLU796  ALA797  LYS798  CYS799  TRP800  GLU811  SER814 

> <Gold.Protein.RotatedAtoms>
  152.4883  134.4531  159.9580 H   0  0  0  0  0  0  0  0  0  0  0  0  # atno 6907 bound_to 6896
  151.4523  133.3608  159.2805 H   0  0  0  0  0  0  0  0  0  0  0  0  # atno 6908 bound_to 6896
  150.9013  134.8449  159.7422 H   0  0  0  0  0  0  0  0  0  0  0  0  # atno 6909 bound_to 6896
  144.7166  140.2030  143.6336 H   0  0  0  0  0  0  0  0  0  0  0  0  # atno 7974 bound_to 7965
  155.3402  140.3407  155.4239 H   0  0  0  0  0  0  0  0  0  0  0  0  # atno 8008 bound_to 7997
  156.1817  140.1666  156.8298 H   0  0  0  0  0  0  0  0  0  0  0  0  # atno 8009 bound_to 7997
  154.5341  140.0739  156.8379 H   0  0  0  0  0  0  0  0  0  0  0  0  # atno 8010 bound_to 7997
  140.2190  143.3690  152.0986 H   0  0  0  0  0  0  0  0  0  0  0  0  # atno 10167 bound_to 10162
  156.1824  130.6741  151.0322 H   0  0  0  0  0  0  0  0  0  0  0  0  # atno 10718 bound_to 10713
  153.2836  135.6942  153.7361 H   0  0  0  0  0  0  0  0  0  0  0  0  # atno 10763 bound_to 10752
  153.6339  135.3405  155.3051 H   0  0  0  0  0  0  0  0  0  0  0  0  # atno 10764 bound_to 10752
  154.8503  135.4415  154.1897 H   0  0  0  0  0  0  0  0  0  0  0  0  # atno 10765 bound_to 10752
  140.8246  133.8043  155.9694 H   0  0  0  0  0  0  0  0  0  0  0  0  # atno 11005 bound_to 11000
  145.8662  139.2248  143.1688 LP  0  0  0  0  0  0  0  0  0  0  0  0  # atno 17320 bound_to 7965
  146.0127  140.8420  142.9962 LP  0  0  0  0  0  0  0  0  0  0  0  0  # atno 17321 bound_to 7965
  139.5151  144.6958  151.5634 LP  0  0  0  0  0  0  0  0  0  0  0  0  # atno 17342 bound_to 10162
  140.6269  143.9152  150.6572 LP  0  0  0  0  0  0  0  0  0  0  0  0  # atno 17343 bound_to 10162
  157.6877  131.0820  150.7196 LP  0  0  0  0  0  0  0  0  0  0  0  0  # atno 17370 bound_to 10713
  156.7253  130.4693  149.5512 LP  0  0  0  0  0  0  0  0  0  0  0  0  # atno 17371 bound_to 10713
  140.9063  134.2316  157.5012 LP  0  0  0  0  0  0  0  0  0  0  0  0  # atno 17394 bound_to 11000
  139.8707  134.9730  156.4792 LP  0  0  0  0  0  0  0  0  0  0  0  0  # atno 17395 bound_to 11000

$$$$
