#       Name:                AV-unprocessed.smi:3338
#       Creating user name   scv26
#       Creation time:       Fri Mar 27 19:27:58 2020


#       File generated by GOLD software.
#

@<TRIPOS>MOLECULE
AV-unprocessed.smi:3338
    47    48     1
SMALL
NO_CHARGES


@<TRIPOS>ATOM
      1 ****        -5.3221  -0.6695   0.2778 C.3            1 S1                 0.0000
      2 ****        -4.2330   0.1446  -0.4349 C.3            1 S1                 0.0000
      3 ****        -4.6512   1.6146  -0.6050 C.3            1 S1                 0.0000
      4 ****        -3.5345   2.4086  -1.2944 C.3            1 S1                 0.0000
      5 ****        -2.2056   2.2616  -0.5364 C.3            1 S1                 0.0000
      6 ****        -1.8254   0.8324  -0.3916 N.4            1 S1                 1.0000
      7 ****        -0.4799   0.6703   0.2161 C.3            1 S1                 0.0000
      8 ****         0.1562  -0.6888  -0.1183 C.3            1 S1                 0.0000
      9 ****         1.4926  -0.7833   0.4516 N.am           1 S1                 0.0000
     10 ****         2.2983  -1.8475   0.3136 C.2            1 S1                 0.0000
     11 ****         1.9617  -2.8613  -0.2994 O.2            1 S1                 0.0000
     12 ****         3.6850  -1.7456   0.9734 C.3            1 S1                 0.0000
     13 ****         4.4344  -3.0927   1.0152 C.3            1 S1                 0.0000
     14 ****         4.4852  -0.7038   0.3391 N.pl3          1 S1                 0.0000
     15 ****         4.8228   0.5346   0.8461 C.2            1 S1                 0.0000
     16 ****         5.5607   1.1801  -0.1041 C.2            1 S1                 0.0000
     17 ****         5.6211   0.2477  -1.1765 C.2            1 S1                 0.0000
     18 ****         4.9725  -0.8744  -0.9121 N.2            1 S1                 0.0000
     19 ****        -2.8845   0.0552   0.3074 C.3            1 S1                 0.0000
     20 ****        -5.5051  -0.2917   1.2843 H              1 S1                 0.0000
     21 ****        -5.0369  -1.7184   0.3628 H              1 S1                 0.0000
     22 ****        -6.2645  -0.6290  -0.2692 H              1 S1                 0.0000
     23 ****        -4.0995  -0.2864  -1.4286 H              1 S1                 0.0000
     24 ****        -5.5696   1.6825  -1.1895 H              1 S1                 0.0000
     25 ****        -4.8681   2.0559   0.3689 H              1 S1                 0.0000
     26 ****        -3.4134   2.0572  -2.3200 H              1 S1                 0.0000
     27 ****        -3.8121   3.4611  -1.3591 H              1 S1                 0.0000
     28 ****        -1.4266   2.7991  -1.0786 H              1 S1                 0.0000
     29 ****        -2.2815   2.7212   0.4505 H              1 S1                 0.0000
     30 ****         0.1807   1.4516  -0.1631 H              1 S1                 0.0000
     31 ****        -0.5419   0.8164   1.2958 H              1 S1                 0.0000
     32 ****        -0.4436  -1.5110   0.2719 H              1 S1                 0.0000
     33 ****         0.2164  -0.8169  -1.2003 H              1 S1                 0.0000
     34 ****         1.8358   0.0127   0.9697 H              1 S1                 0.0000
     35 ****         3.5184  -1.4380   2.0070 H              1 S1                 0.0000
     36 ****         3.8582  -3.8490   1.5496 H              1 S1                 0.0000
     37 ****         5.3902  -2.9888   1.5294 H              1 S1                 0.0000
     38 ****         4.6389  -3.4775   0.0153 H              1 S1                 0.0000
     39 ****         4.5138   0.8504   1.8317 H              1 S1                 0.0000
     40 ****         5.9924   2.1681  -0.0428 H              1 S1                 0.0000
     41 ****         6.1112   0.3531  -2.1332 H              1 S1                 0.0000
     42 ****        -2.9906   0.4243   1.3291 H              1 S1                 0.0000
     43 ****        -2.5945  -0.9922   0.3815 H              1 S1                 0.0000
     44 ****        -1.7604   0.4642  -1.3300 H              1 S1                 0.0000
     45 ****         1.0555  -2.9142  -0.7189 LP             1 S1                 0.0000
     46 ****         2.5946  -3.6316  -0.3776 LP             1 S1                 0.0000
     47 ****         4.8657  -1.6723  -1.5054 LP             1 S1                 0.0000
@<TRIPOS>BOND
    1    1    2 1     
    2    1   20 1     
    3    1   21 1     
    4    1   22 1     
    5    2   19 1     
    6    2    3 1     
    7    2   23 1     
    8    3    4 1     
    9    3   24 1     
   10    3   25 1     
   11    4    5 1     
   12    4   26 1     
   13    4   27 1     
   14    5    6 1     
   15    5   28 1     
   16    5   29 1     
   17    6    7 1     
   18    6   19 1     
   19    6   44 1     
   20    7    8 1     
   21    7   30 1     
   22    7   31 1     
   23    8    9 1     
   24    8   32 1     
   25    8   33 1     
   26    9   10 am    
   27    9   34 1     
   28   10   11 2     
   29   10   12 1     
   30   12   13 1     
   31   12   14 1     
   32   12   35 1     
   33   13   36 1     
   34   13   37 1     
   35   13   38 1     
   36   14   18 1     
   37   14   15 1     
   38   15   16 2     
   39   15   39 1     
   40   16   17 1     
   41   16   40 1     
   42   17   18 2     
   43   17   41 1     
   44   19   42 1     
   45   19   43 1     
   46   11   45 1     
   47   11   46 1     
   48   18   47 1     
@<TRIPOS>SUBSTRUCTURE
      1 S1             1
@<TRIPOS>SET
LONE_PAIRS      STATIC     ATOMS    <user>   **** ""
3 45 46 47
DONOR_HYDROGENS      STATIC     ATOMS    <user>   **** ""
2 44 34
ATOM$BLUE        STATIC     ATOMS    COLORGROUP SYSTEM
3 45 46 47
ATOM$RED        STATIC     ATOMS    COLORGROUP SYSTEM
2 44 34
