AV-unprocessed.smi:2668|AV-procd|sdf|10339|dock6
  -GOLD-   2272014363D 1   1.00000     0.00000
 Structure written by MMmdl.
 54 55  0  0  0  0  0  0  0  0  3 V2000
  149.6137  134.2643  154.5260 C   0  0  0  0  0  0  0  0  0  0  0  0
  148.5318  135.2737  154.6440 N   0  3  0  0  0  0  0  0  0  0  0  0
  147.2076  134.6243  154.4773 C   0  0  0  0  0  0  0  0  0  0  0  0
  148.6336  136.1248  155.8751 C   0  0  2  0  0  0  0  0  0  0  0  0
  147.3268  136.8754  156.2144 C   0  0  0  0  0  0  0  0  0  0  0  0
  147.0006  137.9745  155.1857 C   0  0  0  0  0  0  0  0  0  0  0  0
  148.1110  138.9686  155.0727 N   0  3  2  0  0  0  0  0  0  0  0  0
  147.8134  140.1892  154.2354 C   0  0  0  0  0  0  0  0  0  0  0  0
  147.1827  139.8069  152.8758 C   0  0  0  0  0  0  0  0  0  0  0  0
  146.8180  141.1248  154.9658 C   0  0  0  0  0  0  0  0  0  0  0  0
  149.1108  141.0087  153.9608 C   0  0  0  0  0  0  0  0  0  0  0  0
  149.4673  141.9352  155.0369 N   0  0  0  0  0  0  0  0  0  0  0  0
  150.3570  141.6939  156.0106 C   0  0  0  0  0  0  0  0  0  0  0  0
  151.0078  140.6532  156.0913 O   0  0  0  0  0  0  0  0  0  0  0  0
  150.4218  142.7213  156.8745 N   0  0  0  0  0  0  0  0  0  0  0  0
  151.2506  142.8593  158.0206 C   0  0  0  0  0  0  0  0  0  0  0  0
  151.5380  144.1630  158.4758 C   0  0  0  0  0  0  0  0  0  0  0  0
  152.3711  144.3305  159.5983 C   0  0  0  0  0  0  0  0  0  0  0  0
  152.8951  143.1810  160.2204 C   0  0  0  0  0  0  0  0  0  0  0  0
  152.6437  141.9271  159.7892 N   0  0  0  0  0  0  0  0  0  0  0  0
  151.8417  141.7733  158.7136 C   0  0  0  0  0  0  0  0  0  0  0  0
  149.4019  138.2872  154.7543 C   0  0  0  0  0  0  0  0  0  0  0  0
  149.7383  137.2014  155.7917 C   0  0  0  0  0  0  0  0  0  0  0  0
  149.6604  133.6329  155.4142 H   0  0  0  0  0  0  0  0  0  0  0  0
  150.5866  134.7301  154.3765 H   0  0  0  0  0  0  0  0  0  0  0  0
  149.4536  133.6175  153.6625 H   0  0  0  0  0  0  0  0  0  0  0  0
  146.9459  134.0349  155.3570 H   0  0  0  0  0  0  0  0  0  0  0  0
  147.2043  133.9583  153.6137 H   0  0  0  0  0  0  0  0  0  0  0  0
  146.4189  135.3534  154.2980 H   0  0  0  0  0  0  0  0  0  0  0  0
  148.8700  135.4579  156.7058 H   0  0  0  0  0  0  0  0  0  0  0  0
  146.4829  136.1974  156.3309 H   0  0  0  0  0  0  0  0  0  0  0  0
  147.4371  137.3441  157.1936 H   0  0  0  0  0  0  0  0  0  0  0  0
  146.7963  137.5258  154.2136 H   0  0  0  0  0  0  0  0  0  0  0  0
  146.0784  138.4485  155.5156 H   0  0  0  0  0  0  0  0  0  0  0  0
  146.9444  140.6991  152.2953 H   0  0  0  0  0  0  0  0  0  0  0  0
  146.2531  139.2506  152.9952 H   0  0  0  0  0  0  0  0  0  0  0  0
  147.8525  139.2056  152.2614 H   0  0  0  0  0  0  0  0  0  0  0  0
  146.7458  142.0927  154.4680 H   0  0  0  0  0  0  0  0  0  0  0  0
  147.1177  141.3119  155.9973 H   0  0  0  0  0  0  0  0  0  0  0  0
  145.8052  140.7219  154.9813 H   0  0  0  0  0  0  0  0  0  0  0  0
  149.9615  140.3422  153.8198 H   0  0  0  0  0  0  0  0  0  0  0  0
  149.0317  141.5434  153.0123 H   0  0  0  0  0  0  0  0  0  0  0  0
  148.9659  142.8109  155.0670 H   0  0  0  0  0  0  0  0  0  0  0  0
  149.7598  143.4695  156.7292 H   0  0  0  0  0  0  0  0  0  0  0  0
  151.1229  145.0262  157.9762 H   0  0  0  0  0  0  0  0  0  0  0  0
  152.6032  145.3163  159.9734 H   0  0  0  0  0  0  0  0  0  0  0  0
  153.5378  143.2714  161.0836 H   0  0  0  0  0  0  0  0  0  0  0  0
  151.6995  140.7501  158.4027 H   0  0  0  0  0  0  0  0  0  0  0  0
  149.3570  137.8404  153.7611 H   0  0  0  0  0  0  0  0  0  0  0  0
  150.2278  138.9953  154.7420 H   0  0  0  0  0  0  0  0  0  0  0  0
  149.8432  137.6765  156.7685 H   0  0  0  0  0  0  0  0  0  0  0  0
  150.7174  136.7693  155.5910 H   0  0  0  0  0  0  0  0  0  0  0  0
  148.6402  135.8893  153.8507 H   0  0  0  0  0  0  0  0  0  0  0  0
  148.2262  139.3340  156.0076 H   0  0  0  0  0  0  0  0  0  0  0  0
  1  2  1  0  0  0  0
  1 24  1  0  0  0  0
  1 25  1  0  0  0  0
  1 26  1  0  0  0  0
  2  3  1  0  0  0  0
  2  4  1  0  0  0  0
  2 53  1  0  0  0  0
  3 27  1  0  0  0  0
  3 28  1  0  0  0  0
  3 29  1  0  0  0  0
  4 23  1  0  0  0  0
  4  5  1  0  0  0  0
  4 30  1  0  0  0  0
  5  6  1  0  0  0  0
  5 31  1  0  0  0  0
  5 32  1  0  0  0  0
  6  7  1  0  0  0  0
  6 33  1  0  0  0  0
  6 34  1  0  0  0  0
  7  8  1  0  0  0  0
  7 22  1  0  0  0  0
  7 54  1  0  0  0  0
  8  9  1  0  0  0  0
  8 10  1  0  0  0  0
  8 11  1  0  0  0  0
  9 35  1  0  0  0  0
  9 36  1  0  0  0  0
  9 37  1  0  0  0  0
 10 38  1  0  0  0  0
 10 39  1  0  0  0  0
 10 40  1  0  0  0  0
 11 12  1  0  0  0  0
 11 41  1  0  0  0  0
 11 42  1  0  0  0  0
 12 13  1  0  0  0  0
 12 43  1  0  0  0  0
 13 14  2  0  0  0  0
 13 15  1  0  0  0  0
 15 16  1  0  0  0  0
 15 44  1  0  0  0  0
 16 21  1  0  0  0  0
 16 17  2  0  0  0  0
 17 18  1  0  0  0  0
 17 45  1  0  0  0  0
 18 19  2  0  0  0  0
 18 46  1  0  0  0  0
 19 20  1  0  0  0  0
 19 47  1  0  0  0  0
 20 21  2  0  0  0  0
 21 48  1  0  0  0  0
 22 23  1  0  0  0  0
 22 49  1  0  0  0  0
 22 50  1  0  0  0  0
 23 51  1  0  0  0  0
 23 52  1  0  0  0  0
M  CHG  1   2   1
M  CHG  1   7   1
M  END
> <s_m_source_file>
AV-unprocessed.smi

> <i_m_source_file_index>
2668

> <i_lp_mmshare_version>
43012

> <i_f3d_flags>
0

> <s_epik_input>
W0NIM11OKFtDSDNdKVtDSF0xW0NIMl1bQ0gyXU4oW0NIMl1bQ0gyXTEpQyhbQ0gzXSkoW0NIM10pW0NIMl1bTkhdQyg9TylbTkhdYzJbY0hdW2NIXVtjSF1uW2NIXTI=

> <s_epik_cmdline>
J2VwaWtfcHl0aG9uJywgJy1waCcsICc3LjAnLCAnLXRuJywgJzgnLCAnLW1hJywgJzIwMCcsICctbWV0YWxfYmluZGluZycsICctaW1hZScsICc8aW5maWxlLm1hZT4nLCAnLW9tYWUnLCAnPG91dGZpbGUubWFlPic=

> <r_epik_Ionization_Penalty>
0.210461

> <r_epik_Ionization_Penalty_Charging>
0.206231

> <r_epik_Ionization_Penalty_Neutral>
0.00422959

> <r_epik_State_Penalty>
0.176025

> <r_epik_Charging_Adjusted_Penalty>
0.382256

> <i_epik_Tot_Q>
2

> <i_epik_Tot_abs_Q>
2

> <r_epik_Metal_State_Penalty>
0.176152

> <b_epik_Metal_Only>
0

> <s_lp_Force_Field>
OPLS_2005

> <r_lp_Energy>
56.664

> <b_lp_Chiralities_Consistent>
1

> <s_lp_Variant>
AV-unprocessed.smi:2668-2

> <Gold.Version>
5.8.1

> <Gold.Id.Protein>
6NUR|6NUR_protein|mol2

> <Gold.PLP.Fitness>
45.3567

> <Gold.PLP.PLP>
-36.2732

> <Gold.PLP.part.hbond>
-3.0000

> <Gold.PLP.part.metal>
0.0000

> <Gold.PLP.part.buried>
-2.7198

> <Gold.PLP.part.nonpolar>
-30.2499

> <Gold.PLP.part.repulsive>
0.2678

> <Gold.PLP.ligand.clash>
0.0000

> <Gold.PLP.ligand.torsion>
1.5002

> <Gold.PLP.Chemscore.Hbond>
3.9760

> <Gold.PLP.Chemscore.CHOScore>
0.0000

> <Gold.PLP.Chemscore.Metal>
0.0000

> <Gold.Chemscore.Hbonds>
donor molecule, donor type, donor heavy atom, donor atom, acceptor molecule, acceptor atom, score
      L1  H     2    53       P1  7948  2.00
      L1  H    12    43       P1  8028  0.99
      L1  H    15    44       P1  8028  1.00

> <Gold.PLP.Chemscore.Internal.Correction>
0.1560

> <Gold.Rescore>
     Score         DG    S(hbond)    S(metal)    S(lipo)     H(rot)  DE(clash)    DE(int)     intcor
     19.63     -22.61       2.81        0.00     103.00       1.69       0.38       2.60       ----

> <Gold.Chemscore.Fitness>
19.6341

> <Gold.Chemscore.DG>
-22.6126

> <Gold.Chemscore.ZeroCoef>
-5.4800

> <Gold.Chemscore.Hbond>
2.8148

> <Gold.Chemscore.Metal>
0.0000

> <Gold.Chemscore.Lipo>
103.0040

> <Gold.Chemscore.Internal_Hbond>
0.0000

> <Gold.Chemscore.DEClash>
0.3796

> <Gold.Chemscore.DEInternal>
2.5988

> <Gold.Chemscore.Rot>
1.6877

> <Gold.Chemscore.Internal.Correction>
   9.000000E+99

> <Gold.Chemscore.Hbonds>
donor molecule, donor type, donor heavy atom, donor atom, acceptor molecule, acceptor atom, score
      L1  H     2    53       P1  7948  0.89
      L1  H    12    43       P1  8028  0.92
      L1  H    15    44       P1  8028  0.97

> <Gold.Chemscore.Hbond.Weighted>
-9.4016

> <Gold.Chemscore.Metal.Weighted>
-0.0000

> <Gold.Chemscore.Lipo.Weighted>
-12.0515

> <Gold.Chemscore.Internal_Hbond.Weighted>
0.0000

> <Gold.Chemscore.DEClash.Weighted>
0.3796

> <Gold.Chemscore.DEInternal.Weighted>
2.5988

> <Gold.Chemscore.Rot.Weighted>
4.3205

> <Gold.Chemscore.Internal.Correction.Weighted>
   9.000000E+99

> <Gold.Protein.RotatedTorsions>
[ 6907 6896 6895 6894 ] final  140.82 input  -60.11 | X-H torsion
[ 7974 7965 7964 7962 ] final   29.99 input  175.53 | X-H torsion
[ 8008 7997 7996 7995 ] final  152.75 input   59.86 | X-H torsion
[ 10167 10162 10161 10158 ] final -175.81 input  -65.29 | X-H torsion
[ 10718 10713 10712 10709 ] final  -18.45 input   66.30 | X-H torsion
[ 10763 10752 10751 10750 ] final  -31.78 input  -60.55 | X-H torsion
[ 11005 11000 10999 10996 ] final  149.60 input  -57.11 | X-H torsion

> <Gold.Protein.ActiveResidues>
 VAL166  LYS551  ARG553  GLY616  TRP617  ASP618  TYR619  PRO620  LYS621  CYS622 
 ASP623  PHE694  ASN695  SER759  ASP760  ASP761  ALA762  ILE779  LEU786  VAL792 
 PHE793  MET794  SER795  GLU796  ALA797  LYS798  CYS799  TRP800  GLU811  SER814 

> <Gold.Protein.RotatedAtoms>
  152.2384  133.5115  159.5255 H   0  0  0  0  0  0  0  0  0  0  0  0  # atno 6907 bound_to 6896
  150.7057  134.1122  159.4013 H   0  0  0  0  0  0  0  0  0  0  0  0  # atno 6908 bound_to 6896
  151.9043  135.0365  160.0560 H   0  0  0  0  0  0  0  0  0  0  0  0  # atno 6909 bound_to 6896
  146.1638  139.6848  142.9015 H   0  0  0  0  0  0  0  0  0  0  0  0  # atno 7974 bound_to 7965
  156.2614  140.2012  156.6383 H   0  0  0  0  0  0  0  0  0  0  0  0  # atno 8008 bound_to 7997
  154.6629  140.0558  157.0107 H   0  0  0  0  0  0  0  0  0  0  0  0  # atno 8009 bound_to 7997
  155.1249  140.3228  155.4491 H   0  0  0  0  0  0  0  0  0  0  0  0  # atno 8010 bound_to 7997
  139.5562  144.1984  152.1162 H   0  0  0  0  0  0  0  0  0  0  0  0  # atno 10167 bound_to 10162
  156.5594  130.4722  149.6414 H   0  0  0  0  0  0  0  0  0  0  0  0  # atno 10718 bound_to 10713
  153.8029  135.6888  153.4853 H   0  0  0  0  0  0  0  0  0  0  0  0  # atno 10763 bound_to 10752
  153.1677  135.4555  154.9858 H   0  0  0  0  0  0  0  0  0  0  0  0  # atno 10764 bound_to 10752
  154.7999  135.3333  154.7516 H   0  0  0  0  0  0  0  0  0  0  0  0  # atno 10765 bound_to 10752
  140.1059  134.8954  157.1864 H   0  0  0  0  0  0  0  0  0  0  0  0  # atno 11005 bound_to 11000
  145.4519  141.0428  143.2800 LP  0  0  0  0  0  0  0  0  0  0  0  0  # atno 17320 bound_to 7965
  144.8064  139.6043  143.7049 LP  0  0  0  0  0  0  0  0  0  0  0  0  # atno 17321 bound_to 7965
  140.1489  144.5133  150.6699 LP  0  0  0  0  0  0  0  0  0  0  0  0  # atno 17342 bound_to 10162
  140.6835  143.2338  151.5323 LP  0  0  0  0  0  0  0  0  0  0  0  0  # atno 17343 bound_to 10162
  156.2812  130.7072  151.1896 LP  0  0  0  0  0  0  0  0  0  0  0  0  # atno 17370 bound_to 10713
  157.7371  131.0555  150.5372 LP  0  0  0  0  0  0  0  0  0  0  0  0  # atno 17371 bound_to 10713
  140.3157  134.2973  155.7257 LP  0  0  0  0  0  0  0  0  0  0  0  0  # atno 17394 bound_to 11000
  141.2118  133.7678  156.9839 LP  0  0  0  0  0  0  0  0  0  0  0  0  # atno 17395 bound_to 11000

$$$$
