#       Name:                AV-unprocessed.smi:877
#       Creating user name   scv26
#       Creation time:       Fri Mar 27 01:52:22 2020


#       File generated by GOLD software.
#

@<TRIPOS>MOLECULE
AV-unprocessed.smi:877
    50    52     1
SMALL
NO_CHARGES


@<TRIPOS>ATOM
      1 ****        -3.0659   5.4865  -1.6996 C.3            1 S1                 0.0000
      2 ****        -2.2219   4.4467  -2.1726 O.3            1 S1                 0.0000
      3 ****        -1.5530   3.6807  -1.2422 C.ar           1 S1                 0.0000
      4 ****        -1.6617   3.8546   0.1606 C.ar           1 S1                 0.0000
      5 ****        -0.9403   3.0249   1.0409 C.ar           1 S1                 0.0000
      6 ****        -0.1010   2.0110   0.5366 C.ar           1 S1                 0.0000
      7 ****         0.6739   1.1136   1.4850 C.3            1 S1                 0.0000
      8 ****         0.2256  -0.3124   1.4167 C.2            1 S1                 0.0000
      9 ****        -1.0512  -0.7510   1.6055 N.pl3          1 S1                 1.0000
     10 ****        -1.1053  -2.1355   1.4497 C.ar           1 S1                 0.0000
     11 ****        -2.1768  -3.0184   1.5401 C.ar           1 S1                 0.0000
     12 ****        -1.8940  -4.3816   1.3175 C.ar           1 S1                 0.0000
     13 ****        -0.5881  -4.8200   1.0181 C.ar           1 S1                 0.0000
     14 ****         0.4904  -3.9152   0.9306 C.ar           1 S1                 0.0000
     15 ****         0.2042  -2.5676   1.1547 C.ar           1 S1                 0.0000
     16 ****         0.9937  -1.4091   1.1495 N.pl3          1 S1                 0.0000
     17 ****         2.4384  -1.5113   0.8809 C.3            1 S1                 0.0000
     18 ****         2.8266  -1.0959  -0.5533 C.3            1 S1                 0.0000
     19 ****         4.2143  -1.3189  -0.6905 O.3            1 S1                 0.0000
     20 ****         2.0902  -1.8740  -1.6610 C.3            1 S1                 0.0000
     21 ****         2.3155  -1.2630  -2.9140 O.3            1 S1                 0.0000
     22 ****         0.0105   1.8341  -0.8576 C.ar           1 S1                 0.0000
     23 ****        -0.7113   2.6635  -1.7364 C.ar           1 S1                 0.0000
     24 ****        -3.5156   5.9990  -2.5499 H              1 S1                 0.0000
     25 ****        -2.5044   6.2269  -1.1278 H              1 S1                 0.0000
     26 ****        -3.8772   5.0935  -1.0851 H              1 S1                 0.0000
     27 ****        -2.2929   4.6189   0.5876 H              1 S1                 0.0000
     28 ****        -1.0360   3.1724   2.1068 H              1 S1                 0.0000
     29 ****         1.7347   1.1860   1.2468 H              1 S1                 0.0000
     30 ****         0.5632   1.4658   2.5111 H              1 S1                 0.0000
     31 ****        -3.1785  -2.6839   1.7669 H              1 S1                 0.0000
     32 ****        -2.6945  -5.1049   1.3760 H              1 S1                 0.0000
     33 ****        -0.4094  -5.8724   0.8508 H              1 S1                 0.0000
     34 ****         1.4832  -4.2683   0.6952 H              1 S1                 0.0000
     35 ****         2.9468  -0.8721   1.6038 H              1 S1                 0.0000
     36 ****         2.7764  -2.5243   1.0967 H              1 S1                 0.0000
     37 ****         2.6409  -0.0286  -0.6736 H              1 S1                 0.0000
     38 ****         4.4746  -1.0428  -1.5565 H              1 S1                 0.0000
     39 ****         2.4039  -2.9181  -1.6894 H              1 S1                 0.0000
     40 ****         1.0133  -1.8653  -1.4952 H              1 S1                 0.0000
     41 ****         1.8615  -1.7596  -3.5779 H              1 S1                 0.0000
     42 ****         0.6468   1.0600  -1.2597 H              1 S1                 0.0000
     43 ****        -0.6175   2.5171  -2.8025 H              1 S1                 0.0000
     44 ****        -1.8302  -0.1409   1.8180 H              1 S1                 0.0000
     45 ****        -1.5323   4.8684  -2.7614 LP             1 S1                 0.0000
     46 ****        -2.7894   3.8271  -2.7149 LP             1 S1                 0.0000
     47 ****         4.4140  -2.2915  -0.5712 LP             1 S1                 0.0000
     48 ****         4.7115  -0.7897  -0.0030 LP             1 S1                 0.0000
     49 ****         3.2955  -1.2527  -3.1124 LP             1 S1                 0.0000
     50 ****         1.9686  -0.3252  -2.8987 LP             1 S1                 0.0000
@<TRIPOS>BOND
    1    1    2 1     
    2    1   24 1     
    3    1   25 1     
    4    1   26 1     
    5    2    3 1     
    6    3   23 ar    
    7    3    4 ar    
    8    4    5 ar    
    9    4   27 1     
   10    5    6 ar    
   11    5   28 1     
   12    6    7 1     
   13    6   22 ar    
   14    7    8 1     
   15    7   29 1     
   16    7   30 1     
   17    8   16 1     
   18    8    9 2     
   19    9   10 1     
   20    9   44 1     
   21   10   15 ar    
   22   10   11 ar    
   23   11   12 ar    
   24   11   31 1     
   25   12   13 ar    
   26   12   32 1     
   27   13   14 ar    
   28   13   33 1     
   29   14   15 ar    
   30   14   34 1     
   31   15   16 1     
   32   16   17 1     
   33   17   18 1     
   34   17   35 1     
   35   17   36 1     
   36   18   19 1     
   37   18   20 1     
   38   18   37 1     
   39   19   38 1     
   40   20   21 1     
   41   20   39 1     
   42   20   40 1     
   43   21   41 1     
   44   22   23 ar    
   45   22   42 1     
   46   23   43 1     
   47    2   45 1     
   48    2   46 1     
   49   19   47 1     
   50   19   48 1     
   51   21   49 1     
   52   21   50 1     
@<TRIPOS>SUBSTRUCTURE
      1 S1             1
@<TRIPOS>SET
LONE_PAIRS      STATIC     ATOMS    <user>   **** ""
6 45 46 47 48 49 50
DONOR_HYDROGENS      STATIC     ATOMS    <user>   **** ""
3 44 38 41
ATOM$BLUE        STATIC     ATOMS    COLORGROUP SYSTEM
6 45 46 47 48 49 50
ATOM$RED        STATIC     ATOMS    COLORGROUP SYSTEM
3 44 38 41
