#       Name:                AV-unprocessed.smi:2768
#       Creating user name   scv26
#       Creation time:       Fri Mar 27 15:10:29 2020


#       File generated by GOLD software.
#

@<TRIPOS>MOLECULE
AV-unprocessed.smi:2768
    40    41     1
SMALL
NO_CHARGES


@<TRIPOS>ATOM
      1 ****         0.3219   2.1889   0.2077 O.2            1 S1                 0.0000
      2 ****         0.7877   1.1379   0.6636 C.2            1 S1                 0.0000
      3 ****         0.1385   0.0284   1.1219 N.pl3          1 S1                -1.0000
      4 ****        -1.3192  -0.1220   1.1485 C.3            1 S1                 0.0000
      5 ****        -1.7298  -1.1560   2.2266 C.3            1 S1                 0.0000
      6 ****        -3.2519  -1.4460   2.2473 C.3            1 S1                 0.0000
      7 ****        -3.7878  -1.9102   0.8767 C.3            1 S1                 0.0000
      8 ****        -3.3929  -0.8885  -0.2136 C.3            1 S1                 0.0000
      9 ****        -1.8733  -0.5679  -0.2376 C.3            1 S1                 0.0000
     10 ****        -1.1756  -1.7034  -0.7173 O.3            1 S1                 0.0000
     11 ****         2.3266   1.0133   0.7527 C.3            1 S1                 0.0000
     12 ****         2.7705   1.9998   1.5344 F              1 S1                 0.0000
     13 ****         2.6962  -0.1425   1.3178 F              1 S1                 0.0000
     14 ****         2.9542   1.1171  -0.6368 C.ar           1 S1                 0.0000
     15 ****         3.5660   2.3144  -1.0757 C.ar           1 S1                 0.0000
     16 ****         4.1252   2.3546  -2.3670 C.ar           1 S1                 0.0000
     17 ****         4.0546   1.2037  -3.1740 C.ar           1 S1                 0.0000
     18 ****         3.4228   0.0587  -2.6508 C.ar           1 S1                 0.0000
     19 ****         2.8848   0.0092  -1.4140 N.ar           1 S1                 0.0000
     20 ****        -1.8065   0.8188   1.4103 H              1 S1                 0.0000
     21 ****        -1.6999   0.2319  -0.9588 H              1 S1                 0.0000
     22 ****        -1.1969  -2.0933   2.0596 H              1 S1                 0.0000
     23 ****        -1.4178  -0.8039   3.2107 H              1 S1                 0.0000
     24 ****        -3.4637  -2.2104   2.9952 H              1 S1                 0.0000
     25 ****        -3.7987  -0.5573   2.5691 H              1 S1                 0.0000
     26 ****        -3.3722  -2.8887   0.6329 H              1 S1                 0.0000
     27 ****        -4.8707  -2.0296   0.9121 H              1 S1                 0.0000
     28 ****        -3.7088  -1.2566  -1.1904 H              1 S1                 0.0000
     29 ****        -3.9574   0.0323  -0.0528 H              1 S1                 0.0000
     30 ****        -0.2511  -1.5308  -0.6141 H              1 S1                 0.0000
     31 ****         3.6035   3.1878  -0.4419 H              1 S1                 0.0000
     32 ****         4.5997   3.2531  -2.7325 H              1 S1                 0.0000
     33 ****         4.4725   1.1992  -4.1696 H              1 S1                 0.0000
     34 ****         3.3488  -0.8423  -3.2416 H              1 S1                 0.0000
     35 ****        -0.6685   2.3078   0.1373 LP             1 S1                 0.0000
     36 ****         0.9357   2.9199  -0.0905 LP             1 S1                 0.0000
     37 ****         0.6933  -0.7311   1.4616 LP             1 S1                 0.0000
     38 ****        -1.3898  -1.8539  -1.6824 LP             1 S1                 0.0000
     39 ****        -1.4337  -2.5120  -0.1885 LP             1 S1                 0.0000
     40 ****         2.4458  -0.8246  -1.0793 LP             1 S1                 0.0000
@<TRIPOS>BOND
    1    1    2 2     
    2    2    3 1     
    3    2   11 1     
    4    3    4 1     
    5    4   20 1     
    6    4    9 1     
    7    4    5 1     
    8    5    6 1     
    9    5   22 1     
   10    5   23 1     
   11    6    7 1     
   12    6   24 1     
   13    6   25 1     
   14    7    8 1     
   15    7   26 1     
   16    7   27 1     
   17    8    9 1     
   18    8   28 1     
   19    8   29 1     
   20    9   21 1     
   21    9   10 1     
   22   10   30 1     
   23   11   12 1     
   24   11   13 1     
   25   11   14 1     
   26   14   19 ar    
   27   14   15 ar    
   28   15   16 ar    
   29   15   31 1     
   30   16   17 ar    
   31   16   32 1     
   32   17   18 ar    
   33   17   33 1     
   34   18   19 ar    
   35   18   34 1     
   36    1   35 1     
   37    1   36 1     
   38    3   37 1     
   39   10   38 1     
   40   10   39 1     
   41   19   40 1     
@<TRIPOS>SUBSTRUCTURE
      1 S1             1
@<TRIPOS>SET
LONE_PAIRS      STATIC     ATOMS    <user>   **** ""
6 35 36 37 38 39 40
DONOR_HYDROGENS      STATIC     ATOMS    <user>   **** ""
1 30
ATOM$BLUE        STATIC     ATOMS    COLORGROUP SYSTEM
6 35 36 37 38 39 40
ATOM$RED        STATIC     ATOMS    COLORGROUP SYSTEM
1 30
