AV-unprocessed.smi:2148|AV-procd|sdf|8751|dock3
  -GOLD-   2272011523D 1   1.00000     0.00000
 Structure written by MMmdl.
 44 45  0  0  0  0  0  0  0  0  1 V2000
  145.4544  135.9554  151.6788 C   0  0  0  0  0  0  0  0  0  0  0  0
  145.3849  137.2662  152.9280 S   0  0  0  0  0  0  0  0  0  0  0  0
  146.9904  138.0714  152.6527 C   0  0  1  0  0  0  0  0  0  0  0  0
  146.9240  139.0036  151.4314 C   0  0  0  0  0  0  0  0  0  0  0  0
  147.4725  138.7941  153.9171 C   0  0  0  0  0  0  0  0  0  0  0  0
  146.7792  138.7840  154.9343 O   0  0  0  0  0  0  0  0  0  0  0  0
  148.6768  139.3882  153.8203 N   0  0  0  0  0  0  0  0  0  0  0  0
  149.3857  140.1360  154.7998 C   0  0  0  0  0  0  0  0  0  0  0  0
  150.7888  140.0921  154.9818 C   0  0  0  0  0  0  0  0  0  0  0  0
  151.3673  140.8664  156.0055 C   0  0  0  0  0  0  0  0  0  0  0  0
  150.5253  141.6559  156.8216 C   0  0  0  0  0  0  0  0  0  0  0  0
  151.0380  142.4458  157.8590 N   0  0  0  0  0  0  0  0  0  0  0  0
  151.6585  143.6788  157.3932 C   0  0  0  0  0  0  0  0  0  0  0  0
  152.0688  144.5668  158.5853 C   0  0  1  0  0  0  0  0  0  0  0  0
  150.8792  145.2612  159.2722 C   0  0  0  0  0  0  0  0  0  0  0  0
  152.8589  143.8132  159.5097 O   0  0  0  0  0  0  0  0  0  0  0  0
  152.2439  142.6163  159.9882 C   0  0  2  0  0  0  0  0  0  0  0  0
  153.2204  141.9299  160.9484 C   0  0  0  0  0  0  0  0  0  0  0  0
  151.8816  141.7153  158.7941 C   0  0  0  0  0  0  0  0  0  0  0  0
  149.1857  141.6956  156.6580 N   0  0  0  0  0  0  0  0  0  0  0  0
  148.6375  140.9498  155.6756 C   0  0  0  0  0  0  0  0  0  0  0  0
  144.5432  135.3581  151.7101 H   0  0  0  0  0  0  0  0  0  0  0  0
  146.3049  135.2982  151.8619 H   0  0  0  0  0  0  0  0  0  0  0  0
  145.5520  136.3849  150.6816 H   0  0  0  0  0  0  0  0  0  0  0  0
  147.7221  137.2949  152.4246 H   0  0  0  0  0  0  0  0  0  0  0  0
  147.8767  139.5072  151.2634 H   0  0  0  0  0  0  0  0  0  0  0  0
  146.1569  139.7696  151.5516 H   0  0  0  0  0  0  0  0  0  0  0  0
  146.6876  138.4414  150.5277 H   0  0  0  0  0  0  0  0  0  0  0  0
  149.1685  139.2425  152.9506 H   0  0  0  0  0  0  0  0  0  0  0  0
  151.4306  139.4746  154.3737 H   0  0  0  0  0  0  0  0  0  0  0  0
  152.4363  140.8474  156.1585 H   0  0  0  0  0  0  0  0  0  0  0  0
  152.5427  143.4329  156.8036 H   0  0  0  0  0  0  0  0  0  0  0  0
  150.9763  144.2176  156.7342 H   0  0  0  0  0  0  0  0  0  0  0  0
  152.7171  145.3561  158.2038 H   0  0  0  0  0  0  0  0  0  0  0  0
  150.3716  145.9314  158.5784 H   0  0  0  0  0  0  0  0  0  0  0  0
  151.2135  145.8570  160.1216 H   0  0  0  0  0  0  0  0  0  0  0  0
  150.1370  144.5496  159.6334 H   0  0  0  0  0  0  0  0  0  0  0  0
  151.3410  142.8650  160.5462 H   0  0  0  0  0  0  0  0  0  0  0  0
  152.7897  141.0156  161.3569 H   0  0  0  0  0  0  0  0  0  0  0  0
  153.4677  142.5837  161.7850 H   0  0  0  0  0  0  0  0  0  0  0  0
  154.1508  141.6664  160.4446 H   0  0  0  0  0  0  0  0  0  0  0  0
  151.3587  140.8233  159.1415 H   0  0  0  0  0  0  0  0  0  0  0  0
  152.7902  141.3822  158.2906 H   0  0  0  0  0  0  0  0  0  0  0  0
  147.5624  141.0067  155.5861 H   0  0  0  0  0  0  0  0  0  0  0  0
  1  2  1  0  0  0  0
  1 22  1  0  0  0  0
  1 23  1  0  0  0  0
  1 24  1  0  0  0  0
  2  3  1  0  0  0  0
  3  4  1  0  0  0  0
  3  5  1  0  0  0  0
  3 25  1  0  0  0  0
  4 26  1  0  0  0  0
  4 27  1  0  0  0  0
  4 28  1  0  0  0  0
  5  6  2  0  0  0  0
  5  7  1  0  0  0  0
  7  8  1  0  0  0  0
  7 29  1  0  0  0  0
  8 21  1  0  0  0  0
  8  9  2  0  0  0  0
  9 10  1  0  0  0  0
  9 30  1  0  0  0  0
 10 11  2  0  0  0  0
 10 31  1  0  0  0  0
 11 12  1  0  0  0  0
 11 20  1  0  0  0  0
 12 19  1  0  0  0  0
 12 13  1  0  0  0  0
 13 14  1  0  0  0  0
 13 32  1  0  0  0  0
 13 33  1  0  0  0  0
 14 15  1  0  0  0  0
 14 16  1  0  0  0  0
 14 34  1  0  0  0  0
 15 35  1  0  0  0  0
 15 36  1  0  0  0  0
 15 37  1  0  0  0  0
 16 17  1  0  0  0  0
 17 18  1  0  0  0  0
 17 19  1  0  0  0  0
 17 38  1  0  0  0  0
 18 39  1  0  0  0  0
 18 40  1  0  0  0  0
 18 41  1  0  0  0  0
 19 42  1  0  0  0  0
 19 43  1  0  0  0  0
 20 21  2  0  0  0  0
 21 44  1  0  0  0  0
M  END
> <s_m_source_file>
AV-unprocessed.smi

> <i_m_source_file_index>
2148

> <i_lp_mmshare_version>
43012

> <i_f3d_flags>
0

> <s_epik_input>
W0NIM11TW0NASF0oW0NIM10pQyg9TylbTkhdYzFbY0hdW2NIXWMobltjSF0xKU4yW0NIMl1bQ0BASF0oW0NIM10pT1tDQEBIXShbQ0gzXSlbQ0gyXTI=

> <s_epik_cmdline>
J2VwaWtfcHl0aG9uJywgJy1waCcsICc3LjAnLCAnLXRuJywgJzgnLCAnLW1hJywgJzIwMCcsICctbWV0YWxfYmluZGluZycsICctaW1hZScsICc8aW5maWxlLm1hZT4nLCAnLW9tYWUnLCAnPG91dGZpbGUubWFlPic=

> <r_lp_tautomer_probability>
1

> <r_epik_Ionization_Penalty>
0.000646494

> <r_epik_Ionization_Penalty_Charging>
0

> <r_epik_Ionization_Penalty_Neutral>
0.000646494

> <r_epik_State_Penalty>
0.000408447

> <r_epik_Charging_Adjusted_Penalty>
0.000408447

> <i_epik_Tot_Q>
0

> <i_epik_Tot_abs_Q>
0

> <r_epik_Metal_State_Penalty>
-0

> <b_epik_Metal_Only>
0

> <s_lp_Force_Field>
OPLS_2005

> <r_lp_Energy>
28.0468

> <b_lp_Chiralities_Consistent>
1

> <s_lp_Variant>
AV-unprocessed.smi:2148-6

> <Gold.Version>
5.8.1

> <Gold.Id.Protein>
6NUR|6NUR_protein|mol2

> <Gold.PLP.Fitness>
44.5243

> <Gold.PLP.PLP>
-42.9179

> <Gold.PLP.part.hbond>
-1.0000

> <Gold.PLP.part.metal>
0.0000

> <Gold.PLP.part.buried>
0.5671

> <Gold.PLP.part.nonpolar>
-42.3310

> <Gold.PLP.part.repulsive>
0.5978

> <Gold.PLP.ligand.clash>
0.0000

> <Gold.PLP.ligand.torsion>
0.7784

> <Gold.PLP.Chemscore.Hbond>
1.0000

> <Gold.PLP.Chemscore.CHOScore>
0.0000

> <Gold.PLP.Chemscore.Metal>
0.0000

> <Gold.Chemscore.Hbonds>
donor molecule, donor type, donor heavy atom, donor atom, acceptor molecule, acceptor atom, score
      L1  H     7    29       P1  7957  0.91

> <Gold.PLP.Chemscore.Internal.Correction>
0.1631

> <Gold.Rescore>
     Score         DG    S(hbond)    S(metal)    S(lipo)     H(rot)  DE(clash)    DE(int)     intcor
     16.85     -19.34       0.96        0.00     118.81       1.27       0.73       1.76       ----

> <Gold.Chemscore.Fitness>
16.8513

> <Gold.Chemscore.DG>
-19.3418

> <Gold.Chemscore.ZeroCoef>
-5.4800

> <Gold.Chemscore.Hbond>
0.9587

> <Gold.Chemscore.Metal>
0.0000

> <Gold.Chemscore.Lipo>
118.8076

> <Gold.Chemscore.Internal_Hbond>
0.0000

> <Gold.Chemscore.DEClash>
0.7276

> <Gold.Chemscore.DEInternal>
1.7629

> <Gold.Chemscore.Rot>
1.2659

> <Gold.Chemscore.Internal.Correction>
   9.000000E+99

> <Gold.Chemscore.Hbonds>
donor molecule, donor type, donor heavy atom, donor atom, acceptor molecule, acceptor atom, score
      L1  H     7    29       P1  7957  0.85

> <Gold.Chemscore.Hbond.Weighted>
-3.2019

> <Gold.Chemscore.Metal.Weighted>
-0.0000

> <Gold.Chemscore.Lipo.Weighted>
-13.9005

> <Gold.Chemscore.Internal_Hbond.Weighted>
0.0000

> <Gold.Chemscore.DEClash.Weighted>
0.7276

> <Gold.Chemscore.DEInternal.Weighted>
1.7629

> <Gold.Chemscore.Rot.Weighted>
3.2406

> <Gold.Chemscore.Internal.Correction.Weighted>
   9.000000E+99

> <Gold.Protein.RotatedTorsions>
[ 6907 6896 6895 6894 ] final  134.10 input  -60.11 | X-H torsion
[ 7974 7965 7964 7962 ] final -157.23 input  175.53 | X-H torsion
[ 8008 7997 7996 7995 ] final   10.64 input   59.86 | X-H torsion
[ 10167 10162 10161 10158 ] final  -90.79 input  -65.29 | X-H torsion
[ 10718 10713 10712 10709 ] final   87.09 input   66.30 | X-H torsion
[ 10763 10752 10751 10750 ] final  133.65 input  -60.55 | X-H torsion
[ 11005 11000 10999 10996 ] final   63.11 input  -57.11 | X-H torsion

> <Gold.Protein.ActiveResidues>
 VAL166  LYS551  ARG553  GLY616  TRP617  ASP618  TYR619  PRO620  LYS621  CYS622 
 ASP623  PHE694  ASN695  SER759  ASP760  ASP761  ALA762  ILE779  LEU786  VAL792 
 PHE793  MET794  SER795  GLU796  ALA797  LYS798  CYS799  TRP800  GLU811  SER814 

> <Gold.Protein.RotatedAtoms>
  152.3149  133.5792  159.5705 H   0  0  0  0  0  0  0  0  0  0  0  0  # atno 6907 bound_to 6896
  150.7341  134.0097  159.3674 H   0  0  0  0  0  0  0  0  0  0  0  0  # atno 6908 bound_to 6896
  151.7986  135.0716  160.0448 H   0  0  0  0  0  0  0  0  0  0  0  0  # atno 6909 bound_to 6896
  144.7558  140.3999  143.6014 H   0  0  0  0  0  0  0  0  0  0  0  0  # atno 7974 bound_to 7965
  154.7961  140.2844  155.5955 H   0  0  0  0  0  0  0  0  0  0  0  0  # atno 8008 bound_to 7997
  156.2971  140.2595  156.2749 H   0  0  0  0  0  0  0  0  0  0  0  0  # atno 8009 bound_to 7997
  154.9612  140.0377  157.2180 H   0  0  0  0  0  0  0  0  0  0  0  0  # atno 8010 bound_to 7997
  140.3513  143.2889  151.9722 H   0  0  0  0  0  0  0  0  0  0  0  0  # atno 10167 bound_to 10162
  157.6936  131.0241  150.3070 H   0  0  0  0  0  0  0  0  0  0  0  0  # atno 10718 bound_to 10713
  153.8107  135.3129  155.3400 H   0  0  0  0  0  0  0  0  0  0  0  0  # atno 10763 bound_to 10752
  154.8052  135.4702  154.0378 H   0  0  0  0  0  0  0  0  0  0  0  0  # atno 10764 bound_to 10752
  153.1755  135.6885  153.8637 H   0  0  0  0  0  0  0  0  0  0  0  0  # atno 10765 bound_to 10752
  140.0047  134.6388  155.9874 H   0  0  0  0  0  0  0  0  0  0  0  0  # atno 11005 bound_to 11000
  145.6786  139.1613  143.2714 LP  0  0  0  0  0  0  0  0  0  0  0  0  # atno 17320 bound_to 7965
  146.1565  140.6850  142.9297 LP  0  0  0  0  0  0  0  0  0  0  0  0  # atno 17321 bound_to 7965
  139.4826  144.6073  151.7498 LP  0  0  0  0  0  0  0  0  0  0  0  0  # atno 17342 bound_to 10162
  140.5216  144.0870  150.6024 LP  0  0  0  0  0  0  0  0  0  0  0  0  # atno 17343 bound_to 10162
  156.3578  130.3841  149.7276 LP  0  0  0  0  0  0  0  0  0  0  0  0  # atno 17370 bound_to 10713
  156.4733  130.8007  151.3024 LP  0  0  0  0  0  0  0  0  0  0  0  0  # atno 17371 bound_to 10713
  141.1668  133.6537  156.4508 LP  0  0  0  0  0  0  0  0  0  0  0  0  # atno 17394 bound_to 11000
  140.4663  134.6794  157.5109 LP  0  0  0  0  0  0  0  0  0  0  0  0  # atno 17395 bound_to 11000

$$$$
