AV-unprocessed.smi:2691|AV-procd|sdf|10391|dock10
  -GOLD-   2272014423D 1   1.00000     0.00000
 Structure written by MMmdl.
 49 51  0  0  0  0  0  0  0  0  1 V2000
  152.7183  143.1270  160.9785 C   0  0  0  0  0  0  0  0  0  0  0  0
  152.1272  142.6663  159.6579 C   0  0  0  0  0  0  0  0  0  0  0  0
  152.6159  141.4815  159.0624 C   0  0  0  0  0  0  0  0  0  0  0  0
  152.0921  141.0181  157.8357 C   0  0  0  0  0  0  0  0  0  0  0  0
  152.4160  139.9012  157.0840 N   0  0  0  0  0  0  0  0  0  0  0  0
  151.5820  140.0202  156.0548 C   0  0  0  0  0  0  0  0  0  0  0  0
  150.7550  141.0833  156.0514 N   0  0  0  0  0  0  0  0  0  0  0  0
  149.7602  141.4216  155.0499 C   0  0  0  0  0  0  0  0  0  0  0  0
  148.5109  140.5233  155.1333 C   0  0  1  0  0  0  0  0  0  0  0  0
  147.7997  140.8555  156.3104 O   0  0  0  0  0  0  0  0  0  0  0  0
  147.5803  140.7251  153.9179 C   0  0  0  0  0  0  0  0  0  0  0  0
  146.8732  139.4878  153.5511 N   0  0  0  0  0  0  0  0  0  0  0  0
  147.0724  139.0168  152.2398 C   0  0  0  0  0  0  0  0  0  0  0  0
  146.5106  137.9310  151.8130 N   0  0  0  0  0  0  0  0  0  0  0  0
  145.6754  137.1974  152.6652 C   0  0  0  0  0  0  0  0  0  0  0  0
  145.0349  135.9303  152.1129 C   0  0  0  0  0  0  0  0  0  0  0  0
  145.5498  135.6199  150.6993 C   0  0  0  0  0  0  0  0  0  0  0  0
  143.4993  135.9989  152.1518 C   0  0  0  0  0  0  0  0  0  0  0  0
  145.4378  137.6221  153.9292 C   0  0  0  0  0  0  0  0  0  0  0  0
  146.0578  138.8457  154.4378 C   0  0  0  0  0  0  0  0  0  0  0  0
  145.8594  139.2656  155.5784 O   0  0  0  0  0  0  0  0  0  0  0  0
  151.0566  141.7777  157.2174 C   0  0  0  0  0  0  0  0  0  0  0  0
  150.5617  142.9580  157.7995 C   0  0  0  0  0  0  0  0  0  0  0  0
  151.0984  143.4085  159.0237 C   0  0  0  0  0  0  0  0  0  0  0  0
  150.5600  144.6864  159.6424 C   0  0  0  0  0  0  0  0  0  0  0  0
  153.4554  142.4165  161.3539 H   0  0  0  0  0  0  0  0  0  0  0  0
  151.9382  143.2279  161.7333 H   0  0  0  0  0  0  0  0  0  0  0  0
  153.2130  144.0912  160.8592 H   0  0  0  0  0  0  0  0  0  0  0  0
  153.3998  140.9163  159.5444 H   0  0  0  0  0  0  0  0  0  0  0  0
  151.5718  139.2929  155.2562 H   0  0  0  0  0  0  0  0  0  0  0  0
  149.4877  142.4722  155.1621 H   0  0  0  0  0  0  0  0  0  0  0  0
  150.2286  141.3235  154.0697 H   0  0  0  0  0  0  0  0  0  0  0  0
  148.8294  139.4822  155.2013 H   0  0  0  0  0  0  0  0  0  0  0  0
  147.1058  141.4556  156.0841 H   0  0  0  0  0  0  0  0  0  0  0  0
  146.8951  141.5579  154.0897 H   0  0  0  0  0  0  0  0  0  0  0  0
  148.1716  141.0424  153.0569 H   0  0  0  0  0  0  0  0  0  0  0  0
  147.7260  139.6288  151.6158 H   0  0  0  0  0  0  0  0  0  0  0  0
  145.3342  135.1016  152.7563 H   0  0  0  0  0  0  0  0  0  0  0  0
  146.6376  135.5463  150.6853 H   0  0  0  0  0  0  0  0  0  0  0  0
  145.2595  136.3953  149.9895 H   0  0  0  0  0  0  0  0  0  0  0  0
  145.1511  134.6723  150.3366 H   0  0  0  0  0  0  0  0  0  0  0  0
  143.1419  136.2078  153.1605 H   0  0  0  0  0  0  0  0  0  0  0  0
  143.0583  135.0530  151.8360 H   0  0  0  0  0  0  0  0  0  0  0  0
  143.1134  136.7774  151.4927 H   0  0  0  0  0  0  0  0  0  0  0  0
  144.7865  137.0554  154.5787 H   0  0  0  0  0  0  0  0  0  0  0  0
  149.7771  143.5125  157.3054 H   0  0  0  0  0  0  0  0  0  0  0  0
  149.8293  145.1664  158.9909 H   0  0  0  0  0  0  0  0  0  0  0  0
  151.3673  145.3978  159.8183 H   0  0  0  0  0  0  0  0  0  0  0  0
  150.0727  144.4723  160.5939 H   0  0  0  0  0  0  0  0  0  0  0  0
  1  2  1  0  0  0  0
  1 26  1  0  0  0  0
  1 27  1  0  0  0  0
  1 28  1  0  0  0  0
  2 24  1  0  0  0  0
  2  3  2  0  0  0  0
  3  4  1  0  0  0  0
  3 29  1  0  0  0  0
  4 22  2  0  0  0  0
  4  5  1  0  0  0  0
  5  6  2  0  0  0  0
  6  7  1  0  0  0  0
  6 30  1  0  0  0  0
  7  8  1  0  0  0  0
  7 22  1  0  0  0  0
  8  9  1  0  0  0  0
  8 31  1  0  0  0  0
  8 32  1  0  0  0  0
  9 10  1  0  0  0  0
  9 11  1  0  0  0  0
  9 33  1  0  0  0  0
 10 34  1  0  0  0  0
 11 12  1  0  0  0  0
 11 35  1  0  0  0  0
 11 36  1  0  0  0  0
 12 20  1  0  0  0  0
 12 13  1  0  0  0  0
 13 14  2  0  0  0  0
 13 37  1  0  0  0  0
 14 15  1  0  0  0  0
 15 16  1  0  0  0  0
 15 19  2  0  0  0  0
 16 17  1  0  0  0  0
 16 18  1  0  0  0  0
 16 38  1  0  0  0  0
 17 39  1  0  0  0  0
 17 40  1  0  0  0  0
 17 41  1  0  0  0  0
 18 42  1  0  0  0  0
 18 43  1  0  0  0  0
 18 44  1  0  0  0  0
 19 20  1  0  0  0  0
 19 45  1  0  0  0  0
 20 21  2  0  0  0  0
 22 23  1  0  0  0  0
 23 24  2  0  0  0  0
 23 46  1  0  0  0  0
 24 25  1  0  0  0  0
 25 47  1  0  0  0  0
 25 48  1  0  0  0  0
 25 49  1  0  0  0  0
M  END
> <s_m_source_file>
AV-unprocessed.smi

> <i_m_source_file_index>
2691

> <i_lp_mmshare_version>
43012

> <i_f3d_flags>
0

> <s_epik_input>
W0NIM11jKFtjSF0xKWMoW0NIM10pW2NIXWMoYzEyKW4oW2NIXW4yKVtDSDJdW0NASF0oW09IXSlbQ0gyXW4zW2NIXW5jKFtDSF0oW0NIM10pW0NIM10pW2NIXWMzPU8=

> <s_epik_cmdline>
J2VwaWtfcHl0aG9uJywgJy1waCcsICc3LjAnLCAnLXRuJywgJzgnLCAnLW1hJywgJzIwMCcsICctbWV0YWxfYmluZGluZycsICctaW1hZScsICc8aW5maWxlLm1hZT4nLCAnLW9tYWUnLCAnPG91dGZpbGUubWFlPic=

> <r_lp_tautomer_probability>
1

> <r_epik_Ionization_Penalty>
0.113357

> <r_epik_Ionization_Penalty_Charging>
3.84185e-08

> <r_epik_Ionization_Penalty_Neutral>
0.113357

> <r_epik_State_Penalty>
0.103025

> <r_epik_Charging_Adjusted_Penalty>
0.103025

> <i_epik_Tot_Q>
0

> <i_epik_Tot_abs_Q>
0

> <r_epik_Metal_State_Penalty>
0.0863451

> <b_epik_Metal_Only>
0

> <s_lp_Force_Field>
OPLS_2005

> <r_lp_Energy>
17.2292

> <b_lp_Chiralities_Consistent>
1

> <s_lp_Variant>
AV-unprocessed.smi:2691-2

> <Gold.Version>
5.8.1

> <Gold.Id.Protein>
6NUR|6NUR_protein|mol2

> <Gold.PLP.Fitness>
51.1212

> <Gold.PLP.PLP>
-46.4265

> <Gold.PLP.part.hbond>
-1.0000

> <Gold.PLP.part.metal>
0.0000

> <Gold.PLP.part.buried>
-5.4907

> <Gold.PLP.part.nonpolar>
-40.3538

> <Gold.PLP.part.repulsive>
0.4261

> <Gold.PLP.ligand.clash>
0.0000

> <Gold.PLP.ligand.torsion>
0.6902

> <Gold.PLP.Chemscore.Hbond>
1.0000

> <Gold.PLP.Chemscore.CHOScore>
1.0000

> <Gold.PLP.Chemscore.Metal>
0.0000

> <Gold.Chemscore.Hbonds>
donor molecule, donor type, donor heavy atom, donor atom, acceptor molecule, acceptor atom, score
      P1  H  7997  8008       L1     5  0.94
      L1  C    13    37       P1  7957  0.78

> <Gold.PLP.Chemscore.Internal.Correction>
0.0752

> <Gold.Rescore>
     Score         DG    S(hbond)    S(metal)    S(lipo)     H(rot)  DE(clash)    DE(int)     intcor
     12.72     -15.00       0.81        0.00     111.85       2.45       0.07       2.21       ----

> <Gold.Chemscore.Fitness>
12.7202

> <Gold.Chemscore.DG>
-15.0009

> <Gold.Chemscore.ZeroCoef>
-5.4800

> <Gold.Chemscore.Hbond>
0.8132

> <Gold.Chemscore.Metal>
0.0000

> <Gold.Chemscore.Lipo>
111.8470

> <Gold.Chemscore.Internal_Hbond>
0.0000

> <Gold.Chemscore.DEClash>
0.0692

> <Gold.Chemscore.DEInternal>
2.2115

> <Gold.Chemscore.Rot>
2.4536

> <Gold.Chemscore.Internal.Correction>
   9.000000E+99

> <Gold.Chemscore.Hbonds>
donor molecule, donor type, donor heavy atom, donor atom, acceptor molecule, acceptor atom, score
      P1  H  7997  8008       L1     5  0.40

> <Gold.Chemscore.Hbond.Weighted>
-2.7160

> <Gold.Chemscore.Metal.Weighted>
-0.0000

> <Gold.Chemscore.Lipo.Weighted>
-13.0861

> <Gold.Chemscore.Internal_Hbond.Weighted>
0.0000

> <Gold.Chemscore.DEClash.Weighted>
0.0692

> <Gold.Chemscore.DEInternal.Weighted>
2.2115

> <Gold.Chemscore.Rot.Weighted>
6.2812

> <Gold.Chemscore.Internal.Correction.Weighted>
   9.000000E+99

> <Gold.Protein.RotatedTorsions>
[ 6907 6896 6895 6894 ] final -172.28 input  -60.11 | X-H torsion
[ 7974 7965 7964 7962 ] final   70.74 input  175.53 | X-H torsion
[ 8008 7997 7996 7995 ] final  -44.79 input   59.86 | X-H torsion
[ 10167 10162 10161 10158 ] final  127.91 input  -65.29 | X-H torsion
[ 10718 10713 10712 10709 ] final  139.52 input   66.30 | X-H torsion
[ 10763 10752 10751 10750 ] final   83.46 input  -60.55 | X-H torsion
[ 11005 11000 10999 10996 ] final  -60.57 input  -57.11 | X-H torsion

> <Gold.Protein.ActiveResidues>
 VAL166  LYS551  ARG553  GLY616  TRP617  ASP618  TYR619  PRO620  LYS621  CYS622 
 ASP623  PHE694  ASN695  SER759  ASP760  ASP761  ALA762  ILE779  LEU786  VAL792 
 PHE793  MET794  SER795  GLU796  ALA797  LYS798  CYS799  TRP800  GLU811  SER814 

> <Gold.Protein.RotatedAtoms>
  151.5374  133.3438  159.2928 H   0  0  0  0  0  0  0  0  0  0  0  0  # atno 6907 bound_to 6896
  150.8556  134.7897  159.7054 H   0  0  0  0  0  0  0  0  0  0  0  0  # atno 6908 bound_to 6896
  152.4591  134.5234  159.9841 H   0  0  0  0  0  0  0  0  0  0  0  0  # atno 6909 bound_to 6896
  145.7744  139.2858  143.1302 H   0  0  0  0  0  0  0  0  0  0  0  0  # atno 7974 bound_to 7965
  154.3998  140.1413  156.3741 H   0  0  0  0  0  0  0  0  0  0  0  0  # atno 8008 bound_to 7997
  155.8065  140.3474  155.5412 H   0  0  0  0  0  0  0  0  0  0  0  0  # atno 8009 bound_to 7997
  155.8430  140.0929  157.1713 H   0  0  0  0  0  0  0  0  0  0  0  0  # atno 8010 bound_to 7997
  139.5554  144.6844  151.4199 H   0  0  0  0  0  0  0  0  0  0  0  0  # atno 10167 bound_to 10162
  157.4135  131.1030  151.0429 H   0  0  0  0  0  0  0  0  0  0  0  0  # atno 10718 bound_to 10713
  153.1293  135.4690  154.9323 H   0  0  0  0  0  0  0  0  0  0  0  0  # atno 10763 bound_to 10752
  154.7649  135.3142  154.8308 H   0  0  0  0  0  0  0  0  0  0  0  0  # atno 10764 bound_to 10752
  153.8854  135.6890  153.4818 H   0  0  0  0  0  0  0  0  0  0  0  0  # atno 10765 bound_to 10752
  141.1292  133.6623  156.5244 H   0  0  0  0  0  0  0  0  0  0  0  0  # atno 11005 bound_to 11000
  146.0137  140.8412  142.9958 LP  0  0  0  0  0  0  0  0  0  0  0  0  # atno 17320 bound_to 7965
  144.6807  140.2528  143.7329 LP  0  0  0  0  0  0  0  0  0  0  0  0  # atno 17321 bound_to 7965
  140.6825  143.8048  150.7141 LP  0  0  0  0  0  0  0  0  0  0  0  0  # atno 17342 bound_to 10162
  140.1506  143.4361  152.2134 LP  0  0  0  0  0  0  0  0  0  0  0  0  # atno 17343 bound_to 10162
  157.1385  130.6133  149.5548 LP  0  0  0  0  0  0  0  0  0  0  0  0  # atno 17370 bound_to 10713
  155.9858  130.4889  150.7048 LP  0  0  0  0  0  0  0  0  0  0  0  0  # atno 17371 bound_to 10713
  140.4266  134.7139  157.4919 LP  0  0  0  0  0  0  0  0  0  0  0  0  # atno 17394 bound_to 11000
  140.0322  134.6389  155.9091 LP  0  0  0  0  0  0  0  0  0  0  0  0  # atno 17395 bound_to 11000

$$$$
