AV-unprocessed.smi:3156|AV-procd|sdf|12035|dock7
  -GOLD-   2272017453D 1   1.00000     0.00000
 Structure written by MMmdl.
 41 42  0  0  0  0  0  0  0  0  2 V2000
  149.9395  139.9703  154.6274 C   0  0  0  0  0  0  0  0  0  0  0  0
  149.1018  141.2487  154.4430 C   0  0  2  0  0  0  0  0  0  0  0  0
  149.5674  142.2677  155.4105 N   0  3  0  0  0  0  0  0  0  0  0  0
  149.7627  141.7734  156.7891 C   0  0  0  0  0  0  0  0  0  0  0  0
  150.9286  142.4985  157.4905 C   0  0  1  0  0  0  0  0  0  0  0  0
  150.4850  143.8143  158.1609 C   0  0  0  0  0  0  0  0  0  0  0  0
  151.6535  144.4563  158.9175 C   0  0  0  0  0  0  0  0  0  0  0  0
  152.2623  143.4367  159.8855 C   0  0  0  0  0  0  0  0  0  0  0  0
  152.6147  142.1392  159.1414 C   0  0  0  0  0  0  0  0  0  0  0  0
  151.4581  141.6254  158.4867 O   0  0  0  0  0  0  0  0  0  0  0  0
  147.5764  141.0114  154.6053 C   0  0  1  0  0  0  0  0  0  0  0  0
  146.7469  142.2857  154.3550 C   0  0  0  0  0  0  0  0  0  0  0  0
  147.0941  139.9277  153.7581 N   0  0  0  0  0  0  0  0  0  0  0  0
  147.1252  139.8416  152.3813 C   0  0  0  0  0  0  0  0  0  0  0  0
  146.5656  138.6457  152.0339 C   0  0  0  0  0  0  0  0  0  0  0  0
  146.2192  138.0586  153.2824 C   0  0  0  0  0  0  0  0  0  0  0  0
  146.5367  138.8269  154.3119 N   0  0  0  0  0  0  0  0  0  0  0  0
  149.7047  139.2178  153.8742 H   0  0  0  0  0  0  0  0  0  0  0  0
  149.7714  139.5238  155.6080 H   0  0  0  0  0  0  0  0  0  0  0  0
  151.0048  140.1866  154.5391 H   0  0  0  0  0  0  0  0  0  0  0  0
  149.2864  141.6077  153.4287 H   0  0  0  0  0  0  0  0  0  0  0  0
  150.4446  142.6424  155.0781 H   0  0  0  0  0  0  0  0  0  0  0  0
  148.8331  141.9027  157.3450 H   0  0  0  0  0  0  0  0  0  0  0  0
  149.9538  140.6998  156.7531 H   0  0  0  0  0  0  0  0  0  0  0  0
  151.7190  142.7119  156.7677 H   0  0  0  0  0  0  0  0  0  0  0  0
  150.1003  144.5088  157.4133 H   0  0  0  0  0  0  0  0  0  0  0  0
  149.6677  143.6178  158.8562 H   0  0  0  0  0  0  0  0  0  0  0  0
  152.4127  144.7900  158.2090 H   0  0  0  0  0  0  0  0  0  0  0  0
  151.3176  145.3417  159.4582 H   0  0  0  0  0  0  0  0  0  0  0  0
  153.1497  143.8522  160.3635 H   0  0  0  0  0  0  0  0  0  0  0  0
  151.5506  143.2172  160.6824 H   0  0  0  0  0  0  0  0  0  0  0  0
  153.4114  142.3103  158.4159 H   0  0  0  0  0  0  0  0  0  0  0  0
  152.9819  141.3922  159.8453 H   0  0  0  0  0  0  0  0  0  0  0  0
  147.3951  140.7013  155.6357 H   0  0  0  0  0  0  0  0  0  0  0  0
  146.9912  143.0700  155.0714 H   0  0  0  0  0  0  0  0  0  0  0  0
  145.6798  142.0827  154.4520 H   0  0  0  0  0  0  0  0  0  0  0  0
  146.9182  142.6857  153.3552 H   0  0  0  0  0  0  0  0  0  0  0  0
  147.5377  140.6302  151.7692 H   0  0  0  0  0  0  0  0  0  0  0  0
  146.4266  138.2495  151.0390 H   0  0  0  0  0  0  0  0  0  0  0  0
  145.7507  137.1037  153.4699 H   0  0  0  0  0  0  0  0  0  0  0  0
  148.8889  143.0154  155.4347 H   0  0  0  0  0  0  0  0  0  0  0  0
  1  2  1  0  0  0  0
  1 18  1  0  0  0  0
  1 19  1  0  0  0  0
  1 20  1  0  0  0  0
  2  3  1  0  0  0  0
  2 11  1  0  0  0  0
  2 21  1  0  0  0  0
  3  4  1  0  0  0  0
  3 22  1  0  0  0  0
  3 41  1  0  0  0  0
  4  5  1  0  0  0  0
  4 23  1  0  0  0  0
  4 24  1  0  0  0  0
  5 10  1  0  0  0  0
  5  6  1  0  0  0  0
  5 25  1  0  0  0  0
  6  7  1  0  0  0  0
  6 26  1  0  0  0  0
  6 27  1  0  0  0  0
  7  8  1  0  0  0  0
  7 28  1  0  0  0  0
  7 29  1  0  0  0  0
  8  9  1  0  0  0  0
  8 30  1  0  0  0  0
  8 31  1  0  0  0  0
  9 10  1  0  0  0  0
  9 32  1  0  0  0  0
  9 33  1  0  0  0  0
 11 12  1  0  0  0  0
 11 13  1  0  0  0  0
 11 34  1  0  0  0  0
 12 35  1  0  0  0  0
 12 36  1  0  0  0  0
 12 37  1  0  0  0  0
 13 17  1  0  0  0  0
 13 14  1  0  0  0  0
 14 15  2  0  0  0  0
 14 38  1  0  0  0  0
 15 16  1  0  0  0  0
 15 39  1  0  0  0  0
 16 17  2  0  0  0  0
 16 40  1  0  0  0  0
M  CHG  1   3   1
M  END
> <s_m_source_file>
AV-unprocessed.smi

> <i_m_source_file_index>
3156

> <i_lp_mmshare_version>
43012

> <i_f3d_flags>
0

> <s_epik_input>
bjFbY0hdW2NIXVtjSF1uMVtDQEBIXShbQ0gzXSlbQ0BIXShbQ0gzXSlbTkhdW0NIMl1bQ0BASF0yW0NIMl1bQ0gyXVtDSDJdW0NIMl1PMg==

> <s_epik_cmdline>
J2VwaWtfcHl0aG9uJywgJy1waCcsICc3LjAnLCAnLXRuJywgJzgnLCAnLW1hJywgJzIwMCcsICctbWV0YWxfYmluZGluZycsICctaW1hZScsICc8aW5maWxlLm1hZT4nLCAnLW9tYWUnLCAnPG91dGZpbGUubWFlPic=

> <r_lp_tautomer_probability>
1

> <r_epik_Ionization_Penalty>
0.00658015

> <r_epik_Ionization_Penalty_Charging>
0.00656881

> <r_epik_Ionization_Penalty_Neutral>
1.13431e-05

> <r_epik_State_Penalty>
0.0048654

> <r_epik_Charging_Adjusted_Penalty>
0.0114342

> <i_epik_Tot_Q>
1

> <i_epik_Tot_abs_Q>
1

> <r_epik_Metal_State_Penalty>
-0

> <b_epik_Metal_Only>
0

> <s_lp_Force_Field>
OPLS_2005

> <r_lp_Energy>
21.7915

> <b_lp_Chiralities_Consistent>
1

> <s_lp_Variant>
AV-unprocessed.smi:3156-7

> <Gold.Version>
5.8.1

> <Gold.Id.Protein>
6NUR|6NUR_protein|mol2

> <Gold.PLP.Fitness>
44.7890

> <Gold.PLP.PLP>
-37.9752

> <Gold.PLP.part.hbond>
-1.0000

> <Gold.PLP.part.metal>
0.0000

> <Gold.PLP.part.buried>
0.7947

> <Gold.PLP.part.nonpolar>
-38.1755

> <Gold.PLP.part.repulsive>
0.3233

> <Gold.PLP.ligand.clash>
0.0000

> <Gold.PLP.ligand.torsion>
0.7050

> <Gold.PLP.Chemscore.Hbond>
2.0000

> <Gold.PLP.Chemscore.CHOScore>
0.7132

> <Gold.PLP.Chemscore.Metal>
0.0000

> <Gold.Chemscore.Hbonds>
donor molecule, donor type, donor heavy atom, donor atom, acceptor molecule, acceptor atom, score
      L1  H     3    41       P1  8028  1.54
      L1  C    14    38       P1  7957  0.59

> <Gold.PLP.Chemscore.Internal.Correction>
0.0842

> <Gold.Rescore>
     Score         DG    S(hbond)    S(metal)    S(lipo)     H(rot)  DE(clash)    DE(int)     intcor
     16.38     -17.02       0.98        0.00     105.54       1.59       0.14       0.50       ----

> <Gold.Chemscore.Fitness>
16.3772

> <Gold.Chemscore.DG>
-17.0238

> <Gold.Chemscore.ZeroCoef>
-5.4800

> <Gold.Chemscore.Hbond>
0.9809

> <Gold.Chemscore.Metal>
0.0000

> <Gold.Chemscore.Lipo>
105.5379

> <Gold.Chemscore.Internal_Hbond>
0.0000

> <Gold.Chemscore.DEClash>
0.1430

> <Gold.Chemscore.DEInternal>
0.5037

> <Gold.Chemscore.Rot>
1.5938

> <Gold.Chemscore.Internal.Correction>
   9.000000E+99

> <Gold.Chemscore.Hbonds>
donor molecule, donor type, donor heavy atom, donor atom, acceptor molecule, acceptor atom, score
      L1  H     3    41       P1  8028  0.76

> <Gold.Chemscore.Hbond.Weighted>
-3.2762

> <Gold.Chemscore.Metal.Weighted>
-0.0000

> <Gold.Chemscore.Lipo.Weighted>
-12.3479

> <Gold.Chemscore.Internal_Hbond.Weighted>
0.0000

> <Gold.Chemscore.DEClash.Weighted>
0.1430

> <Gold.Chemscore.DEInternal.Weighted>
0.5037

> <Gold.Chemscore.Rot.Weighted>
4.0802

> <Gold.Chemscore.Internal.Correction.Weighted>
   9.000000E+99

> <Gold.Protein.RotatedTorsions>
[ 6907 6896 6895 6894 ] final  166.58 input  -60.11 | X-H torsion
[ 7974 7965 7964 7962 ] final -136.57 input  175.53 | X-H torsion
[ 8008 7997 7996 7995 ] final  169.29 input   59.86 | X-H torsion
[ 10167 10162 10161 10158 ] final  117.30 input  -65.29 | X-H torsion
[ 10718 10713 10712 10709 ] final   94.05 input   66.30 | X-H torsion
[ 10763 10752 10751 10750 ] final  -54.04 input  -60.55 | X-H torsion
[ 11005 11000 10999 10996 ] final   32.72 input  -57.11 | X-H torsion

> <Gold.Protein.ActiveResidues>
 VAL166  LYS551  ARG553  GLY616  TRP617  ASP618  TYR619  PRO620  LYS621  CYS622 
 ASP623  PHE694  ASN695  SER759  ASP760  ASP761  ALA762  ILE779  LEU786  VAL792 
 PHE793  MET794  SER795  GLU796  ALA797  LYS798  CYS799  TRP800  GLU811  SER814 

> <Gold.Protein.RotatedAtoms>
  151.8767  133.3486  159.3752 H   0  0  0  0  0  0  0  0  0  0  0  0  # atno 6907 bound_to 6896
  150.7138  134.5059  159.5593 H   0  0  0  0  0  0  0  0  0  0  0  0  # atno 6908 bound_to 6896
  152.2603  134.8041  160.0482 H   0  0  0  0  0  0  0  0  0  0  0  0  # atno 6909 bound_to 6896
  144.8916  140.6649  143.5142 H   0  0  0  0  0  0  0  0  0  0  0  0  # atno 7974 bound_to 7965
  156.1470  140.1568  156.8830 H   0  0  0  0  0  0  0  0  0  0  0  0  # atno 8008 bound_to 7997
  154.5037  140.0818  156.7888 H   0  0  0  0  0  0  0  0  0  0  0  0  # atno 8009 bound_to 7997
  155.3969  140.3412  155.4257 H   0  0  0  0  0  0  0  0  0  0  0  0  # atno 8010 bound_to 7997
  139.6188  144.7097  151.2681 H   0  0  0  0  0  0  0  0  0  0  0  0  # atno 10167 bound_to 10162
  157.6951  131.0499  150.4127 H   0  0  0  0  0  0  0  0  0  0  0  0  # atno 10718 bound_to 10713
  154.1684  135.6463  153.5003 H   0  0  0  0  0  0  0  0  0  0  0  0  # atno 10763 bound_to 10752
  153.0091  135.5377  154.6638 H   0  0  0  0  0  0  0  0  0  0  0  0  # atno 10764 bound_to 10752
  154.5970  135.2940  155.0547 H   0  0  0  0  0  0  0  0  0  0  0  0  # atno 10765 bound_to 10752
  140.2705  134.3088  155.7829 H   0  0  0  0  0  0  0  0  0  0  0  0  # atno 11005 bound_to 11000
  145.3774  139.1644  143.4299 LP  0  0  0  0  0  0  0  0  0  0  0  0  # atno 17320 bound_to 7965
  146.3057  140.3851  142.8688 LP  0  0  0  0  0  0  0  0  0  0  0  0  # atno 17321 bound_to 7965
  140.7368  143.6696  150.8093 LP  0  0  0  0  0  0  0  0  0  0  0  0  # atno 17342 bound_to 10162
  140.0303  143.5450  152.2763 LP  0  0  0  0  0  0  0  0  0  0  0  0  # atno 17343 bound_to 10162
  156.4509  130.4011  149.6636 LP  0  0  0  0  0  0  0  0  0  0  0  0  # atno 17370 bound_to 10713
  156.3786  130.7567  151.2558 LP  0  0  0  0  0  0  0  0  0  0  0  0  # atno 17371 bound_to 10713
  141.2178  133.7464  156.9327 LP  0  0  0  0  0  0  0  0  0  0  0  0  # atno 17394 bound_to 11000
  140.1378  134.9314  157.2425 LP  0  0  0  0  0  0  0  0  0  0  0  0  # atno 17395 bound_to 11000

$$$$
