#       Name:                AV-unprocessed.smi:2931
#       Creating user name   scv26
#       Creation time:       Fri Mar 27 16:14:21 2020


#       File generated by GOLD software.
#

@<TRIPOS>MOLECULE
AV-unprocessed.smi:2931
    45    46     1
SMALL
NO_CHARGES


@<TRIPOS>ATOM
      1 ****        -4.8231   0.1950   0.0462 C.3            1 S1                 0.0000
      2 ****        -3.5742   0.8034  -0.4601 N.4            1 S1                 1.0000
      3 ****        -3.7838   1.5610  -1.7193 C.3            1 S1                 0.0000
      4 ****        -2.4959   2.2833  -2.1491 C.3            1 S1                 0.0000
      5 ****        -1.3264   1.2979  -2.2805 C.3            1 S1                 0.0000
      6 ****        -1.1523   0.5045  -0.9730 C.3            1 S1                 0.0000
      7 ****        -0.0930  -0.4905  -1.1132 N.am           1 S1                 0.0000
      8 ****         1.2083  -0.2638  -0.8851 C.2            1 S1                 0.0000
      9 ****         1.6631   0.8181  -0.5133 O.2            1 S1                 0.0000
     10 ****         1.9523  -1.3579  -1.1035 N.am           1 S1                 0.0000
     11 ****         3.4041  -1.4367  -0.9533 C.3            1 S1                 0.0000
     12 ****         3.8292  -2.0021   0.4160 C.3            1 S1                 0.0000
     13 ****         3.3386  -1.1837   1.5985 C.ar           1 S1                 0.0000
     14 ****         3.9172   0.0723   1.8862 C.ar           1 S1                 0.0000
     15 ****         3.4299   0.8210   2.9767 C.ar           1 S1                 0.0000
     16 ****         2.4242   0.3306   3.7338 N.pl3          1 S1                 1.0000
     17 ****         1.8467  -0.8675   3.4964 C.ar           1 S1                 0.0000
     18 ****         2.2905  -1.6596   2.4179 C.ar           1 S1                 0.0000
     19 ****        -2.4730  -0.1848  -0.5817 C.3            1 S1                 0.0000
     20 ****        -5.2057  -0.5511  -0.6513 H              1 S1                 0.0000
     21 ****        -5.5914   0.9554   0.1908 H              1 S1                 0.0000
     22 ****        -4.6522  -0.2909   1.0074 H              1 S1                 0.0000
     23 ****        -4.1140   0.8801  -2.5055 H              1 S1                 0.0000
     24 ****        -4.5803   2.2924  -1.5776 H              1 S1                 0.0000
     25 ****        -2.6556   2.7994  -3.0963 H              1 S1                 0.0000
     26 ****        -2.2454   3.0518  -1.4167 H              1 S1                 0.0000
     27 ****        -1.5156   0.6144  -3.1096 H              1 S1                 0.0000
     28 ****        -0.4110   1.8387  -2.5247 H              1 S1                 0.0000
     29 ****        -0.8875   1.1989  -0.1728 H              1 S1                 0.0000
     30 ****        -0.3685  -1.4123  -1.4201 H              1 S1                 0.0000
     31 ****         1.4840  -2.1978  -1.4115 H              1 S1                 0.0000
     32 ****         3.7876  -2.0815  -1.7445 H              1 S1                 0.0000
     33 ****         3.8608  -0.4589  -1.1158 H              1 S1                 0.0000
     34 ****         3.4722  -3.0280   0.5153 H              1 S1                 0.0000
     35 ****         4.9175  -2.0571   0.4639 H              1 S1                 0.0000
     36 ****         4.7165   0.4627   1.2731 H              1 S1                 0.0000
     37 ****         3.8104   1.7909   3.2622 H              1 S1                 0.0000
     38 ****         1.0526  -1.1535   4.1706 H              1 S1                 0.0000
     39 ****         1.8283  -2.6161   2.2217 H              1 S1                 0.0000
     40 ****        -2.3468  -0.7027   0.3702 H              1 S1                 0.0000
     41 ****        -2.7433  -0.9405  -1.3216 H              1 S1                 0.0000
     42 ****        -3.2823   1.4768   0.2341 H              1 S1                 0.0000
     43 ****         2.0875   0.8888   4.5190 H              1 S1                 0.0000
     44 ****         1.0496   1.5935  -0.3638 LP             1 S1                 0.0000
     45 ****         2.6460   0.9215  -0.3608 LP             1 S1                 0.0000
@<TRIPOS>BOND
    1    1    2 1     
    2    1   20 1     
    3    1   21 1     
    4    1   22 1     
    5    2   19 1     
    6    2    3 1     
    7    2   42 1     
    8    3    4 1     
    9    3   23 1     
   10    3   24 1     
   11    4    5 1     
   12    4   25 1     
   13    4   26 1     
   14    5    6 1     
   15    5   27 1     
   16    5   28 1     
   17    6    7 1     
   18    6   19 1     
   19    6   29 1     
   20    7    8 am    
   21    7   30 1     
   22    8    9 2     
   23    8   10 am    
   24   10   11 1     
   25   10   31 1     
   26   11   12 1     
   27   11   32 1     
   28   11   33 1     
   29   12   13 1     
   30   12   34 1     
   31   12   35 1     
   32   13   18 ar    
   33   13   14 ar    
   34   14   15 ar    
   35   14   36 1     
   36   15   16 ar    
   37   15   37 1     
   38   16   17 ar    
   39   16   43 1     
   40   17   18 ar    
   41   17   38 1     
   42   18   39 1     
   43   19   40 1     
   44   19   41 1     
   45    9   44 1     
   46    9   45 1     
@<TRIPOS>SUBSTRUCTURE
      1 S1             1
@<TRIPOS>SET
LONE_PAIRS      STATIC     ATOMS    <user>   **** ""
2 44 45
DONOR_HYDROGENS      STATIC     ATOMS    <user>   **** ""
4 42 30 31 43
ATOM$BLUE        STATIC     ATOMS    COLORGROUP SYSTEM
2 44 45
ATOM$RED        STATIC     ATOMS    COLORGROUP SYSTEM
4 42 30 31 43
