AV-unprocessed.smi:102|AV-procd|sdf|966|dock1
  -GOLD-   2262017513D 1   1.00000     0.00000
 Structure written by MMmdl.
 43 44  0  0  0  0  0  0  0  0  2 V2000
  145.1936  144.1629  158.6447 C   0  0  0  0  0  0  0  0  0  0  0  0
  146.0824  142.9270  158.6904 C   0  0  0  0  0  0  0  0  0  0  0  0
  146.7464  142.6480  159.6888 O   0  0  0  0  0  0  0  0  0  0  0  0
  146.0412  142.2273  157.5494 O   0  0  0  0  0  0  0  0  0  0  0  0
  146.8913  141.1044  157.3724 C   0  0  0  0  0  0  0  0  0  0  0  0
  148.3660  141.5263  157.4769 C   0  0  1  0  0  0  0  0  0  0  0  0
  149.1716  140.4644  157.9566 O   0  0  0  0  0  0  0  0  0  0  0  0
  150.4982  140.7446  157.6434 C   0  0  1  0  0  0  0  0  0  0  0  0
  151.2260  139.4365  157.4374 N   0  0  0  0  0  0  0  0  0  0  0  0
  152.0533  138.9636  158.4398 C   0  0  0  0  0  0  0  0  0  0  0  0
  152.6940  137.7828  158.3215 C   0  0  0  0  0  0  0  0  0  0  0  0
  153.4948  137.3533  159.3121 F   0  0  0  0  0  0  0  0  0  0  0  0
  152.5074  136.9773  157.1163 C   0  0  0  0  0  0  0  0  0  0  0  0
  153.1042  135.9073  157.0071 O   0  0  0  0  0  0  0  0  0  0  0  0
  151.6653  137.4543  156.1548 N   0  5  0  0  0  0  0  0  0  0  0  0
  151.0050  138.6434  156.2751 C   0  0  0  0  0  0  0  0  0  0  0  0
  150.2205  139.0593  155.4234 O   0  0  0  0  0  0  0  0  0  0  0  0
  150.5236  141.6510  156.3970 C   0  0  2  0  0  0  0  0  0  0  0  0
  151.3301  142.7954  156.6449 O   0  0  0  0  0  0  0  0  0  0  0  0
  151.2286  143.4520  157.8140 C   0  0  0  0  0  0  0  0  0  0  0  0
  152.3601  144.4505  158.0187 C   0  0  0  0  0  0  0  0  0  0  0  0
  150.3494  143.2945  158.6611 O   0  0  0  0  0  0  0  0  0  0  0  0
  149.0593  142.0409  156.2030 C   0  0  1  0  0  0  0  0  0  0  0  0
  148.5977  141.4484  154.9938 O   0  0  0  0  0  0  0  0  0  0  0  0
  147.4220  141.8076  154.4511 C   0  0  0  0  0  0  0  0  0  0  0  0
  147.0484  140.9413  153.2560 C   0  0  0  0  0  0  0  0  0  0  0  0
  146.6869  142.7147  154.8412 O   0  0  0  0  0  0  0  0  0  0  0  0
  145.1517  144.5673  157.6328 H   0  0  0  0  0  0  0  0  0  0  0  0
  145.5812  144.9354  159.3086 H   0  0  0  0  0  0  0  0  0  0  0  0
  144.1808  143.9105  158.9588 H   0  0  0  0  0  0  0  0  0  0  0  0
  146.6752  140.3395  158.1195 H   0  0  0  0  0  0  0  0  0  0  0  0
  146.6972  140.6664  156.3928 H   0  0  0  0  0  0  0  0  0  0  0  0
  148.4344  142.3211  158.2212 H   0  0  0  0  0  0  0  0  0  0  0  0
  150.9643  141.2191  158.5085 H   0  0  0  0  0  0  0  0  0  0  0  0
  152.1960  139.5471  159.3374 H   0  0  0  0  0  0  0  0  0  0  0  0
  150.9087  141.0956  155.5406 H   0  0  0  0  0  0  0  0  0  0  0  0
  152.4895  145.0674  157.1293 H   0  0  0  0  0  0  0  0  0  0  0  0
  153.2949  143.9257  158.2171 H   0  0  0  0  0  0  0  0  0  0  0  0
  152.1446  145.1044  158.8638 H   0  0  0  0  0  0  0  0  0  0  0  0
  148.9637  143.1265  156.1483 H   0  0  0  0  0  0  0  0  0  0  0  0
  147.4179  139.9242  153.3899 H   0  0  0  0  0  0  0  0  0  0  0  0
  147.4827  141.3507  152.3440 H   0  0  0  0  0  0  0  0  0  0  0  0
  145.9655  140.9015  153.1379 H   0  0  0  0  0  0  0  0  0  0  0  0
  1  2  1  0  0  0  0
  1 28  1  0  0  0  0
  1 29  1  0  0  0  0
  1 30  1  0  0  0  0
  2  3  2  0  0  0  0
  2  4  1  0  0  0  0
  4  5  1  0  0  0  0
  5  6  1  0  0  0  0
  5 31  1  0  0  0  0
  5 32  1  0  0  0  0
  6 23  1  0  0  0  0
  6  7  1  0  0  0  0
  6 33  1  0  0  0  0
  7  8  1  0  0  0  0
  8  9  1  0  0  0  0
  8 18  1  0  0  0  0
  8 34  1  0  0  0  0
  9 16  1  0  0  0  0
  9 10  1  0  0  0  0
 10 11  2  0  0  0  0
 10 35  1  0  0  0  0
 11 12  1  0  0  0  0
 11 13  1  0  0  0  0
 13 14  2  0  0  0  0
 13 15  1  0  0  0  0
 15 16  1  0  0  0  0
 16 17  2  0  0  0  0
 18 19  1  0  0  0  0
 18 23  1  0  0  0  0
 18 36  1  0  0  0  0
 19 20  1  0  0  0  0
 20 21  1  0  0  0  0
 20 22  2  0  0  0  0
 21 37  1  0  0  0  0
 21 38  1  0  0  0  0
 21 39  1  0  0  0  0
 23 24  1  0  0  0  0
 23 40  1  0  0  0  0
 24 25  1  0  0  0  0
 25 26  1  0  0  0  0
 25 27  2  0  0  0  0
 26 41  1  0  0  0  0
 26 42  1  0  0  0  0
 26 43  1  0  0  0  0
M  CHG  1  15  -1
M  END
> <s_m_source_file>
AV-unprocessed.smi

> <i_m_source_file_index>
102

> <i_lp_mmshare_version>
43012

> <i_f3d_flags>
0

> <s_epik_input>
W0NIM11DKD1PKU9bQ0gyXVtDQEBIXTFPW0NASF0oW0NAQEhdKE9DKD1PKVtDSDNdKVtDQEhdMU9DKD1PKVtDSDNdKW4yW2NIXWMoRiljKD1PKVtuSF1jMj1P

> <s_epik_cmdline>
J2VwaWtfcHl0aG9uJywgJy1waCcsICc3LjAnLCAnLXRuJywgJzgnLCAnLW1hJywgJzIwMCcsICctbWV0YWxfYmluZGluZycsICctaW1hZScsICc8aW5maWxlLm1hZT4nLCAnLW9tYWUnLCAnPG91dGZpbGUubWFlPic=

> <r_epik_Ionization_Penalty>
1.40304

> <r_epik_Ionization_Penalty_Charging>
1.43915e-08

> <r_epik_Ionization_Penalty_Neutral>
1.40304

> <r_epik_State_Penalty>
1.48536

> <r_epik_Charging_Adjusted_Penalty>
1.48536

> <i_epik_Tot_Q>
-1

> <i_epik_Tot_abs_Q>
1

> <r_epik_Metal_State_Penalty>
0.00663881

> <b_epik_Metal_Only>
0

> <s_epik_Chemistry_Notes>
This compound has an ester and may undergo hydrolysis at high or low pH. This compound contains an acetal/aminal-like group ( X-CH(R)-Y where X, Y are N, S, or O) that may be acid/base labile, releasing an aldehyde.

> <s_lp_Force_Field>
OPLS_2005

> <r_lp_Energy>
16.3749

> <b_lp_Chiralities_Consistent>
1

> <s_lp_Variant>
AV-unprocessed.smi:102-22

> <Gold.Version>
5.8.1

> <Gold.Id.Protein>
6NUR|6NUR_protein|mol2

> <Gold.PLP.Fitness>
33.6013

> <Gold.PLP.PLP>
-29.4689

> <Gold.PLP.part.hbond>
-2.1288

> <Gold.PLP.part.metal>
0.0000

> <Gold.PLP.part.buried>
-3.0948

> <Gold.PLP.part.nonpolar>
-25.3755

> <Gold.PLP.part.repulsive>
0.8432

> <Gold.PLP.ligand.clash>
0.0173

> <Gold.PLP.ligand.torsion>
1.0749

> <Gold.PLP.Chemscore.Hbond>
2.0000

> <Gold.PLP.Chemscore.CHOScore>
0.0000

> <Gold.PLP.Chemscore.Metal>
0.0000

> <Gold.Chemscore.Hbonds>
donor molecule, donor type, donor heavy atom, donor atom, acceptor molecule, acceptor atom, score
      P1  H  6934  6946       L1     3  0.93
      P1  H 10752 10764       L1    14  1.00

> <Gold.PLP.Chemscore.Internal.Correction>
0.2994

> <Gold.Rescore>
     Score         DG    S(hbond)    S(metal)    S(lipo)     H(rot)  DE(clash)    DE(int)     intcor
     -0.82      -7.37       1.95        0.00      47.94       4.00       1.46       6.72       ----

> <Gold.Chemscore.Fitness>
-0.8158

> <Gold.Chemscore.DG>
-7.3689

> <Gold.Chemscore.ZeroCoef>
-5.4800

> <Gold.Chemscore.Hbond>
1.9483

> <Gold.Chemscore.Metal>
0.0000

> <Gold.Chemscore.Lipo>
47.9388

> <Gold.Chemscore.Internal_Hbond>
0.0000

> <Gold.Chemscore.DEClash>
1.4639

> <Gold.Chemscore.DEInternal>
6.7208

> <Gold.Chemscore.Rot>
3.9951

> <Gold.Chemscore.Internal.Correction>
   9.000000E+99

> <Gold.Chemscore.Hbonds>
donor molecule, donor type, donor heavy atom, donor atom, acceptor molecule, acceptor atom, score
      P1  H  6933  6944       L1     3  0.02
      P1  H  6934  6946       L1     3  0.84
      P1  H 10752 10764       L1    14  0.91

> <Gold.Chemscore.Hbond.Weighted>
-6.5075

> <Gold.Chemscore.Metal.Weighted>
-0.0000

> <Gold.Chemscore.Lipo.Weighted>
-5.6088

> <Gold.Chemscore.Internal_Hbond.Weighted>
0.0000

> <Gold.Chemscore.DEClash.Weighted>
1.4639

> <Gold.Chemscore.DEInternal.Weighted>
6.7208

> <Gold.Chemscore.Rot.Weighted>
10.2274

> <Gold.Chemscore.Internal.Correction.Weighted>
   9.000000E+99

> <Gold.Protein.RotatedTorsions>
[ 6907 6896 6895 6894 ] final   13.07 input  -60.11 | X-H torsion
[ 7974 7965 7964 7962 ] final  -17.99 input  175.53 | X-H torsion
[ 8008 7997 7996 7995 ] final   39.42 input   59.86 | X-H torsion
[ 10167 10162 10161 10158 ] final -104.26 input  -65.29 | X-H torsion
[ 10718 10713 10712 10709 ] final  -27.33 input   66.30 | X-H torsion
[ 10763 10752 10751 10750 ] final   -7.12 input  -60.55 | X-H torsion
[ 11005 11000 10999 10996 ] final   53.09 input  -57.11 | X-H torsion

> <Gold.Protein.ActiveResidues>
 VAL166  LYS551  ARG553  GLY616  TRP617  ASP618  TYR619  PRO620  LYS621  CYS622 
 ASP623  PHE694  ASN695  SER759  ASP760  ASP761  ALA762  ILE779  LEU786  VAL792 
 PHE793  MET794  SER795  GLU796  ALA797  LYS798  CYS799  TRP800  GLU811  SER814 

> <Gold.Protein.RotatedAtoms>
  151.7804  135.0763  160.0372 H   0  0  0  0  0  0  0  0  0  0  0  0  # atno 6907 bound_to 6896
  152.3227  133.5866  159.5763 H   0  0  0  0  0  0  0  0  0  0  0  0  # atno 6908 bound_to 6896
  150.7378  133.9903  159.3647 H   0  0  0  0  0  0  0  0  0  0  0  0  # atno 6909 bound_to 6896
  146.1914  140.3857  142.8456 H   0  0  0  0  0  0  0  0  0  0  0  0  # atno 7974 bound_to 7965
  155.2364  140.3342  155.4297 H   0  0  0  0  0  0  0  0  0  0  0  0  # atno 8008 bound_to 7997
  156.2274  140.1835  156.7375 H   0  0  0  0  0  0  0  0  0  0  0  0  # atno 8009 bound_to 7997
  154.5921  140.0636  156.9238 H   0  0  0  0  0  0  0  0  0  0  0  0  # atno 8010 bound_to 7997
  140.2112  143.3745  152.1049 H   0  0  0  0  0  0  0  0  0  0  0  0  # atno 10167 bound_to 10162
  156.4395  130.4461  149.7062 H   0  0  0  0  0  0  0  0  0  0  0  0  # atno 10718 bound_to 10713
  153.4219  135.7010  153.6288 H   0  0  0  0  0  0  0  0  0  0  0  0  # atno 10763 bound_to 10752
  153.4739  135.3708  155.2406 H   0  0  0  0  0  0  0  0  0  0  0  0  # atno 10764 bound_to 10752
  154.8722  135.4049  154.3589 H   0  0  0  0  0  0  0  0  0  0  0  0  # atno 10765 bound_to 10752
  140.0795  134.5358  155.8961 H   0  0  0  0  0  0  0  0  0  0  0  0  # atno 11005 bound_to 11000
  144.8495  140.6979  143.6177 LP  0  0  0  0  0  0  0  0  0  0  0  0  # atno 17320 bound_to 7965
  145.3779  139.1643  143.4296 LP  0  0  0  0  0  0  0  0  0  0  0  0  # atno 17321 bound_to 7965
  139.5179  144.6998  151.5525 LP  0  0  0  0  0  0  0  0  0  0  0  0  # atno 17342 bound_to 10162
  140.6322  143.9054  150.6615 LP  0  0  0  0  0  0  0  0  0  0  0  0  # atno 17343 bound_to 10162
  156.3933  130.7638  151.2640 LP  0  0  0  0  0  0  0  0  0  0  0  0  # atno 17370 bound_to 10713
  157.7506  131.0261  150.3950 LP  0  0  0  0  0  0  0  0  0  0  0  0  # atno 17371 bound_to 10713
  141.2041  133.6637  156.6105 LP  0  0  0  0  0  0  0  0  0  0  0  0  # atno 17394 bound_to 11000
  140.3508  134.7770  157.4465 LP  0  0  0  0  0  0  0  0  0  0  0  0  # atno 17395 bound_to 11000

$$$$
