AV-unprocessed.smi:1937|AV-procd|sdf|7833|dock7
  -GOLD-   22720 9583D 1   1.00000     0.00000
 Structure written by MMmdl.
 40 41  0  0  0  0  0  0  0  0  1 V2000
  144.8002  136.4577  153.4757 O   0  0  0  0  0  0  0  0  0  0  0  0
  145.8809  136.2951  152.9094 C   0  0  0  0  0  0  0  0  0  0  0  0
  146.9492  137.0766  153.1212 N   0  0  0  0  0  0  0  0  0  0  0  0
  146.9799  138.2222  154.0220 C   0  0  0  0  0  0  0  0  0  0  0  0
  148.0173  138.0295  155.1441 C   0  0  0  0  0  0  0  0  0  0  0  0
  149.3315  138.5504  154.7476 N   0  0  0  0  0  0  0  0  0  0  0  0
  149.3889  139.9795  154.3969 C   0  0  0  0  0  0  0  0  0  0  0  0
  150.1549  140.8444  155.4254 C   0  0  0  0  0  0  0  0  0  0  0  0
  151.2868  140.1426  156.2012 C   0  0  0  0  0  0  0  0  0  0  0  0
  152.3253  139.4139  155.3230 C   0  0  0  0  0  0  0  0  0  0  0  0
  151.7717  138.3833  154.3103 C   0  0  0  0  0  0  0  0  0  0  0  0
  150.4285  137.7542  154.7150 C   0  0  0  0  0  0  0  0  0  0  0  0
  150.3969  136.5560  154.9973 O   0  0  0  0  0  0  0  0  0  0  0  0
  146.1587  135.3244  152.0222 N   0  0  0  0  0  0  0  0  0  0  0  0
  145.3021  134.3097  151.5151 C   0  0  0  0  0  0  0  0  0  0  0  0
  145.6878  133.3394  150.5583 C   0  0  0  0  0  0  0  0  0  0  0  0
  144.7451  132.3766  150.1487 C   0  0  0  0  0  0  0  0  0  0  0  0
  143.4560  132.4134  150.7145 C   0  0  0  0  0  0  0  0  0  0  0  0
  143.0789  133.3231  151.6373 N   0  0  0  0  0  0  0  0  0  0  0  0
  143.9879  134.2431  152.0249 C   0  0  0  0  0  0  0  0  0  0  0  0
  147.8005  136.8687  152.6199 H   0  0  0  0  0  0  0  0  0  0  0  0
  147.1892  139.1339  153.4595 H   0  0  0  0  0  0  0  0  0  0  0  0
  145.9823  138.3433  154.4451 H   0  0  0  0  0  0  0  0  0  0  0  0
  147.6772  138.5259  156.0547 H   0  0  0  0  0  0  0  0  0  0  0  0
  148.0885  136.9745  155.4095 H   0  0  0  0  0  0  0  0  0  0  0  0
  149.8453  140.0868  153.4127 H   0  0  0  0  0  0  0  0  0  0  0  0
  148.3902  140.3983  154.2702 H   0  0  0  0  0  0  0  0  0  0  0  0
  150.5501  141.7253  154.9187 H   0  0  0  0  0  0  0  0  0  0  0  0
  149.4408  141.2241  156.1571 H   0  0  0  0  0  0  0  0  0  0  0  0
  151.8022  140.8824  156.8145 H   0  0  0  0  0  0  0  0  0  0  0  0
  150.8543  139.4387  156.9139 H   0  0  0  0  0  0  0  0  0  0  0  0
  152.9097  140.1553  154.7772 H   0  0  0  0  0  0  0  0  0  0  0  0
  153.0347  138.9114  155.9814 H   0  0  0  0  0  0  0  0  0  0  0  0
  151.6649  138.8428  153.3279 H   0  0  0  0  0  0  0  0  0  0  0  0
  152.5085  137.5917  154.1676 H   0  0  0  0  0  0  0  0  0  0  0  0
  147.1151  135.2792  151.7022 H   0  0  0  0  0  0  0  0  0  0  0  0
  146.6821  133.3029  150.1416 H   0  0  0  0  0  0  0  0  0  0  0  0
  145.0066  131.6242  149.4194 H   0  0  0  0  0  0  0  0  0  0  0  0
  142.7097  131.6894  150.4221 H   0  0  0  0  0  0  0  0  0  0  0  0
  143.6513  134.9533  152.7661 H   0  0  0  0  0  0  0  0  0  0  0  0
  1  2  2  0  0  0  0
  2  3  1  0  0  0  0
  2 14  1  0  0  0  0
  3  4  1  0  0  0  0
  3 21  1  0  0  0  0
  4  5  1  0  0  0  0
  4 22  1  0  0  0  0
  4 23  1  0  0  0  0
  5  6  1  0  0  0  0
  5 24  1  0  0  0  0
  5 25  1  0  0  0  0
  6 12  1  0  0  0  0
  6  7  1  0  0  0  0
  7  8  1  0  0  0  0
  7 26  1  0  0  0  0
  7 27  1  0  0  0  0
  8  9  1  0  0  0  0
  8 28  1  0  0  0  0
  8 29  1  0  0  0  0
  9 10  1  0  0  0  0
  9 30  1  0  0  0  0
  9 31  1  0  0  0  0
 10 11  1  0  0  0  0
 10 32  1  0  0  0  0
 10 33  1  0  0  0  0
 11 12  1  0  0  0  0
 11 34  1  0  0  0  0
 11 35  1  0  0  0  0
 12 13  2  0  0  0  0
 14 15  1  0  0  0  0
 14 36  1  0  0  0  0
 15 20  1  0  0  0  0
 15 16  2  0  0  0  0
 16 17  1  0  0  0  0
 16 37  1  0  0  0  0
 17 18  2  0  0  0  0
 17 38  1  0  0  0  0
 18 19  1  0  0  0  0
 18 39  1  0  0  0  0
 19 20  2  0  0  0  0
 20 40  1  0  0  0  0
M  END
> <s_m_source_file>
AV-unprocessed.smi

> <i_m_source_file_index>
1937

> <i_lp_mmshare_version>
43012

> <i_f3d_flags>
0

> <s_epik_input>
W2NIXTFuW2NIXVtjSF1bY0hdYzFbTkhdQyg9TylbTkhdW0NIMl1bQ0gyXU4yW0NIMl1bQ0gyXVtDSDJdW0NIMl1bQ0gyXUMyPU8=

> <s_epik_cmdline>
J2VwaWtfcHl0aG9uJywgJy1waCcsICc3LjAnLCAnLXRuJywgJzgnLCAnLW1hJywgJzIwMCcsICctbWV0YWxfYmluZGluZycsICctaW1hZScsICc8aW5maWxlLm1hZT4nLCAnLW9tYWUnLCAnPG91dGZpbGUubWFlPic=

> <r_epik_Ionization_Penalty>
0.00465308

> <r_epik_Ionization_Penalty_Charging>
0

> <r_epik_Ionization_Penalty_Neutral>
0.00465308

> <r_epik_State_Penalty>
0.00334133

> <r_epik_Charging_Adjusted_Penalty>
0.00334133

> <i_epik_Tot_Q>
0

> <i_epik_Tot_abs_Q>
0

> <r_epik_Metal_State_Penalty>
-0

> <b_epik_Metal_Only>
0

> <s_lp_Force_Field>
OPLS_2005

> <r_lp_Energy>
23.2929

> <b_lp_Chiralities_Consistent>
1

> <s_lp_Variant>
AV-unprocessed.smi:1937-1

> <Gold.Version>
5.8.1

> <Gold.Id.Protein>
6NUR|6NUR_protein|mol2

> <Gold.PLP.Fitness>
43.0105

> <Gold.PLP.PLP>
-34.9074

> <Gold.PLP.part.hbond>
-1.8852

> <Gold.PLP.part.metal>
0.0000

> <Gold.PLP.part.buried>
-4.8886

> <Gold.PLP.part.nonpolar>
-28.1497

> <Gold.PLP.part.repulsive>
0.5543

> <Gold.PLP.ligand.clash>
0.0000

> <Gold.PLP.ligand.torsion>
0.1899

> <Gold.PLP.Chemscore.Hbond>
1.8225

> <Gold.PLP.Chemscore.CHOScore>
1.0000

> <Gold.PLP.Chemscore.Metal>
0.0000

> <Gold.Chemscore.Hbonds>
donor molecule, donor type, donor heavy atom, donor atom, acceptor molecule, acceptor atom, score
      L1  H     3    21       P1  7948  0.96
      L1  H    14    36       P1  7948  0.87
      L1  C    18    39       P1 10952  1.00

> <Gold.PLP.Chemscore.Internal.Correction>
0.0154

> <Gold.Rescore>
     Score         DG    S(hbond)    S(metal)    S(lipo)     H(rot)  DE(clash)    DE(int)     intcor
     15.42     -17.08       1.90        0.00      78.11       1.52       0.01       1.65       ----

> <Gold.Chemscore.Fitness>
15.4247

> <Gold.Chemscore.DG>
-17.0812

> <Gold.Chemscore.ZeroCoef>
-5.4800

> <Gold.Chemscore.Hbond>
1.9018

> <Gold.Chemscore.Metal>
0.0000

> <Gold.Chemscore.Lipo>
78.1131

> <Gold.Chemscore.Internal_Hbond>
0.0000

> <Gold.Chemscore.DEClash>
0.0093

> <Gold.Chemscore.DEInternal>
1.6472

> <Gold.Chemscore.Rot>
1.5195

> <Gold.Chemscore.Internal.Correction>
   9.000000E+99

> <Gold.Chemscore.Hbonds>
donor molecule, donor type, donor heavy atom, donor atom, acceptor molecule, acceptor atom, score
      L1  H     3    21       P1  7948  0.91
      L1  H    14    36       P1  7948  0.78

> <Gold.Chemscore.Hbond.Weighted>
-6.3520

> <Gold.Chemscore.Metal.Weighted>
-0.0000

> <Gold.Chemscore.Lipo.Weighted>
-9.1392

> <Gold.Chemscore.Internal_Hbond.Weighted>
0.0000

> <Gold.Chemscore.DEClash.Weighted>
0.0093

> <Gold.Chemscore.DEInternal.Weighted>
1.6472

> <Gold.Chemscore.Rot.Weighted>
3.8900

> <Gold.Chemscore.Internal.Correction.Weighted>
   9.000000E+99

> <Gold.Protein.RotatedTorsions>
[ 6907 6896 6895 6894 ] final  -50.84 input  -60.11 | X-H torsion
[ 7974 7965 7964 7962 ] final   34.79 input  175.53 | X-H torsion
[ 8008 7997 7996 7995 ] final -108.26 input   59.86 | X-H torsion
[ 10167 10162 10161 10158 ] final   80.15 input  -65.29 | X-H torsion
[ 10718 10713 10712 10709 ] final    0.62 input   66.30 | X-H torsion
[ 10763 10752 10751 10750 ] final   93.18 input  -60.55 | X-H torsion
[ 11005 11000 10999 10996 ] final  145.65 input  -57.11 | X-H torsion

> <Gold.Protein.ActiveResidues>
 VAL166  LYS551  ARG553  GLY616  TRP617  ASP618  TYR619  PRO620  LYS621  CYS622 
 ASP623  PHE694  ASN695  SER759  ASP760  ASP761  ALA762  ILE779  LEU786  VAL792 
 PHE793  MET794  SER795  GLU796  ALA797  LYS798  CYS799  TRP800  GLU811  SER814 

> <Gold.Protein.RotatedAtoms>
  150.8669  134.8034  159.7124 H   0  0  0  0  0  0  0  0  0  0  0  0  # atno 6907 bound_to 6896
  152.4687  134.5010  159.9734 H   0  0  0  0  0  0  0  0  0  0  0  0  # atno 6908 bound_to 6896
  151.5105  133.3447  159.2919 H   0  0  0  0  0  0  0  0  0  0  0  0  # atno 6909 bound_to 6896
  146.1328  139.6224  142.9215 H   0  0  0  0  0  0  0  0  0  0  0  0  # atno 7974 bound_to 7965
  154.9416  140.0402  157.2099 H   0  0  0  0  0  0  0  0  0  0  0  0  # atno 8008 bound_to 7997
  154.8064  140.2860  155.5863 H   0  0  0  0  0  0  0  0  0  0  0  0  # atno 8009 bound_to 7997
  156.2967  140.2545  156.2943 H   0  0  0  0  0  0  0  0  0  0  0  0  # atno 8010 bound_to 7997
  139.9528  144.6014  150.8144 H   0  0  0  0  0  0  0  0  0  0  0  0  # atno 10167 bound_to 10162
  156.8361  130.5505  149.5682 H   0  0  0  0  0  0  0  0  0  0  0  0  # atno 10718 bound_to 10713
  153.2274  135.4335  155.0557 H   0  0  0  0  0  0  0  0  0  0  0  0  # atno 10763 bound_to 10752
  154.8280  135.3371  154.6837 H   0  0  0  0  0  0  0  0  0  0  0  0  # atno 10764 bound_to 10752
  153.7266  135.7013  153.5055 H   0  0  0  0  0  0  0  0  0  0  0  0  # atno 10765 bound_to 10752
  140.0729  134.9141  157.1375 H   0  0  0  0  0  0  0  0  0  0  0  0  # atno 11005 bound_to 11000
  145.5223  141.0431  143.2429 LP  0  0  0  0  0  0  0  0  0  0  0  0  # atno 17320 bound_to 7965
  144.7708  139.6739  143.7195 LP  0  0  0  0  0  0  0  0  0  0  0  0  # atno 17321 bound_to 7965
  140.7577  143.3092  151.2885 LP  0  0  0  0  0  0  0  0  0  0  0  0  # atno 17342 bound_to 10162
  139.6615  144.0181  152.2695 LP  0  0  0  0  0  0  0  0  0  0  0  0  # atno 17343 bound_to 10162
  156.0907  130.5893  150.9727 LP  0  0  0  0  0  0  0  0  0  0  0  0  # atno 17370 bound_to 10713
  157.6381  131.0913  150.8307 LP  0  0  0  0  0  0  0  0  0  0  0  0  # atno 17371 bound_to 10713
  140.3600  134.2504  155.7188 LP  0  0  0  0  0  0  0  0  0  0  0  0  # atno 17394 bound_to 11000
  141.2018  133.7952  157.0420 LP  0  0  0  0  0  0  0  0  0  0  0  0  # atno 17395 bound_to 11000

$$$$
