AV-unprocessed.smi:1436|AV-procd|sdf|5862|dock3
  -GOLD-   22720 5533D 1   1.00000     0.00000
 Structure written by MMmdl.
 44 45  0  0  0  0  0  0  0  0  2 V2000
  151.6905  139.8666  156.8358 C   0  0  0  0  0  0  0  0  0  0  0  0
  151.4108  138.3913  156.8077 C   0  0  0  0  0  0  0  0  0  0  0  0
  151.4873  137.6882  157.9248 N   0  0  0  0  0  0  0  0  0  0  0  0
  151.1636  136.3741  157.5741 O   0  0  0  0  0  0  0  0  0  0  0  0
  150.8959  136.3381  156.2443 C   0  0  0  0  0  0  0  0  0  0  0  0
  150.5054  135.0168  155.6743 C   0  0  0  0  0  0  0  0  0  0  0  0
  151.0345  137.5837  155.6965 C   0  0  0  0  0  0  0  0  0  0  0  0
  150.8204  138.0160  154.2687 C   0  0  0  0  0  0  0  0  0  0  0  0
  149.5756  138.8971  154.2126 C   0  0  0  0  0  0  0  0  0  0  0  0
  149.4625  139.8510  154.9813 O   0  0  0  0  0  0  0  0  0  0  0  0
  148.6264  138.5238  153.3398 N   0  0  0  0  0  0  0  0  0  0  0  0
  147.2759  139.0778  153.2535 C   0  0  1  0  0  0  0  0  0  0  0  0
  147.3563  140.6011  153.0854 C   0  0  0  0  0  0  0  0  0  0  0  0
  146.4956  138.4135  152.0960 C   0  0  0  0  0  0  0  0  0  0  0  0
  146.5044  136.9283  152.1580 N   0  3  0  0  0  0  0  0  0  0  0  0
  146.1061  136.3849  153.4789 C   0  0  0  0  0  0  0  0  0  0  0  0
  146.2179  134.8516  153.4757 C   0  0  0  0  0  0  0  0  0  0  0  0
  145.3991  134.3204  152.4413 O   0  0  0  0  0  0  0  0  0  0  0  0
  145.8083  134.7685  151.1549 C   0  0  0  0  0  0  0  0  0  0  0  0
  145.7055  136.3017  151.0786 C   0  0  0  0  0  0  0  0  0  0  0  0
  150.7934  140.4366  156.5935 H   0  0  0  0  0  0  0  0  0  0  0  0
  152.4579  140.1313  156.1082 H   0  0  0  0  0  0  0  0  0  0  0  0
  152.0368  140.1954  157.8165 H   0  0  0  0  0  0  0  0  0  0  0  0
  149.4707  135.0360  155.3316 H   0  0  0  0  0  0  0  0  0  0  0  0
  150.5997  134.2243  156.4172 H   0  0  0  0  0  0  0  0  0  0  0  0
  151.1395  134.7596  154.8256 H   0  0  0  0  0  0  0  0  0  0  0  0
  151.6746  138.5768  153.8874 H   0  0  0  0  0  0  0  0  0  0  0  0
  150.6942  137.1611  153.6028 H   0  0  0  0  0  0  0  0  0  0  0  0
  148.8298  137.7382  152.7384 H   0  0  0  0  0  0  0  0  0  0  0  0
  146.7391  138.8916  154.1846 H   0  0  0  0  0  0  0  0  0  0  0  0
  146.3605  141.0426  153.0388 H   0  0  0  0  0  0  0  0  0  0  0  0
  147.8850  140.8754  152.1717 H   0  0  0  0  0  0  0  0  0  0  0  0
  147.8804  141.0610  153.9242 H   0  0  0  0  0  0  0  0  0  0  0  0
  145.4682  138.7787  152.0609 H   0  0  0  0  0  0  0  0  0  0  0  0
  146.9601  138.7212  151.1577 H   0  0  0  0  0  0  0  0  0  0  0  0
  146.7395  136.7904  154.2668 H   0  0  0  0  0  0  0  0  0  0  0  0
  145.0823  136.6850  153.7068 H   0  0  0  0  0  0  0  0  0  0  0  0
  147.2535  134.5361  153.3383 H   0  0  0  0  0  0  0  0  0  0  0  0
  145.8858  134.4481  154.4322 H   0  0  0  0  0  0  0  0  0  0  0  0
  146.8258  134.4362  150.9502 H   0  0  0  0  0  0  0  0  0  0  0  0
  145.1677  134.3108  150.4008 H   0  0  0  0  0  0  0  0  0  0  0  0
  144.6633  136.6127  151.1671 H   0  0  0  0  0  0  0  0  0  0  0  0
  146.0627  136.6425  150.1061 H   0  0  0  0  0  0  0  0  0  0  0  0
  147.4608  136.6429  152.0018 H   0  0  0  0  0  0  0  0  0  0  0  0
  1  2  1  0  0  0  0
  1 21  1  0  0  0  0
  1 22  1  0  0  0  0
  1 23  1  0  0  0  0
  2  7  1  0  0  0  0
  2  3  2  0  0  0  0
  3  4  1  0  0  0  0
  4  5  1  0  0  0  0
  5  6  1  0  0  0  0
  5  7  2  0  0  0  0
  6 24  1  0  0  0  0
  6 25  1  0  0  0  0
  6 26  1  0  0  0  0
  7  8  1  0  0  0  0
  8  9  1  0  0  0  0
  8 27  1  0  0  0  0
  8 28  1  0  0  0  0
  9 10  2  0  0  0  0
  9 11  1  0  0  0  0
 11 12  1  0  0  0  0
 11 29  1  0  0  0  0
 12 13  1  0  0  0  0
 12 14  1  0  0  0  0
 12 30  1  0  0  0  0
 13 31  1  0  0  0  0
 13 32  1  0  0  0  0
 13 33  1  0  0  0  0
 14 15  1  0  0  0  0
 14 34  1  0  0  0  0
 14 35  1  0  0  0  0
 15 20  1  0  0  0  0
 15 16  1  0  0  0  0
 15 44  1  0  0  0  0
 16 17  1  0  0  0  0
 16 36  1  0  0  0  0
 16 37  1  0  0  0  0
 17 18  1  0  0  0  0
 17 38  1  0  0  0  0
 17 39  1  0  0  0  0
 18 19  1  0  0  0  0
 19 20  1  0  0  0  0
 19 40  1  0  0  0  0
 19 41  1  0  0  0  0
 20 42  1  0  0  0  0
 20 43  1  0  0  0  0
M  CHG  1  15   1
M  END
> <s_m_source_file>
AV-unprocessed.smi

> <i_m_source_file_index>
1436

> <i_lp_mmshare_version>
43012

> <i_f3d_flags>
0

> <s_epik_input>
W0NIM11jMW5vYyhbQ0gzXSljMVtDSDJdQyg9TylbTkhdW0NASF0oW0NIM10pW0NIMl1OMltDSDJdW0NIMl1PW0NIMl1bQ0gyXTI=

> <s_epik_cmdline>
J2VwaWtfcHl0aG9uJywgJy1waCcsICc3LjAnLCAnLXRuJywgJzgnLCAnLW1hJywgJzIwMCcsICctbWV0YWxfYmluZGluZycsICctaW1hZScsICc8aW5maWxlLm1hZT4nLCAnLW9tYWUnLCAnPG91dGZpbGUubWFlPic=

> <r_epik_Ionization_Penalty>
0.663207

> <r_epik_Ionization_Penalty_Charging>
0.663207

> <r_epik_Ionization_Penalty_Neutral>
1.07515e-07

> <r_epik_State_Penalty>
0.682743

> <r_epik_Charging_Adjusted_Penalty>
1.34595

> <i_epik_Tot_Q>
1

> <i_epik_Tot_abs_Q>
1

> <r_epik_Metal_State_Penalty>
0.682743

> <b_epik_Metal_Only>
0

> <s_lp_Force_Field>
OPLS_2005

> <r_lp_Energy>
13.3676

> <b_lp_Chiralities_Consistent>
1

> <s_lp_Variant>
AV-unprocessed.smi:1436-4

> <Gold.Version>
5.8.1

> <Gold.Id.Protein>
6NUR|6NUR_protein|mol2

> <Gold.PLP.Fitness>
39.4794

> <Gold.PLP.PLP>
-30.8100

> <Gold.PLP.part.hbond>
-3.0000

> <Gold.PLP.part.metal>
0.0000

> <Gold.PLP.part.buried>
-1.4605

> <Gold.PLP.part.nonpolar>
-26.3655

> <Gold.PLP.part.repulsive>
0.2757

> <Gold.PLP.ligand.clash>
0.0000

> <Gold.PLP.ligand.torsion>
0.1844

> <Gold.PLP.Chemscore.Hbond>
3.0000

> <Gold.PLP.Chemscore.CHOScore>
0.0000

> <Gold.PLP.Chemscore.Metal>
0.0000

> <Gold.Chemscore.Hbonds>
donor molecule, donor type, donor heavy atom, donor atom, acceptor molecule, acceptor atom, score
      L1  H    11    29       P1  7948  1.00
      L1  H    15    44       P1  7948  2.00

> <Gold.PLP.Chemscore.Internal.Correction>
0.0382

> <Gold.Rescore>
     Score         DG    S(hbond)    S(metal)    S(lipo)     H(rot)  DE(clash)    DE(int)     intcor
     14.51     -16.03       2.00        0.00      72.39       1.79       0.03       1.50       ----

> <Gold.Chemscore.Fitness>
14.5062

> <Gold.Chemscore.DG>
-16.0337

> <Gold.Chemscore.ZeroCoef>
-5.4800

> <Gold.Chemscore.Hbond>
1.9988

> <Gold.Chemscore.Metal>
0.0000

> <Gold.Chemscore.Lipo>
72.3862

> <Gold.Chemscore.Internal_Hbond>
0.0000

> <Gold.Chemscore.DEClash>
0.0253

> <Gold.Chemscore.DEInternal>
1.5022

> <Gold.Chemscore.Rot>
1.7936

> <Gold.Chemscore.Internal.Correction>
   9.000000E+99

> <Gold.Chemscore.Hbonds>
donor molecule, donor type, donor heavy atom, donor atom, acceptor molecule, acceptor atom, score
      L1  H    11    29       P1  7948  1.00
      L1  H    15    44       P1  7948  0.93

> <Gold.Chemscore.Hbond.Weighted>
-6.6761

> <Gold.Chemscore.Metal.Weighted>
-0.0000

> <Gold.Chemscore.Lipo.Weighted>
-8.4692

> <Gold.Chemscore.Internal_Hbond.Weighted>
0.0000

> <Gold.Chemscore.DEClash.Weighted>
0.0253

> <Gold.Chemscore.DEInternal.Weighted>
1.5022

> <Gold.Chemscore.Rot.Weighted>
4.5916

> <Gold.Chemscore.Internal.Correction.Weighted>
   9.000000E+99

> <Gold.Protein.RotatedTorsions>
[ 6907 6896 6895 6894 ] final  -50.27 input  -60.11 | X-H torsion
[ 7974 7965 7964 7962 ] final -131.63 input  175.53 | X-H torsion
[ 8008 7997 7996 7995 ] final  -50.40 input   59.86 | X-H torsion
[ 10167 10162 10161 10158 ] final   51.59 input  -65.29 | X-H torsion
[ 10718 10713 10712 10709 ] final   76.46 input   66.30 | X-H torsion
[ 10763 10752 10751 10750 ] final  -90.11 input  -60.55 | X-H torsion
[ 11005 11000 10999 10996 ] final  -83.25 input  -57.11 | X-H torsion

> <Gold.Protein.ActiveResidues>
 VAL166  LYS551  ARG553  GLY616  TRP617  ASP618  TYR619  PRO620  LYS621  CYS622 
 ASP623  PHE694  ASN695  SER759  ASP760  ASP761  ALA762  ILE779  LEU786  VAL792 
 PHE793  MET794  SER795  GLU796  ALA797  LYS798  CYS799  TRP800  GLU811  SER814 

> <Gold.Protein.RotatedAtoms>
  150.8723  134.8100  159.7163 H   0  0  0  0  0  0  0  0  0  0  0  0  # atno 6907 bound_to 6896
  152.4723  134.4926  159.9710 H   0  0  0  0  0  0  0  0  0  0  0  0  # atno 6908 bound_to 6896
  151.5013  133.3465  159.2905 H   0  0  0  0  0  0  0  0  0  0  0  0  # atno 6909 bound_to 6896
  144.9361  140.7185  143.4876 H   0  0  0  0  0  0  0  0  0  0  0  0  # atno 7974 bound_to 7965
  154.4061  140.1273  156.4660 H   0  0  0  0  0  0  0  0  0  0  0  0  # atno 8008 bound_to 7997
  155.7226  140.3492  155.5003 H   0  0  0  0  0  0  0  0  0  0  0  0  # atno 8009 bound_to 7997
  155.9200  140.1051  157.1204 H   0  0  0  0  0  0  0  0  0  0  0  0  # atno 8010 bound_to 7997
  140.2603  144.3380  150.6320 H   0  0  0  0  0  0  0  0  0  0  0  0  # atno 10167 bound_to 10162
  157.6674  130.9775  150.1500 H   0  0  0  0  0  0  0  0  0  0  0  0  # atno 10718 bound_to 10713
  154.6624  135.5316  153.8034 H   0  0  0  0  0  0  0  0  0  0  0  0  # atno 10763 bound_to 10752
  153.0450  135.6509  154.0851 H   0  0  0  0  0  0  0  0  0  0  0  0  # atno 10764 bound_to 10752
  154.0759  135.2950  155.3279 H   0  0  0  0  0  0  0  0  0  0  0  0  # atno 10765 bound_to 10752
  141.1659  133.7285  156.8693 H   0  0  0  0  0  0  0  0  0  0  0  0  # atno 11005 bound_to 11000
  145.3065  139.1833  143.4661 LP  0  0  0  0  0  0  0  0  0  0  0  0  # atno 17320 bound_to 7965
  146.3267  140.3063  142.8624 LP  0  0  0  0  0  0  0  0  0  0  0  0  # atno 17321 bound_to 7965
  140.5971  143.2167  151.7143 LP  0  0  0  0  0  0  0  0  0  0  0  0  # atno 17342 bound_to 10162
  139.5019  144.3850  152.0337 LP  0  0  0  0  0  0  0  0  0  0  0  0  # atno 17343 bound_to 10162
  156.2302  130.3681  149.8454 LP  0  0  0  0  0  0  0  0  0  0  0  0  # atno 17370 bound_to 10713
  156.6283  130.8655  151.3490 LP  0  0  0  0  0  0  0  0  0  0  0  0  # atno 17371 bound_to 10713
  140.1793  134.9044  157.2929 LP  0  0  0  0  0  0  0  0  0  0  0  0  # atno 17394 bound_to 11000
  140.2413  134.3792  155.7479 LP  0  0  0  0  0  0  0  0  0  0  0  0  # atno 17395 bound_to 11000

$$$$
