#       Name:                AV-unprocessed.smi:3303
#       Creating user name   scv26
#       Creation time:       Fri Mar 27 19:00:58 2020


#       File generated by GOLD software.
#

@<TRIPOS>MOLECULE
AV-unprocessed.smi:3303
    46    47     1
SMALL
NO_CHARGES


@<TRIPOS>ATOM
      1 ****        -1.8999  -1.0033  -2.8434 C.3            1 S1                 0.0000
      2 ****        -2.1781  -1.2530  -1.3517 C.3            1 S1                 0.0000
      3 ****        -1.7266  -2.6583  -0.9060 C.3            1 S1                 0.0000
      4 ****        -2.1306  -2.8985   0.4797 N.3            1 S1                 0.0000
      5 ****        -1.9060  -4.2914   0.8460 C.3            1 S1                 0.0000
      6 ****        -1.5373  -1.9516   1.4366 C.3            1 S1                 0.0000
      7 ****        -0.0201  -2.1430   1.6671 C.3            1 S1                 0.0000
      8 ****        -1.9217  -0.5074   1.0357 C.3            1 S1                 0.0000
      9 ****        -1.5956  -0.1570  -0.4340 C.3            1 S1                 0.0000
     10 ****        -0.1436   0.0299  -0.6670 N.4            1 S1                 1.0000
     11 ****         0.4321   1.2804  -0.1313 C.3            1 S1                 0.0000
     12 ****         1.9179   1.3985  -0.4956 C.3            1 S1                 0.0000
     13 ****         2.5412   2.6678   0.0531 C.ar           1 S1                 0.0000
     14 ****         2.7440   3.7907  -0.7772 C.ar           1 S1                 0.0000
     15 ****         3.3178   4.9465  -0.2127 C.ar           1 S1                 0.0000
     16 ****         3.6632   4.9348   1.1524 C.ar           1 S1                 0.0000
     17 ****         3.4190   3.7632   1.8960 C.ar           1 S1                 0.0000
     18 ****         2.8686   2.6500   1.3647 N.ar           1 S1                 0.0000
     19 ****        -0.8377  -1.0814  -3.0764 H              1 S1                 0.0000
     20 ****        -2.2384  -0.0121  -3.1465 H              1 S1                 0.0000
     21 ****        -2.4239  -1.7319  -3.4628 H              1 S1                 0.0000
     22 ****        -3.2632  -1.2181  -1.2364 H              1 S1                 0.0000
     23 ****        -2.2010  -3.4038  -1.5459 H              1 S1                 0.0000
     24 ****        -0.6503  -2.7840  -1.0257 H              1 S1                 0.0000
     25 ****        -2.2131  -4.4730   1.8766 H              1 S1                 0.0000
     26 ****        -0.8579  -4.5735   0.7417 H              1 S1                 0.0000
     27 ****        -2.4937  -4.9498   0.2056 H              1 S1                 0.0000
     28 ****        -2.0177  -2.1430   2.3971 H              1 S1                 0.0000
     29 ****         0.3705  -1.3610   2.3190 H              1 S1                 0.0000
     30 ****         0.5586  -2.1183   0.7454 H              1 S1                 0.0000
     31 ****         0.1918  -3.0922   2.1592 H              1 S1                 0.0000
     32 ****        -2.9987  -0.3994   1.1732 H              1 S1                 0.0000
     33 ****        -1.4791   0.2094   1.7265 H              1 S1                 0.0000
     34 ****        -2.0860   0.7849  -0.6845 H              1 S1                 0.0000
     35 ****         0.3504  -0.7584  -0.2736 H              1 S1                 0.0000
     36 ****        -0.1163   2.1333  -0.5333 H              1 S1                 0.0000
     37 ****         0.3195   1.3041   0.9522 H              1 S1                 0.0000
     38 ****         2.4680   0.5397  -0.1076 H              1 S1                 0.0000
     39 ****         2.0406   1.3776  -1.5794 H              1 S1                 0.0000
     40 ****         2.4663   3.7709  -1.8209 H              1 S1                 0.0000
     41 ****         3.4887   5.8264  -0.8151 H              1 S1                 0.0000
     42 ****         4.1048   5.8032   1.6188 H              1 S1                 0.0000
     43 ****         3.6708   3.7196   2.9455 H              1 S1                 0.0000
     44 ****         0.0047   0.0339  -1.6661 H              1 S1                 0.0000
     45 ****        -3.1139  -2.7242   0.5331 LP             1 S1                 0.0000
     46 ****         2.7081   1.8371   1.9247 LP             1 S1                 0.0000
@<TRIPOS>BOND
    1    1    2 1     
    2    1   19 1     
    3    1   20 1     
    4    1   21 1     
    5    2    9 1     
    6    2    3 1     
    7    2   22 1     
    8    3    4 1     
    9    3   23 1     
   10    3   24 1     
   11    4    5 1     
   12    4    6 1     
   13    5   25 1     
   14    5   26 1     
   15    5   27 1     
   16    6    7 1     
   17    6    8 1     
   18    6   28 1     
   19    7   29 1     
   20    7   30 1     
   21    7   31 1     
   22    8    9 1     
   23    8   32 1     
   24    8   33 1     
   25    9   10 1     
   26    9   34 1     
   27   10   11 1     
   28   10   35 1     
   29   10   44 1     
   30   11   12 1     
   31   11   36 1     
   32   11   37 1     
   33   12   13 1     
   34   12   38 1     
   35   12   39 1     
   36   13   18 ar    
   37   13   14 ar    
   38   14   15 ar    
   39   14   40 1     
   40   15   16 ar    
   41   15   41 1     
   42   16   17 ar    
   43   16   42 1     
   44   17   18 ar    
   45   17   43 1     
   46    4   45 1     
   47   18   46 1     
@<TRIPOS>SUBSTRUCTURE
      1 S1             1
@<TRIPOS>SET
LONE_PAIRS      STATIC     ATOMS    <user>   **** ""
2 45 46
DONOR_HYDROGENS      STATIC     ATOMS    <user>   **** ""
2 35 44
ATOM$BLUE        STATIC     ATOMS    COLORGROUP SYSTEM
2 45 46
ATOM$RED        STATIC     ATOMS    COLORGROUP SYSTEM
2 35 44
