AV-unprocessed.smi:2146|AV-procd|sdf|8738|dock6
  -GOLD-   2272011513D 1   1.00000     0.00000
 Structure written by MMmdl.
 44 45  0  0  0  0  0  0  0  0  1 V2000
  148.7266  138.3725  154.4087 C   0  0  0  0  0  0  0  0  0  0  0  0
  149.4390  139.7030  154.0556 C   0  0  2  0  0  0  0  0  0  0  0  0
  150.8898  139.6615  154.6193 C   0  0  0  0  0  0  0  0  0  0  0  0
  150.9490  139.5841  156.0764 N   0  0  0  0  0  0  0  0  0  0  0  0
  152.0757  139.5784  156.8045 C   0  0  0  0  0  0  0  0  0  0  0  0
  153.2007  139.6310  156.3052 O   0  0  0  0  0  0  0  0  0  0  0  0
  151.8894  139.4776  158.3253 C   0  0  0  0  0  0  0  0  0  0  0  0
  152.2849  140.6992  159.0462 N   0  0  0  0  0  0  0  0  0  0  0  0
  151.6138  141.8905  158.7066 C   0  0  0  0  0  0  0  0  0  0  0  0
  151.8693  143.0710  159.3021 C   0  0  0  0  0  0  0  0  0  0  0  0
  151.1600  144.3473  158.8776 C   0  0  0  0  0  0  0  0  0  0  0  0
  149.8438  144.2043  159.0246 F   0  0  0  0  0  0  0  0  0  0  0  0
  151.5512  145.3858  159.6165 F   0  0  0  0  0  0  0  0  0  0  0  0
  151.4059  144.6280  157.5974 F   0  0  0  0  0  0  0  0  0  0  0  0
  152.9123  143.0736  160.3092 C   0  0  0  0  0  0  0  0  0  0  0  0
  153.5673  141.9443  160.6420 C   0  0  0  0  0  0  0  0  0  0  0  0
  153.2608  140.6628  160.0023 C   0  0  0  0  0  0  0  0  0  0  0  0
  153.8454  139.6226  160.3059 O   0  0  0  0  0  0  0  0  0  0  0  0
  148.6753  140.8953  154.4926 N   0  0  0  0  0  0  0  0  0  0  0  0
  147.5354  141.1917  153.6170 C   0  0  0  0  0  0  0  0  0  0  0  0
  146.7218  142.4103  154.0860 C   0  0  0  0  0  0  0  0  0  0  0  0
  146.2728  142.2041  155.4181 O   0  0  0  0  0  0  0  0  0  0  0  0
  147.3521  141.9902  156.3168 C   0  0  0  0  0  0  0  0  0  0  0  0
  148.1685  140.7675  155.8639 C   0  0  0  0  0  0  0  0  0  0  0  0
  149.3128  137.4988  154.1271 H   0  0  0  0  0  0  0  0  0  0  0  0
  147.7801  138.2577  153.8824 H   0  0  0  0  0  0  0  0  0  0  0  0
  148.5291  138.3033  155.4790 H   0  0  0  0  0  0  0  0  0  0  0  0
  149.5175  139.7400  152.9680 H   0  0  0  0  0  0  0  0  0  0  0  0
  151.4526  138.8101  154.2395 H   0  0  0  0  0  0  0  0  0  0  0  0
  151.4337  140.5533  154.3064 H   0  0  0  0  0  0  0  0  0  0  0  0
  150.0671  139.5320  156.5656 H   0  0  0  0  0  0  0  0  0  0  0  0
  150.8487  139.2326  158.5447 H   0  0  0  0  0  0  0  0  0  0  0  0
  152.4635  138.6211  158.6806 H   0  0  0  0  0  0  0  0  0  0  0  0
  150.8701  141.7824  157.9305 H   0  0  0  0  0  0  0  0  0  0  0  0
  153.1705  143.9951  160.8097 H   0  0  0  0  0  0  0  0  0  0  0  0
  154.3365  141.9828  161.3993 H   0  0  0  0  0  0  0  0  0  0  0  0
  147.8710  141.4100  152.6057 H   0  0  0  0  0  0  0  0  0  0  0  0
  146.8809  140.3210  153.5547 H   0  0  0  0  0  0  0  0  0  0  0  0
  147.3224  143.3198  154.0323 H   0  0  0  0  0  0  0  0  0  0  0  0
  145.8576  142.5598  153.4390 H   0  0  0  0  0  0  0  0  0  0  0  0
  147.9812  142.8805  156.3626 H   0  0  0  0  0  0  0  0  0  0  0  0
  146.9535  141.8284  157.3184 H   0  0  0  0  0  0  0  0  0  0  0  0
  147.5530  139.8705  155.9487 H   0  0  0  0  0  0  0  0  0  0  0  0
  148.9900  140.6555  156.5689 H   0  0  0  0  0  0  0  0  0  0  0  0
  1  2  1  0  0  0  0
  1 25  1  0  0  0  0
  1 26  1  0  0  0  0
  1 27  1  0  0  0  0
  2  3  1  0  0  0  0
  2 19  1  0  0  0  0
  2 28  1  0  0  0  0
  3  4  1  0  0  0  0
  3 29  1  0  0  0  0
  3 30  1  0  0  0  0
  4  5  1  0  0  0  0
  4 31  1  0  0  0  0
  5  6  2  0  0  0  0
  5  7  1  0  0  0  0
  7  8  1  0  0  0  0
  7 32  1  0  0  0  0
  7 33  1  0  0  0  0
  8 17  1  0  0  0  0
  8  9  1  0  0  0  0
  9 10  2  0  0  0  0
  9 34  1  0  0  0  0
 10 11  1  0  0  0  0
 10 15  1  0  0  0  0
 11 12  1  0  0  0  0
 11 13  1  0  0  0  0
 11 14  1  0  0  0  0
 15 16  2  0  0  0  0
 15 35  1  0  0  0  0
 16 17  1  0  0  0  0
 16 36  1  0  0  0  0
 17 18  2  0  0  0  0
 19 24  1  0  0  0  0
 19 20  1  0  0  0  0
 20 21  1  0  0  0  0
 20 37  1  0  0  0  0
 20 38  1  0  0  0  0
 21 22  1  0  0  0  0
 21 39  1  0  0  0  0
 21 40  1  0  0  0  0
 22 23  1  0  0  0  0
 23 24  1  0  0  0  0
 23 41  1  0  0  0  0
 23 42  1  0  0  0  0
 24 43  1  0  0  0  0
 24 44  1  0  0  0  0
M  END
> <s_m_source_file>
AV-unprocessed.smi

> <i_m_source_file_index>
2146

> <i_lp_mmshare_version>
43012

> <i_f3d_flags>
0

> <s_epik_input>
W0NIMl0xW0NIMl1PW0NIMl1bQ0gyXU4xW0NASF0oW0NIM10pW0NIMl1bTkhdQyg9TylbQ0gyXW4yW2NIXWMoQyhGKShGKUYpW2NIXVtjSF1jMj1P

> <s_epik_cmdline>
J2VwaWtfcHl0aG9uJywgJy1waCcsICc3LjAnLCAnLXRuJywgJzgnLCAnLW1hJywgJzIwMCcsICctbWV0YWxfYmluZGluZycsICctaW1hZScsICc8aW5maWxlLm1hZT4nLCAnLW9tYWUnLCAnPG91dGZpbGUubWFlPic=

> <r_lp_tautomer_probability>
1

> <r_epik_Ionization_Penalty>
0.237382

> <r_epik_Ionization_Penalty_Charging>
1.80451e-08

> <r_epik_Ionization_Penalty_Neutral>
0.237382

> <r_epik_State_Penalty>
0.228245

> <r_epik_Charging_Adjusted_Penalty>
0.228245

> <i_epik_Tot_Q>
0

> <i_epik_Tot_abs_Q>
0

> <r_epik_Metal_State_Penalty>
0.22822

> <b_epik_Metal_Only>
0

> <s_lp_Force_Field>
OPLS_2005

> <r_lp_Energy>
40.571

> <b_lp_Chiralities_Consistent>
1

> <s_lp_Variant>
AV-unprocessed.smi:2146-1

> <Gold.Version>
5.8.1

> <Gold.Id.Protein>
6NUR|6NUR_protein|mol2

> <Gold.PLP.Fitness>
52.6472

> <Gold.PLP.PLP>
-50.3529

> <Gold.PLP.part.hbond>
-0.8528

> <Gold.PLP.part.metal>
0.0000

> <Gold.PLP.part.buried>
-6.2189

> <Gold.PLP.part.nonpolar>
-44.5154

> <Gold.PLP.part.repulsive>
0.3150

> <Gold.PLP.ligand.clash>
0.0000

> <Gold.PLP.ligand.torsion>
0.4042

> <Gold.PLP.Chemscore.Hbond>
1.0000

> <Gold.PLP.Chemscore.CHOScore>
0.0000

> <Gold.PLP.Chemscore.Metal>
0.0000

> <Gold.Chemscore.Hbonds>
donor molecule, donor type, donor heavy atom, donor atom, acceptor molecule, acceptor atom, score
      P1  H  7997  8009       L1     6  0.34

> <Gold.PLP.Chemscore.Internal.Correction>
0.1026

> <Gold.Rescore>
     Score         DG    S(hbond)    S(metal)    S(lipo)     H(rot)  DE(clash)    DE(int)     intcor
     13.45     -14.03       0.98        0.00      91.18       2.10       0.07       0.52       ----

> <Gold.Chemscore.Fitness>
13.4480

> <Gold.Chemscore.DG>
-14.0297

> <Gold.Chemscore.ZeroCoef>
-5.4800

> <Gold.Chemscore.Hbond>
0.9783

> <Gold.Chemscore.Metal>
0.0000

> <Gold.Chemscore.Lipo>
91.1810

> <Gold.Chemscore.Internal_Hbond>
0.0000

> <Gold.Chemscore.DEClash>
0.0650

> <Gold.Chemscore.DEInternal>
0.5167

> <Gold.Chemscore.Rot>
2.1039

> <Gold.Chemscore.Internal.Correction>
   9.000000E+99

> <Gold.Chemscore.Hbonds>
donor molecule, donor type, donor heavy atom, donor atom, acceptor molecule, acceptor atom, score
      P1  H  7997  8009       L1     6  0.35

> <Gold.Chemscore.Hbond.Weighted>
-3.2675

> <Gold.Chemscore.Metal.Weighted>
-0.0000

> <Gold.Chemscore.Lipo.Weighted>
-10.6682

> <Gold.Chemscore.Internal_Hbond.Weighted>
0.0000

> <Gold.Chemscore.DEClash.Weighted>
0.0650

> <Gold.Chemscore.DEInternal.Weighted>
0.5167

> <Gold.Chemscore.Rot.Weighted>
5.3860

> <Gold.Chemscore.Internal.Correction.Weighted>
   9.000000E+99

> <Gold.Protein.RotatedTorsions>
[ 6907 6896 6895 6894 ] final -124.97 input  -60.11 | X-H torsion
[ 7974 7965 7964 7962 ] final   46.69 input  175.53 | X-H torsion
[ 8008 7997 7996 7995 ] final -152.47 input   59.86 | X-H torsion
[ 10167 10162 10161 10158 ] final  100.38 input  -65.29 | X-H torsion
[ 10718 10713 10712 10709 ] final   11.42 input   66.30 | X-H torsion
[ 10763 10752 10751 10750 ] final  152.56 input  -60.55 | X-H torsion
[ 11005 11000 10999 10996 ] final   67.72 input  -57.11 | X-H torsion

> <Gold.Protein.ActiveResidues>
 VAL166  LYS551  ARG553  GLY616  TRP617  ASP618  TYR619  PRO620  LYS621  CYS622 
 ASP623  PHE694  ASN695  SER759  ASP760  ASP761  ALA762  ILE779  LEU786  VAL792 
 PHE793  MET794  SER795  GLU796  ALA797  LYS798  CYS799  TRP800  GLU811  SER814 

> <Gold.Protein.RotatedAtoms>
  150.8821  133.7358  159.2928 H   0  0  0  0  0  0  0  0  0  0  0  0  # atno 6907 bound_to 6896
  151.4936  135.1057  159.9819 H   0  0  0  0  0  0  0  0  0  0  0  0  # atno 6908 bound_to 6896
  152.4766  133.8108  159.7058 H   0  0  0  0  0  0  0  0  0  0  0  0  # atno 6909 bound_to 6896
  146.0367  139.4829  142.9804 H   0  0  0  0  0  0  0  0  0  0  0  0  # atno 7974 bound_to 7965
  155.6556  140.0717  157.2572 H   0  0  0  0  0  0  0  0  0  0  0  0  # atno 8008 bound_to 7997
  154.4153  140.1725  156.1772 H   0  0  0  0  0  0  0  0  0  0  0  0  # atno 8009 bound_to 7997
  155.9740  140.3359  155.6605 H   0  0  0  0  0  0  0  0  0  0  0  0  # atno 8010 bound_to 7997
  139.7532  144.6977  151.0401 H   0  0  0  0  0  0  0  0  0  0  0  0  # atno 10167 bound_to 10162
  156.9952  130.6058  149.5690 H   0  0  0  0  0  0  0  0  0  0  0  0  # atno 10718 bound_to 10713
  154.1219  135.2832  155.3206 H   0  0  0  0  0  0  0  0  0  0  0  0  # atno 10763 bound_to 10752
  154.6417  135.5400  153.7800 H   0  0  0  0  0  0  0  0  0  0  0  0  # atno 10764 bound_to 10752
  153.0310  135.6488  154.1373 H   0  0  0  0  0  0  0  0  0  0  0  0  # atno 10765 bound_to 10752
  139.9754  134.6832  156.0365 H   0  0  0  0  0  0  0  0  0  0  0  0  # atno 11005 bound_to 11000
  145.6952  141.0152  143.1534 LP  0  0  0  0  0  0  0  0  0  0  0  0  # atno 17320 bound_to 7965
  144.7055  139.8580  143.7431 LP  0  0  0  0  0  0  0  0  0  0  0  0  # atno 17321 bound_to 7965
  140.7800  143.4784  151.0051 LP  0  0  0  0  0  0  0  0  0  0  0  0  # atno 17342 bound_to 10162
  139.8471  143.7487  152.3179 LP  0  0  0  0  0  0  0  0  0  0  0  0  # atno 17343 bound_to 10162
  156.0192  130.5286  150.8225 LP  0  0  0  0  0  0  0  0  0  0  0  0  # atno 17370 bound_to 10713
  157.5430  131.0941  150.9802 LP  0  0  0  0  0  0  0  0  0  0  0  0  # atno 17371 bound_to 10713
  141.1431  133.6561  156.3787 LP  0  0  0  0  0  0  0  0  0  0  0  0  # atno 17394 bound_to 11000
  140.5207  134.6307  157.5317 LP  0  0  0  0  0  0  0  0  0  0  0  0  # atno 17395 bound_to 11000

$$$$
