AV-unprocessed.smi:213|AV-procd|sdf|1639|dock6
  -GOLD-   2262020 03D 1   1.00000     0.00000
 Structure written by MMmdl.
 59 62  0  0  0  0  0  0  0  0  2 V2000
  148.1008  136.3651  155.5280 C   0  0  0  0  0  0  0  0  0  0  0  0
  149.3482  135.5683  155.1124 C   0  0  2  0  0  0  0  0  0  0  0  0
  148.9652  134.1934  154.5133 C   0  0  0  0  0  0  0  0  0  0  0  0
  147.9238  134.2881  153.4586 N   0  3  0  0  0  0  0  0  0  0  0  0
  148.0585  133.2470  152.4142 C   0  0  0  0  0  0  0  0  0  0  0  0
  147.0108  133.4662  151.3100 C   0  0  0  0  0  0  0  0  0  0  0  0
  145.7071  133.4657  151.8795 O   0  0  0  0  0  0  0  0  0  0  0  0
  145.5389  134.5109  152.8297 C   0  0  0  0  0  0  0  0  0  0  0  0
  146.5370  134.3217  153.9840 C   0  0  0  0  0  0  0  0  0  0  0  0
  150.3082  135.4542  156.2210 N   0  0  0  0  0  0  0  0  0  0  0  0
  150.8566  134.1435  156.5682 C   0  0  0  0  0  0  0  0  0  0  0  0
  151.1064  136.5316  156.4451 C   0  0  0  0  0  0  0  0  0  0  0  0
  152.4550  136.3984  156.3232 N   0  0  0  0  0  0  0  0  0  0  0  0
  153.2575  137.4530  156.4920 C   0  0  0  0  0  0  0  0  0  0  0  0
  152.9276  138.7137  156.7758 N   0  0  0  0  0  0  0  0  0  0  0  0
  151.5781  138.8530  156.9127 C   0  0  0  0  0  0  0  0  0  0  0  0
  150.6045  137.8246  156.7676 C   0  0  0  0  0  0  0  0  0  0  0  0
  149.3338  138.3450  156.9854 N   0  0  0  0  0  0  0  0  0  0  0  0
  149.5440  139.6071  157.2430 C   0  0  0  0  0  0  0  0  0  0  0  0
  150.8631  139.9969  157.2188 N   0  0  0  0  0  0  0  0  0  0  0  0
  151.3791  141.3299  157.4746 C   0  0  0  0  0  0  0  0  0  0  0  0
  151.5915  141.5981  158.9777 C   0  0  1  0  0  0  0  0  0  0  0  0
  152.4518  140.6278  159.5445 O   0  0  0  0  0  0  0  0  0  0  0  0
  152.1194  143.0187  159.2633 C   0  0  1  0  0  0  0  0  0  0  0  0
  151.2360  144.1806  158.7986 C   0  0  0  0  0  0  0  0  0  0  0  0
  151.6914  145.2873  159.7231 C   0  0  0  0  0  0  0  0  0  0  0  0
  151.9140  144.5292  161.0292 C   0  0  0  0  0  0  0  0  0  0  0  0
  152.3562  143.2276  160.6539 O   0  0  0  0  0  0  0  0  0  0  0  0
  147.4542  136.5469  154.6693 H   0  0  0  0  0  0  0  0  0  0  0  0
  148.3763  137.3365  155.9400 H   0  0  0  0  0  0  0  0  0  0  0  0
  147.5064  135.8393  156.2752 H   0  0  0  0  0  0  0  0  0  0  0  0
  149.8024  136.1484  154.3120 H   0  0  0  0  0  0  0  0  0  0  0  0
  149.8615  133.7384  154.0893 H   0  0  0  0  0  0  0  0  0  0  0  0
  148.6251  133.5155  155.2975 H   0  0  0  0  0  0  0  0  0  0  0  0
  149.0585  133.2833  151.9802 H   0  0  0  0  0  0  0  0  0  0  0  0
  147.9360  132.2592  152.8613 H   0  0  0  0  0  0  0  0  0  0  0  0
  147.1902  134.4059  150.7847 H   0  0  0  0  0  0  0  0  0  0  0  0
  147.0738  132.6693  150.5688 H   0  0  0  0  0  0  0  0  0  0  0  0
  145.6769  135.4814  152.3504 H   0  0  0  0  0  0  0  0  0  0  0  0
  144.5167  134.4858  153.2075 H   0  0  0  0  0  0  0  0  0  0  0  0
  146.3223  133.3939  154.5161 H   0  0  0  0  0  0  0  0  0  0  0  0
  146.4161  135.1353  154.6984 H   0  0  0  0  0  0  0  0  0  0  0  0
  151.3283  134.1710  157.5514 H   0  0  0  0  0  0  0  0  0  0  0  0
  151.6027  133.8278  155.8382 H   0  0  0  0  0  0  0  0  0  0  0  0
  150.0772  133.3836  156.6048 H   0  0  0  0  0  0  0  0  0  0  0  0
  154.3144  137.2615  156.3772 H   0  0  0  0  0  0  0  0  0  0  0  0
  148.7377  140.2922  157.4627 H   0  0  0  0  0  0  0  0  0  0  0  0
  152.3131  141.4517  156.9247 H   0  0  0  0  0  0  0  0  0  0  0  0
  150.6769  142.0539  157.0592 H   0  0  0  0  0  0  0  0  0  0  0  0
  150.6315  141.4913  159.4843 H   0  0  0  0  0  0  0  0  0  0  0  0
  152.2014  140.4990  160.4468 H   0  0  0  0  0  0  0  0  0  0  0  0
  153.0907  143.1269  158.7778 H   0  0  0  0  0  0  0  0  0  0  0  0
  151.3701  144.4214  157.7439 H   0  0  0  0  0  0  0  0  0  0  0  0
  150.1781  143.9781  158.9686 H   0  0  0  0  0  0  0  0  0  0  0  0
  152.6317  145.7100  159.3674 H   0  0  0  0  0  0  0  0  0  0  0  0
  150.9653  146.0951  159.8171 H   0  0  0  0  0  0  0  0  0  0  0  0
  152.6337  145.0232  161.6818 H   0  0  0  0  0  0  0  0  0  0  0  0
  150.9745  144.4303  161.5744 H   0  0  0  0  0  0  0  0  0  0  0  0
  148.0794  135.1704  152.9909 H   0  0  0  0  0  0  0  0  0  0  0  0
  1  2  1  0  0  0  0
  1 29  1  0  0  0  0
  1 30  1  0  0  0  0
  1 31  1  0  0  0  0
  2  3  1  0  0  0  0
  2 10  1  0  0  0  0
  2 32  1  0  0  0  0
  3  4  1  0  0  0  0
  3 33  1  0  0  0  0
  3 34  1  0  0  0  0
  4  9  1  0  0  0  0
  4  5  1  0  0  0  0
  4 59  1  0  0  0  0
  5  6  1  0  0  0  0
  5 35  1  0  0  0  0
  5 36  1  0  0  0  0
  6  7  1  0  0  0  0
  6 37  1  0  0  0  0
  6 38  1  0  0  0  0
  7  8  1  0  0  0  0
  8  9  1  0  0  0  0
  8 39  1  0  0  0  0
  8 40  1  0  0  0  0
  9 41  1  0  0  0  0
  9 42  1  0  0  0  0
 10 11  1  0  0  0  0
 10 12  1  0  0  0  0
 11 43  1  0  0  0  0
 11 44  1  0  0  0  0
 11 45  1  0  0  0  0
 12 17  1  0  0  0  0
 12 13  2  0  0  0  0
 13 14  1  0  0  0  0
 14 15  2  0  0  0  0
 14 46  1  0  0  0  0
 15 16  1  0  0  0  0
 16 20  1  0  0  0  0
 16 17  2  0  0  0  0
 17 18  1  0  0  0  0
 18 19  2  0  0  0  0
 19 20  1  0  0  0  0
 19 47  1  0  0  0  0
 20 21  1  0  0  0  0
 21 22  1  0  0  0  0
 21 48  1  0  0  0  0
 21 49  1  0  0  0  0
 22 23  1  0  0  0  0
 22 24  1  0  0  0  0
 22 50  1  0  0  0  0
 23 51  1  0  0  0  0
 24 28  1  0  0  0  0
 24 25  1  0  0  0  0
 24 52  1  0  0  0  0
 25 26  1  0  0  0  0
 25 53  1  0  0  0  0
 25 54  1  0  0  0  0
 26 27  1  0  0  0  0
 26 55  1  0  0  0  0
 26 56  1  0  0  0  0
 27 28  1  0  0  0  0
 27 57  1  0  0  0  0
 27 58  1  0  0  0  0
M  CHG  1   4   1
M  END
> <s_m_source_file>
AV-unprocessed.smi

> <i_m_source_file_index>
213

> <i_lp_mmshare_version>
43012

> <i_f3d_flags>
0

> <s_epik_input>
W0NIMl0xW0NIMl1PW0NIMl1bQ0gyXU4xW0NIMl1bQ0BASF0oW0NIM10pTihbQ0gzXSljKG5bY0hdbjIpYyhjMjMpbltjSF1uM1tDSDJdW0NASF0oW09IXSlbQ0BASF00W0NIMl1bQ0gyXVtDSDJdTzQ=

> <s_epik_cmdline>
J2VwaWtfcHl0aG9uJywgJy1waCcsICc3LjAnLCAnLXRuJywgJzgnLCAnLW1hJywgJzIwMCcsICctbWV0YWxfYmluZGluZycsICctaW1hZScsICc8aW5maWxlLm1hZT4nLCAnLW9tYWUnLCAnPG91dGZpbGUubWFlPic=

> <r_lp_tautomer_probability>
1

> <r_epik_Ionization_Penalty>
0.399679

> <r_epik_Ionization_Penalty_Charging>
0.399433

> <r_epik_Ionization_Penalty_Neutral>
0.000246213

> <r_epik_State_Penalty>
0.286032

> <r_epik_Charging_Adjusted_Penalty>
0.685465

> <i_epik_Tot_Q>
1

> <i_epik_Tot_abs_Q>
1

> <r_epik_Metal_State_Penalty>
0.286072

> <b_epik_Metal_Only>
0

> <s_lp_Force_Field>
OPLS_2005

> <r_lp_Energy>
47.0923

> <b_lp_Chiralities_Consistent>
1

> <s_lp_Variant>
AV-unprocessed.smi:213-7

> <Gold.Version>
5.8.1

> <Gold.Id.Protein>
6NUR|6NUR_protein|mol2

> <Gold.PLP.Fitness>
49.4785

> <Gold.PLP.PLP>
-39.9699

> <Gold.PLP.part.hbond>
-3.0000

> <Gold.PLP.part.metal>
0.0000

> <Gold.PLP.part.buried>
-5.7122

> <Gold.PLP.part.nonpolar>
-32.1665

> <Gold.PLP.part.repulsive>
0.1451

> <Gold.PLP.ligand.clash>
0.0000

> <Gold.PLP.ligand.torsion>
1.8946

> <Gold.PLP.Chemscore.Hbond>
4.0000

> <Gold.PLP.Chemscore.CHOScore>
0.0000

> <Gold.PLP.Chemscore.Metal>
0.0000

> <Gold.Chemscore.Hbonds>
donor molecule, donor type, donor heavy atom, donor atom, acceptor molecule, acceptor atom, score
      L1  H     4    59       P1  7948  2.00
      P1  H  7997  8008       L1    15  1.00
      P1  H 10752 10764       L1    13  1.00

> <Gold.PLP.Chemscore.Internal.Correction>
1.2978

> <Gold.Rescore>
     Score         DG    S(hbond)    S(metal)    S(lipo)     H(rot)  DE(clash)    DE(int)     intcor
     13.79     -18.55       2.61        0.00      99.03       2.83       0.16       4.60       ----

> <Gold.Chemscore.Fitness>
13.7908

> <Gold.Chemscore.DG>
-18.5534

> <Gold.Chemscore.ZeroCoef>
-5.4800

> <Gold.Chemscore.Hbond>
2.6106

> <Gold.Chemscore.Metal>
0.0000

> <Gold.Chemscore.Lipo>
99.0329

> <Gold.Chemscore.Internal_Hbond>
0.0000

> <Gold.Chemscore.DEClash>
0.1604

> <Gold.Chemscore.DEInternal>
4.6022

> <Gold.Chemscore.Rot>
2.8254

> <Gold.Chemscore.Internal.Correction>
   9.000000E+99

> <Gold.Chemscore.Hbonds>
donor molecule, donor type, donor heavy atom, donor atom, acceptor molecule, acceptor atom, score
      L1  H     4    59       P1  7948  0.94
      P1  H  7997  8008       L1    15  0.86
      P1  H 10752 10764       L1    13  0.29

> <Gold.Chemscore.Hbond.Weighted>
-8.7195

> <Gold.Chemscore.Metal.Weighted>
-0.0000

> <Gold.Chemscore.Lipo.Weighted>
-11.5868

> <Gold.Chemscore.Internal_Hbond.Weighted>
0.0000

> <Gold.Chemscore.DEClash.Weighted>
0.1604

> <Gold.Chemscore.DEInternal.Weighted>
4.6022

> <Gold.Chemscore.Rot.Weighted>
7.2330

> <Gold.Chemscore.Internal.Correction.Weighted>
   9.000000E+99

> <Gold.Protein.RotatedTorsions>
[ 6907 6896 6895 6894 ] final -113.76 input  -60.11 | X-H torsion
[ 7974 7965 7964 7962 ] final   87.85 input  175.53 | X-H torsion
[ 8008 7997 7996 7995 ] final  -71.00 input   59.86 | X-H torsion
[ 10167 10162 10161 10158 ] final -154.77 input  -65.29 | X-H torsion
[ 10718 10713 10712 10709 ] final  -41.21 input   66.30 | X-H torsion
[ 10763 10752 10751 10750 ] final   -8.17 input  -60.55 | X-H torsion
[ 11005 11000 10999 10996 ] final  -62.28 input  -57.11 | X-H torsion

> <Gold.Protein.ActiveResidues>
 VAL166  LYS551  ARG553  GLY616  TRP617  ASP618  TYR619  PRO620  LYS621  CYS622 
 ASP623  PHE694  ASN695  SER759  ASP760  ASP761  ALA762  ILE779  LEU786  VAL792 
 PHE793  MET794  SER795  GLU796  ALA797  LYS798  CYS799  TRP800  GLU811  SER814 

> <Gold.Protein.RotatedAtoms>
  150.7852  133.8898  159.3309 H   0  0  0  0  0  0  0  0  0  0  0  0  # atno 6907 bound_to 6896
  151.6751  135.0968  160.0215 H   0  0  0  0  0  0  0  0  0  0  0  0  # atno 6908 bound_to 6896
  152.3914  133.6646  159.6276 H   0  0  0  0  0  0  0  0  0  0  0  0  # atno 6909 bound_to 6896
  145.5535  139.2297  143.2499 H   0  0  0  0  0  0  0  0  0  0  0  0  # atno 7974 bound_to 7965
  154.5054  140.0824  156.7884 H   0  0  0  0  0  0  0  0  0  0  0  0  # atno 8008 bound_to 7997
  155.3905  140.3432  155.4233 H   0  0  0  0  0  0  0  0  0  0  0  0  # atno 8009 bound_to 7997
  156.1509  140.1558  156.8759 H   0  0  0  0  0  0  0  0  0  0  0  0  # atno 8010 bound_to 7997
  139.6986  143.9301  152.2418 H   0  0  0  0  0  0  0  0  0  0  0  0  # atno 10167 bound_to 10162
  156.2729  130.4208  149.8419 H   0  0  0  0  0  0  0  0  0  0  0  0  # atno 10718 bound_to 10713
  153.4366  135.7013  153.6196 H   0  0  0  0  0  0  0  0  0  0  0  0  # atno 10763 bound_to 10752
  153.4588  135.3741  155.2326 H   0  0  0  0  0  0  0  0  0  0  0  0  # atno 10764 bound_to 10752
  154.8727  135.4015  154.3758 H   0  0  0  0  0  0  0  0  0  0  0  0  # atno 10765 bound_to 10752
  141.1354  133.6638  156.5504 H   0  0  0  0  0  0  0  0  0  0  0  0  # atno 11005 bound_to 11000
  146.1900  140.6358  142.9150 LP  0  0  0  0  0  0  0  0  0  0  0  0  # atno 17320 bound_to 7965
  144.7517  140.5208  143.6797 LP  0  0  0  0  0  0  0  0  0  0  0  0  # atno 17321 bound_to 7965
  139.9137  144.6841  150.8535 LP  0  0  0  0  0  0  0  0  0  0  0  0  # atno 17342 bound_to 10162
  140.7703  143.3425  151.2179 LP  0  0  0  0  0  0  0  0  0  0  0  0  # atno 17343 bound_to 10162
  156.5894  130.8500  151.3404 LP  0  0  0  0  0  0  0  0  0  0  0  0  # atno 17370 bound_to 10713
  157.7289  130.9664  150.1765 LP  0  0  0  0  0  0  0  0  0  0  0  0  # atno 17371 bound_to 10713
  140.4068  134.7308  157.4812 LP  0  0  0  0  0  0  0  0  0  0  0  0  # atno 17394 bound_to 11000
  140.0456  134.6204  155.8925 LP  0  0  0  0  0  0  0  0  0  0  0  0  # atno 17395 bound_to 11000

$$$$
