AV-unprocessed.smi:2293|AV-procd|sdf|9215|dock5
  -GOLD-   2272012433D 1   1.00000     0.00000
 Structure written by MMmdl.
 34 35  0  0  0  0  0  0  0  0  1 V2000
  145.5022  142.2680  156.0584 C   0  0  0  0  0  0  0  0  0  0  0  0
  146.9942  141.9941  155.9910 C   0  0  0  0  0  0  0  0  0  0  0  0
  147.6960  142.1780  157.1856 N   0  0  0  0  0  0  0  0  0  0  0  0
  148.9708  141.9670  157.2230 C   0  0  0  0  0  0  0  0  0  0  0  0
  149.6856  141.5553  156.0854 N   0  0  0  0  0  0  0  0  0  0  0  0
  151.1327  141.3438  156.2643 C   0  0  0  0  0  0  0  0  0  0  0  0
  151.4941  140.9436  157.7129 C   0  0  1  0  0  0  0  0  0  0  0  0
  152.5839  140.0436  157.6840 O   0  0  0  0  0  0  0  0  0  0  0  0
  151.8206  142.1698  158.5518 C   0  0  0  0  0  0  0  0  0  0  0  0
  151.7433  143.4648  157.9924 C   0  0  0  0  0  0  0  0  0  0  0  0
  152.0417  144.5962  158.7763 C   0  0  0  0  0  0  0  0  0  0  0  0
  152.4167  144.4403  160.1244 C   0  0  0  0  0  0  0  0  0  0  0  0
  152.4908  143.1525  160.6890 C   0  0  0  0  0  0  0  0  0  0  0  0
  152.8482  143.0019  161.9862 F   0  0  0  0  0  0  0  0  0  0  0  0
  152.1927  142.0206  159.9053 C   0  0  0  0  0  0  0  0  0  0  0  0
  149.0782  141.3522  154.8806 C   0  0  0  0  0  0  0  0  0  0  0  0
  149.7116  140.9903  153.8873 O   0  0  0  0  0  0  0  0  0  0  0  0
  147.6264  141.5939  154.8540 C   0  0  0  0  0  0  0  0  0  0  0  0
  146.9134  141.3763  153.5251 C   0  0  0  0  0  0  0  0  0  0  0  0
  144.9375  141.3704  155.8060 H   0  0  0  0  0  0  0  0  0  0  0  0
  145.2275  143.0610  155.3625 H   0  0  0  0  0  0  0  0  0  0  0  0
  145.2005  142.5821  157.0583 H   0  0  0  0  0  0  0  0  0  0  0  0
  149.5644  142.0896  158.1306 H   0  0  0  0  0  0  0  0  0  0  0  0
  151.5338  140.6196  155.5526 H   0  0  0  0  0  0  0  0  0  0  0  0
  151.6476  142.2740  156.0145 H   0  0  0  0  0  0  0  0  0  0  0  0
  150.6537  140.4259  158.1772 H   0  0  0  0  0  0  0  0  0  0  0  0
  152.2619  139.1897  157.4383 H   0  0  0  0  0  0  0  0  0  0  0  0
  151.4528  143.5937  156.9598 H   0  0  0  0  0  0  0  0  0  0  0  0
  151.9819  145.5839  158.3433 H   0  0  0  0  0  0  0  0  0  0  0  0
  152.6460  145.3079  160.7255 H   0  0  0  0  0  0  0  0  0  0  0  0
  152.2510  141.0374  160.3490 H   0  0  0  0  0  0  0  0  0  0  0  0
  147.3210  142.0451  152.7664 H   0  0  0  0  0  0  0  0  0  0  0  0
  145.8411  141.5557  153.5782 H   0  0  0  0  0  0  0  0  0  0  0  0
  147.0566  140.3503  153.1849 H   0  0  0  0  0  0  0  0  0  0  0  0
  1  2  1  0  0  0  0
  1 20  1  0  0  0  0
  1 21  1  0  0  0  0
  1 22  1  0  0  0  0
  2 18  2  0  0  0  0
  2  3  1  0  0  0  0
  3  4  2  0  0  0  0
  4  5  1  0  0  0  0
  4 23  1  0  0  0  0
  5  6  1  0  0  0  0
  5 16  1  0  0  0  0
  6  7  1  0  0  0  0
  6 24  1  0  0  0  0
  6 25  1  0  0  0  0
  7  8  1  0  0  0  0
  7  9  1  0  0  0  0
  7 26  1  0  0  0  0
  8 27  1  0  0  0  0
  9 15  1  0  0  0  0
  9 10  2  0  0  0  0
 10 11  1  0  0  0  0
 10 28  1  0  0  0  0
 11 12  2  0  0  0  0
 11 29  1  0  0  0  0
 12 13  1  0  0  0  0
 12 30  1  0  0  0  0
 13 14  1  0  0  0  0
 13 15  2  0  0  0  0
 15 31  1  0  0  0  0
 16 17  2  0  0  0  0
 16 18  1  0  0  0  0
 18 19  1  0  0  0  0
 19 32  1  0  0  0  0
 19 33  1  0  0  0  0
 19 34  1  0  0  0  0
M  END
> <s_m_source_file>
AV-unprocessed.smi

> <i_m_source_file_index>
2293

> <i_lp_mmshare_version>
43012

> <i_f3d_flags>
0

> <s_epik_input>
W0NIM11jMW5bY0hdbihjKD1PKWMxW0NIM10pW0NIMl1bQ0BIXShbT0hdKWMyW2NIXVtjSF1bY0hdYyhGKVtjSF0y

> <s_epik_cmdline>
J2VwaWtfcHl0aG9uJywgJy1waCcsICc3LjAnLCAnLXRuJywgJzgnLCAnLW1hJywgJzIwMCcsICctbWV0YWxfYmluZGluZycsICctaW1hZScsICc8aW5maWxlLm1hZT4nLCAnLW9tYWUnLCAnPG91dGZpbGUubWFlPic=

> <r_lp_tautomer_probability>
1

> <r_epik_Ionization_Penalty>
5.08222e-05

> <r_epik_Ionization_Penalty_Charging>
7.56727e-08

> <r_epik_Ionization_Penalty_Neutral>
5.07465e-05

> <r_epik_State_Penalty>
-0

> <r_epik_Charging_Adjusted_Penalty>
7.56727e-08

> <i_epik_Tot_Q>
0

> <i_epik_Tot_abs_Q>
0

> <r_epik_Metal_State_Penalty>
-0

> <b_epik_Metal_Only>
0

> <s_lp_Force_Field>
OPLS_2005

> <r_lp_Energy>
19.6901

> <b_lp_Chiralities_Consistent>
1

> <s_lp_Variant>
AV-unprocessed.smi:2293-2

> <Gold.Version>
5.8.1

> <Gold.Id.Protein>
6NUR|6NUR_protein|mol2

> <Gold.PLP.Fitness>
48.2868

> <Gold.PLP.PLP>
-43.2097

> <Gold.PLP.part.hbond>
-3.0000

> <Gold.PLP.part.metal>
0.0000

> <Gold.PLP.part.buried>
-5.0651

> <Gold.PLP.part.nonpolar>
-37.0464

> <Gold.PLP.part.repulsive>
2.0711

> <Gold.PLP.ligand.clash>
0.0000

> <Gold.PLP.ligand.torsion>
0.8123

> <Gold.PLP.Chemscore.Hbond>
2.2300

> <Gold.PLP.Chemscore.CHOScore>
0.0000

> <Gold.PLP.Chemscore.Metal>
0.0000

> <Gold.Chemscore.Hbonds>
donor molecule, donor type, donor heavy atom, donor atom, acceptor molecule, acceptor atom, score
      P1  H  7989  7998       L1    17  0.42
      P1  H  7997  8008       L1     8  0.91
      P1  H  8011  8017       L1    17  0.73

> <Gold.PLP.Chemscore.Internal.Correction>
0.0117

> <Gold.Rescore>
     Score         DG    S(hbond)    S(metal)    S(lipo)     H(rot)  DE(clash)    DE(int)     intcor
     16.64     -19.21       2.15        0.00     100.05       2.02       1.64       0.92       ----

> <Gold.Chemscore.Fitness>
16.6438

> <Gold.Chemscore.DG>
-19.2068

> <Gold.Chemscore.ZeroCoef>
-5.4800

> <Gold.Chemscore.Hbond>
2.1519

> <Gold.Chemscore.Metal>
0.0000

> <Gold.Chemscore.Lipo>
100.0491

> <Gold.Chemscore.Internal_Hbond>
0.0000

> <Gold.Chemscore.DEClash>
1.6418

> <Gold.Chemscore.DEInternal>
0.9212

> <Gold.Chemscore.Rot>
2.0181

> <Gold.Chemscore.Internal.Correction>
   9.000000E+99

> <Gold.Chemscore.Hbonds>
donor molecule, donor type, donor heavy atom, donor atom, acceptor molecule, acceptor atom, score
      P1  H  7989  7998       L1    17  0.42
      P1  H  7997  8008       L1     8  0.25
      P1  H  8011  8017       L1    17  0.64

> <Gold.Chemscore.Hbond.Weighted>
-7.1874

> <Gold.Chemscore.Metal.Weighted>
-0.0000

> <Gold.Chemscore.Lipo.Weighted>
-11.7057

> <Gold.Chemscore.Internal_Hbond.Weighted>
0.0000

> <Gold.Chemscore.DEClash.Weighted>
1.6418

> <Gold.Chemscore.DEInternal.Weighted>
0.9212

> <Gold.Chemscore.Rot.Weighted>
5.1663

> <Gold.Chemscore.Internal.Correction.Weighted>
   9.000000E+99

> <Gold.Protein.RotatedTorsions>
[ 6907 6896 6895 6894 ] final -170.91 input  -60.11 | X-H torsion
[ 7974 7965 7964 7962 ] final   51.39 input  175.53 | X-H torsion
[ 8008 7997 7996 7995 ] final  -60.63 input   59.86 | X-H torsion
[ 10167 10162 10161 10158 ] final   42.69 input  -65.29 | X-H torsion
[ 10718 10713 10712 10709 ] final  144.28 input   66.30 | X-H torsion
[ 10763 10752 10751 10750 ] final  -41.69 input  -60.55 | X-H torsion
[ 11005 11000 10999 10996 ] final  -21.49 input  -57.11 | X-H torsion

> <Gold.Protein.ActiveResidues>
 VAL166  LYS551  ARG553  GLY616  TRP617  ASP618  TYR619  PRO620  LYS621  CYS622 
 ASP623  PHE694  ASN695  SER759  ASP760  ASP761  ALA762  ILE779  LEU786  VAL792 
 PHE793  MET794  SER795  GLU796  ALA797  LYS798  CYS799  TRP800  GLU811  SER814 

> <Gold.Protein.RotatedAtoms>
  151.5153  133.3477  159.2891 H   0  0  0  0  0  0  0  0  0  0  0  0  # atno 6907 bound_to 6896
  150.8686  134.8057  159.7149 H   0  0  0  0  0  0  0  0  0  0  0  0  # atno 6908 bound_to 6896
  152.4682  134.5034  159.9783 H   0  0  0  0  0  0  0  0  0  0  0  0  # atno 6909 bound_to 6896
  145.9918  139.4347  143.0069 H   0  0  0  0  0  0  0  0  0  0  0  0  # atno 7974 bound_to 7965
  154.4408  140.1035  156.6304 H   0  0  0  0  0  0  0  0  0  0  0  0  # atno 8008 bound_to 7997
  155.5611  140.3487  155.4473 H   0  0  0  0  0  0  0  0  0  0  0  0  # atno 8009 bound_to 7997
  156.0459  140.1293  157.0093 H   0  0  0  0  0  0  0  0  0  0  0  0  # atno 8010 bound_to 7997
  140.3519  144.2339  150.6145 H   0  0  0  0  0  0  0  0  0  0  0  0  # atno 10167 bound_to 10162
  157.3591  131.0962  151.0932 H   0  0  0  0  0  0  0  0  0  0  0  0  # atno 10718 bound_to 10713
  153.9666  135.6733  153.4746 H   0  0  0  0  0  0  0  0  0  0  0  0  # atno 10763 bound_to 10752
  153.0812  135.4922  154.8504 H   0  0  0  0  0  0  0  0  0  0  0  0  # atno 10764 bound_to 10752
  154.7242  135.3124  154.8958 H   0  0  0  0  0  0  0  0  0  0  0  0  # atno 10765 bound_to 10752
  140.8567  133.7818  156.0027 H   0  0  0  0  0  0  0  0  0  0  0  0  # atno 11005 bound_to 11000
  145.7618  140.9932  143.1196 LP  0  0  0  0  0  0  0  0  0  0  0  0  # atno 17320 bound_to 7965
  144.6891  139.9340  143.7473 LP  0  0  0  0  0  0  0  0  0  0  0  0  # atno 17321 bound_to 7965
  140.5211  143.2265  151.8388 LP  0  0  0  0  0  0  0  0  0  0  0  0  # atno 17342 bound_to 10162
  139.4825  144.4836  151.9275 LP  0  0  0  0  0  0  0  0  0  0  0  0  # atno 17343 bound_to 10162
  157.2078  130.6424  149.5763 LP  0  0  0  0  0  0  0  0  0  0  0  0  # atno 17370 bound_to 10713
  155.9734  130.4670  150.6308 LP  0  0  0  0  0  0  0  0  0  0  0  0  # atno 17371 bound_to 10713
  140.8730  134.2704  157.5182 LP  0  0  0  0  0  0  0  0  0  0  0  0  # atno 17394 bound_to 11000
  139.8705  134.9576  156.4275 LP  0  0  0  0  0  0  0  0  0  0  0  0  # atno 17395 bound_to 11000

$$$$
