#       Name:                AV-unprocessed.smi:1107
#       Creating user name   scv26
#       Creation time:       Fri Mar 27 03:33:09 2020


#       File generated by GOLD software.
#

@<TRIPOS>MOLECULE
AV-unprocessed.smi:1107
    54    55     1
SMALL
NO_CHARGES


@<TRIPOS>ATOM
      1 ****        -2.8518   3.3673  -1.0520 C.3            1 S1                 0.0000
      2 ****        -2.5518   2.1629  -0.1862 C.2            1 S1                 0.0000
      3 ****        -2.1646   2.3402   1.0189 N.2            1 S1                 0.0000
      4 ****        -1.8688   1.2257   1.8223 C.2            1 S1                 0.0000
      5 ****        -1.3915   1.5332   3.2304 C.3            1 S1                 0.0000
      6 ****        -1.9963  -0.0440   1.3411 C.2            1 S1                 0.0000
      7 ****        -1.6565  -1.2914   2.1556 C.3            1 S1                 0.0000
      8 ****        -0.2043  -1.7440   2.0192 C.2            1 S1                 0.0000
      9 ****         0.6091  -1.5061   2.9109 O.2            1 S1                 0.0000
     10 ****         0.1075  -2.3525   0.8651 N.am           1 S1                 0.0000
     11 ****         1.4528  -2.6719   0.3961 C.3            1 S1                 0.0000
     12 ****         1.6449  -4.1941   0.3605 C.3            1 S1                 0.0000
     13 ****         1.7017  -2.0245  -0.9855 C.3            1 S1                 0.0000
     14 ****         1.2817  -0.5988  -1.0717 N.4            1 S1                 1.0000
     15 ****         1.2083  -0.1271  -2.4794 C.3            1 S1                 0.0000
     16 ****         0.6542   1.3047  -2.5685 C.3            1 S1                 0.0000
     17 ****         1.4686   2.2723  -1.7012 C.3            1 S1                 0.0000
     18 ****         1.5493   1.7464  -0.2632 C.3            1 S1                 0.0000
     19 ****         2.1023   0.3127  -0.2299 C.3            1 S1                 0.0000
     20 ****        -2.4398  -0.2042  -0.0554 C.2            1 S1                 0.0000
     21 ****        -2.5388  -1.3266  -0.5500 O.2            1 S1                 0.0000
     22 ****        -2.7060   0.9251  -0.7689 N.pl3          1 S1                -1.0000
     23 ****        -2.9194   4.2752  -0.4510 H              1 S1                 0.0000
     24 ****        -3.7995   3.2356  -1.5754 H              1 S1                 0.0000
     25 ****        -2.0629   3.5030  -1.7923 H              1 S1                 0.0000
     26 ****        -0.4180   1.0793   3.4143 H              1 S1                 0.0000
     27 ****        -2.0995   1.1507   3.9657 H              1 S1                 0.0000
     28 ****        -1.2929   2.6079   3.3878 H              1 S1                 0.0000
     29 ****        -1.8637  -1.1079   3.2099 H              1 S1                 0.0000
     30 ****        -2.3187  -2.1143   1.8826 H              1 S1                 0.0000
     31 ****        -0.6476  -2.5168   0.2139 H              1 S1                 0.0000
     32 ****         2.1917  -2.2743   1.0928 H              1 S1                 0.0000
     33 ****         2.6503  -4.4539   0.0280 H              1 S1                 0.0000
     34 ****         0.9360  -4.6700  -0.3181 H              1 S1                 0.0000
     35 ****         1.5023  -4.6304   1.3497 H              1 S1                 0.0000
     36 ****         2.7519  -2.1186  -1.2660 H              1 S1                 0.0000
     37 ****         1.1353  -2.5885  -1.7283 H              1 S1                 0.0000
     38 ****         2.2009  -0.1733  -2.9303 H              1 S1                 0.0000
     39 ****         0.5654  -0.7929  -3.0566 H              1 S1                 0.0000
     40 ****         0.6568   1.6420  -3.6053 H              1 S1                 0.0000
     41 ****        -0.3863   1.3136  -2.2476 H              1 S1                 0.0000
     42 ****         2.4733   2.3804  -2.1117 H              1 S1                 0.0000
     43 ****         1.0141   3.2635  -1.7153 H              1 S1                 0.0000
     44 ****         2.1766   2.4034   0.3397 H              1 S1                 0.0000
     45 ****         0.5584   1.7649   0.1904 H              1 S1                 0.0000
     46 ****         2.1112  -0.0289   0.8043 H              1 S1                 0.0000
     47 ****         3.1364   0.2989  -0.5769 H              1 S1                 0.0000
     48 ****         0.3384  -0.5562  -0.7115 H              1 S1                 0.0000
     49 ****        -2.0728   3.2653   1.3874 LP             1 S1                 0.0000
     50 ****         0.3210  -1.0132   3.7320 LP             1 S1                 0.0000
     51 ****         1.5583  -1.8055   2.8147 LP             1 S1                 0.0000
     52 ****        -2.3180  -2.1348  -0.0041 LP             1 S1                 0.0000
     53 ****        -2.8401  -1.4305  -1.4979 LP             1 S1                 0.0000
     54 ****        -3.0140   0.8551  -1.7177 LP             1 S1                 0.0000
@<TRIPOS>BOND
    1    1    2 1     
    2    1   23 1     
    3    1   24 1     
    4    1   25 1     
    5    2   22 1     
    6    2    3 2     
    7    3    4 1     
    8    4    5 1     
    9    4    6 2     
   10    5   26 1     
   11    5   27 1     
   12    5   28 1     
   13    6    7 1     
   14    6   20 1     
   15    7    8 1     
   16    7   29 1     
   17    7   30 1     
   18    8    9 2     
   19    8   10 am    
   20   10   11 1     
   21   10   31 1     
   22   11   12 1     
   23   11   13 1     
   24   11   32 1     
   25   12   33 1     
   26   12   34 1     
   27   12   35 1     
   28   13   14 1     
   29   13   36 1     
   30   13   37 1     
   31   14   19 1     
   32   14   15 1     
   33   14   48 1     
   34   15   16 1     
   35   15   38 1     
   36   15   39 1     
   37   16   17 1     
   38   16   40 1     
   39   16   41 1     
   40   17   18 1     
   41   17   42 1     
   42   17   43 1     
   43   18   19 1     
   44   18   44 1     
   45   18   45 1     
   46   19   46 1     
   47   19   47 1     
   48   20   21 2     
   49   20   22 1     
   50    3   49 1     
   51    9   50 1     
   52    9   51 1     
   53   21   52 1     
   54   21   53 1     
   55   22   54 1     
@<TRIPOS>SUBSTRUCTURE
      1 S1             1
@<TRIPOS>SET
LONE_PAIRS      STATIC     ATOMS    <user>   **** ""
6 49 50 51 52 53 54
DONOR_HYDROGENS      STATIC     ATOMS    <user>   **** ""
2 31 48
ATOM$BLUE        STATIC     ATOMS    COLORGROUP SYSTEM
6 49 50 51 52 53 54
ATOM$RED        STATIC     ATOMS    COLORGROUP SYSTEM
2 31 48
