AV-unprocessed.smi:3038|AV-procd|sdf|11590|dock4
  -GOLD-   2272016563D 1   1.00000     0.00000
 Structure written by MMmdl.
 36 38  0  0  0  0  0  0  0  0  1 V2000
  150.4978  140.4454  154.8917 O   0  0  0  0  0  0  0  0  0  0  0  0
  149.7701  141.4280  155.0341 C   0  0  0  0  0  0  0  0  0  0  0  0
  148.5082  141.5709  154.1842 C   0  0  0  0  0  0  0  0  0  0  0  0
  147.3420  141.7507  155.0271 N   0  0  0  0  0  0  0  0  0  0  0  0
  146.0402  141.7498  154.7339 C   0  0  0  0  0  0  0  0  0  0  0  0
  145.2970  141.9677  155.8081 N   0  0  0  0  0  0  0  0  0  0  0  0
  146.2358  142.1102  156.8165 N   0  0  0  0  0  0  0  0  0  0  0  0
  147.4512  141.9834  156.3589 N   0  0  0  0  0  0  0  0  0  0  0  0
  150.0228  142.4200  155.9021 N   0  0  0  0  0  0  0  0  0  0  0  0
  151.1904  142.4964  156.7742 C   0  0  0  0  0  0  0  0  0  0  0  0
  151.2351  141.2743  157.7040 C   0  0  0  0  0  0  0  0  0  0  0  0
  152.3835  141.4001  158.7208 C   0  0  0  0  0  0  0  0  0  0  0  0
  152.2219  142.6168  159.5170 N   0  0  0  0  0  0  0  0  0  0  0  0
  153.2954  142.6823  160.4951 C   0  0  0  0  0  0  0  0  0  0  0  0
  153.6068  141.4260  161.2761 C   0  0  0  0  0  0  0  0  0  0  0  0
  152.9182  142.5848  161.9557 C   0  0  0  0  0  0  0  0  0  0  0  0
  152.2981  143.7938  158.6510 C   0  0  0  0  0  0  0  0  0  0  0  0
  151.1507  143.7770  157.6258 C   0  0  0  0  0  0  0  0  0  0  0  0
  148.6010  142.4350  153.5250 H   0  0  0  0  0  0  0  0  0  0  0  0
  148.3682  140.6942  153.5496 H   0  0  0  0  0  0  0  0  0  0  0  0
  145.6416  141.5947  153.7422 H   0  0  0  0  0  0  0  0  0  0  0  0
  149.3704  143.1898  155.9463 H   0  0  0  0  0  0  0  0  0  0  0  0
  152.0996  142.4983  156.1696 H   0  0  0  0  0  0  0  0  0  0  0  0
  150.2887  141.1738  158.2378 H   0  0  0  0  0  0  0  0  0  0  0  0
  151.3599  140.3625  157.1187 H   0  0  0  0  0  0  0  0  0  0  0  0
  152.3820  140.5311  159.3800 H   0  0  0  0  0  0  0  0  0  0  0  0
  153.3462  141.4100  158.2068 H   0  0  0  0  0  0  0  0  0  0  0  0
  154.1530  143.3185  160.2812 H   0  0  0  0  0  0  0  0  0  0  0  0
  153.0111  140.5380  161.0730 H   0  0  0  0  0  0  0  0  0  0  0  0
  154.6477  141.2395  161.5320 H   0  0  0  0  0  0  0  0  0  0  0  0
  153.5004  143.1714  162.6633 H   0  0  0  0  0  0  0  0  0  0  0  0
  151.8652  142.4657  162.2044 H   0  0  0  0  0  0  0  0  0  0  0  0
  152.2284  144.6971  159.2584 H   0  0  0  0  0  0  0  0  0  0  0  0
  153.2618  143.8251  158.1402 H   0  0  0  0  0  0  0  0  0  0  0  0
  151.2176  144.6575  156.9858 H   0  0  0  0  0  0  0  0  0  0  0  0
  150.1958  143.8478  158.1494 H   0  0  0  0  0  0  0  0  0  0  0  0
  1  2  2  0  0  0  0
  2  3  1  0  0  0  0
  2  9  1  0  0  0  0
  3  4  1  0  0  0  0
  3 19  1  0  0  0  0
  3 20  1  0  0  0  0
  4  8  1  0  0  0  0
  4  5  1  0  0  0  0
  5  6  2  0  0  0  0
  5 21  1  0  0  0  0
  6  7  1  0  0  0  0
  7  8  2  0  0  0  0
  9 10  1  0  0  0  0
  9 22  1  0  0  0  0
 10 18  1  0  0  0  0
 10 11  1  0  0  0  0
 10 23  1  0  0  0  0
 11 12  1  0  0  0  0
 11 24  1  0  0  0  0
 11 25  1  0  0  0  0
 12 13  1  0  0  0  0
 12 26  1  0  0  0  0
 12 27  1  0  0  0  0
 13 14  1  0  0  0  0
 13 17  1  0  0  0  0
 14 16  1  0  0  0  0
 14 15  1  0  0  0  0
 14 28  1  0  0  0  0
 15 16  1  0  0  0  0
 15 29  1  0  0  0  0
 15 30  1  0  0  0  0
 16 31  1  0  0  0  0
 16 32  1  0  0  0  0
 17 18  1  0  0  0  0
 17 33  1  0  0  0  0
 17 34  1  0  0  0  0
 18 35  1  0  0  0  0
 18 36  1  0  0  0  0
M  END
> <s_m_source_file>
AV-unprocessed.smi

> <i_m_source_file_index>
3038

> <i_lp_mmshare_version>
43012

> <i_f3d_flags>
0

> <s_epik_input>
bjFubltjSF1uMVtDSDJdQyg9TylbTkhdW0NIXTJbQ0gyXVtDSDJdTihbQ0gyXVtDSDJdMilbQ0hdM1tDSDJdW0NIMl0z

> <s_epik_cmdline>
J2VwaWtfcHl0aG9uJywgJy1waCcsICc3LjAnLCAnLXRuJywgJzgnLCAnLW1hJywgJzIwMCcsICctbWV0YWxfYmluZGluZycsICctaW1hZScsICc8aW5maWxlLm1hZT4nLCAnLW9tYWUnLCAnPG91dGZpbGUubWFlPic=

> <r_lp_tautomer_probability>
1

> <r_epik_Ionization_Penalty>
0.571582

> <r_epik_Ionization_Penalty_Charging>
0

> <r_epik_Ionization_Penalty_Neutral>
0.571582

> <r_epik_State_Penalty>
0.583583

> <r_epik_Charging_Adjusted_Penalty>
0.583583

> <i_epik_Tot_Q>
0

> <i_epik_Tot_abs_Q>
0

> <r_epik_Metal_State_Penalty>
0.583583

> <b_epik_Metal_Only>
0

> <s_lp_Force_Field>
OPLS_2005

> <r_lp_Energy>
22.674

> <b_lp_Chiralities_Consistent>
1

> <s_lp_Variant>
AV-unprocessed.smi:3038-3

> <Gold.Version>
5.8.1

> <Gold.Id.Protein>
6NUR|6NUR_protein|mol2

> <Gold.PLP.Fitness>
45.9286

> <Gold.PLP.PLP>
-37.6292

> <Gold.PLP.part.hbond>
-2.0000

> <Gold.PLP.part.metal>
0.0000

> <Gold.PLP.part.buried>
-4.1876

> <Gold.PLP.part.nonpolar>
-31.8921

> <Gold.PLP.part.repulsive>
0.5465

> <Gold.PLP.ligand.clash>
0.0000

> <Gold.PLP.ligand.torsion>
0.9436

> <Gold.PLP.Chemscore.Hbond>
2.0000

> <Gold.PLP.Chemscore.CHOScore>
1.0000

> <Gold.PLP.Chemscore.Metal>
0.0000

> <Gold.Chemscore.Hbonds>
donor molecule, donor type, donor heavy atom, donor atom, acceptor molecule, acceptor atom, score
      L1  H     9    22       P1  8028  1.00
      P1  H  7989  7998       L1     1  1.00
      L1  C     5    21       P1 10175  0.83

> <Gold.PLP.Chemscore.Internal.Correction>
1.1866

> <Gold.Rescore>
     Score         DG    S(hbond)    S(metal)    S(lipo)     H(rot)  DE(clash)    DE(int)     intcor
     15.07     -15.97       1.65        0.00      90.75       2.21       0.02       0.88       ----

> <Gold.Chemscore.Fitness>
15.0689

> <Gold.Chemscore.DG>
-15.9704

> <Gold.Chemscore.ZeroCoef>
-5.4800

> <Gold.Chemscore.Hbond>
1.6550

> <Gold.Chemscore.Metal>
0.0000

> <Gold.Chemscore.Lipo>
90.7515

> <Gold.Chemscore.Internal_Hbond>
0.0000

> <Gold.Chemscore.DEClash>
0.0174

> <Gold.Chemscore.DEInternal>
0.8841

> <Gold.Chemscore.Rot>
2.2090

> <Gold.Chemscore.Internal.Correction>
   9.000000E+99

> <Gold.Chemscore.Hbonds>
donor molecule, donor type, donor heavy atom, donor atom, acceptor molecule, acceptor atom, score
      L1  H     9    22       P1  8028  0.97
      P1  H  7989  7998       L1     1  0.48

> <Gold.Chemscore.Hbond.Weighted>
-5.5276

> <Gold.Chemscore.Metal.Weighted>
-0.0000

> <Gold.Chemscore.Lipo.Weighted>
-10.6179

> <Gold.Chemscore.Internal_Hbond.Weighted>
0.0000

> <Gold.Chemscore.DEClash.Weighted>
0.0174

> <Gold.Chemscore.DEInternal.Weighted>
0.8841

> <Gold.Chemscore.Rot.Weighted>
5.6551

> <Gold.Chemscore.Internal.Correction.Weighted>
   9.000000E+99

> <Gold.Protein.RotatedTorsions>
[ 6907 6896 6895 6894 ] final  -78.98 input  -60.11 | X-H torsion
[ 7974 7965 7964 7962 ] final   29.93 input  175.53 | X-H torsion
[ 8008 7997 7996 7995 ] final  -48.72 input   59.86 | X-H torsion
[ 10167 10162 10161 10158 ] final  -71.79 input  -65.29 | X-H torsion
[ 10718 10713 10712 10709 ] final   82.83 input   66.30 | X-H torsion
[ 10763 10752 10751 10750 ] final  -61.57 input  -60.55 | X-H torsion
[ 11005 11000 10999 10996 ] final   69.41 input  -57.11 | X-H torsion

> <Gold.Protein.ActiveResidues>
 VAL166  LYS551  ARG553  GLY616  TRP617  ASP618  TYR619  PRO620  LYS621  CYS622 
 ASP623  PHE694  ASN695  SER759  ASP760  ASP761  ALA762  ILE779  LEU786  VAL792 
 PHE793  MET794  SER795  GLU796  ALA797  LYS798  CYS799  TRP800  GLU811  SER814 

> <Gold.Protein.RotatedAtoms>
  150.6960  134.4190  159.5196 H   0  0  0  0  0  0  0  0  0  0  0  0  # atno 6907 bound_to 6896
  152.1936  134.8647  160.0524 H   0  0  0  0  0  0  0  0  0  0  0  0  # atno 6908 bound_to 6896
  151.9594  133.3655  159.4066 H   0  0  0  0  0  0  0  0  0  0  0  0  # atno 6909 bound_to 6896
  146.1642  139.6856  142.9012 H   0  0  0  0  0  0  0  0  0  0  0  0  # atno 7974 bound_to 7965
  154.4033  140.1314  156.4385 H   0  0  0  0  0  0  0  0  0  0  0  0  # atno 8008 bound_to 7997
  155.7482  140.3488  155.5117 H   0  0  0  0  0  0  0  0  0  0  0  0  # atno 8009 bound_to 7997
  155.8975  140.1013  157.1364 H   0  0  0  0  0  0  0  0  0  0  0  0  # atno 8010 bound_to 7997
  140.5244  143.2328  151.7373 H   0  0  0  0  0  0  0  0  0  0  0  0  # atno 10167 bound_to 10162
  157.6866  131.0064  150.2432 H   0  0  0  0  0  0  0  0  0  0  0  0  # atno 10718 bound_to 10713
  154.2866  135.6261  153.5368 H   0  0  0  0  0  0  0  0  0  0  0  0  # atno 10763 bound_to 10752
  152.9858  135.5646  154.5436 H   0  0  0  0  0  0  0  0  0  0  0  0  # atno 10764 bound_to 10752
  154.5038  135.2873  155.1375 H   0  0  0  0  0  0  0  0  0  0  0  0  # atno 10765 bound_to 10752
  139.9655  134.6988  156.0554 H   0  0  0  0  0  0  0  0  0  0  0  0  # atno 11005 bound_to 11000
  145.4510  141.0428  143.2804 LP  0  0  0  0  0  0  0  0  0  0  0  0  # atno 17320 bound_to 7965
  144.8069  139.6034  143.7047 LP  0  0  0  0  0  0  0  0  0  0  0  0  # atno 17321 bound_to 7965
  139.4933  144.4207  151.9981 LP  0  0  0  0  0  0  0  0  0  0  0  0  # atno 17342 bound_to 10162
  140.3305  144.3321  150.5988 LP  0  0  0  0  0  0  0  0  0  0  0  0  # atno 17343 bound_to 10162
  156.3043  130.3763  149.7721 LP  0  0  0  0  0  0  0  0  0  0  0  0  # atno 17370 bound_to 10713
  156.5341  130.8271  151.3247 LP  0  0  0  0  0  0  0  0  0  0  0  0  # atno 17371 bound_to 10713
  141.1335  133.6581  156.3528 LP  0  0  0  0  0  0  0  0  0  0  0  0  # atno 17394 bound_to 11000
  140.5405  134.6124  157.5378 LP  0  0  0  0  0  0  0  0  0  0  0  0  # atno 17395 bound_to 11000

$$$$
