AV-unprocessed.smi:629|AV-procd|sdf|3116|dock9
  -GOLD-   22720 0 43D 1   1.00000     0.00000
 Structure written by MMmdl.
 31 32  0  0  0  0  0  0  0  0  1 V2000
  151.2266  134.8609  154.4078 C   0  0  0  0  0  0  0  0  0  0  0  0
  150.9451  136.2451  154.0611 N   0  0  0  0  0  0  0  0  0  0  0  0
  151.6452  137.2954  154.5160 C   0  0  0  0  0  0  0  0  0  0  0  0
  152.6109  137.1868  155.2717 O   0  0  0  0  0  0  0  0  0  0  0  0
  151.1977  138.6796  154.0403 C   0  0  0  0  0  0  0  0  0  0  0  0
  151.0872  139.6300  155.1900 C   0  0  0  0  0  0  0  0  0  0  0  0
  150.3322  140.7204  155.1132 N   0  0  0  0  0  0  0  0  0  0  0  0
  150.4924  141.3153  156.3727 O   0  0  0  0  0  0  0  0  0  0  0  0
  151.3502  140.5169  157.0521 C   0  0  0  0  0  0  0  0  0  0  0  0
  151.6866  140.8563  158.4665 C   0  0  0  0  0  0  0  0  0  0  0  0
  152.2150  142.2938  158.6264 C   0  0  1  0  0  0  0  0  0  0  0  0
  151.1813  143.3373  158.2848 C   0  0  0  0  0  0  0  0  0  0  0  0
  151.0111  144.2339  159.2537 C   0  0  0  0  0  0  0  0  0  0  0  0
  151.8938  143.9704  160.4412 C   0  0  0  0  0  0  0  0  0  0  0  0
  152.5990  142.6420  160.0885 C   0  0  0  0  0  0  0  0  0  0  0  0
  151.7442  139.4454  156.3688 N   0  0  0  0  0  0  0  0  0  0  0  0
  150.4856  134.2058  153.9505 H   0  0  0  0  0  0  0  0  0  0  0  0
  151.1904  134.7145  155.4882 H   0  0  0  0  0  0  0  0  0  0  0  0
  152.2126  134.5646  154.0483 H   0  0  0  0  0  0  0  0  0  0  0  0
  150.1648  136.4177  153.4434 H   0  0  0  0  0  0  0  0  0  0  0  0
  151.9123  139.0706  153.3144 H   0  0  0  0  0  0  0  0  0  0  0  0
  150.2380  138.5991  153.5279 H   0  0  0  0  0  0  0  0  0  0  0  0
  150.8144  140.6874  159.0998 H   0  0  0  0  0  0  0  0  0  0  0  0
  152.4474  140.1478  158.7966 H   0  0  0  0  0  0  0  0  0  0  0  0
  153.0868  142.4455  157.9879 H   0  0  0  0  0  0  0  0  0  0  0  0
  150.6606  143.3412  157.3383 H   0  0  0  0  0  0  0  0  0  0  0  0
  150.3326  145.0733  159.2142 H   0  0  0  0  0  0  0  0  0  0  0  0
  152.6065  144.7867  160.5610 H   0  0  0  0  0  0  0  0  0  0  0  0
  151.3011  143.8864  161.3524 H   0  0  0  0  0  0  0  0  0  0  0  0
  152.2637  141.8628  160.7740 H   0  0  0  0  0  0  0  0  0  0  0  0
  153.6802  142.7238  160.2057 H   0  0  0  0  0  0  0  0  0  0  0  0
  1  2  1  0  0  0  0
  1 17  1  0  0  0  0
  1 18  1  0  0  0  0
  1 19  1  0  0  0  0
  2  3  1  0  0  0  0
  2 20  1  0  0  0  0
  3  4  2  0  0  0  0
  3  5  1  0  0  0  0
  5  6  1  0  0  0  0
  5 21  1  0  0  0  0
  5 22  1  0  0  0  0
  6 16  1  0  0  0  0
  6  7  2  0  0  0  0
  7  8  1  0  0  0  0
  8  9  1  0  0  0  0
  9 10  1  0  0  0  0
  9 16  2  0  0  0  0
 10 11  1  0  0  0  0
 10 23  1  0  0  0  0
 10 24  1  0  0  0  0
 11 15  1  0  0  0  0
 11 12  1  0  0  0  0
 11 25  1  0  0  0  0
 12 13  2  0  0  0  0
 12 26  1  0  0  0  0
 13 14  1  0  0  0  0
 13 27  1  0  0  0  0
 14 15  1  0  0  0  0
 14 28  1  0  0  0  0
 14 29  1  0  0  0  0
 15 30  1  0  0  0  0
 15 31  1  0  0  0  0
M  END
> <s_m_source_file>
AV-unprocessed.smi

> <i_m_source_file_index>
629

> <i_lp_mmshare_version>
43012

> <i_f3d_flags>
0

> <s_epik_input>
W0NIM11bTkhdQyg9TylbQ0gyXWMxbm9jKG4xKVtDSDJdW0NAQEhdMltDSF09W0NIXVtDSDJdW0NIMl0y

> <s_epik_cmdline>
J2VwaWtfcHl0aG9uJywgJy1waCcsICc3LjAnLCAnLXRuJywgJzgnLCAnLW1hJywgJzIwMCcsICctbWV0YWxfYmluZGluZycsICctaW1hZScsICc8aW5maWxlLm1hZT4nLCAnLW9tYWUnLCAnPG91dGZpbGUubWFlPic=

> <r_lp_tautomer_probability>
1

> <r_epik_Ionization_Penalty>
1.02915e-07

> <r_epik_Ionization_Penalty_Charging>
0

> <r_epik_Ionization_Penalty_Neutral>
1.02915e-07

> <r_epik_State_Penalty>
-0

> <r_epik_Charging_Adjusted_Penalty>
0

> <i_epik_Tot_Q>
0

> <i_epik_Tot_abs_Q>
0

> <r_epik_Metal_State_Penalty>
-0

> <b_epik_Metal_Only>
0

> <s_lp_Force_Field>
OPLS_2005

> <r_lp_Energy>
15.6904

> <b_lp_Chiralities_Consistent>
1

> <s_lp_Variant>
AV-unprocessed.smi:629-2

> <Gold.Version>
5.8.1

> <Gold.Id.Protein>
6NUR|6NUR_protein|mol2

> <Gold.PLP.Fitness>
42.9932

> <Gold.PLP.PLP>
-35.1964

> <Gold.PLP.part.hbond>
-3.6726

> <Gold.PLP.part.metal>
0.0000

> <Gold.PLP.part.buried>
-4.4029

> <Gold.PLP.part.nonpolar>
-27.1914

> <Gold.PLP.part.repulsive>
0.2233

> <Gold.PLP.ligand.clash>
0.0000

> <Gold.PLP.ligand.torsion>
0.5036

> <Gold.PLP.Chemscore.Hbond>
2.9280

> <Gold.PLP.Chemscore.CHOScore>
0.0000

> <Gold.PLP.Chemscore.Metal>
0.0000

> <Gold.Chemscore.Hbonds>
donor molecule, donor type, donor heavy atom, donor atom, acceptor molecule, acceptor atom, score
      L1  H     2    20       P1  7948  0.50
      P1  H 10752 10763       L1     4  0.51

> <Gold.PLP.Chemscore.Internal.Correction>
0.0200

> <Gold.Rescore>
     Score         DG    S(hbond)    S(metal)    S(lipo)     H(rot)  DE(clash)    DE(int)     intcor
     13.22     -16.43       2.04        0.00      76.50       1.89       0.07       3.14       ----

> <Gold.Chemscore.Fitness>
13.2158

> <Gold.Chemscore.DG>
-16.4272

> <Gold.Chemscore.ZeroCoef>
-5.4800

> <Gold.Chemscore.Hbond>
2.0448

> <Gold.Chemscore.Metal>
0.0000

> <Gold.Chemscore.Lipo>
76.4973

> <Gold.Chemscore.Internal_Hbond>
0.0000

> <Gold.Chemscore.DEClash>
0.0726

> <Gold.Chemscore.DEInternal>
3.1388

> <Gold.Chemscore.Rot>
1.8877

> <Gold.Chemscore.Internal.Correction>
   9.000000E+99

> <Gold.Chemscore.Hbonds>
donor molecule, donor type, donor heavy atom, donor atom, acceptor molecule, acceptor atom, score
      L1  H     2    20       P1  7948  0.02
      P1  H 10752 10763       L1     4  0.22

> <Gold.Chemscore.Hbond.Weighted>
-6.8296

> <Gold.Chemscore.Metal.Weighted>
-0.0000

> <Gold.Chemscore.Lipo.Weighted>
-8.9502

> <Gold.Chemscore.Internal_Hbond.Weighted>
0.0000

> <Gold.Chemscore.DEClash.Weighted>
0.0726

> <Gold.Chemscore.DEInternal.Weighted>
3.1388

> <Gold.Chemscore.Rot.Weighted>
4.8325

> <Gold.Chemscore.Internal.Correction.Weighted>
   9.000000E+99

> <Gold.Protein.RotatedTorsions>
[ 6907 6896 6895 6894 ] final   52.93 input  -60.11 | X-H torsion
[ 7974 7965 7964 7962 ] final  -89.78 input  175.53 | X-H torsion
[ 8008 7997 7996 7995 ] final  -74.31 input   59.86 | X-H torsion
[ 10167 10162 10161 10158 ] final  152.51 input  -65.29 | X-H torsion
[ 10718 10713 10712 10709 ] final   97.01 input   66.30 | X-H torsion
[ 10763 10752 10751 10750 ] final   88.95 input  -60.55 | X-H torsion
[ 11005 11000 10999 10996 ] final   26.90 input  -57.11 | X-H torsion

> <Gold.Protein.ActiveResidues>
 VAL166  LYS551  ARG553  GLY616  TRP617  ASP618  TYR619  PRO620  LYS621  CYS622 
 ASP623  PHE694  ASN695  SER759  ASP760  ASP761  ALA762  ILE779  LEU786  VAL792 
 PHE793  MET794  SER795  GLU796  ALA797  LYS798  CYS799  TRP800  GLU811  SER814 

> <Gold.Protein.RotatedAtoms>
  152.3285  134.7290  160.0295 H   0  0  0  0  0  0  0  0  0  0  0  0  # atno 6907 bound_to 6896
  151.7715  133.3336  159.3454 H   0  0  0  0  0  0  0  0  0  0  0  0  # atno 6908 bound_to 6896
  150.7409  134.5946  159.6049 H   0  0  0  0  0  0  0  0  0  0  0  0  # atno 6909 bound_to 6896
  145.4352  140.9557  143.2106 H   0  0  0  0  0  0  0  0  0  0  0  0  # atno 7974 bound_to 7965
  154.5320  140.0763  156.8362 H   0  0  0  0  0  0  0  0  0  0  0  0  # atno 8008 bound_to 7997
  155.3355  140.3404  155.4221 H   0  0  0  0  0  0  0  0  0  0  0  0  # atno 8009 bound_to 7997
  156.1791  140.1646  156.8295 H   0  0  0  0  0  0  0  0  0  0  0  0  # atno 8010 bound_to 7997
  139.4832  144.5352  151.7657 H   0  0  0  0  0  0  0  0  0  0  0  0  # atno 10167 bound_to 10162
  157.6919  131.0596  150.4578 H   0  0  0  0  0  0  0  0  0  0  0  0  # atno 10718 bound_to 10713
  153.1820  135.4488  155.0040 H   0  0  0  0  0  0  0  0  0  0  0  0  # atno 10763 bound_to 10752
  154.8036  135.3265  154.7490 H   0  0  0  0  0  0  0  0  0  0  0  0  # atno 10764 bound_to 10752
  153.7953  135.6967  153.4919 H   0  0  0  0  0  0  0  0  0  0  0  0  # atno 10765 bound_to 10752
  140.3320  134.2427  155.7701 H   0  0  0  0  0  0  0  0  0  0  0  0  # atno 11005 bound_to 11000
  144.8157  139.5881  143.7009 LP  0  0  0  0  0  0  0  0  0  0  0  0  # atno 17320 bound_to 7965
  146.2586  139.6358  142.9378 LP  0  0  0  0  0  0  0  0  0  0  0  0  # atno 17321 bound_to 7965
  140.4883  144.1348  150.5945 LP  0  0  0  0  0  0  0  0  0  0  0  0  # atno 17342 bound_to 10162
  140.4200  143.2616  151.9728 LP  0  0  0  0  0  0  0  0  0  0  0  0  # atno 17343 bound_to 10162
  156.4925  130.4098  149.6399 LP  0  0  0  0  0  0  0  0  0  0  0  0  # atno 17370 bound_to 10713
  156.3404  130.7379  151.2323 LP  0  0  0  0  0  0  0  0  0  0  0  0  # atno 17371 bound_to 10713
  141.2061  133.7843  157.0197 LP  0  0  0  0  0  0  0  0  0  0  0  0  # atno 17394 bound_to 11000
  140.0852  134.9625  157.1689 LP  0  0  0  0  0  0  0  0  0  0  0  0  # atno 17395 bound_to 11000

$$$$
