AV-unprocessed.smi:3044|AV-procd|sdf|11606|dock2
  -GOLD-   2272016583D 1   1.00000     0.00000
 Structure written by MMmdl.
 41 42  0  0  0  0  0  0  0  0  1 V2000
  147.2915  141.6862  158.2163 C   0  0  0  0  0  0  0  0  0  0  0  0
  147.0850  141.5415  156.7182 C   0  0  0  0  0  0  0  0  0  0  0  0
  145.8103  141.6896  156.2930 N   0  0  0  0  0  0  0  0  0  0  0  0
  145.5602  141.5764  154.9720 C   0  0  0  0  0  0  0  0  0  0  0  0
  146.5619  141.3204  154.0172 C   0  0  0  0  0  0  0  0  0  0  0  0
  147.8883  141.1648  154.4612 C   0  0  0  0  0  0  0  0  0  0  0  0
  148.1665  141.2624  155.8463 C   0  0  0  0  0  0  0  0  0  0  0  0
  149.4758  141.1354  156.3871 N   0  0  0  0  0  0  0  0  0  0  0  0
  150.5705  140.6039  155.8129 C   0  0  0  0  0  0  0  0  0  0  0  0
  150.6165  140.1506  154.6701 O   0  0  0  0  0  0  0  0  0  0  0  0
  151.8252  140.5658  156.6905 C   0  0  0  0  0  0  0  0  0  0  0  0
  151.5190  140.9297  158.0345 O   0  0  0  0  0  0  0  0  0  0  0  0
  152.1927  142.0818  158.5359 C   0  0  1  0  0  0  0  0  0  0  0  0
  151.3742  143.3214  158.1398 C   0  0  0  0  0  0  0  0  0  0  0  0
  151.9732  144.5994  158.7464 C   0  0  0  0  0  0  0  0  0  0  0  0
  152.0918  144.4859  160.2748 C   0  0  0  0  0  0  0  0  0  0  0  0
  152.9116  143.2482  160.6878 C   0  0  1  0  0  0  0  0  0  0  0  0
  153.0223  143.1294  162.2146 C   0  0  0  0  0  0  0  0  0  0  0  0
  152.3111  141.9718  160.0678 C   0  0  0  0  0  0  0  0  0  0  0  0
  147.6471  140.7486  158.6425 H   0  0  0  0  0  0  0  0  0  0  0  0
  146.3650  141.9560  158.7246 H   0  0  0  0  0  0  0  0  0  0  0  0
  148.0272  142.4626  158.4267 H   0  0  0  0  0  0  0  0  0  0  0  0
  144.5318  141.7003  154.6662 H   0  0  0  0  0  0  0  0  0  0  0  0
  146.3188  141.2496  152.9674 H   0  0  0  0  0  0  0  0  0  0  0  0
  148.6653  140.9893  153.7333 H   0  0  0  0  0  0  0  0  0  0  0  0
  149.5708  141.3878  157.3603 H   0  0  0  0  0  0  0  0  0  0  0  0
  152.2976  139.5826  156.6558 H   0  0  0  0  0  0  0  0  0  0  0  0
  152.5484  141.2789  156.2941 H   0  0  0  0  0  0  0  0  0  0  0  0
  153.1926  142.1787  158.1077 H   0  0  0  0  0  0  0  0  0  0  0  0
  151.3344  143.4092  157.0536 H   0  0  0  0  0  0  0  0  0  0  0  0
  150.3440  143.2065  158.4795 H   0  0  0  0  0  0  0  0  0  0  0  0
  152.9584  144.7817  158.3152 H   0  0  0  0  0  0  0  0  0  0  0  0
  151.3566  145.4595  158.4840 H   0  0  0  0  0  0  0  0  0  0  0  0
  152.5535  145.3901  160.6733 H   0  0  0  0  0  0  0  0  0  0  0  0
  151.0942  144.4306  160.7128 H   0  0  0  0  0  0  0  0  0  0  0  0
  153.9220  143.3686  160.2943 H   0  0  0  0  0  0  0  0  0  0  0  0
  152.0424  142.9970  162.6742 H   0  0  0  0  0  0  0  0  0  0  0  0
  153.4744  144.0226  162.6465 H   0  0  0  0  0  0  0  0  0  0  0  0
  153.6411  142.2774  162.4980 H   0  0  0  0  0  0  0  0  0  0  0  0
  151.3263  141.7826  160.4970 H   0  0  0  0  0  0  0  0  0  0  0  0
  152.9317  141.1150  160.3291 H   0  0  0  0  0  0  0  0  0  0  0  0
  1  2  1  0  0  0  0
  1 20  1  0  0  0  0
  1 21  1  0  0  0  0
  1 22  1  0  0  0  0
  2  7  1  0  0  0  0
  2  3  2  0  0  0  0
  3  4  1  0  0  0  0
  4  5  2  0  0  0  0
  4 23  1  0  0  0  0
  5  6  1  0  0  0  0
  5 24  1  0  0  0  0
  6  7  2  0  0  0  0
  6 25  1  0  0  0  0
  7  8  1  0  0  0  0
  8  9  1  0  0  0  0
  8 26  1  0  0  0  0
  9 10  2  0  0  0  0
  9 11  1  0  0  0  0
 11 12  1  0  0  0  0
 11 27  1  0  0  0  0
 11 28  1  0  0  0  0
 12 13  1  0  0  0  0
 13 19  1  0  0  0  0
 13 14  1  0  0  0  0
 13 29  1  0  0  0  0
 14 15  1  0  0  0  0
 14 30  1  0  0  0  0
 14 31  1  0  0  0  0
 15 16  1  0  0  0  0
 15 32  1  0  0  0  0
 15 33  1  0  0  0  0
 16 17  1  0  0  0  0
 16 34  1  0  0  0  0
 16 35  1  0  0  0  0
 17 18  1  0  0  0  0
 17 19  1  0  0  0  0
 17 36  1  0  0  0  0
 18 37  1  0  0  0  0
 18 38  1  0  0  0  0
 18 39  1  0  0  0  0
 19 40  1  0  0  0  0
 19 41  1  0  0  0  0
M  END
> <s_m_source_file>
AV-unprocessed.smi

> <i_m_source_file_index>
3044

> <i_lp_mmshare_version>
43012

> <i_f3d_flags>
0

> <s_epik_input>
W0NIM11jMW5bY0hdW2NIXVtjSF1jMVtOSF1DKD1PKVtDSDJdT1tDQEBIXTJbQ0gyXVtDSDJdW0NIMl1bQ0BASF0oW0NIM10pW0NIMl0y

> <s_epik_cmdline>
J2VwaWtfcHl0aG9uJywgJy1waCcsICc3LjAnLCAnLXRuJywgJzgnLCAnLW1hJywgJzIwMCcsICctbWV0YWxfYmluZGluZycsICctaW1hZScsICc8aW5maWxlLm1hZT4nLCAnLW9tYWUnLCAnPG91dGZpbGUubWFlPic=

> <r_epik_Ionization_Penalty>
0.0077122

> <r_epik_Ionization_Penalty_Charging>
0

> <r_epik_Ionization_Penalty_Neutral>
0.0077122

> <r_epik_State_Penalty>
0.00577497

> <r_epik_Charging_Adjusted_Penalty>
0.00577497

> <i_epik_Tot_Q>
0

> <i_epik_Tot_abs_Q>
0

> <r_epik_Metal_State_Penalty>
-0

> <b_epik_Metal_Only>
0

> <s_lp_Force_Field>
OPLS_2005

> <r_lp_Energy>
17.5643

> <b_lp_Chiralities_Consistent>
1

> <s_lp_Variant>
AV-unprocessed.smi:3044-2

> <Gold.Version>
5.8.1

> <Gold.Id.Protein>
6NUR|6NUR_protein|mol2

> <Gold.PLP.Fitness>
45.3484

> <Gold.PLP.PLP>
-42.4663

> <Gold.PLP.part.hbond>
-1.0000

> <Gold.PLP.part.metal>
0.0000

> <Gold.PLP.part.buried>
-6.9665

> <Gold.PLP.part.nonpolar>
-35.6488

> <Gold.PLP.part.repulsive>
0.2561

> <Gold.PLP.ligand.clash>
0.0000

> <Gold.PLP.ligand.torsion>
0.8222

> <Gold.PLP.Chemscore.Hbond>
1.0000

> <Gold.PLP.Chemscore.CHOScore>
0.5056

> <Gold.PLP.Chemscore.Metal>
0.0000

> <Gold.Chemscore.Hbonds>
donor molecule, donor type, donor heavy atom, donor atom, acceptor molecule, acceptor atom, score
      P1  H  7989  7998       L1    10  1.00
      L1  C     4    23       P1 10175  0.64

> <Gold.PLP.Chemscore.Internal.Correction>
0.0097

> <Gold.Rescore>
     Score         DG    S(hbond)    S(metal)    S(lipo)     H(rot)  DE(clash)    DE(int)     intcor
     17.09     -19.19       0.98        0.00     117.73       1.31       0.09       2.02       ----

> <Gold.Chemscore.Fitness>
17.0874

> <Gold.Chemscore.DG>
-19.1891

> <Gold.Chemscore.ZeroCoef>
-5.4800

> <Gold.Chemscore.Hbond>
0.9817

> <Gold.Chemscore.Metal>
0.0000

> <Gold.Chemscore.Lipo>
117.7326

> <Gold.Chemscore.Internal_Hbond>
0.0000

> <Gold.Chemscore.DEClash>
0.0855

> <Gold.Chemscore.DEInternal>
2.0163

> <Gold.Chemscore.Rot>
1.3064

> <Gold.Chemscore.Internal.Correction>
   9.000000E+99

> <Gold.Chemscore.Hbonds>
donor molecule, donor type, donor heavy atom, donor atom, acceptor molecule, acceptor atom, score
      P1  H  7989  7998       L1    10  0.98

> <Gold.Chemscore.Hbond.Weighted>
-3.2787

> <Gold.Chemscore.Metal.Weighted>
-0.0000

> <Gold.Chemscore.Lipo.Weighted>
-13.7747

> <Gold.Chemscore.Internal_Hbond.Weighted>
0.0000

> <Gold.Chemscore.DEClash.Weighted>
0.0855

> <Gold.Chemscore.DEInternal.Weighted>
2.0163

> <Gold.Chemscore.Rot.Weighted>
3.3443

> <Gold.Chemscore.Internal.Correction.Weighted>
   9.000000E+99

> <Gold.Protein.RotatedTorsions>
[ 6907 6896 6895 6894 ] final  -27.35 input  -60.11 | X-H torsion
[ 7974 7965 7964 7962 ] final -135.04 input  175.53 | X-H torsion
[ 8008 7997 7996 7995 ] final   73.08 input   59.86 | X-H torsion
[ 10167 10162 10161 10158 ] final  -59.52 input  -65.29 | X-H torsion
[ 10718 10713 10712 10709 ] final   29.35 input   66.30 | X-H torsion
[ 10763 10752 10751 10750 ] final  -30.43 input  -60.55 | X-H torsion
[ 11005 11000 10999 10996 ] final  -25.69 input  -57.11 | X-H torsion

> <Gold.Protein.ActiveResidues>
 VAL166  LYS551  ARG553  GLY616  TRP617  ASP618  TYR619  PRO620  LYS621  CYS622 
 ASP623  PHE694  ASN695  SER759  ASP760  ASP761  ALA762  ILE779  LEU786  VAL792 
 PHE793  MET794  SER795  GLU796  ALA797  LYS798  CYS799  TRP800  GLU811  SER814 

> <Gold.Protein.RotatedAtoms>
  151.1481  135.0214  159.8655 H   0  0  0  0  0  0  0  0  0  0  0  0  # atno 6907 bound_to 6896
  152.5453  134.1420  159.8493 H   0  0  0  0  0  0  0  0  0  0  0  0  # atno 6908 bound_to 6896
  151.1502  133.4866  159.2628 H   0  0  0  0  0  0  0  0  0  0  0  0  # atno 6909 bound_to 6896
  144.9049  140.6820  143.5061 H   0  0  0  0  0  0  0  0  0  0  0  0  # atno 7974 bound_to 7965
  155.7784  140.3482  155.5284 H   0  0  0  0  0  0  0  0  0  0  0  0  # atno 8008 bound_to 7997
  155.8752  140.0993  157.1543 H   0  0  0  0  0  0  0  0  0  0  0  0  # atno 8009 bound_to 7997
  154.4020  140.1333  156.4115 H   0  0  0  0  0  0  0  0  0  0  0  0  # atno 8010 bound_to 7997
  140.6130  143.2393  151.5665 H   0  0  0  0  0  0  0  0  0  0  0  0  # atno 10167 bound_to 10162
  157.2454  130.7089  149.6379 H   0  0  0  0  0  0  0  0  0  0  0  0  # atno 10718 bound_to 10713
  153.7809  135.6905  153.4888 H   0  0  0  0  0  0  0  0  0  0  0  0  # atno 10763 bound_to 10752
  153.1812  135.4505  155.0029 H   0  0  0  0  0  0  0  0  0  0  0  0  # atno 10764 bound_to 10752
  154.8082  135.3366  154.7312 H   0  0  0  0  0  0  0  0  0  0  0  0  # atno 10765 bound_to 10752
  140.8960  133.7556  156.0482 H   0  0  0  0  0  0  0  0  0  0  0  0  # atno 11005 bound_to 11000
  145.3552  139.1696  143.4413 LP  0  0  0  0  0  0  0  0  0  0  0  0  # atno 17320 bound_to 7965
  146.3128  140.3608  142.8665 LP  0  0  0  0  0  0  0  0  0  0  0  0  # atno 17321 bound_to 7965
  139.5376  144.2738  152.1284 LP  0  0  0  0  0  0  0  0  0  0  0  0  # atno 17342 bound_to 10162
  140.1941  144.4723  150.6464 LP  0  0  0  0  0  0  0  0  0  0  0  0  # atno 17343 bound_to 10162
  155.9668  130.4445  150.5463 LP  0  0  0  0  0  0  0  0  0  0  0  0  # atno 17370 bound_to 10713
  157.3335  131.0704  151.1843 LP  0  0  0  0  0  0  0  0  0  0  0  0  # atno 17371 bound_to 10713
  140.8288  134.3203  157.5356 LP  0  0  0  0  0  0  0  0  0  0  0  0  # atno 17394 bound_to 11000
  139.8736  134.9351  156.3625 LP  0  0  0  0  0  0  0  0  0  0  0  0  # atno 17395 bound_to 11000

$$$$
