AV-unprocessed.smi:1600|AV-procd|sdf|6430|dock4
  -GOLD-   22720 7 73D 1   1.00000     0.00000
 Structure written by MMmdl.
 46 47  0  0  0  0  0  0  0  0  2 V2000
  153.5466  140.9869  160.2350 C   0  0  0  0  0  0  0  0  0  0  0  0
  152.6977  141.7282  159.2449 C   0  0  0  0  0  0  0  0  0  0  0  0
  151.7961  141.1859  158.2833 C   0  0  0  0  0  0  0  0  0  0  0  0
  151.3065  142.3043  157.6656 C   0  0  0  0  0  0  0  0  0  0  0  0
  150.3966  142.3966  156.6596 N   0  0  0  0  0  0  0  0  0  0  0  0
  150.2381  141.5923  155.5939 C   0  0  0  0  0  0  0  0  0  0  0  0
  150.9198  140.5988  155.3416 O   0  0  0  0  0  0  0  0  0  0  0  0
  149.2239  142.0073  154.8208 N   0  0  0  0  0  0  0  0  0  0  0  0
  148.7891  141.3754  153.5783 C   0  0  0  0  0  0  0  0  0  0  0  0
  147.7696  140.2477  153.8286 C   0  0  1  0  0  0  0  0  0  0  0  0
  146.9723  139.8498  152.5910 C   0  0  0  0  0  0  0  0  0  0  0  0
  146.4539  138.4659  152.9656 C   0  0  0  0  0  0  0  0  0  0  0  0
  147.5628  137.8231  153.7057 N   0  3  2  0  0  0  0  0  0  0  0  0
  147.1692  136.7288  154.6378 C   0  0  0  0  0  0  0  0  0  0  0  0
  148.4065  136.0931  155.3002 C   0  0  0  0  0  0  0  0  0  0  0  0
  146.3546  135.6339  153.9218 C   0  0  0  0  0  0  0  0  0  0  0  0
  148.3687  138.9146  154.3105 C   0  0  0  0  0  0  0  0  0  0  0  0
  151.8875  143.4166  158.2334 N   0  0  0  0  0  0  0  0  0  0  0  0
  151.6890  144.8194  157.9244 C   0  0  0  0  0  0  0  0  0  0  0  0
  152.7476  143.0552  159.2098 N   0  0  0  0  0  0  0  0  0  0  0  0
  153.2459  139.9412  160.3060 H   0  0  0  0  0  0  0  0  0  0  0  0
  153.4644  141.4228  161.2312 H   0  0  0  0  0  0  0  0  0  0  0  0
  154.5971  141.0113  159.9446 H   0  0  0  0  0  0  0  0  0  0  0  0
  151.5633  140.1484  158.0973 H   0  0  0  0  0  0  0  0  0  0  0  0
  149.7636  143.1801  156.7247 H   0  0  0  0  0  0  0  0  0  0  0  0
  148.7213  142.8356  155.1058 H   0  0  0  0  0  0  0  0  0  0  0  0
  148.3296  142.1488  152.9623 H   0  0  0  0  0  0  0  0  0  0  0  0
  149.6432  141.0036  153.0098 H   0  0  0  0  0  0  0  0  0  0  0  0
  147.0540  140.5856  154.5804 H   0  0  0  0  0  0  0  0  0  0  0  0
  146.1709  140.5517  152.3581 H   0  0  0  0  0  0  0  0  0  0  0  0
  147.6262  139.7797  151.7202 H   0  0  0  0  0  0  0  0  0  0  0  0
  145.5842  138.5684  153.6172 H   0  0  0  0  0  0  0  0  0  0  0  0
  146.1589  137.8853  152.0910 H   0  0  0  0  0  0  0  0  0  0  0  0
  146.5420  137.1595  155.4199 H   0  0  0  0  0  0  0  0  0  0  0  0
  148.1168  135.2798  155.9666 H   0  0  0  0  0  0  0  0  0  0  0  0
  148.9687  136.8075  155.9011 H   0  0  0  0  0  0  0  0  0  0  0  0
  149.0861  135.6803  154.5537 H   0  0  0  0  0  0  0  0  0  0  0  0
  146.1189  134.8153  154.6027 H   0  0  0  0  0  0  0  0  0  0  0  0
  146.9080  135.2135  153.0812 H   0  0  0  0  0  0  0  0  0  0  0  0
  145.4041  136.0101  153.5437 H   0  0  0  0  0  0  0  0  0  0  0  0
  149.3969  138.7911  153.9707 H   0  0  0  0  0  0  0  0  0  0  0  0
  148.3734  138.8820  155.4007 H   0  0  0  0  0  0  0  0  0  0  0  0
  150.6865  145.1217  158.2281 H   0  0  0  0  0  0  0  0  0  0  0  0
  151.8003  144.9791  156.8517 H   0  0  0  0  0  0  0  0  0  0  0  0
  152.4201  145.4356  158.4490 H   0  0  0  0  0  0  0  0  0  0  0  0
  148.1542  137.4058  153.0012 H   0  0  0  0  0  0  0  0  0  0  0  0
  1  2  1  0  0  0  0
  1 21  1  0  0  0  0
  1 22  1  0  0  0  0
  1 23  1  0  0  0  0
  2 20  2  0  0  0  0
  2  3  1  0  0  0  0
  3  4  2  0  0  0  0
  3 24  1  0  0  0  0
  4  5  1  0  0  0  0
  4 18  1  0  0  0  0
  5  6  1  0  0  0  0
  5 25  1  0  0  0  0
  6  7  2  0  0  0  0
  6  8  1  0  0  0  0
  8  9  1  0  0  0  0
  8 26  1  0  0  0  0
  9 10  1  0  0  0  0
  9 27  1  0  0  0  0
  9 28  1  0  0  0  0
 10 17  1  0  0  0  0
 10 11  1  0  0  0  0
 10 29  1  0  0  0  0
 11 12  1  0  0  0  0
 11 30  1  0  0  0  0
 11 31  1  0  0  0  0
 12 13  1  0  0  0  0
 12 32  1  0  0  0  0
 12 33  1  0  0  0  0
 13 14  1  0  0  0  0
 13 17  1  0  0  0  0
 13 46  1  0  0  0  0
 14 15  1  0  0  0  0
 14 16  1  0  0  0  0
 14 34  1  0  0  0  0
 15 35  1  0  0  0  0
 15 36  1  0  0  0  0
 15 37  1  0  0  0  0
 16 38  1  0  0  0  0
 16 39  1  0  0  0  0
 16 40  1  0  0  0  0
 17 41  1  0  0  0  0
 17 42  1  0  0  0  0
 18 19  1  0  0  0  0
 18 20  1  0  0  0  0
 19 43  1  0  0  0  0
 19 44  1  0  0  0  0
 19 45  1  0  0  0  0
M  CHG  1  13   1
M  END
> <s_m_source_file>
AV-unprocessed.smi

> <i_m_source_file_index>
1600

> <i_lp_mmshare_version>
43012

> <i_f3d_flags>
0

> <s_epik_input>
W0NIM11jMVtjSF1jKG4objEpW0NIM10pW05IXUMoPU8pW05IXVtDSDJdW0NAQEhdMltDSDJdW0NIMl1OKFtDSDJdMilbQ0hdKFtDSDNdKVtDSDNd

> <s_epik_cmdline>
J2VwaWtfcHl0aG9uJywgJy1waCcsICc3LjAnLCAnLXRuJywgJzgnLCAnLW1hJywgJzIwMCcsICctbWV0YWxfYmluZGluZycsICctaW1hZScsICc8aW5maWxlLm1hZT4nLCAnLW9tYWUnLCAnPG91dGZpbGUubWFlPic=

> <r_lp_tautomer_probability>
1

> <r_epik_Ionization_Penalty>
0.000297652

> <r_epik_Ionization_Penalty_Charging>
0.000213653

> <r_epik_Ionization_Penalty_Neutral>
8.3999e-05

> <r_epik_State_Penalty>
-0

> <r_epik_Charging_Adjusted_Penalty>
0.000213653

> <i_epik_Tot_Q>
1

> <i_epik_Tot_abs_Q>
1

> <r_epik_Metal_State_Penalty>
-0

> <b_epik_Metal_Only>
0

> <s_lp_Force_Field>
OPLS_2005

> <r_lp_Energy>
32.7515

> <b_lp_Chiralities_Consistent>
1

> <s_lp_Variant>
AV-unprocessed.smi:1600-4

> <Gold.Version>
5.8.1

> <Gold.Id.Protein>
6NUR|6NUR_protein|mol2

> <Gold.PLP.Fitness>
45.7888

> <Gold.PLP.PLP>
-32.9389

> <Gold.PLP.part.hbond>
-4.0000

> <Gold.PLP.part.metal>
0.0000

> <Gold.PLP.part.buried>
1.1875

> <Gold.PLP.part.nonpolar>
-29.4552

> <Gold.PLP.part.repulsive>
0.3321

> <Gold.PLP.ligand.clash>
0.0000

> <Gold.PLP.ligand.torsion>
0.6257

> <Gold.PLP.Chemscore.Hbond>
4.6871

> <Gold.PLP.Chemscore.CHOScore>
0.0000

> <Gold.PLP.Chemscore.Metal>
0.0000

> <Gold.Chemscore.Hbonds>
donor molecule, donor type, donor heavy atom, donor atom, acceptor molecule, acceptor atom, score
      L1  H     5    25       P1  8028  0.82
      L1  H     8    26       P1  8028  0.91
      L1  H    13    46       P1  7948  2.00
      P1  H  7989  7998       L1     7  0.91

> <Gold.PLP.Chemscore.Internal.Correction>
0.0400

> <Gold.Rescore>
     Score         DG    S(hbond)    S(metal)    S(lipo)     H(rot)  DE(clash)    DE(int)     intcor
     19.40     -22.23       3.31        0.00      79.98       1.44       2.20       0.63       ----

> <Gold.Chemscore.Fitness>
19.3977

> <Gold.Chemscore.DG>
-22.2260

> <Gold.Chemscore.ZeroCoef>
-5.4800

> <Gold.Chemscore.Hbond>
3.3133

> <Gold.Chemscore.Metal>
0.0000

> <Gold.Chemscore.Lipo>
79.9836

> <Gold.Chemscore.Internal_Hbond>
0.0000

> <Gold.Chemscore.DEClash>
2.1983

> <Gold.Chemscore.DEInternal>
0.6299

> <Gold.Chemscore.Rot>
1.4369

> <Gold.Chemscore.Internal.Correction>
   9.000000E+99

> <Gold.Chemscore.Hbonds>
donor molecule, donor type, donor heavy atom, donor atom, acceptor molecule, acceptor atom, score
      L1  H     5    25       P1  8028  0.78
      L1  H     8    26       P1  8028  0.88
      L1  H    13    46       P1  7948  1.00
      P1  H  7989  7998       L1     7  0.48

> <Gold.Chemscore.Hbond.Weighted>
-11.0664

> <Gold.Chemscore.Metal.Weighted>
-0.0000

> <Gold.Chemscore.Lipo.Weighted>
-9.3581

> <Gold.Chemscore.Internal_Hbond.Weighted>
0.0000

> <Gold.Chemscore.DEClash.Weighted>
2.1983

> <Gold.Chemscore.DEInternal.Weighted>
0.6299

> <Gold.Chemscore.Rot.Weighted>
3.6785

> <Gold.Chemscore.Internal.Correction.Weighted>
   9.000000E+99

> <Gold.Protein.RotatedTorsions>
[ 6907 6896 6895 6894 ] final  -13.26 input  -60.11 | X-H torsion
[ 7974 7965 7964 7962 ] final  -12.57 input  175.53 | X-H torsion
[ 8008 7997 7996 7995 ] final  129.90 input   59.86 | X-H torsion
[ 10167 10162 10161 10158 ] final   94.67 input  -65.29 | X-H torsion
[ 10718 10713 10712 10709 ] final  174.86 input   66.30 | X-H torsion
[ 10763 10752 10751 10750 ] final  -86.53 input  -60.55 | X-H torsion
[ 11005 11000 10999 10996 ] final   -1.79 input  -57.11 | X-H torsion

> <Gold.Protein.ActiveResidues>
 VAL166  LYS551  ARG553  GLY616  TRP617  ASP618  TYR619  PRO620  LYS621  CYS622 
 ASP623  PHE694  ASN695  SER759  ASP760  ASP761  ALA762  ILE779  LEU786  VAL792 
 PHE793  MET794  SER795  GLU796  ALA797  LYS798  CYS799  TRP800  GLU811  SER814 

> <Gold.Protein.RotatedAtoms>
  151.3576  135.0897  159.9423 H   0  0  0  0  0  0  0  0  0  0  0  0  # atno 6907 bound_to 6896
  152.5170  133.9290  159.7581 H   0  0  0  0  0  0  0  0  0  0  0  0  # atno 6908 bound_to 6896
  150.9678  133.6322  159.2772 H   0  0  0  0  0  0  0  0  0  0  0  0  # atno 6909 bound_to 6896
  146.2147  140.3076  142.8380 H   0  0  0  0  0  0  0  0  0  0  0  0  # atno 7974 bound_to 7965
  156.2945  140.2609  156.2674 H   0  0  0  0  0  0  0  0  0  0  0  0  # atno 8008 bound_to 7997
  154.9728  140.0391  157.2261 H   0  0  0  0  0  0  0  0  0  0  0  0  # atno 8009 bound_to 7997
  154.7843  140.2800  155.6045 H   0  0  0  0  0  0  0  0  0  0  0  0  # atno 8010 bound_to 7997
  139.8061  144.6793  150.9701 H   0  0  0  0  0  0  0  0  0  0  0  0  # atno 10167 bound_to 10162
  156.9434  131.0008  151.2964 H   0  0  0  0  0  0  0  0  0  0  0  0  # atno 10718 bound_to 10713
  154.6235  135.5446  153.7601 H   0  0  0  0  0  0  0  0  0  0  0  0  # atno 10763 bound_to 10752
  153.0249  135.6418  154.1406 H   0  0  0  0  0  0  0  0  0  0  0  0  # atno 10764 bound_to 10752
  154.1340  135.2912  155.3158 H   0  0  0  0  0  0  0  0  0  0  0  0  # atno 10765 bound_to 10752
  140.6512  133.9403  155.8381 H   0  0  0  0  0  0  0  0  0  0  0  0  # atno 11005 bound_to 11000
  144.9011  140.7644  143.5866 LP  0  0  0  0  0  0  0  0  0  0  0  0  # atno 17320 bound_to 7965
  145.3002  139.1853  143.4693 LP  0  0  0  0  0  0  0  0  0  0  0  0  # atno 17321 bound_to 7965
  140.7819  143.4232  151.0809 LP  0  0  0  0  0  0  0  0  0  0  0  0  # atno 17342 bound_to 10162
  139.7901  143.8231  152.3150 LP  0  0  0  0  0  0  0  0  0  0  0  0  # atno 17343 bound_to 10162
  157.5770  130.8350  149.8469 LP  0  0  0  0  0  0  0  0  0  0  0  0  # atno 17370 bound_to 10713
  156.0394  130.3743  150.1474 LP  0  0  0  0  0  0  0  0  0  0  0  0  # atno 17371 bound_to 10713
  141.0535  134.0450  157.3752 LP  0  0  0  0  0  0  0  0  0  0  0  0  # atno 17394 bound_to 11000
  139.9045  135.0175  156.7423 LP  0  0  0  0  0  0  0  0  0  0  0  0  # atno 17395 bound_to 11000

$$$$
