AV-unprocessed.smi:2870|AV-procd|sdf|11029|dock4
  -GOLD-   2272015493D 1   1.00000     0.00000
 Structure written by MMmdl.
 40 42  0  0  0  0  0  0  0  0  1 V2000
  153.9064  138.6946  154.5861 N   0  0  0  0  0  0  0  0  0  0  0  0
  152.7532  138.6231  154.6555 C   0  0  0  0  0  0  0  0  0  0  0  0
  151.3350  138.5381  154.7723 C   0  0  0  0  0  0  0  0  0  0  0  0
  150.5160  139.3855  154.1163 C   0  0  0  0  0  0  0  0  0  0  0  0
  149.1435  139.3085  154.2067 N   0  0  0  0  0  0  0  0  0  0  0  0
  148.2979  140.3053  153.6125 C   0  0  0  0  0  0  0  0  0  0  0  0
  148.7024  141.7669  153.6286 C   0  0  0  0  0  0  0  0  0  0  0  0
  147.5783  141.2857  154.5128 C   0  0  0  0  0  0  0  0  0  0  0  0
  148.5405  138.3718  155.0745 C   0  0  0  0  0  0  0  0  0  0  0  0
  147.3173  138.3418  155.2311 O   0  0  0  0  0  0  0  0  0  0  0  0
  149.3849  137.4675  155.7635 N   0  0  0  0  0  0  0  0  0  0  0  0
  148.7638  136.4385  156.6265 C   0  0  0  0  0  0  0  0  0  0  0  0
  149.0828  136.6177  158.1189 C   0  0  0  0  0  0  0  0  0  0  0  0
  150.2456  136.7127  158.5147 O   0  0  0  0  0  0  0  0  0  0  0  0
  148.0242  136.6733  158.9387 N   0  0  0  0  0  0  0  0  0  0  0  0
  148.1033  136.8595  160.3807 C   0  0  0  0  0  0  0  0  0  0  0  0
  146.8431  136.3306  161.0546 C   0  0  0  0  0  0  0  0  0  0  0  0
  146.7627  136.2644  162.5877 C   0  0  0  0  0  0  0  0  0  0  0  0
  145.9388  134.9822  162.4431 C   0  0  0  0  0  0  0  0  0  0  0  0
  146.5567  134.8217  161.0513 C   0  0  0  0  0  0  0  0  0  0  0  0
  150.7979  137.4920  155.6395 C   0  0  0  0  0  0  0  0  0  0  0  0
  151.5021  136.6741  156.2341 O   0  0  0  0  0  0  0  0  0  0  0  0
  150.9499  140.1498  153.4874 H   0  0  0  0  0  0  0  0  0  0  0  0
  147.7457  139.9780  152.7332 H   0  0  0  0  0  0  0  0  0  0  0  0
  149.6354  142.0397  154.1179 H   0  0  0  0  0  0  0  0  0  0  0  0
  148.4390  142.3686  152.7613 H   0  0  0  0  0  0  0  0  0  0  0  0
  146.5648  141.5689  154.2366 H   0  0  0  0  0  0  0  0  0  0  0  0
  147.7732  141.2387  155.5826 H   0  0  0  0  0  0  0  0  0  0  0  0
  147.6792  136.4266  156.5095 H   0  0  0  0  0  0  0  0  0  0  0  0
  149.0714  135.4376  156.3192 H   0  0  0  0  0  0  0  0  0  0  0  0
  147.1018  136.5904  158.5363 H   0  0  0  0  0  0  0  0  0  0  0  0
  148.9826  136.3451  160.7718 H   0  0  0  0  0  0  0  0  0  0  0  0
  148.2367  137.9213  160.5936 H   0  0  0  0  0  0  0  0  0  0  0  0
  145.9585  136.8515  160.6812 H   0  0  0  0  0  0  0  0  0  0  0  0
  147.7330  136.0913  163.0566 H   0  0  0  0  0  0  0  0  0  0  0  0
  146.2351  137.0980  163.0519 H   0  0  0  0  0  0  0  0  0  0  0  0
  146.1930  134.1928  163.1512 H   0  0  0  0  0  0  0  0  0  0  0  0
  144.8645  135.1701  162.4108 H   0  0  0  0  0  0  0  0  0  0  0  0
  145.8627  134.4909  160.2779 H   0  0  0  0  0  0  0  0  0  0  0  0
  147.4650  134.2166  161.0623 H   0  0  0  0  0  0  0  0  0  0  0  0
  1  2  3  0  0  0  0
  2  3  1  0  0  0  0
  3 21  1  0  0  0  0
  3  4  2  0  0  0  0
  4  5  1  0  0  0  0
  4 23  1  0  0  0  0
  5  6  1  0  0  0  0
  5  9  1  0  0  0  0
  6  8  1  0  0  0  0
  6  7  1  0  0  0  0
  6 24  1  0  0  0  0
  7  8  1  0  0  0  0
  7 25  1  0  0  0  0
  7 26  1  0  0  0  0
  8 27  1  0  0  0  0
  8 28  1  0  0  0  0
  9 10  2  0  0  0  0
  9 11  1  0  0  0  0
 11 12  1  0  0  0  0
 11 21  1  0  0  0  0
 12 13  1  0  0  0  0
 12 29  1  0  0  0  0
 12 30  1  0  0  0  0
 13 14  2  0  0  0  0
 13 15  1  0  0  0  0
 15 16  1  0  0  0  0
 15 31  1  0  0  0  0
 16 17  1  0  0  0  0
 16 32  1  0  0  0  0
 16 33  1  0  0  0  0
 17 20  1  0  0  0  0
 17 18  1  0  0  0  0
 17 34  1  0  0  0  0
 18 19  1  0  0  0  0
 18 35  1  0  0  0  0
 18 36  1  0  0  0  0
 19 20  1  0  0  0  0
 19 37  1  0  0  0  0
 19 38  1  0  0  0  0
 20 39  1  0  0  0  0
 20 40  1  0  0  0  0
 21 22  2  0  0  0  0
M  END
> <s_m_source_file>
AV-unprocessed.smi

> <i_m_source_file_index>
2870

> <i_lp_mmshare_version>
43012

> <i_f3d_flags>
0

> <s_epik_input>
TiNDYzFbY0hdbihbQ0hdMltDSDJdW0NIMl0yKWMoPU8pbihjMT1PKVtDSDJdQyg9TylbTkhdW0NIMl1bQ0hdM1tDSDJdW0NIMl1bQ0gyXTM=

> <s_epik_cmdline>
J2VwaWtfcHl0aG9uJywgJy1waCcsICc3LjAnLCAnLXRuJywgJzgnLCAnLW1hJywgJzIwMCcsICctbWV0YWxfYmluZGluZycsICctaW1hZScsICc8aW5maWxlLm1hZT4nLCAnLW9tYWUnLCAnPG91dGZpbGUubWFlPic=

> <r_lp_tautomer_probability>
1

> <r_epik_Ionization_Penalty>
1.93838e-08

> <r_epik_Ionization_Penalty_Charging>
8.20545e-11

> <r_epik_Ionization_Penalty_Neutral>
1.93017e-08

> <r_epik_State_Penalty>
-0

> <r_epik_Charging_Adjusted_Penalty>
8.20545e-11

> <i_epik_Tot_Q>
0

> <i_epik_Tot_abs_Q>
0

> <r_epik_Metal_State_Penalty>
-0

> <b_epik_Metal_Only>
0

> <s_lp_Force_Field>
OPLS_2005

> <r_lp_Energy>
38.3845

> <b_lp_Chiralities_Consistent>
1

> <s_lp_Variant>
AV-unprocessed.smi:2870-1

> <Gold.Version>
5.8.1

> <Gold.Id.Protein>
6NUR|6NUR_protein|mol2

> <Gold.PLP.Fitness>
47.2019

> <Gold.PLP.PLP>
-37.9619

> <Gold.PLP.part.hbond>
-2.8876

> <Gold.PLP.part.metal>
0.0000

> <Gold.PLP.part.buried>
-0.8998

> <Gold.PLP.part.nonpolar>
-33.0353

> <Gold.PLP.part.repulsive>
0.1908

> <Gold.PLP.ligand.clash>
0.0000

> <Gold.PLP.ligand.torsion>
0.5636

> <Gold.PLP.Chemscore.Hbond>
2.7578

> <Gold.PLP.Chemscore.CHOScore>
0.6032

> <Gold.PLP.Chemscore.Metal>
0.0000

> <Gold.Chemscore.Hbonds>
donor molecule, donor type, donor heavy atom, donor atom, acceptor molecule, acceptor atom, score
      P1  H  6896  6908       L1    14  0.42
      P1  H  7997  8009       L1     1  0.90
      P1  H 10752 10764       L1    22  0.23
      L1  C     4    23       P1  7957  0.35

> <Gold.PLP.Chemscore.Internal.Correction>
0.2846

> <Gold.Rescore>
     Score         DG    S(hbond)    S(metal)    S(lipo)     H(rot)  DE(clash)    DE(int)     intcor
     14.96     -17.13       2.74        0.00      64.76       1.98       0.01       2.16       ----

> <Gold.Chemscore.Fitness>
14.9590

> <Gold.Chemscore.DG>
-17.1348

> <Gold.Chemscore.ZeroCoef>
-5.4800

> <Gold.Chemscore.Hbond>
2.7378

> <Gold.Chemscore.Metal>
0.0000

> <Gold.Chemscore.Lipo>
64.7603

> <Gold.Chemscore.Internal_Hbond>
0.0000

> <Gold.Chemscore.DEClash>
0.0144

> <Gold.Chemscore.DEInternal>
2.1613

> <Gold.Chemscore.Rot>
1.9791

> <Gold.Chemscore.Internal.Correction>
   9.000000E+99

> <Gold.Chemscore.Hbonds>
donor molecule, donor type, donor heavy atom, donor atom, acceptor molecule, acceptor atom, score
      P1  H  6896  6908       L1    14  0.35
      P1  H  7997  8009       L1     1  0.75
      P1  H 10752 10764       L1    22  0.22

> <Gold.Chemscore.Hbond.Weighted>
-9.1443

> <Gold.Chemscore.Metal.Weighted>
-0.0000

> <Gold.Chemscore.Lipo.Weighted>
-7.5770

> <Gold.Chemscore.Internal_Hbond.Weighted>
0.0000

> <Gold.Chemscore.DEClash.Weighted>
0.0144

> <Gold.Chemscore.DEInternal.Weighted>
2.1613

> <Gold.Chemscore.Rot.Weighted>
5.0665

> <Gold.Chemscore.Internal.Correction.Weighted>
   9.000000E+99

> <Gold.Protein.RotatedTorsions>
[ 6907 6896 6895 6894 ] final -167.95 input  -60.11 | X-H torsion
[ 7974 7965 7964 7962 ] final -106.05 input  175.53 | X-H torsion
[ 8008 7997 7996 7995 ] final -112.41 input   59.86 | X-H torsion
[ 10167 10162 10161 10158 ] final   57.15 input  -65.29 | X-H torsion
[ 10718 10713 10712 10709 ] final  -39.55 input   66.30 | X-H torsion
[ 10763 10752 10751 10750 ] final  -34.41 input  -60.55 | X-H torsion
[ 11005 11000 10999 10996 ] final   29.33 input  -57.11 | X-H torsion

> <Gold.Protein.ActiveResidues>
 VAL166  LYS551  ARG553  GLY616  TRP617  ASP618  TYR619  PRO620  LYS621  CYS622 
 ASP623  PHE694  ASN695  SER759  ASP760  ASP761  ALA762  ILE779  LEU786  VAL792 
 PHE793  MET794  SER795  GLU796  ALA797  LYS798  CYS799  TRP800  GLU811  SER814 

> <Gold.Protein.RotatedAtoms>
  151.4678  133.3576  159.2818 H   0  0  0  0  0  0  0  0  0  0  0  0  # atno 6907 bound_to 6896
  150.8981  134.8393  159.7352 H   0  0  0  0  0  0  0  0  0  0  0  0  # atno 6908 bound_to 6896
  152.4863  134.4595  159.9652 H   0  0  0  0  0  0  0  0  0  0  0  0  # atno 6909 bound_to 6896
  145.2227  140.9140  143.3250 H   0  0  0  0  0  0  0  0  0  0  0  0  # atno 7974 bound_to 7965
  155.0047  140.0394  157.2375 H   0  0  0  0  0  0  0  0  0  0  0  0  # atno 8008 bound_to 7997
  154.7513  140.2767  155.6267 H   0  0  0  0  0  0  0  0  0  0  0  0  # atno 8009 bound_to 7997
  156.2885  140.2646  156.2267 H   0  0  0  0  0  0  0  0  0  0  0  0  # atno 8010 bound_to 7997
  140.2010  144.3987  150.6529 H   0  0  0  0  0  0  0  0  0  0  0  0  # atno 10167 bound_to 10162
  156.2912  130.4228  149.8237 H   0  0  0  0  0  0  0  0  0  0  0  0  # atno 10718 bound_to 10713
  153.8463  135.6853  153.4797 H   0  0  0  0  0  0  0  0  0  0  0  0  # atno 10763 bound_to 10752
  153.1424  135.4652  154.9513 H   0  0  0  0  0  0  0  0  0  0  0  0  # atno 10764 bound_to 10752
  154.7822  135.3273  154.7911 H   0  0  0  0  0  0  0  0  0  0  0  0  # atno 10765 bound_to 10752
  140.3061  134.2702  155.7743 H   0  0  0  0  0  0  0  0  0  0  0  0  # atno 11005 bound_to 11000
  144.9750  139.3841  143.6290 LP  0  0  0  0  0  0  0  0  0  0  0  0  # atno 17320 bound_to 7965
  146.3372  139.8866  142.8816 LP  0  0  0  0  0  0  0  0  0  0  0  0  # atno 17321 bound_to 7965
  140.6390  143.2200  151.6332 LP  0  0  0  0  0  0  0  0  0  0  0  0  # atno 17342 bound_to 10162
  139.5217  144.3185  152.0931 LP  0  0  0  0  0  0  0  0  0  0  0  0  # atno 17343 bound_to 10162
  156.5649  130.8399  151.3339 LP  0  0  0  0  0  0  0  0  0  0  0  0  # atno 17370 bound_to 10713
  157.7343  130.9744  150.2021 LP  0  0  0  0  0  0  0  0  0  0  0  0  # atno 17371 bound_to 10713
  141.2118  133.7678  156.9839 LP  0  0  0  0  0  0  0  0  0  0  0  0  # atno 17394 bound_to 11000
  140.1066  134.9503  157.2002 LP  0  0  0  0  0  0  0  0  0  0  0  0  # atno 17395 bound_to 11000

$$$$
