AV-unprocessed.smi:2252|AV-procd|sdf|9110|dock8
  -GOLD-   2272012313D 1   1.00000     0.00000
 Structure written by MMmdl.
 45 47  0  0  0  0  0  0  0  0  4 V2000
  152.8350  142.4587  159.9643 C   0  0  0  0  0  0  0  0  0  0  0  0
  152.1342  143.4663  159.1671 N   0  0  0  0  0  0  0  0  0  0  0  0
  152.0319  144.8027  159.4574 C   0  0  0  0  0  0  0  0  0  0  0  0
  151.3118  145.3724  158.4409 C   0  0  0  0  0  0  0  0  0  0  0  0
  151.0049  144.3615  157.5722 N   0  3  0  0  0  0  0  0  0  0  0  0
  151.4956  143.1945  158.0147 C   0  0  0  0  0  0  0  0  0  0  0  0
  151.3577  141.8629  157.3226 C   0  0  0  0  0  0  0  0  0  0  0  0
  150.6751  141.9092  155.9375 C   0  0  0  0  0  0  0  0  0  0  0  0
  150.8139  140.6369  155.2285 N   0  5  0  0  0  0  0  0  0  0  0  0
  150.0435  139.5387  155.4781 C   0  0  0  0  0  0  0  0  0  0  0  0
  149.3879  139.2395  156.4806 O   0  0  0  0  0  0  0  0  0  0  0  0
  150.0440  138.5534  154.2910 C   0  0  1  0  0  0  0  0  0  0  0  0
  150.9007  137.3110  154.6282 C   0  0  0  0  0  0  0  0  0  0  0  0
  150.2785  135.9318  154.6803 C   0  0  0  0  0  0  0  0  0  0  0  0
  150.7484  136.5893  155.9507 C   0  0  0  0  0  0  0  0  0  0  0  0
  148.6646  138.1804  153.8605 N   0  3  0  0  0  0  0  0  0  0  0  0
  147.7995  137.6103  154.9149 C   0  0  0  0  0  0  0  0  0  0  0  0
  146.3902  137.6784  154.3367 C   0  0  0  0  0  0  0  0  0  0  0  0
  146.3958  138.9513  153.4900 C   0  0  0  0  0  0  0  0  0  0  0  0
  147.8765  139.2637  153.2285 C   0  0  0  0  0  0  0  0  0  0  0  0
  153.1057  142.8808  160.9323 H   0  0  0  0  0  0  0  0  0  0  0  0
  153.7372  142.1485  159.4365 H   0  0  0  0  0  0  0  0  0  0  0  0
  152.1846  141.5988  160.1165 H   0  0  0  0  0  0  0  0  0  0  0  0
  152.4712  145.2395  160.3426 H   0  0  0  0  0  0  0  0  0  0  0  0
  151.0045  146.3943  158.2732 H   0  0  0  0  0  0  0  0  0  0  0  0
  152.3709  141.4741  157.2178 H   0  0  0  0  0  0  0  0  0  0  0  0
  150.8357  141.1791  157.9917 H   0  0  0  0  0  0  0  0  0  0  0  0
  149.6238  142.1625  156.0755 H   0  0  0  0  0  0  0  0  0  0  0  0
  151.0949  142.7383  155.3668 H   0  0  0  0  0  0  0  0  0  0  0  0
  150.5128  139.0665  153.4490 H   0  0  0  0  0  0  0  0  0  0  0  0
  151.9094  137.3498  154.2199 H   0  0  0  0  0  0  0  0  0  0  0  0
  149.2045  135.8542  154.5216 H   0  0  0  0  0  0  0  0  0  0  0  0
  150.8669  135.0982  154.3027 H   0  0  0  0  0  0  0  0  0  0  0  0
  151.6517  136.1994  156.4152 H   0  0  0  0  0  0  0  0  0  0  0  0
  149.9834  136.9391  156.6411 H   0  0  0  0  0  0  0  0  0  0  0  0
  148.0829  136.5908  155.1780 H   0  0  0  0  0  0  0  0  0  0  0  0
  147.8632  138.2238  155.8151 H   0  0  0  0  0  0  0  0  0  0  0  0
  146.2162  136.8129  153.6958 H   0  0  0  0  0  0  0  0  0  0  0  0
  145.6182  137.6838  155.1066 H   0  0  0  0  0  0  0  0  0  0  0  0
  145.8381  138.8136  152.5630 H   0  0  0  0  0  0  0  0  0  0  0  0
  145.9316  139.7744  154.0346 H   0  0  0  0  0  0  0  0  0  0  0  0
  148.1219  140.2239  153.6837 H   0  0  0  0  0  0  0  0  0  0  0  0
  148.0998  139.3300  152.1633 H   0  0  0  0  0  0  0  0  0  0  0  0
  148.7691  137.4544  153.1657 H   0  0  0  0  0  0  0  0  0  0  0  0
  150.4723  144.4715  156.7185 H   0  0  0  0  0  0  0  0  0  0  0  0
  1  2  1  0  0  0  0
  1 21  1  0  0  0  0
  1 22  1  0  0  0  0
  1 23  1  0  0  0  0
  2  6  1  0  0  0  0
  2  3  1  0  0  0  0
  3  4  2  0  0  0  0
  3 24  1  0  0  0  0
  4  5  1  0  0  0  0
  4 25  1  0  0  0  0
  5  6  2  0  0  0  0
  5 45  1  0  0  0  0
  6  7  1  0  0  0  0
  7  8  1  0  0  0  0
  7 26  1  0  0  0  0
  7 27  1  0  0  0  0
  8  9  1  0  0  0  0
  8 28  1  0  0  0  0
  8 29  1  0  0  0  0
  9 10  1  0  0  0  0
 10 11  2  0  0  0  0
 10 12  1  0  0  0  0
 12 13  1  0  0  0  0
 12 16  1  0  0  0  0
 12 30  1  0  0  0  0
 13 15  1  0  0  0  0
 13 14  1  0  0  0  0
 13 31  1  0  0  0  0
 14 15  1  0  0  0  0
 14 32  1  0  0  0  0
 14 33  1  0  0  0  0
 15 34  1  0  0  0  0
 15 35  1  0  0  0  0
 16 20  1  0  0  0  0
 16 17  1  0  0  0  0
 16 44  1  0  0  0  0
 17 18  1  0  0  0  0
 17 36  1  0  0  0  0
 17 37  1  0  0  0  0
 18 19  1  0  0  0  0
 18 38  1  0  0  0  0
 18 39  1  0  0  0  0
 19 20  1  0  0  0  0
 19 40  1  0  0  0  0
 19 41  1  0  0  0  0
 20 42  1  0  0  0  0
 20 43  1  0  0  0  0
M  CHG  1   5   1
M  CHG  1   9  -1
M  CHG  1  16   1
M  END
> <s_m_source_file>
AV-unprocessed.smi

> <i_m_source_file_index>
2252

> <i_lp_mmshare_version>
43012

> <i_f3d_flags>
0

> <s_epik_input>
W0NIM11uMVtjSF1bY0hdbmMxW0NIMl1bQ0gyXVtOSF1DKD1PKVtDQEhdKFtDSF0yW0NIMl1bQ0gyXTIpTjNbQ0gyXVtDSDJdW0NIMl1bQ0gyXTM=

> <s_epik_cmdline>
J2VwaWtfcHl0aG9uJywgJy1waCcsICc3LjAnLCAnLXRuJywgJzgnLCAnLW1hJywgJzIwMCcsICctbWV0YWxfYmluZGluZycsICctaW1hZScsICc8aW5maWxlLm1hZT4nLCAnLW9tYWUnLCAnPG91dGZpbGUubWFlPic=

> <r_lp_tautomer_probability>
1

> <r_epik_Ionization_Penalty>
5.88052

> <r_epik_Ionization_Penalty_Charging>
5.85424

> <r_epik_Ionization_Penalty_Neutral>
0.026272

> <r_epik_State_Penalty>
5.94961

> <r_epik_Charging_Adjusted_Penalty>
11.8039

> <i_epik_Tot_Q>
1

> <i_epik_Tot_abs_Q>
3

> <r_epik_Metal_State_Penalty>
2.20001

> <b_epik_Metal_Only>
1

> <s_lp_Force_Field>
OPLS_2005

> <r_lp_Energy>
30.4817

> <b_lp_Chiralities_Consistent>
1

> <s_lp_Variant>
AV-unprocessed.smi:2252-8

> <Gold.Version>
5.8.1

> <Gold.Id.Protein>
6NUR|6NUR_protein|mol2

> <Gold.PLP.Fitness>
52.3918

> <Gold.PLP.PLP>
-39.0759

> <Gold.PLP.part.hbond>
-3.0000

> <Gold.PLP.part.metal>
0.0000

> <Gold.PLP.part.buried>
-4.8499

> <Gold.PLP.part.nonpolar>
-31.2570

> <Gold.PLP.part.repulsive>
0.0778

> <Gold.PLP.ligand.clash>
0.0000

> <Gold.PLP.ligand.torsion>
1.4475

> <Gold.PLP.Chemscore.Hbond>
4.9920

> <Gold.PLP.Chemscore.CHOScore>
0.0000

> <Gold.PLP.Chemscore.Metal>
0.0000

> <Gold.Chemscore.Hbonds>
donor molecule, donor type, donor heavy atom, donor atom, acceptor molecule, acceptor atom, score
      L1  H     5    45       P1  8028  2.00
      L1  H    16    44       P1  7948  2.00
      P1  H  7989  7998       L1     9  0.91

> <Gold.PLP.Chemscore.Internal.Correction>
1.2348

> <Gold.Rescore>
     Score         DG    S(hbond)    S(metal)    S(lipo)     H(rot)  DE(clash)    DE(int)     intcor
     14.14     -20.05       2.57        0.00      94.50       1.98       1.84       4.07       ----

> <Gold.Chemscore.Fitness>
14.1400

> <Gold.Chemscore.DG>
-20.0538

> <Gold.Chemscore.ZeroCoef>
-5.4800

> <Gold.Chemscore.Hbond>
2.5715

> <Gold.Chemscore.Metal>
0.0000

> <Gold.Chemscore.Lipo>
94.4969

> <Gold.Chemscore.Internal_Hbond>
0.0000

> <Gold.Chemscore.DEClash>
1.8441

> <Gold.Chemscore.DEInternal>
4.0698

> <Gold.Chemscore.Rot>
1.9809

> <Gold.Chemscore.Internal.Correction>
   9.000000E+99

> <Gold.Chemscore.Hbonds>
donor molecule, donor type, donor heavy atom, donor atom, acceptor molecule, acceptor atom, score
      L1  H     5    45       P1  8028  0.94
      L1  H    16    44       P1  7948  1.00
      P1  H  7989  7998       L1     9  0.69

> <Gold.Chemscore.Hbond.Weighted>
-8.5888

> <Gold.Chemscore.Metal.Weighted>
-0.0000

> <Gold.Chemscore.Lipo.Weighted>
-11.0561

> <Gold.Chemscore.Internal_Hbond.Weighted>
0.0000

> <Gold.Chemscore.DEClash.Weighted>
1.8441

> <Gold.Chemscore.DEInternal.Weighted>
4.0698

> <Gold.Chemscore.Rot.Weighted>
5.0711

> <Gold.Chemscore.Internal.Correction.Weighted>
   9.000000E+99

> <Gold.Protein.RotatedTorsions>
[ 6907 6896 6895 6894 ] final  -93.80 input  -60.11 | X-H torsion
[ 7974 7965 7964 7962 ] final   39.82 input  175.53 | X-H torsion
[ 8008 7997 7996 7995 ] final  -48.08 input   59.86 | X-H torsion
[ 10167 10162 10161 10158 ] final    4.12 input  -65.29 | X-H torsion
[ 10718 10713 10712 10709 ] final    1.83 input   66.30 | X-H torsion
[ 10763 10752 10751 10750 ] final   99.65 input  -60.55 | X-H torsion
[ 11005 11000 10999 10996 ] final   86.98 input  -57.11 | X-H torsion

> <Gold.Protein.ActiveResidues>
 VAL166  LYS551  ARG553  GLY616  TRP617  ASP618  TYR619  PRO620  LYS621  CYS622 
 ASP623  PHE694  ASN695  SER759  ASP760  ASP761  ALA762  ILE779  LEU786  VAL792 
 PHE793  MET794  SER795  GLU796  ALA797  LYS798  CYS799  TRP800  GLU811  SER814 

> <Gold.Protein.RotatedAtoms>
  150.6929  134.1911  159.4285 H   0  0  0  0  0  0  0  0  0  0  0  0  # atno 6907 bound_to 6896
  151.9882  134.9991  160.0569 H   0  0  0  0  0  0  0  0  0  0  0  0  # atno 6908 bound_to 6896
  152.1692  133.4597  159.4937 H   0  0  0  0  0  0  0  0  0  0  0  0  # atno 6909 bound_to 6896
  146.0954  139.5606  142.9449 H   0  0  0  0  0  0  0  0  0  0  0  0  # atno 7974 bound_to 7965
  154.4024  140.1330  156.4280 H   0  0  0  0  0  0  0  0  0  0  0  0  # atno 8008 bound_to 7997
  155.7578  140.3486  155.5163 H   0  0  0  0  0  0  0  0  0  0  0  0  # atno 8009 bound_to 7997
  155.8887  140.0999  157.1424 H   0  0  0  0  0  0  0  0  0  0  0  0  # atno 8010 bound_to 7997
  140.6551  143.7447  150.7640 H   0  0  0  0  0  0  0  0  0  0  0  0  # atno 10167 bound_to 10162
  156.8540  130.5563  149.5667 H   0  0  0  0  0  0  0  0  0  0  0  0  # atno 10718 bound_to 10713
  153.3041  135.4106  155.1278 H   0  0  0  0  0  0  0  0  0  0  0  0  # atno 10763 bound_to 10752
  154.8557  135.3548  154.5812 H   0  0  0  0  0  0  0  0  0  0  0  0  # atno 10764 bound_to 10752
  153.6238  135.7063  153.5359 H   0  0  0  0  0  0  0  0  0  0  0  0  # atno 10765 bound_to 10752
  139.8931  134.8392  156.2796 H   0  0  0  0  0  0  0  0  0  0  0  0  # atno 11005 bound_to 11000
  145.5959  141.0363  143.2045 LP  0  0  0  0  0  0  0  0  0  0  0  0  # atno 17320 bound_to 7965
  144.7391  139.7499  143.7318 LP  0  0  0  0  0  0  0  0  0  0  0  0  # atno 17321 bound_to 7965
  140.1106  143.4703  152.2372 LP  0  0  0  0  0  0  0  0  0  0  0  0  # atno 17342 bound_to 10162
  139.5772  144.7493  151.3733 LP  0  0  0  0  0  0  0  0  0  0  0  0  # atno 17343 bound_to 10162
  156.0813  130.5822  150.9567 LP  0  0  0  0  0  0  0  0  0  0  0  0  # atno 17370 bound_to 10713
  157.6287  131.0923  150.8483 LP  0  0  0  0  0  0  0  0  0  0  0  0  # atno 17371 bound_to 10713
  141.0047  133.7131  156.1016 LP  0  0  0  0  0  0  0  0  0  0  0  0  # atno 17394 bound_to 11000
  140.7450  134.4108  157.5549 LP  0  0  0  0  0  0  0  0  0  0  0  0  # atno 17395 bound_to 11000

$$$$
