AV-unprocessed.smi:824|AV-procd|sdf|3848|dock1
  -GOLD-   22720 1293D 1   1.00000     0.00000
 Structure written by MMmdl.
 52 53  0  0  0  0  0  0  0  0  1 V2000
  147.6241  138.8492  157.4883 C   0  0  0  0  0  0  0  0  0  0  0  0
  148.9882  138.9672  158.1451 C   0  0  0  0  0  0  0  0  0  0  0  0
  149.5786  140.2360  158.0920 N   0  0  0  0  0  0  0  0  0  0  0  0
  150.7451  140.4374  158.6201 C   0  0  0  0  0  0  0  0  0  0  0  0
  151.4363  141.6513  158.6388 N   0  0  0  0  0  0  0  0  0  0  0  0
  150.8774  142.8654  158.0382 C   0  0  0  0  0  0  0  0  0  0  0  0
  151.9813  143.8790  157.6928 C   0  0  0  0  0  0  0  0  0  0  0  0
  152.7484  144.1669  158.8536 O   0  0  0  0  0  0  0  0  0  0  0  0
  153.3916  143.0014  159.3502 C   0  0  0  0  0  0  0  0  0  0  0  0
  152.3358  141.9578  159.7512 C   0  0  0  0  0  0  0  0  0  0  0  0
  151.4165  139.3889  159.2586 N   0  0  0  0  0  0  0  0  0  0  0  0
  150.9310  138.1327  159.3681 C   0  0  0  0  0  0  0  0  0  0  0  0
  151.5778  137.2631  159.9498 O   0  0  0  0  0  0  0  0  0  0  0  0
  149.6095  137.9200  158.7558 C   0  0  0  0  0  0  0  0  0  0  0  0
  149.0117  136.5174  158.8242 C   0  0  0  0  0  0  0  0  0  0  0  0
  148.7252  136.0816  160.2748 C   0  0  0  0  0  0  0  0  0  0  0  0
  147.4132  136.6467  160.8494 C   0  0  0  0  0  0  0  0  0  0  0  0
  146.8740  137.6041  160.2910 O   0  0  0  0  0  0  0  0  0  0  0  0
  146.8876  136.0680  161.9564 N   0  0  0  0  0  0  0  0  0  0  0  0
  147.5371  134.9499  162.6487 C   0  0  0  0  0  0  0  0  0  0  0  0
  145.6433  136.5633  162.5662 C   0  0  0  0  0  0  0  0  0  0  0  0
  144.4516  135.5943  162.3853 C   0  0  0  0  0  0  0  0  0  0  0  0
  143.1410  136.2601  162.8291 C   0  0  0  0  0  0  0  0  0  0  0  0
  144.6556  134.2597  163.1227 C   0  0  0  0  0  0  0  0  0  0  0  0
  152.3192  139.5756  159.6700 H   0  0  0  0  0  0  0  0  0  0  0  0
  146.9018  138.4092  158.1761 H   0  0  0  0  0  0  0  0  0  0  0  0
  147.6842  138.2222  156.5984 H   0  0  0  0  0  0  0  0  0  0  0  0
  147.2439  139.8259  157.1860 H   0  0  0  0  0  0  0  0  0  0  0  0
  150.3114  142.6463  157.1329 H   0  0  0  0  0  0  0  0  0  0  0  0
  150.1754  143.3104  158.7446 H   0  0  0  0  0  0  0  0  0  0  0  0
  152.6258  143.4966  156.8996 H   0  0  0  0  0  0  0  0  0  0  0  0
  151.5385  144.8041  157.3233 H   0  0  0  0  0  0  0  0  0  0  0  0
  154.0719  142.5971  158.5985 H   0  0  0  0  0  0  0  0  0  0  0  0
  153.9980  143.2722  160.2143 H   0  0  0  0  0  0  0  0  0  0  0  0
  151.7450  142.3270  160.5904 H   0  0  0  0  0  0  0  0  0  0  0  0
  152.8438  141.0548  160.0925 H   0  0  0  0  0  0  0  0  0  0  0  0
  148.0940  136.4756  158.2374 H   0  0  0  0  0  0  0  0  0  0  0  0
  149.6911  135.8125  158.3420 H   0  0  0  0  0  0  0  0  0  0  0  0
  148.6816  134.9929  160.3208 H   0  0  0  0  0  0  0  0  0  0  0  0
  149.5552  136.3962  160.9083 H   0  0  0  0  0  0  0  0  0  0  0  0
  148.4697  135.2751  163.1110 H   0  0  0  0  0  0  0  0  0  0  0  0
  147.7576  134.1335  161.9603 H   0  0  0  0  0  0  0  0  0  0  0  0
  146.9112  134.5289  163.4359 H   0  0  0  0  0  0  0  0  0  0  0  0
  145.7921  136.7658  163.6277 H   0  0  0  0  0  0  0  0  0  0  0  0
  145.3949  137.5343  162.1335 H   0  0  0  0  0  0  0  0  0  0  0  0
  144.3511  135.3689  161.3230 H   0  0  0  0  0  0  0  0  0  0  0  0
  143.1622  136.5079  163.8910 H   0  0  0  0  0  0  0  0  0  0  0  0
  142.2883  135.6027  162.6577 H   0  0  0  0  0  0  0  0  0  0  0  0
  142.9601  137.1820  162.2756 H   0  0  0  0  0  0  0  0  0  0  0  0
  144.7952  134.4161  164.1928 H   0  0  0  0  0  0  0  0  0  0  0  0
  145.5266  133.7230  162.7464 H   0  0  0  0  0  0  0  0  0  0  0  0
  143.7941  133.6045  162.9927 H   0  0  0  0  0  0  0  0  0  0  0  0
  1  2  1  0  0  0  0
  1 26  1  0  0  0  0
  1 27  1  0  0  0  0
  1 28  1  0  0  0  0
  2 14  2  0  0  0  0
  2  3  1  0  0  0  0
  3  4  2  0  0  0  0
  4  5  1  0  0  0  0
  4 11  1  0  0  0  0
  5 10  1  0  0  0  0
  5  6  1  0  0  0  0
  6  7  1  0  0  0  0
  6 29  1  0  0  0  0
  6 30  1  0  0  0  0
  7  8  1  0  0  0  0
  7 31  1  0  0  0  0
  7 32  1  0  0  0  0
  8  9  1  0  0  0  0
  9 10  1  0  0  0  0
  9 33  1  0  0  0  0
  9 34  1  0  0  0  0
 10 35  1  0  0  0  0
 10 36  1  0  0  0  0
 11 25  1  0  0  0  0
 11 12  1  0  0  0  0
 12 13  2  0  0  0  0
 12 14  1  0  0  0  0
 14 15  1  0  0  0  0
 15 16  1  0  0  0  0
 15 37  1  0  0  0  0
 15 38  1  0  0  0  0
 16 17  1  0  0  0  0
 16 39  1  0  0  0  0
 16 40  1  0  0  0  0
 17 18  2  0  0  0  0
 17 19  1  0  0  0  0
 19 20  1  0  0  0  0
 19 21  1  0  0  0  0
 20 41  1  0  0  0  0
 20 42  1  0  0  0  0
 20 43  1  0  0  0  0
 21 22  1  0  0  0  0
 21 44  1  0  0  0  0
 21 45  1  0  0  0  0
 22 23  1  0  0  0  0
 22 24  1  0  0  0  0
 22 46  1  0  0  0  0
 23 47  1  0  0  0  0
 23 48  1  0  0  0  0
 23 49  1  0  0  0  0
 24 50  1  0  0  0  0
 24 51  1  0  0  0  0
 24 52  1  0  0  0  0
M  END
> <s_m_source_file>
AV-unprocessed.smi

> <i_m_source_file_index>
824

> <i_lp_mmshare_version>
43012

> <i_f3d_flags>
0

> <s_epik_input>
W0NIMl0xW0NIMl1PW0NIMl1bQ0gyXU4xYyhuYzJbQ0gzXSlbbkhdYyg9TyljMltDSDJdW0NIMl1DKD1PKU4oW0NIM10pW0NIMl1bQ0hdKFtDSDNdKVtDSDNd

> <s_epik_cmdline>
J2VwaWtfcHl0aG9uJywgJy1waCcsICc3LjAnLCAnLXRuJywgJzgnLCAnLW1hJywgJzIwMCcsICctbWV0YWxfYmluZGluZycsICctaW1hZScsICc8aW5maWxlLm1hZT4nLCAnLW9tYWUnLCAnPG91dGZpbGUubWFlPic=

> <r_lp_tautomer_probability>
0.878553

> <r_epik_Ionization_Penalty>
0.00115806

> <r_epik_Ionization_Penalty_Charging>
0.00113132

> <r_epik_Ionization_Penalty_Neutral>
2.67354e-05

> <r_epik_State_Penalty>
0.0423856

> <r_epik_Charging_Adjusted_Penalty>
0.0435169

> <i_epik_Tot_Q>
0

> <i_epik_Tot_abs_Q>
0

> <r_epik_Metal_State_Penalty>
1.05917

> <b_epik_Metal_Only>
0

> <s_lp_Force_Field>
OPLS_2005

> <r_lp_Energy>
33.2944

> <b_lp_Chiralities_Consistent>
1

> <s_lp_Variant>
AV-unprocessed.smi:824-1

> <Gold.Version>
5.8.1

> <Gold.Id.Protein>
6NUR|6NUR_protein|mol2

> <Gold.PLP.Fitness>
47.9094

> <Gold.PLP.PLP>
-42.8694

> <Gold.PLP.part.hbond>
-2.0000

> <Gold.PLP.part.metal>
0.0000

> <Gold.PLP.part.buried>
-8.1078

> <Gold.PLP.part.nonpolar>
-33.7136

> <Gold.PLP.part.repulsive>
0.1603

> <Gold.PLP.ligand.clash>
0.0000

> <Gold.PLP.ligand.torsion>
0.6760

> <Gold.PLP.Chemscore.Hbond>
1.9913

> <Gold.PLP.Chemscore.CHOScore>
0.0000

> <Gold.PLP.Chemscore.Metal>
0.0000

> <Gold.Chemscore.Hbonds>
donor molecule, donor type, donor heavy atom, donor atom, acceptor molecule, acceptor atom, score
      P1  H  6896  6909       L1    13  0.83
      P1  H  6934  6947       L1    18  1.00

> <Gold.PLP.Chemscore.Internal.Correction>
0.4182

> <Gold.Rescore>
     Score         DG    S(hbond)    S(metal)    S(lipo)     H(rot)  DE(clash)    DE(int)     intcor
     17.72     -18.70       1.98        0.00      94.01       1.71       0.06       0.93       ----

> <Gold.Chemscore.Fitness>
17.7164

> <Gold.Chemscore.DG>
-18.7036

> <Gold.Chemscore.ZeroCoef>
-5.4800

> <Gold.Chemscore.Hbond>
1.9761

> <Gold.Chemscore.Metal>
0.0000

> <Gold.Chemscore.Lipo>
94.0107

> <Gold.Chemscore.Internal_Hbond>
0.0000

> <Gold.Chemscore.DEClash>
0.0551

> <Gold.Chemscore.DEInternal>
0.9321

> <Gold.Chemscore.Rot>
1.7093

> <Gold.Chemscore.Internal.Correction>
   9.000000E+99

> <Gold.Chemscore.Hbonds>
donor molecule, donor type, donor heavy atom, donor atom, acceptor molecule, acceptor atom, score
      P1  H  6896  6909       L1    13  0.82
      P1  H  6934  6947       L1    18  0.90

> <Gold.Chemscore.Hbond.Weighted>
-6.6003

> <Gold.Chemscore.Metal.Weighted>
-0.0000

> <Gold.Chemscore.Lipo.Weighted>
-10.9993

> <Gold.Chemscore.Internal_Hbond.Weighted>
0.0000

> <Gold.Chemscore.DEClash.Weighted>
0.0551

> <Gold.Chemscore.DEInternal.Weighted>
0.9321

> <Gold.Chemscore.Rot.Weighted>
4.3759

> <Gold.Chemscore.Internal.Correction.Weighted>
   9.000000E+99

> <Gold.Protein.RotatedTorsions>
[ 6907 6896 6895 6894 ] final  110.90 input  -60.11 | X-H torsion
[ 7974 7965 7964 7962 ] final   63.61 input  175.53 | X-H torsion
[ 8008 7997 7996 7995 ] final  174.39 input   59.86 | X-H torsion
[ 10167 10162 10161 10158 ] final  175.41 input  -65.29 | X-H torsion
[ 10718 10713 10712 10709 ] final   10.95 input   66.30 | X-H torsion
[ 10763 10752 10751 10750 ] final -156.88 input  -60.55 | X-H torsion
[ 11005 11000 10999 10996 ] final   34.28 input  -57.11 | X-H torsion

> <Gold.Protein.ActiveResidues>
 VAL166  LYS551  ARG553  GLY616  TRP617  ASP618  TYR619  PRO620  LYS621  CYS622 
 ASP623  PHE694  ASN695  SER759  ASP760  ASP761  ALA762  ILE779  LEU786  VAL792 
 PHE793  MET794  SER795  GLU796  ALA797  LYS798  CYS799  TRP800  GLU811  SER814 

> <Gold.Protein.RotatedAtoms>
  152.4996  133.8734  159.7309 H   0  0  0  0  0  0  0  0  0  0  0  0  # atno 6907 bound_to 6896
  150.9214  133.6866  159.2838 H   0  0  0  0  0  0  0  0  0  0  0  0  # atno 6908 bound_to 6896
  151.4242  135.1006  159.9675 H   0  0  0  0  0  0  0  0  0  0  0  0  # atno 6909 bound_to 6896
  145.8598  139.3307  143.0825 H   0  0  0  0  0  0  0  0  0  0  0  0  # atno 7974 bound_to 7965
  156.0979  140.1436  156.9506 H   0  0  0  0  0  0  0  0  0  0  0  0  # atno 8008 bound_to 7997
  154.4683  140.0918  156.7125 H   0  0  0  0  0  0  0  0  0  0  0  0  # atno 8009 bound_to 7997
  155.4810  140.3445  155.4342 H   0  0  0  0  0  0  0  0  0  0  0  0  # atno 8010 bound_to 7997
  139.5176  144.3034  152.0358 H   0  0  0  0  0  0  0  0  0  0  0  0  # atno 10167 bound_to 10162
  156.9885  130.6033  149.5683 H   0  0  0  0  0  0  0  0  0  0  0  0  # atno 10718 bound_to 10713
  154.7679  135.3136  154.8250 H   0  0  0  0  0  0  0  0  0  0  0  0  # atno 10763 bound_to 10752
  153.8993  135.6817  153.4760 H   0  0  0  0  0  0  0  0  0  0  0  0  # atno 10764 bound_to 10752
  153.1287  135.4789  154.9248 H   0  0  0  0  0  0  0  0  0  0  0  0  # atno 10765 bound_to 10752
  140.2545  134.3264  155.7878 H   0  0  0  0  0  0  0  0  0  0  0  0  # atno 11005 bound_to 11000
  145.9261  140.9081  143.0380 LP  0  0  0  0  0  0  0  0  0  0  0  0  # atno 17320 bound_to 7965
  144.6727  140.1355  143.7441 LP  0  0  0  0  0  0  0  0  0  0  0  0  # atno 17321 bound_to 7965
  140.2481  144.4198  150.6233 LP  0  0  0  0  0  0  0  0  0  0  0  0  # atno 17342 bound_to 10162
  140.6244  143.2179  151.6628 LP  0  0  0  0  0  0  0  0  0  0  0  0  # atno 17343 bound_to 10162
  156.0216  130.5311  150.8292 LP  0  0  0  0  0  0  0  0  0  0  0  0  # atno 17370 bound_to 10713
  157.5475  131.0943  150.9741 LP  0  0  0  0  0  0  0  0  0  0  0  0  # atno 17371 bound_to 10713
  141.2197  133.7373  156.9089 LP  0  0  0  0  0  0  0  0  0  0  0  0  # atno 17394 bound_to 11000
  140.1525  134.9220  157.2611 LP  0  0  0  0  0  0  0  0  0  0  0  0  # atno 17395 bound_to 11000

$$$$
