AV-unprocessed.smi:3032|AV-procd|sdf|11569|dock5
  -GOLD-   2272016533D 1   1.00000     0.00000
 Structure written by MMmdl.
 36 37  0  0  0  0  0  0  0  0  2 V2000
  149.1866  145.1379  160.7938 C   0  0  0  0  0  0  0  0  0  0  0  0
  150.2082  144.3781  159.9361 C   0  0  2  0  0  0  0  0  0  0  0  0
  151.2580  145.3309  159.3350 C   0  0  0  0  0  0  0  0  0  0  0  0
  152.2916  144.5718  158.4890 C   0  0  0  0  0  0  0  0  0  0  0  0
  151.6164  143.7326  157.3868 C   0  0  0  0  0  0  0  0  0  0  0  0
  150.4959  142.8013  157.9097 C   0  0  1  0  0  0  0  0  0  0  0  0
  151.0253  141.5262  158.5926 C   0  0  0  0  0  0  0  0  0  0  0  0
  151.8231  141.5893  159.5283 O   0  0  0  0  0  0  0  0  0  0  0  0
  150.5617  140.3637  158.1096 N   0  0  0  0  0  0  0  0  0  0  0  0
  150.8600  139.0462  158.6612 C   0  0  0  0  0  0  0  0  0  0  0  0
  152.0530  138.3682  157.9604 C   0  0  0  0  0  0  0  0  0  0  0  0
  151.9598  138.4009  156.4473 C   0  0  0  0  0  0  0  0  0  0  0  0
  152.2825  139.4504  155.6637 N   0  5  0  0  0  0  0  0  0  0  0  0
  152.0481  139.1613  154.3985 N   0  0  0  0  0  0  0  0  0  0  0  0
  151.5678  137.9126  154.4315 C   0  0  0  0  0  0  0  0  0  0  0  0
  151.4973  137.4217  155.6731 N   0  0  0  0  0  0  0  0  0  0  0  0
  149.5126  143.5773  158.8155 C   0  0  0  0  0  0  0  0  0  0  0  0
  148.6292  145.8624  160.1994 H   0  0  0  0  0  0  0  0  0  0  0  0
  149.6786  145.6780  161.6033 H   0  0  0  0  0  0  0  0  0  0  0  0
  148.4679  144.4528  161.2447 H   0  0  0  0  0  0  0  0  0  0  0  0
  150.7227  143.6784  160.5957 H   0  0  0  0  0  0  0  0  0  0  0  0
  150.7637  146.0814  158.7166 H   0  0  0  0  0  0  0  0  0  0  0  0
  151.7685  145.8744  160.1306 H   0  0  0  0  0  0  0  0  0  0  0  0
  152.9851  145.2803  158.0352 H   0  0  0  0  0  0  0  0  0  0  0  0
  152.8963  143.9364  159.1351 H   0  0  0  0  0  0  0  0  0  0  0  0
  151.1872  144.4100  156.6478 H   0  0  0  0  0  0  0  0  0  0  0  0
  152.3711  143.1533  156.8531 H   0  0  0  0  0  0  0  0  0  0  0  0
  149.9332  142.4679  157.0357 H   0  0  0  0  0  0  0  0  0  0  0  0
  149.9002  140.3967  157.3473 H   0  0  0  0  0  0  0  0  0  0  0  0
  151.0914  139.1794  159.7181 H   0  0  0  0  0  0  0  0  0  0  0  0
  149.9777  138.4062  158.6170 H   0  0  0  0  0  0  0  0  0  0  0  0
  152.9827  138.8495  158.2648 H   0  0  0  0  0  0  0  0  0  0  0  0
  152.1283  137.3275  158.2781 H   0  0  0  0  0  0  0  0  0  0  0  0
  151.2662  137.3614  153.5495 H   0  0  0  0  0  0  0  0  0  0  0  0
  148.7876  142.8880  159.2518 H   0  0  0  0  0  0  0  0  0  0  0  0
  148.9312  144.2609  158.1954 H   0  0  0  0  0  0  0  0  0  0  0  0
  1  2  1  0  0  0  0
  1 18  1  0  0  0  0
  1 19  1  0  0  0  0
  1 20  1  0  0  0  0
  2 17  1  0  0  0  0
  2  3  1  0  0  0  0
  2 21  1  0  0  0  0
  3  4  1  0  0  0  0
  3 22  1  0  0  0  0
  3 23  1  0  0  0  0
  4  5  1  0  0  0  0
  4 24  1  0  0  0  0
  4 25  1  0  0  0  0
  5  6  1  0  0  0  0
  5 26  1  0  0  0  0
  5 27  1  0  0  0  0
  6  7  1  0  0  0  0
  6 17  1  0  0  0  0
  6 28  1  0  0  0  0
  7  8  2  0  0  0  0
  7  9  1  0  0  0  0
  9 10  1  0  0  0  0
  9 29  1  0  0  0  0
 10 11  1  0  0  0  0
 10 30  1  0  0  0  0
 10 31  1  0  0  0  0
 11 32  1  0  0  0  0
 11 33  1  0  0  0  0
 11 12  1  0  0  0  0
 12 16  2  0  0  0  0
 12 13  1  0  0  0  0
 13 14  1  0  0  0  0
 14 15  2  0  0  0  0
 15 16  1  0  0  0  0
 15 34  1  0  0  0  0
 17 35  1  0  0  0  0
 17 36  1  0  0  0  0
M  CHG  1  13  -1
M  END
> <s_m_source_file>
AV-unprocessed.smi

> <i_m_source_file_index>
3032

> <i_lp_mmshare_version>
43012

> <i_f3d_flags>
0

> <s_epik_input>
W0NIM11bQ0BASF0xW0NIMl1bQ0gyXVtDSDJdW0NASF0oW0NIMl0xKUMoPU8pW05IXVtDSDJdW0NIMl1jMm5uW2NIXVtuSF0y

> <s_epik_cmdline>
J2VwaWtfcHl0aG9uJywgJy1waCcsICc3LjAnLCAnLXRuJywgJzgnLCAnLW1hJywgJzIwMCcsICctbWV0YWxfYmluZGluZycsICctaW1hZScsICc8aW5maWxlLm1hZT4nLCAnLW9tYWUnLCAnPG91dGZpbGUubWFlPic=

> <r_lp_tautomer_probability>
0.948284

> <r_epik_Ionization_Penalty>
12.042

> <r_epik_Ionization_Penalty_Charging>
12.042

> <r_epik_Ionization_Penalty_Neutral>
4.36781e-08

> <r_epik_State_Penalty>
4.67286

> <r_epik_Charging_Adjusted_Penalty>
16.7149

> <i_epik_Tot_Q>
-1

> <i_epik_Tot_abs_Q>
1

> <r_epik_Metal_State_Penalty>
0.981637

> <b_epik_Metal_Only>
1

> <s_lp_Force_Field>
OPLS_2005

> <r_lp_Energy>
8.77891

> <b_lp_Chiralities_Consistent>
1

> <s_lp_Variant>
AV-unprocessed.smi:3032-13

> <Gold.Version>
5.8.1

> <Gold.Id.Protein>
6NUR|6NUR_protein|mol2

> <Gold.PLP.Fitness>
40.0592

> <Gold.PLP.PLP>
-30.3111

> <Gold.PLP.part.hbond>
-2.0000

> <Gold.PLP.part.metal>
0.0000

> <Gold.PLP.part.buried>
-4.5204

> <Gold.PLP.part.nonpolar>
-24.5602

> <Gold.PLP.part.repulsive>
0.2407

> <Gold.PLP.ligand.clash>
0.0000

> <Gold.PLP.ligand.torsion>
0.6660

> <Gold.PLP.Chemscore.Hbond>
2.6880

> <Gold.PLP.Chemscore.CHOScore>
0.9866

> <Gold.PLP.Chemscore.Metal>
0.0000

> <Gold.Chemscore.Hbonds>
donor molecule, donor type, donor heavy atom, donor atom, acceptor molecule, acceptor atom, score
      P1  H  7989  7998       L1    14  0.83
      P1  H  7997  8008       L1    13  0.91
      L1  C    15    34       P1  7949  1.00

> <Gold.PLP.Chemscore.Internal.Correction>
0.0563

> <Gold.Rescore>
     Score         DG    S(hbond)    S(metal)    S(lipo)     H(rot)  DE(clash)    DE(int)     intcor
     12.65     -13.70       1.54        0.00      74.76       2.21       0.38       0.68       ----

> <Gold.Chemscore.Fitness>
12.6490

> <Gold.Chemscore.DG>
-13.7023

> <Gold.Chemscore.ZeroCoef>
-5.4800

> <Gold.Chemscore.Hbond>
1.5406

> <Gold.Chemscore.Metal>
0.0000

> <Gold.Chemscore.Lipo>
74.7596

> <Gold.Chemscore.Internal_Hbond>
0.0000

> <Gold.Chemscore.DEClash>
0.3775

> <Gold.Chemscore.DEInternal>
0.6758

> <Gold.Chemscore.Rot>
2.2149

> <Gold.Chemscore.Internal.Correction>
   9.000000E+99

> <Gold.Chemscore.Hbonds>
donor molecule, donor type, donor heavy atom, donor atom, acceptor molecule, acceptor atom, score
      P1  H  7989  7998       L1    14  0.50
      P1  H  7997  8008       L1    13  0.29

> <Gold.Chemscore.Hbond.Weighted>
-5.1456

> <Gold.Chemscore.Metal.Weighted>
-0.0000

> <Gold.Chemscore.Lipo.Weighted>
-8.7469

> <Gold.Chemscore.Internal_Hbond.Weighted>
0.0000

> <Gold.Chemscore.DEClash.Weighted>
0.3775

> <Gold.Chemscore.DEInternal.Weighted>
0.6758

> <Gold.Chemscore.Rot.Weighted>
5.6702

> <Gold.Chemscore.Internal.Correction.Weighted>
   9.000000E+99

> <Gold.Protein.RotatedTorsions>
[ 6907 6896 6895 6894 ] final  -40.89 input  -60.11 | X-H torsion
[ 7974 7965 7964 7962 ] final  -11.54 input  175.53 | X-H torsion
[ 8008 7997 7996 7995 ] final  -38.95 input   59.86 | X-H torsion
[ 10167 10162 10161 10158 ] final  117.66 input  -65.29 | X-H torsion
[ 10718 10713 10712 10709 ] final  167.75 input   66.30 | X-H torsion
[ 10763 10752 10751 10750 ] final -142.15 input  -60.55 | X-H torsion
[ 11005 11000 10999 10996 ] final  103.04 input  -57.11 | X-H torsion

> <Gold.Protein.ActiveResidues>
 VAL166  LYS551  ARG553  GLY616  TRP617  ASP618  TYR619  PRO620  LYS621  CYS622 
 ASP623  PHE694  ASN695  SER759  ASP760  ASP761  ALA762  ILE779  LEU786  VAL792 
 PHE793  MET794  SER795  GLU796  ALA797  LYS798  CYS799  TRP800  GLU811  SER814 

> <Gold.Protein.RotatedAtoms>
  150.9731  134.9100  159.7799 H   0  0  0  0  0  0  0  0  0  0  0  0  # atno 6907 bound_to 6896
  152.5197  134.3513  159.9262 H   0  0  0  0  0  0  0  0  0  0  0  0  # atno 6908 bound_to 6896
  151.3522  133.3880  159.2716 H   0  0  0  0  0  0  0  0  0  0  0  0  # atno 6909 bound_to 6896
  146.2184  140.2926  142.8369 H   0  0  0  0  0  0  0  0  0  0  0  0  # atno 7974 bound_to 7965
  154.4029  140.1564  156.2784 H   0  0  0  0  0  0  0  0  0  0  0  0  # atno 8008 bound_to 7997
  155.8891  140.3439  155.5921 H   0  0  0  0  0  0  0  0  0  0  0  0  # atno 8009 bound_to 7997
  155.7579  140.0813  157.2160 H   0  0  0  0  0  0  0  0  0  0  0  0  # atno 8010 bound_to 7997
  139.6164  144.7092  151.2731 H   0  0  0  0  0  0  0  0  0  0  0  0  # atno 10167 bound_to 10162
  157.0471  131.0303  151.2693 H   0  0  0  0  0  0  0  0  0  0  0  0  # atno 10718 bound_to 10713
  154.8519  135.3504  154.5982 H   0  0  0  0  0  0  0  0  0  0  0  0  # atno 10763 bound_to 10752
  153.6591  135.6990  153.5188 H   0  0  0  0  0  0  0  0  0  0  0  0  # atno 10764 bound_to 10752
  153.2832  135.4257  155.1055 H   0  0  0  0  0  0  0  0  0  0  0  0  # atno 10765 bound_to 10752
  139.8781  134.9247  156.5149 H   0  0  0  0  0  0  0  0  0  0  0  0  # atno 11005 bound_to 11000
  144.9115  140.7763  143.5804 LP  0  0  0  0  0  0  0  0  0  0  0  0  # atno 17320 bound_to 7965
  145.2857  139.1902  143.4767 LP  0  0  0  0  0  0  0  0  0  0  0  0  # atno 17321 bound_to 7965
  140.7353  143.6740  150.8057 LP  0  0  0  0  0  0  0  0  0  0  0  0  # atno 17342 bound_to 10162
  140.0343  143.5411  152.2746 LP  0  0  0  0  0  0  0  0  0  0  0  0  # atno 17343 bound_to 10162
  157.5059  130.7909  149.7654 LP  0  0  0  0  0  0  0  0  0  0  0  0  # atno 17370 bound_to 10713
  156.0019  130.3875  150.2572 LP  0  0  0  0  0  0  0  0  0  0  0  0  # atno 17371 bound_to 10713
  140.8493  133.8144  155.9153 LP  0  0  0  0  0  0  0  0  0  0  0  0  # atno 17394 bound_to 11000
  140.9160  134.2201  157.4956 LP  0  0  0  0  0  0  0  0  0  0  0  0  # atno 17395 bound_to 11000

$$$$
