#       Name:                AV-unprocessed.smi:907
#       Creating user name   scv26
#       Creation time:       Fri Mar 27 02:00:35 2020


#       File generated by GOLD software.
#

@<TRIPOS>MOLECULE
AV-unprocessed.smi:907
    56    59     1
SMALL
NO_CHARGES


@<TRIPOS>ATOM
      1 ****         1.4221   1.1314  -1.9061 O.2            1 S1                 0.0000
      2 ****         0.9713   0.0908  -1.4256 C.2            1 S1                 0.0000
      3 ****         1.7241  -1.0115  -1.2723 N.am           1 S1                 0.0000
      4 ****         3.1383  -1.1188  -1.6121 C.3            1 S1                 0.0000
      5 ****         3.3447  -1.3504  -3.1183 C.3            1 S1                 0.0000
      6 ****         4.8107  -1.4977  -3.4780 C.ar           1 S1                 0.0000
      7 ****         5.5379  -0.4054  -3.9976 C.ar           1 S1                 0.0000
      8 ****         6.9003  -0.5908  -4.3026 C.ar           1 S1                 0.0000
      9 ****         7.4798  -1.8544  -4.0777 C.ar           1 S1                 0.0000
     10 ****         6.6676  -2.8807  -3.5551 C.ar           1 S1                 0.0000
     11 ****         5.3608  -2.7132  -3.2575 N.ar           1 S1                 0.0000
     12 ****        -0.3284  -0.0567  -1.0662 N.am           1 S1                 0.0000
     13 ****        -0.8705  -1.1010  -0.1871 C.3            1 S1                 0.0000
     14 ****        -1.1800  -0.4866   1.1912 C.3            1 S1                 0.0000
     15 ****        -2.0953   0.6868   1.0842 N.4            1 S1                 1.0000
     16 ****        -2.3999   1.3178   2.4011 C.3            1 S1                 0.0000
     17 ****        -3.5254   2.3807   2.3566 C.3            1 S1                 0.0000
     18 ****        -4.4523   1.9587   3.5126 C.3            1 S1                 0.0000
     19 ****        -5.2646   0.7294   3.0714 C.3            1 S1                 0.0000
     20 ****        -4.2000  -0.3818   3.0466 C.3            1 S1                 0.0000
     21 ****        -2.9183   0.3533   3.4974 C.3            1 S1                 0.0000
     22 ****        -3.4791   1.3447   4.5118 C.3            1 S1                 0.0000
     23 ****        -1.6247   1.6760   0.0720 C.3            1 S1                 0.0000
     24 ****        -1.3160   1.0035  -1.2771 C.3            1 S1                 0.0000
     25 ****         1.2835  -1.8386  -0.8968 H              1 S1                 0.0000
     26 ****         3.6717  -0.2238  -1.2866 H              1 S1                 0.0000
     27 ****         3.5572  -1.9516  -1.0466 H              1 S1                 0.0000
     28 ****         2.8104  -2.2471  -3.4360 H              1 S1                 0.0000
     29 ****         2.9210  -0.5236  -3.6900 H              1 S1                 0.0000
     30 ****         5.0655   0.5531  -4.1559 H              1 S1                 0.0000
     31 ****         7.4902   0.2216  -4.7006 H              1 S1                 0.0000
     32 ****         8.5215  -2.0329  -4.2999 H              1 S1                 0.0000
     33 ****         7.0788  -3.8620  -3.3698 H              1 S1                 0.0000
     34 ****        -1.7848  -1.4990  -0.6302 H              1 S1                 0.0000
     35 ****        -0.2117  -1.9606  -0.0633 H              1 S1                 0.0000
     36 ****        -1.6223  -1.2580   1.8207 H              1 S1                 0.0000
     37 ****        -0.2516  -0.1768   1.6739 H              1 S1                 0.0000
     38 ****        -1.4843   1.7879   2.7658 H              1 S1                 0.0000
     39 ****        -3.1151   3.3771   2.5250 H              1 S1                 0.0000
     40 ****        -4.0705   2.4014   1.4123 H              1 S1                 0.0000
     41 ****        -5.0667   2.7706   3.9029 H              1 S1                 0.0000
     42 ****        -6.0441   0.4978   3.7986 H              1 S1                 0.0000
     43 ****        -5.7443   0.8709   2.1021 H              1 S1                 0.0000
     44 ****        -4.4594  -1.1700   3.7546 H              1 S1                 0.0000
     45 ****        -4.1042  -0.8425   2.0633 H              1 S1                 0.0000
     46 ****        -2.1518  -0.3074   3.9035 H              1 S1                 0.0000
     47 ****        -2.7375   2.0532   4.8854 H              1 S1                 0.0000
     48 ****        -3.9735   0.8656   5.3592 H              1 S1                 0.0000
     49 ****        -2.3731   2.4517  -0.0850 H              1 S1                 0.0000
     50 ****        -0.7291   2.1753   0.4456 H              1 S1                 0.0000
     51 ****        -0.9834   1.7494  -2.0006 H              1 S1                 0.0000
     52 ****        -2.2251   0.5714  -1.6982 H              1 S1                 0.0000
     53 ****        -2.9707   0.3226   0.7358 H              1 S1                 0.0000
     54 ****         2.3779   1.1748  -2.1970 LP             1 S1                 0.0000
     55 ****         0.8324   1.9329  -2.0053 LP             1 S1                 0.0000
     56 ****         4.8166  -3.4652  -2.8854 LP             1 S1                 0.0000
@<TRIPOS>BOND
    1    1    2 2     
    2    2    3 am    
    3    2   12 am    
    4    3    4 1     
    5    3   25 1     
    6    4    5 1     
    7    4   26 1     
    8    4   27 1     
    9    5    6 1     
   10    5   28 1     
   11    5   29 1     
   12    6   11 ar    
   13    6    7 ar    
   14    7    8 ar    
   15    7   30 1     
   16    8    9 ar    
   17    8   31 1     
   18    9   10 ar    
   19    9   32 1     
   20   10   11 ar    
   21   10   33 1     
   22   12   24 1     
   23   12   13 1     
   24   13   14 1     
   25   13   34 1     
   26   13   35 1     
   27   14   15 1     
   28   14   36 1     
   29   14   37 1     
   30   15   16 1     
   31   15   23 1     
   32   15   53 1     
   33   16   21 1     
   34   16   17 1     
   35   16   38 1     
   36   17   18 1     
   37   17   39 1     
   38   17   40 1     
   39   18   22 1     
   40   18   19 1     
   41   18   41 1     
   42   19   20 1     
   43   19   42 1     
   44   19   43 1     
   45   20   21 1     
   46   20   44 1     
   47   20   45 1     
   48   21   22 1     
   49   21   46 1     
   50   22   47 1     
   51   22   48 1     
   52   23   24 1     
   53   23   49 1     
   54   23   50 1     
   55   24   51 1     
   56   24   52 1     
   57    1   54 1     
   58    1   55 1     
   59   11   56 1     
@<TRIPOS>SUBSTRUCTURE
      1 S1             1
@<TRIPOS>SET
LONE_PAIRS      STATIC     ATOMS    <user>   **** ""
3 54 55 56
DONOR_HYDROGENS      STATIC     ATOMS    <user>   **** ""
2 25 53
ATOM$BLUE        STATIC     ATOMS    COLORGROUP SYSTEM
3 54 55 56
ATOM$RED        STATIC     ATOMS    COLORGROUP SYSTEM
2 25 53
