#       Name:                AV-unprocessed.smi:2810
#       Creating user name   scv26
#       Creation time:       Fri Mar 27 15:26:58 2020


#       File generated by GOLD software.
#

@<TRIPOS>MOLECULE
AV-unprocessed.smi:2810
    46    47     1
SMALL
NO_CHARGES


@<TRIPOS>ATOM
      1 ****        -1.3043  -3.7168   1.6012 C.3            1 S1                 0.0000
      2 ****        -0.6239  -2.4804   1.0535 C.ar           1 S1                 0.0000
      3 ****        -1.3103  -1.2544   0.9306 C.ar           1 S1                 0.0000
      4 ****        -0.5776  -0.1665   0.4048 C.ar           1 S1                 0.0000
      5 ****        -1.1958   1.0935   0.2555 N.3            1 S1                 0.0000
      6 ****        -1.3842   1.7237   1.5616 C.3            1 S1                 0.0000
      7 ****        -2.1900   3.0235   1.4352 C.3            1 S1                 0.0000
      8 ****        -1.5316   3.8875   0.5212 O.3            1 S1                 0.0000
      9 ****        -1.4811   3.3221  -0.7823 C.3            1 S1                 0.0000
     10 ****        -0.6717   2.0026  -0.7824 C.3            1 S1                 0.0000
     11 ****        -0.6648   1.4630  -2.2294 C.2            1 S1                 0.0000
     12 ****        -1.4794   0.4483  -2.5382 N.am           1 S1                 0.0000
     13 ****         0.0882   1.9599  -3.0641 O.2            1 S1                 0.0000
     14 ****         0.7226  -0.3150   0.0549 N.ar           1 S1                 0.0000
     15 ****         1.2754  -1.5221   0.2079 C.ar           1 S1                 0.0000
     16 ****         2.7305  -1.6702  -0.2163 C.3            1 S1                 0.0000
     17 ****         3.6691  -0.8041   0.6380 C.3            1 S1                 0.0000
     18 ****         2.9117  -1.4436  -1.7255 C.3            1 S1                 0.0000
     19 ****         0.6697  -2.6120   0.6892 N.ar           1 S1                 0.0000
     20 ****        -2.3667  -3.5395   1.7703 H              1 S1                 0.0000
     21 ****        -0.8519  -4.0087   2.5492 H              1 S1                 0.0000
     22 ****        -1.2056  -4.5474   0.9017 H              1 S1                 0.0000
     23 ****        -2.3465  -1.1543   1.2190 H              1 S1                 0.0000
     24 ****        -1.9029   1.0525   2.2473 H              1 S1                 0.0000
     25 ****        -0.4085   1.9361   2.0024 H              1 S1                 0.0000
     26 ****        -3.2110   2.8241   1.1050 H              1 S1                 0.0000
     27 ****        -2.2589   3.5184   2.4040 H              1 S1                 0.0000
     28 ****        -2.4974   3.1622  -1.1488 H              1 S1                 0.0000
     29 ****        -1.0201   4.0526  -1.4484 H              1 S1                 0.0000
     30 ****         0.3586   2.2505  -0.5197 H              1 S1                 0.0000
     31 ****        -1.4920   0.0837  -3.4796 H              1 S1                 0.0000
     32 ****        -2.0805   0.0537  -1.8295 H              1 S1                 0.0000
     33 ****         3.0167  -2.7064  -0.0272 H              1 S1                 0.0000
     34 ****         3.5639  -1.0414   1.6970 H              1 S1                 0.0000
     35 ****         3.4571   0.2581   0.5117 H              1 S1                 0.0000
     36 ****         4.7116  -0.9682   0.3645 H              1 S1                 0.0000
     37 ****         2.2835  -2.1240  -2.3011 H              1 S1                 0.0000
     38 ****         3.9456  -1.6135  -2.0266 H              1 S1                 0.0000
     39 ****         2.6470  -0.4247  -2.0104 H              1 S1                 0.0000
     40 ****        -2.0895   0.8861  -0.1423 LP             1 S1                 0.0000
     41 ****        -0.5984   4.0502   0.8418 LP             1 S1                 0.0000
     42 ****        -2.0260   4.7558   0.4804 LP             1 S1                 0.0000
     43 ****         0.6946   2.7119  -2.8056 LP             1 S1                 0.0000
     44 ****         0.0945   1.6122  -4.0016 LP             1 S1                 0.0000
     45 ****         1.2514   0.4533  -0.3059 LP             1 S1                 0.0000
     46 ****         1.1518  -3.4838   0.7755 LP             1 S1                 0.0000
@<TRIPOS>BOND
    1    1    2 1     
    2    1   20 1     
    3    1   21 1     
    4    1   22 1     
    5    2   19 ar    
    6    2    3 ar    
    7    3    4 ar    
    8    3   23 1     
    9    4    5 1     
   10    4   14 ar    
   11    5   10 1     
   12    5    6 1     
   13    6    7 1     
   14    6   24 1     
   15    6   25 1     
   16    7    8 1     
   17    7   26 1     
   18    7   27 1     
   19    8    9 1     
   20    9   10 1     
   21    9   28 1     
   22    9   29 1     
   23   10   11 1     
   24   10   30 1     
   25   11   12 am    
   26   11   13 2     
   27   12   31 1     
   28   12   32 1     
   29   14   15 ar    
   30   15   16 1     
   31   15   19 ar    
   32   16   17 1     
   33   16   18 1     
   34   16   33 1     
   35   17   34 1     
   36   17   35 1     
   37   17   36 1     
   38   18   37 1     
   39   18   38 1     
   40   18   39 1     
   41    5   40 1     
   42    8   41 1     
   43    8   42 1     
   44   13   43 1     
   45   13   44 1     
   46   14   45 1     
   47   19   46 1     
@<TRIPOS>SUBSTRUCTURE
      1 S1             1
@<TRIPOS>SET
LONE_PAIRS      STATIC     ATOMS    <user>   **** ""
7 40 41 42 43 44 45 46
DONOR_HYDROGENS      STATIC     ATOMS    <user>   **** ""
2 31 32
ATOM$BLUE        STATIC     ATOMS    COLORGROUP SYSTEM
7 40 41 42 43 44 45 46
ATOM$RED        STATIC     ATOMS    COLORGROUP SYSTEM
2 31 32
