AV-unprocessed.smi:2188|AV-procd|sdf|8883|dock2
  -GOLD-   2272012 83D 1   1.00000     0.00000
 Structure written by MMmdl.
 39 41  0  0  0  0  0  0  0  0  3 V2000
  155.0476  139.2536  158.8674 O   0  0  0  0  0  0  0  0  0  0  0  0
  154.8174  139.9189  159.8860 C   0  0  0  0  0  0  0  0  0  0  0  0
  155.4493  139.7523  161.0895 N   0  5  0  0  0  0  0  0  0  0  0  0
  155.6898  138.4730  161.7554 C   0  0  0  0  0  0  0  0  0  0  0  0
  154.3736  137.6737  161.8245 C   0  0  0  0  0  0  0  0  0  0  0  0
  154.4400  136.4672  162.7507 C   0  0  0  0  0  0  0  0  0  0  0  0
  154.7846  135.1901  162.2492 C   0  0  0  0  0  0  0  0  0  0  0  0
  154.8304  134.0886  163.1286 C   0  0  0  0  0  0  0  0  0  0  0  0
  154.5257  134.2850  164.4908 C   0  0  0  0  0  0  0  0  0  0  0  0
  154.1940  135.5171  164.9349 N   0  3  0  0  0  0  0  0  0  0  0  0
  154.1391  136.5975  164.1256 C   0  0  0  0  0  0  0  0  0  0  0  0
  153.7692  140.9594  159.8405 C   0  0  0  0  0  0  0  0  0  0  0  0
  153.7254  141.8817  160.8389 C   0  0  0  0  0  0  0  0  0  0  0  0
  152.7448  142.9380  160.8599 C   0  0  0  0  0  0  0  0  0  0  0  0
  151.8403  142.9743  159.8762 C   0  0  0  0  0  0  0  0  0  0  0  0
  151.8028  142.0444  158.8388 N   0  0  0  0  0  0  0  0  0  0  0  0
  150.6954  142.1533  157.8954 C   0  0  0  0  0  0  0  0  0  0  0  0
  151.1819  141.9120  156.4783 C   0  0  0  0  0  0  0  0  0  0  0  0
  151.7777  140.1840  156.4454 S   0  0  0  0  0  0  0  0  0  0  0  0
  150.6508  139.3065  156.7991 O   0  0  0  0  0  0  0  0  0  0  0  0
  152.4869  139.9700  155.1748 O   0  0  0  0  0  0  0  0  0  0  0  0
  152.8722  140.2164  157.7127 N   0  0  0  0  0  0  0  0  0  0  0  0
  152.7920  141.0256  158.7315 C   0  0  0  0  0  0  0  0  0  0  0  0
  156.4341  137.8673  161.2365 H   0  0  0  0  0  0  0  0  0  0  0  0
  156.0732  138.6159  162.7661 H   0  0  0  0  0  0  0  0  0  0  0  0
  153.5621  138.3237  162.1557 H   0  0  0  0  0  0  0  0  0  0  0  0
  154.0967  137.3281  160.8272 H   0  0  0  0  0  0  0  0  0  0  0  0
  155.0164  135.0580  161.2022 H   0  0  0  0  0  0  0  0  0  0  0  0
  155.0966  133.1079  162.7620 H   0  0  0  0  0  0  0  0  0  0  0  0
  154.5365  133.4998  165.2325 H   0  0  0  0  0  0  0  0  0  0  0  0
  153.8621  137.5288  164.5981 H   0  0  0  0  0  0  0  0  0  0  0  0
  154.4248  141.8461  161.6620 H   0  0  0  0  0  0  0  0  0  0  0  0
  152.7418  143.6773  161.6469 H   0  0  0  0  0  0  0  0  0  0  0  0
  151.0797  143.7405  159.8380 H   0  0  0  0  0  0  0  0  0  0  0  0
  149.9183  141.4387  158.1683 H   0  0  0  0  0  0  0  0  0  0  0  0
  150.2405  143.1429  157.9463 H   0  0  0  0  0  0  0  0  0  0  0  0
  150.3795  142.0204  155.7492 H   0  0  0  0  0  0  0  0  0  0  0  0
  151.9969  142.5824  156.2031 H   0  0  0  0  0  0  0  0  0  0  0  0
  153.9761  135.6376  165.9242 H   0  0  0  0  0  0  0  0  0  0  0  0
  1  2  2  0  0  0  0
  2  3  1  0  0  0  0
  2 12  1  0  0  0  0
  3  4  1  0  0  0  0
  4  5  1  0  0  0  0
  4 24  1  0  0  0  0
  4 25  1  0  0  0  0
  5  6  1  0  0  0  0
  5 26  1  0  0  0  0
  5 27  1  0  0  0  0
  6 11  1  0  0  0  0
  6  7  2  0  0  0  0
  7  8  1  0  0  0  0
  7 28  1  0  0  0  0
  8  9  2  0  0  0  0
  8 29  1  0  0  0  0
  9 10  1  0  0  0  0
  9 30  1  0  0  0  0
 10 11  2  0  0  0  0
 10 39  1  0  0  0  0
 11 31  1  0  0  0  0
 12 23  1  0  0  0  0
 12 13  2  0  0  0  0
 13 14  1  0  0  0  0
 13 32  1  0  0  0  0
 14 15  2  0  0  0  0
 14 33  1  0  0  0  0
 15 16  1  0  0  0  0
 15 34  1  0  0  0  0
 16 23  1  0  0  0  0
 16 17  1  0  0  0  0
 17 18  1  0  0  0  0
 17 35  1  0  0  0  0
 17 36  1  0  0  0  0
 18 19  1  0  0  0  0
 18 37  1  0  0  0  0
 18 38  1  0  0  0  0
 19 20  2  0  0  0  0
 19 21  2  0  0  0  0
 19 22  1  0  0  0  0
 22 23  2  0  0  0  0
M  CHG  1   3  -1
M  CHG  1  10   1
M  END
> <s_m_source_file>
AV-unprocessed.smi

> <i_m_source_file_index>
2188

> <i_lp_mmshare_version>
43012

> <i_f3d_flags>
0

> <s_epik_input>
W0NIMl0xW0NIMl1TKD1PKSg9TylOPUMoTjEyKUMoPVtDSF1bQ0hdPVtDSF0yKUMoPU8pW05IXVtDSDJdW0NIMl1jM1tjSF1bY0hdW2NIXW5bY0hdMw==

> <s_epik_cmdline>
J2VwaWtfcHl0aG9uJywgJy1waCcsICc3LjAnLCAnLXRuJywgJzgnLCAnLW1hJywgJzIwMCcsICctbWV0YWxfYmluZGluZycsICctaW1hZScsICc8aW5maWxlLm1hZT4nLCAnLW9tYWUnLCAnPG91dGZpbGUubWFlPic=

> <r_epik_Ionization_Penalty>
7.27179

> <r_epik_Ionization_Penalty_Charging>
7.27179

> <r_epik_Ionization_Penalty_Neutral>
0

> <r_epik_State_Penalty>
7.89047

> <r_epik_Charging_Adjusted_Penalty>
15.1623

> <i_epik_Tot_Q>
0

> <i_epik_Tot_abs_Q>
2

> <r_epik_Metal_State_Penalty>
3.9241

> <b_epik_Metal_Only>
1

> <s_lp_Force_Field>
OPLS_2005

> <r_lp_Energy>
37.465

> <b_lp_Chiralities_Consistent>
1

> <s_lp_Variant>
AV-unprocessed.smi:2188-4

> <Gold.Version>
5.8.1

> <Gold.Id.Protein>
6NUR|6NUR_protein|mol2

> <Gold.PLP.Fitness>
53.8185

> <Gold.PLP.PLP>
-48.3866

> <Gold.PLP.part.hbond>
-4.8412

> <Gold.PLP.part.metal>
0.0000

> <Gold.PLP.part.buried>
-4.5952

> <Gold.PLP.part.nonpolar>
-37.3407

> <Gold.PLP.part.repulsive>
0.1380

> <Gold.PLP.ligand.clash>
0.0000

> <Gold.PLP.ligand.torsion>
0.9508

> <Gold.PLP.Chemscore.Hbond>
2.3419

> <Gold.PLP.Chemscore.CHOScore>
0.0000

> <Gold.PLP.Chemscore.Metal>
0.0000

> <Gold.Chemscore.Hbonds>
donor molecule, donor type, donor heavy atom, donor atom, acceptor molecule, acceptor atom, score
      P1  H  7989  7998       L1    21  0.56
      P1  H  7997  8008       L1     1  1.00
      P1  H  7997  8009       L1    21  0.75

> <Gold.PLP.Chemscore.Internal.Correction>
0.3079

> <Gold.Rescore>
     Score         DG    S(hbond)    S(metal)    S(lipo)     H(rot)  DE(clash)    DE(int)     intcor
     16.46     -19.01       1.70        0.00     100.13       1.51       0.16       2.39       ----

> <Gold.Chemscore.Fitness>
16.4625

> <Gold.Chemscore.DG>
-19.0106

> <Gold.Chemscore.ZeroCoef>
-5.4800

> <Gold.Chemscore.Hbond>
1.7015

> <Gold.Chemscore.Metal>
0.0000

> <Gold.Chemscore.Lipo>
100.1319

> <Gold.Chemscore.Internal_Hbond>
0.0000

> <Gold.Chemscore.DEClash>
0.1552

> <Gold.Chemscore.DEInternal>
2.3929

> <Gold.Chemscore.Rot>
1.5109

> <Gold.Chemscore.Internal.Correction>
   9.000000E+99

> <Gold.Chemscore.Hbonds>
donor molecule, donor type, donor heavy atom, donor atom, acceptor molecule, acceptor atom, score
      P1  H  7989  7998       L1    21  0.50
      P1  H  7997  8008       L1     1  0.98
      P1  H  7997  8009       L1    21  0.15

> <Gold.Chemscore.Hbond.Weighted>
-5.6832

> <Gold.Chemscore.Metal.Weighted>
-0.0000

> <Gold.Chemscore.Lipo.Weighted>
-11.7154

> <Gold.Chemscore.Internal_Hbond.Weighted>
0.0000

> <Gold.Chemscore.DEClash.Weighted>
0.1552

> <Gold.Chemscore.DEInternal.Weighted>
2.3929

> <Gold.Chemscore.Rot.Weighted>
3.8680

> <Gold.Chemscore.Internal.Correction.Weighted>
   9.000000E+99

> <Gold.Protein.RotatedTorsions>
[ 6907 6896 6895 6894 ] final  -92.98 input  -60.11 | X-H torsion
[ 7974 7965 7964 7962 ] final  -10.13 input  175.53 | X-H torsion
[ 8008 7997 7996 7995 ] final -135.65 input   59.86 | X-H torsion
[ 10167 10162 10161 10158 ] final -146.26 input  -65.29 | X-H torsion
[ 10718 10713 10712 10709 ] final   35.26 input   66.30 | X-H torsion
[ 10763 10752 10751 10750 ] final   63.72 input  -60.55 | X-H torsion
[ 11005 11000 10999 10996 ] final  163.47 input  -57.11 | X-H torsion

> <Gold.Protein.ActiveResidues>
 VAL166  LYS551  ARG553  GLY616  TRP617  ASP618  TYR619  PRO620  LYS621  CYS622 
 ASP623  PHE694  ASN695  SER759  ASP760  ASP761  ALA762  ILE779  LEU786  VAL792 
 PHE793  MET794  SER795  GLU796  ALA797  LYS798  CYS799  TRP800  GLU811  SER814 

> <Gold.Protein.RotatedAtoms>
  150.6915  134.2038  159.4332 H   0  0  0  0  0  0  0  0  0  0  0  0  # atno 6907 bound_to 6896
  152.0003  134.9929  160.0574 H   0  0  0  0  0  0  0  0  0  0  0  0  # atno 6908 bound_to 6896
  152.1584  133.4531  159.4885 H   0  0  0  0  0  0  0  0  0  0  0  0  # atno 6909 bound_to 6896
  146.2230  140.2718  142.8357 H   0  0  0  0  0  0  0  0  0  0  0  0  # atno 7974 bound_to 7965
  155.3821  140.0494  157.3043 H   0  0  0  0  0  0  0  0  0  0  0  0  # atno 8008 bound_to 7997
  154.5077  140.2180  155.9180 H   0  0  0  0  0  0  0  0  0  0  0  0  # atno 8009 bound_to 7997
  156.1546  140.3129  155.8709 H   0  0  0  0  0  0  0  0  0  0  0  0  # atno 8010 bound_to 7997
  139.7730  143.8211  152.2627 H   0  0  0  0  0  0  0  0  0  0  0  0  # atno 10167 bound_to 10162
  157.3205  130.7446  149.6782 H   0  0  0  0  0  0  0  0  0  0  0  0  # atno 10718 bound_to 10713
  153.0028  135.5419  154.6397 H   0  0  0  0  0  0  0  0  0  0  0  0  # atno 10763 bound_to 10752
  154.5655  135.2837  155.0880 H   0  0  0  0  0  0  0  0  0  0  0  0  # atno 10764 bound_to 10752
  154.2066  135.6474  153.5155 H   0  0  0  0  0  0  0  0  0  0  0  0  # atno 10765 bound_to 10752
  140.2361  134.8087  157.3365 H   0  0  0  0  0  0  0  0  0  0  0  0  # atno 11005 bound_to 11000
  144.9262  140.7924  143.5717 LP  0  0  0  0  0  0  0  0  0  0  0  0  # atno 17320 bound_to 7965
  145.2659  139.1974  143.4867 LP  0  0  0  0  0  0  0  0  0  0  0  0  # atno 17321 bound_to 7965
  139.8251  144.7279  150.9522 LP  0  0  0  0  0  0  0  0  0  0  0  0  # atno 17342 bound_to 10162
  140.7815  143.4122  151.0974 LP  0  0  0  0  0  0  0  0  0  0  0  0  # atno 17343 bound_to 10162
  155.9685  130.4224  150.4516 LP  0  0  0  0  0  0  0  0  0  0  0  0  # atno 17370 bound_to 10713
  157.2531  131.0550  151.2367 LP  0  0  0  0  0  0  0  0  0  0  0  0  # atno 17371 bound_to 10713
  140.1701  134.4619  155.7837 LP  0  0  0  0  0  0  0  0  0  0  0  0  # atno 17394 bound_to 11000
  141.2214  133.6938  156.7693 LP  0  0  0  0  0  0  0  0  0  0  0  0  # atno 17395 bound_to 11000

$$$$
