AV-unprocessed.smi:2389|AV-procd|sdf|9472|dock8
  -GOLD-   2272013103D 1   1.00000     0.00000
 Structure written by MMmdl.
 34 35  0  0  0  0  0  0  0  0  1 V2000
  154.7589  139.8671  161.9558 C   0  0  0  0  0  0  0  0  0  0  0  0
  153.9535  141.1167  161.5920 C   0  0  0  0  0  0  0  0  0  0  0  0
  153.4007  140.9432  160.2904 O   0  0  0  0  0  0  0  0  0  0  0  0
  152.8181  142.0315  159.6735 C   0  0  0  0  0  0  0  0  0  0  0  0
  153.0341  143.3123  160.2159 C   0  0  0  0  0  0  0  0  0  0  0  0
  152.4344  144.4176  159.5863 C   0  0  0  0  0  0  0  0  0  0  0  0
  151.6438  144.2018  158.4416 C   0  0  0  0  0  0  0  0  0  0  0  0
  151.4738  142.8870  157.9542 C   0  0  0  0  0  0  0  0  0  0  0  0
  150.6599  142.7716  156.7959 N   0  0  0  0  0  0  0  0  0  0  0  0
  150.3968  141.6683  156.0731 C   0  0  0  0  0  0  0  0  0  0  0  0
  150.8318  140.5407  156.3104 O   0  0  0  0  0  0  0  0  0  0  0  0
  149.5898  141.9465  155.0394 N   0  0  0  0  0  0  0  0  0  0  0  0
  149.1180  140.9722  154.0640 C   0  0  0  0  0  0  0  0  0  0  0  0
  147.6134  140.7861  154.0198 C   0  0  0  0  0  0  0  0  0  0  0  0
  146.8683  140.7421  152.7054 C   0  0  0  0  0  0  0  0  0  0  0  0
  146.7160  141.9335  153.6188 C   0  0  0  0  0  0  0  0  0  0  0  0
  152.0573  141.8295  158.5699 N   0  0  0  0  0  0  0  0  0  0  0  0
  155.1952  139.9613  162.9503 H   0  0  0  0  0  0  0  0  0  0  0  0
  155.5722  139.7065  161.2480 H   0  0  0  0  0  0  0  0  0  0  0  0
  154.1275  138.9782  161.9494 H   0  0  0  0  0  0  0  0  0  0  0  0
  153.1595  141.2680  162.3253 H   0  0  0  0  0  0  0  0  0  0  0  0
  154.6065  141.9908  161.6164 H   0  0  0  0  0  0  0  0  0  0  0  0
  153.6452  143.4434  161.0967 H   0  0  0  0  0  0  0  0  0  0  0  0
  152.5773  145.4149  159.9752 H   0  0  0  0  0  0  0  0  0  0  0  0
  151.1756  145.0399  157.9462 H   0  0  0  0  0  0  0  0  0  0  0  0
  150.2329  143.6289  156.4779 H   0  0  0  0  0  0  0  0  0  0  0  0
  149.2798  142.8994  154.9177 H   0  0  0  0  0  0  0  0  0  0  0  0
  149.4458  141.3087  153.0802 H   0  0  0  0  0  0  0  0  0  0  0  0
  149.6031  140.0094  154.2340 H   0  0  0  0  0  0  0  0  0  0  0  0
  147.2272  140.1499  154.8143 H   0  0  0  0  0  0  0  0  0  0  0  0
  147.4431  140.8793  151.7915 H   0  0  0  0  0  0  0  0  0  0  0  0
  146.0289  140.0541  152.6283 H   0  0  0  0  0  0  0  0  0  0  0  0
  145.7727  142.0429  154.1498 H   0  0  0  0  0  0  0  0  0  0  0  0
  147.1887  142.8642  153.3108 H   0  0  0  0  0  0  0  0  0  0  0  0
  1  2  1  0  0  0  0
  1 18  1  0  0  0  0
  1 19  1  0  0  0  0
  1 20  1  0  0  0  0
  2  3  1  0  0  0  0
  2 21  1  0  0  0  0
  2 22  1  0  0  0  0
  3  4  1  0  0  0  0
  4 17  1  0  0  0  0
  4  5  2  0  0  0  0
  5  6  1  0  0  0  0
  5 23  1  0  0  0  0
  6  7  2  0  0  0  0
  6 24  1  0  0  0  0
  7  8  1  0  0  0  0
  7 25  1  0  0  0  0
  8  9  1  0  0  0  0
  8 17  2  0  0  0  0
  9 10  1  0  0  0  0
  9 26  1  0  0  0  0
 10 11  2  0  0  0  0
 10 12  1  0  0  0  0
 12 13  1  0  0  0  0
 12 27  1  0  0  0  0
 13 14  1  0  0  0  0
 13 28  1  0  0  0  0
 13 29  1  0  0  0  0
 14 16  1  0  0  0  0
 14 15  1  0  0  0  0
 14 30  1  0  0  0  0
 15 16  1  0  0  0  0
 15 31  1  0  0  0  0
 15 32  1  0  0  0  0
 16 33  1  0  0  0  0
 16 34  1  0  0  0  0
M  END
> <s_m_source_file>
AV-unprocessed.smi

> <i_m_source_file_index>
2389

> <i_lp_mmshare_version>
43012

> <i_f3d_flags>
0

> <s_epik_input>
W0NIM11bQ0gyXU9jMVtjSF1bY0hdW2NIXWMobjEpW05IXUMoPU8pW05IXVtDSDJdW0NIXTJbQ0gyXVtDSDJdMg==

> <s_epik_cmdline>
J2VwaWtfcHl0aG9uJywgJy1waCcsICc3LjAnLCAnLXRuJywgJzgnLCAnLW1hJywgJzIwMCcsICctbWV0YWxfYmluZGluZycsICctaW1hZScsICc8aW5maWxlLm1hZT4nLCAnLW9tYWUnLCAnPG91dGZpbGUubWFlPic=

> <r_lp_tautomer_probability>
1

> <r_epik_Ionization_Penalty>
4.07356e-05

> <r_epik_Ionization_Penalty_Charging>
0

> <r_epik_Ionization_Penalty_Neutral>
4.07356e-05

> <r_epik_State_Penalty>
-0

> <r_epik_Charging_Adjusted_Penalty>
0

> <i_epik_Tot_Q>
0

> <i_epik_Tot_abs_Q>
0

> <r_epik_Metal_State_Penalty>
-0

> <b_epik_Metal_Only>
0

> <s_lp_Force_Field>
OPLS_2005

> <r_lp_Energy>
13.6513

> <b_lp_Chiralities_Consistent>
1

> <s_lp_Variant>
AV-unprocessed.smi:2389-1

> <Gold.Version>
5.8.1

> <Gold.Id.Protein>
6NUR|6NUR_protein|mol2

> <Gold.PLP.Fitness>
44.4202

> <Gold.PLP.PLP>
-38.9074

> <Gold.PLP.part.hbond>
-2.0000

> <Gold.PLP.part.metal>
0.0000

> <Gold.PLP.part.buried>
-4.6676

> <Gold.PLP.part.nonpolar>
-32.4106

> <Gold.PLP.part.repulsive>
0.2507

> <Gold.PLP.ligand.clash>
0.0186

> <Gold.PLP.ligand.torsion>
0.5129

> <Gold.PLP.Chemscore.Hbond>
2.0000

> <Gold.PLP.Chemscore.CHOScore>
0.0000

> <Gold.PLP.Chemscore.Metal>
0.0000

> <Gold.Chemscore.Hbonds>
donor molecule, donor type, donor heavy atom, donor atom, acceptor molecule, acceptor atom, score
      L1  H     9    26       P1  8028  1.00
      L1  H    12    27       P1  8028  1.00

> <Gold.PLP.Chemscore.Internal.Correction>
0.5574

> <Gold.Rescore>
     Score         DG    S(hbond)    S(metal)    S(lipo)     H(rot)  DE(clash)    DE(int)     intcor
     15.88     -17.73       1.97        0.00      83.92       1.62       0.10       1.74       ----

> <Gold.Chemscore.Fitness>
15.8850

> <Gold.Chemscore.DG>
-17.7312

> <Gold.Chemscore.ZeroCoef>
-5.4800

> <Gold.Chemscore.Hbond>
1.9722

> <Gold.Chemscore.Metal>
0.0000

> <Gold.Chemscore.Lipo>
83.9201

> <Gold.Chemscore.Internal_Hbond>
0.0000

> <Gold.Chemscore.DEClash>
0.1036

> <Gold.Chemscore.DEInternal>
1.7426

> <Gold.Chemscore.Rot>
1.6228

> <Gold.Chemscore.Internal.Correction>
   9.000000E+99

> <Gold.Chemscore.Hbonds>
donor molecule, donor type, donor heavy atom, donor atom, acceptor molecule, acceptor atom, score
      L1  H     9    26       P1  8028  0.99
      L1  H    12    27       P1  8028  0.93

> <Gold.Chemscore.Hbond.Weighted>
-6.5870

> <Gold.Chemscore.Metal.Weighted>
-0.0000

> <Gold.Chemscore.Lipo.Weighted>
-9.8187

> <Gold.Chemscore.Internal_Hbond.Weighted>
0.0000

> <Gold.Chemscore.DEClash.Weighted>
0.1036

> <Gold.Chemscore.DEInternal.Weighted>
1.7426

> <Gold.Chemscore.Rot.Weighted>
4.1545

> <Gold.Chemscore.Internal.Correction.Weighted>
   9.000000E+99

> <Gold.Protein.RotatedTorsions>
[ 6907 6896 6895 6894 ] final  167.79 input  -60.11 | X-H torsion
[ 7974 7965 7964 7962 ] final  173.93 input  175.53 | X-H torsion
[ 8008 7997 7996 7995 ] final  159.83 input   59.86 | X-H torsion
[ 10167 10162 10161 10158 ] final   52.90 input  -65.29 | X-H torsion
[ 10718 10713 10712 10709 ] final   30.82 input   66.30 | X-H torsion
[ 10763 10752 10751 10750 ] final -114.80 input  -60.55 | X-H torsion
[ 11005 11000 10999 10996 ] final  137.24 input  -57.11 | X-H torsion

> <Gold.Protein.ActiveResidues>
 VAL166  LYS551  ARG553  GLY616  TRP617  ASP618  TYR619  PRO620  LYS621  CYS622 
 ASP623  PHE694  ASN695  SER759  ASP760  ASP761  ALA762  ILE779  LEU786  VAL792 
 PHE793  MET794  SER795  GLU796  ALA797  LYS798  CYS799  TRP800  GLU811  SER814 

> <Gold.Protein.RotatedAtoms>
  151.8578  133.3451  159.3693 H   0  0  0  0  0  0  0  0  0  0  0  0  # atno 6907 bound_to 6896
  150.7187  134.5236  159.5675 H   0  0  0  0  0  0  0  0  0  0  0  0  # atno 6908 bound_to 6896
  152.2743  134.7899  160.0459 H   0  0  0  0  0  0  0  0  0  0  0  0  # atno 6909 bound_to 6896
  144.7232  139.9721  143.6437 H   0  0  0  0  0  0  0  0  0  0  0  0  # atno 7974 bound_to 7965
  156.2213  140.1820  156.7471 H   0  0  0  0  0  0  0  0  0  0  0  0  # atno 8008 bound_to 7997
  154.5869  140.0657  156.9213 H   0  0  0  0  0  0  0  0  0  0  0  0  # atno 8009 bound_to 7997
  155.2404  140.3321  155.4295 H   0  0  0  0  0  0  0  0  0  0  0  0  # atno 8010 bound_to 7997
  140.2464  144.3527  150.6362 H   0  0  0  0  0  0  0  0  0  0  0  0  # atno 10167 bound_to 10162
  157.2646  130.7178  149.6472 H   0  0  0  0  0  0  0  0  0  0  0  0  # atno 10718 bound_to 10713
  154.8455  135.4405  154.1562 H   0  0  0  0  0  0  0  0  0  0  0  0  # atno 10763 bound_to 10752
  153.2710  135.6945  153.7487 H   0  0  0  0  0  0  0  0  0  0  0  0  # atno 10764 bound_to 10752
  153.6727  135.3416  155.3133 H   0  0  0  0  0  0  0  0  0  0  0  0  # atno 10765 bound_to 10752
  140.0101  134.9442  157.0259 H   0  0  0  0  0  0  0  0  0  0  0  0  # atno 11005 bound_to 11000
  146.0555  139.3552  143.0613 LP  0  0  0  0  0  0  0  0  0  0  0  0  # atno 17320 bound_to 7965
  145.8160  140.9702  143.0924 LP  0  0  0  0  0  0  0  0  0  0  0  0  # atno 17321 bound_to 7965
  140.6074  143.2168  151.6954 LP  0  0  0  0  0  0  0  0  0  0  0  0  # atno 17342 bound_to 10162
  139.5060  144.3696  152.0483 LP  0  0  0  0  0  0  0  0  0  0  0  0  # atno 17343 bound_to 10162
  155.9663  130.4387  150.5227 LP  0  0  0  0  0  0  0  0  0  0  0  0  # atno 17370 bound_to 10713
  157.3138  131.0669  151.1981 LP  0  0  0  0  0  0  0  0  0  0  0  0  # atno 17371 bound_to 10713
  140.4570  134.1523  155.7187 LP  0  0  0  0  0  0  0  0  0  0  0  0  # atno 17394 bound_to 11000
  141.1705  133.8619  157.1586 LP  0  0  0  0  0  0  0  0  0  0  0  0  # atno 17395 bound_to 11000

$$$$
