AV-unprocessed.smi:496|AV-procd|sdf|2723|dock5
  -GOLD-   2262023173D 1   1.00000     0.00000
 Structure written by MMmdl.
 42 44  0  0  0  0  0  0  0  0  3 V2000
  150.7837  138.3191  153.9657 C   0  0  0  0  0  0  0  0  0  0  0  0
  150.7904  139.6549  154.4378 O   0  0  0  0  0  0  0  0  0  0  0  0
  151.4776  139.7881  155.6697 C   0  0  0  0  0  0  0  0  0  0  0  0
  150.6153  140.6129  156.6332 C   0  0  0  0  0  0  0  0  0  0  0  0
  151.3221  140.8853  157.8999 N   0  0  0  0  0  0  0  0  0  0  0  0
  151.7516  140.0520  158.9028 C   0  0  0  0  0  0  0  0  0  0  0  0
  151.6314  138.5529  158.9936 C   0  0  1  0  0  0  0  0  0  0  0  0
  152.5359  138.0177  160.1134 C   0  0  0  0  0  0  0  0  0  0  0  0
  150.2477  138.1459  159.2472 N   0  5  0  0  0  0  0  0  0  0  0  0
  149.7908  136.8653  159.1529 C   0  0  0  0  0  0  0  0  0  0  0  0
  150.2236  135.9214  158.4832 O   0  0  0  0  0  0  0  0  0  0  0  0
  148.5980  136.6309  160.0008 C   0  0  0  0  0  0  0  0  0  0  0  0
  147.3664  136.1311  159.6692 C   0  0  0  0  0  0  0  0  0  0  0  0
  146.5905  136.1223  160.8612 C   0  0  0  0  0  0  0  0  0  0  0  0
  147.4028  136.6153  161.8412 C   0  0  0  0  0  0  0  0  0  0  0  0
  148.6262  136.9298  161.3366 O   0  0  0  0  0  0  0  0  0  0  0  0
  152.3462  140.8411  159.8439 N   0  3  0  0  0  0  0  0  0  0  0  0
  152.2824  142.1793  159.4620 C   0  0  0  0  0  0  0  0  0  0  0  0
  152.7373  143.3298  160.0982 C   0  0  0  0  0  0  0  0  0  0  0  0
  152.5040  144.5524  159.4356 C   0  0  0  0  0  0  0  0  0  0  0  0
  151.8414  144.5981  158.1920 C   0  0  0  0  0  0  0  0  0  0  0  0
  151.3855  143.4237  157.5573 C   0  0  0  0  0  0  0  0  0  0  0  0
  151.6224  142.2173  158.2173 C   0  0  0  0  0  0  0  0  0  0  0  0
  150.2361  138.2651  153.0249 H   0  0  0  0  0  0  0  0  0  0  0  0
  150.2975  137.6506  154.6773 H   0  0  0  0  0  0  0  0  0  0  0  0
  151.7981  137.9608  153.7850 H   0  0  0  0  0  0  0  0  0  0  0  0
  151.6798  138.8019  156.0906 H   0  0  0  0  0  0  0  0  0  0  0  0
  152.4376  140.2828  155.5129 H   0  0  0  0  0  0  0  0  0  0  0  0
  150.3416  141.5646  156.1770 H   0  0  0  0  0  0  0  0  0  0  0  0
  149.6746  140.1067  156.8490 H   0  0  0  0  0  0  0  0  0  0  0  0
  151.9989  138.1490  158.0492 H   0  0  0  0  0  0  0  0  0  0  0  0
  153.5763  138.2942  159.9390 H   0  0  0  0  0  0  0  0  0  0  0  0
  152.4921  136.9294  160.1704 H   0  0  0  0  0  0  0  0  0  0  0  0
  152.2463  138.4146  161.0872 H   0  0  0  0  0  0  0  0  0  0  0  0
  147.0605  135.8112  158.6841 H   0  0  0  0  0  0  0  0  0  0  0  0
  145.5686  135.7965  160.9853 H   0  0  0  0  0  0  0  0  0  0  0  0
  147.2778  136.8010  162.8976 H   0  0  0  0  0  0  0  0  0  0  0  0
  153.2418  143.2947  161.0527 H   0  0  0  0  0  0  0  0  0  0  0  0
  152.8379  145.4731  159.8916 H   0  0  0  0  0  0  0  0  0  0  0  0
  151.6783  145.5535  157.7147 H   0  0  0  0  0  0  0  0  0  0  0  0
  150.8763  143.4719  156.6066 H   0  0  0  0  0  0  0  0  0  0  0  0
  152.7451  140.4709  160.6972 H   0  0  0  0  0  0  0  0  0  0  0  0
  1  2  1  0  0  0  0
  1 24  1  0  0  0  0
  1 25  1  0  0  0  0
  1 26  1  0  0  0  0
  2  3  1  0  0  0  0
  3  4  1  0  0  0  0
  3 27  1  0  0  0  0
  3 28  1  0  0  0  0
  4  5  1  0  0  0  0
  4 29  1  0  0  0  0
  4 30  1  0  0  0  0
  5 23  1  0  0  0  0
  5  6  1  0  0  0  0
  6  7  1  0  0  0  0
  6 17  2  0  0  0  0
  7  8  1  0  0  0  0
  7  9  1  0  0  0  0
  7 31  1  0  0  0  0
  8 32  1  0  0  0  0
  8 33  1  0  0  0  0
  8 34  1  0  0  0  0
  9 10  1  0  0  0  0
 10 11  2  0  0  0  0
 10 12  1  0  0  0  0
 12 16  1  0  0  0  0
 12 13  2  0  0  0  0
 13 14  1  0  0  0  0
 13 35  1  0  0  0  0
 14 15  2  0  0  0  0
 14 36  1  0  0  0  0
 15 16  1  0  0  0  0
 15 37  1  0  0  0  0
 17 18  1  0  0  0  0
 17 42  1  0  0  0  0
 18 23  2  0  0  0  0
 18 19  1  0  0  0  0
 19 20  2  0  0  0  0
 19 38  1  0  0  0  0
 20 21  1  0  0  0  0
 20 39  1  0  0  0  0
 21 22  2  0  0  0  0
 21 40  1  0  0  0  0
 22 23  1  0  0  0  0
 22 41  1  0  0  0  0
M  CHG  1   9  -1
M  CHG  1  17   1
M  END
> <s_m_source_file>
AV-unprocessed.smi

> <i_m_source_file_index>
496

> <i_lp_mmshare_version>
43012

> <i_f3d_flags>
0

> <s_epik_input>
W2NIXTFbY0hdW2NIXVtjSF1jKGMxMiluKFtDSDJdW0NIMl1PW0NIM10pYyhuMilbQ0BIXShbQ0gzXSlbTkhdQyg9TyljM1tjSF1bY0hdW2NIXW8z

> <s_epik_cmdline>
J2VwaWtfcHl0aG9uJywgJy1waCcsICc3LjAnLCAnLXRuJywgJzgnLCAnLW1hJywgJzIwMCcsICctbWV0YWxfYmluZGluZycsICctaW1hZScsICc8aW5maWxlLm1hZT4nLCAnLW9tYWUnLCAnPG91dGZpbGUubWFlPic=

> <r_epik_Ionization_Penalty>
6.2189

> <r_epik_Ionization_Penalty_Charging>
6.2189

> <r_epik_Ionization_Penalty_Neutral>
2.56052e-12

> <r_epik_State_Penalty>
7.14475

> <r_epik_Charging_Adjusted_Penalty>
13.3636

> <i_epik_Tot_Q>
0

> <i_epik_Tot_abs_Q>
2

> <r_epik_Metal_State_Penalty>
3.17915

> <b_epik_Metal_Only>
1

> <s_lp_Force_Field>
OPLS_2005

> <r_lp_Energy>
11.4028

> <b_lp_Chiralities_Consistent>
1

> <s_lp_Variant>
AV-unprocessed.smi:496-8

> <Gold.Version>
5.8.1

> <Gold.Id.Protein>
6NUR|6NUR_protein|mol2

> <Gold.PLP.Fitness>
53.0499

> <Gold.PLP.PLP>
-47.7799

> <Gold.PLP.part.hbond>
-4.0201

> <Gold.PLP.part.metal>
0.0000

> <Gold.PLP.part.buried>
-6.9124

> <Gold.PLP.part.nonpolar>
-37.9634

> <Gold.PLP.part.repulsive>
0.2687

> <Gold.PLP.ligand.clash>
0.0000

> <Gold.PLP.ligand.torsion>
1.8653

> <Gold.PLP.Chemscore.Hbond>
2.9440

> <Gold.PLP.Chemscore.CHOScore>
0.0000

> <Gold.PLP.Chemscore.Metal>
0.0000

> <Gold.Chemscore.Hbonds>
donor molecule, donor type, donor heavy atom, donor atom, acceptor molecule, acceptor atom, score
      P1  H  6896  6907       L1    11  0.96
      P1  H  6931  6943       L1    16  0.89
      P1  H  7989  7998       L1     2  1.00

> <Gold.PLP.Chemscore.Internal.Correction>
0.1686

> <Gold.Rescore>
     Score         DG    S(hbond)    S(metal)    S(lipo)     H(rot)  DE(clash)    DE(int)     intcor
     21.40     -24.24       2.80        0.00     120.45       1.83       1.04       1.80       ----

> <Gold.Chemscore.Fitness>
21.3980

> <Gold.Chemscore.DG>
-24.2402

> <Gold.Chemscore.ZeroCoef>
-5.4800

> <Gold.Chemscore.Hbond>
2.8035

> <Gold.Chemscore.Metal>
0.0000

> <Gold.Chemscore.Lipo>
120.4468

> <Gold.Chemscore.Internal_Hbond>
0.0000

> <Gold.Chemscore.DEClash>
1.0445

> <Gold.Chemscore.DEInternal>
1.7977

> <Gold.Chemscore.Rot>
1.8343

> <Gold.Chemscore.Internal.Correction>
   9.000000E+99

> <Gold.Chemscore.Hbonds>
donor molecule, donor type, donor heavy atom, donor atom, acceptor molecule, acceptor atom, score
      P1  H  6896  6907       L1    11  0.51
      P1  H  6931  6943       L1    16  0.61
      P1  H  7989  7998       L1     2  0.25

> <Gold.Chemscore.Hbond.Weighted>
-9.3637

> <Gold.Chemscore.Metal.Weighted>
-0.0000

> <Gold.Chemscore.Lipo.Weighted>
-14.0923

> <Gold.Chemscore.Internal_Hbond.Weighted>
0.0000

> <Gold.Chemscore.DEClash.Weighted>
1.0445

> <Gold.Chemscore.DEInternal.Weighted>
1.7977

> <Gold.Chemscore.Rot.Weighted>
4.6958

> <Gold.Chemscore.Internal.Correction.Weighted>
   9.000000E+99

> <Gold.Protein.RotatedTorsions>
[ 6907 6896 6895 6894 ] final  -57.53 input  -60.11 | X-H torsion
[ 7974 7965 7964 7962 ] final   39.69 input  175.53 | X-H torsion
[ 8008 7997 7996 7995 ] final   59.01 input   59.86 | X-H torsion
[ 10167 10162 10161 10158 ] final  -85.95 input  -65.29 | X-H torsion
[ 10718 10713 10712 10709 ] final   40.58 input   66.30 | X-H torsion
[ 10763 10752 10751 10750 ] final  -10.20 input  -60.55 | X-H torsion
[ 11005 11000 10999 10996 ] final  149.12 input  -57.11 | X-H torsion

> <Gold.Protein.ActiveResidues>
 VAL166  LYS551  ARG553  GLY616  TRP617  ASP618  TYR619  PRO620  LYS621  CYS622 
 ASP623  PHE694  ASN695  SER759  ASP760  ASP761  ALA762  ILE779  LEU786  VAL792 
 PHE793  MET794  SER795  GLU796  ALA797  LYS798  CYS799  TRP800  GLU811  SER814 

> <Gold.Protein.RotatedAtoms>
  150.8079  134.7215  159.6660 H   0  0  0  0  0  0  0  0  0  0  0  0  # atno 6907 bound_to 6896
  152.4198  134.5972  160.0000 H   0  0  0  0  0  0  0  0  0  0  0  0  # atno 6908 bound_to 6896
  151.6190  133.3303  159.3120 H   0  0  0  0  0  0  0  0  0  0  0  0  # atno 6909 bound_to 6896
  146.0964  139.5622  142.9442 H   0  0  0  0  0  0  0  0  0  0  0  0  # atno 7974 bound_to 7965
  155.5593  140.3488  155.4487 H   0  0  0  0  0  0  0  0  0  0  0  0  # atno 8008 bound_to 7997
  156.0526  140.1321  157.0059 H   0  0  0  0  0  0  0  0  0  0  0  0  # atno 8009 bound_to 7997
  154.4441  140.1001  156.6383 H   0  0  0  0  0  0  0  0  0  0  0  0  # atno 8010 bound_to 7997
  140.3988  143.2672  151.9170 H   0  0  0  0  0  0  0  0  0  0  0  0  # atno 10167 bound_to 10162
  157.3838  130.7768  149.7214 H   0  0  0  0  0  0  0  0  0  0  0  0  # atno 10718 bound_to 10713
  153.4657  135.7016  153.6023 H   0  0  0  0  0  0  0  0  0  0  0  0  # atno 10763 bound_to 10752
  153.4298  135.3805  155.2164 H   0  0  0  0  0  0  0  0  0  0  0  0  # atno 10764 bound_to 10752
  154.8726  135.3948  154.4089 H   0  0  0  0  0  0  0  0  0  0  0  0  # atno 10765 bound_to 10752
  140.1017  134.8979  157.1806 H   0  0  0  0  0  0  0  0  0  0  0  0  # atno 11005 bound_to 11000
  145.5939  141.0365  143.2055 LP  0  0  0  0  0  0  0  0  0  0  0  0  # atno 17320 bound_to 7965
  144.7399  139.7479  143.7315 LP  0  0  0  0  0  0  0  0  0  0  0  0  # atno 17321 bound_to 7965
  139.4785  144.5654  151.8172 LP  0  0  0  0  0  0  0  0  0  0  0  0  # atno 17342 bound_to 10162
  140.4762  144.1515  150.5925 LP  0  0  0  0  0  0  0  0  0  0  0  0  # atno 17343 bound_to 10162
  155.9782  130.4054  150.3664 LP  0  0  0  0  0  0  0  0  0  0  0  0  # atno 17370 bound_to 10713
  157.1772  131.0383  151.2766 LP  0  0  0  0  0  0  0  0  0  0  0  0  # atno 17371 bound_to 10713
  140.3211  134.2916  155.7246 LP  0  0  0  0  0  0  0  0  0  0  0  0  # atno 17394 bound_to 11000
  141.2107  133.7710  156.9912 LP  0  0  0  0  0  0  0  0  0  0  0  0  # atno 17395 bound_to 11000

$$$$
