AV-unprocessed.smi:1866|AV-procd|sdf|7559|dock2
  -GOLD-   22720 9273D 1   1.00000     0.00000
 Structure written by MMmdl.
 29 30  0  0  0  0  0  0  0  0  2 V2000
  152.6314  143.1163  162.8650 C   0  0  0  0  0  0  0  0  0  0  0  0
  152.1688  143.3512  161.4680 C   0  0  0  0  0  0  0  0  0  0  0  0
  151.8667  144.5654  161.0021 N   0  0  0  0  0  0  0  0  0  0  0  0
  151.4620  144.5304  159.6754 N   0  0  0  0  0  0  0  0  0  0  0  0
  151.4725  143.2951  159.1548 C   0  0  0  0  0  0  0  0  0  0  0  0
  151.1106  143.0454  157.8856 N   0  5  0  0  0  0  0  0  0  0  0  0
  150.5543  141.8555  157.5629 C   0  0  0  0  0  0  0  0  0  0  0  0
  150.7784  140.7726  158.1083 O   0  0  0  0  0  0  0  0  0  0  0  0
  149.6789  141.9291  156.5488 N   0  0  0  0  0  0  0  0  0  0  0  0
  148.9253  140.8217  155.9578 C   0  0  1  0  0  0  0  0  0  0  0  0
  147.4284  141.2020  155.9482 C   0  0  0  0  0  0  0  0  0  0  0  0
  147.0930  142.2175  154.8515 C   0  0  0  0  0  0  0  0  0  0  0  0
  147.4450  141.6344  153.4778 C   0  0  0  0  0  0  0  0  0  0  0  0
  148.7470  140.9716  153.4617 N   0  0  0  0  0  0  0  0  0  0  0  0
  149.4476  140.5441  154.5283 C   0  0  0  0  0  0  0  0  0  0  0  0
  150.5028  139.9308  154.3801 O   0  0  0  0  0  0  0  0  0  0  0  0
  151.9759  142.0535  160.3016 S   0  0  0  0  0  0  0  0  0  0  0  0
  153.6788  143.4019  162.9631 H   0  0  0  0  0  0  0  0  0  0  0  0
  152.5290  142.0629  163.1261 H   0  0  0  0  0  0  0  0  0  0  0  0
  152.0383  143.7073  163.5634 H   0  0  0  0  0  0  0  0  0  0  0  0
  149.5339  142.8396  156.1383 H   0  0  0  0  0  0  0  0  0  0  0  0
  149.0558  139.9248  156.5660 H   0  0  0  0  0  0  0  0  0  0  0  0
  146.8305  140.3026  155.7947 H   0  0  0  0  0  0  0  0  0  0  0  0
  147.1331  141.5931  156.9229 H   0  0  0  0  0  0  0  0  0  0  0  0
  146.0364  142.4840  154.8867 H   0  0  0  0  0  0  0  0  0  0  0  0
  147.6515  143.1395  155.0176 H   0  0  0  0  0  0  0  0  0  0  0  0
  146.6949  140.8981  153.1875 H   0  0  0  0  0  0  0  0  0  0  0  0
  147.4290  142.4162  152.7182 H   0  0  0  0  0  0  0  0  0  0  0  0
  149.1404  140.7830  152.5512 H   0  0  0  0  0  0  0  0  0  0  0  0
  1  2  1  0  0  0  0
  1 18  1  0  0  0  0
  1 19  1  0  0  0  0
  1 20  1  0  0  0  0
  2 17  1  0  0  0  0
  2  3  2  0  0  0  0
  3  4  1  0  0  0  0
  4  5  2  0  0  0  0
  5  6  1  0  0  0  0
  5 17  1  0  0  0  0
  6  7  1  0  0  0  0
  7  8  2  0  0  0  0
  7  9  1  0  0  0  0
  9 10  1  0  0  0  0
  9 21  1  0  0  0  0
 10 15  1  0  0  0  0
 10 11  1  0  0  0  0
 10 22  1  0  0  0  0
 11 12  1  0  0  0  0
 11 23  1  0  0  0  0
 11 24  1  0  0  0  0
 12 13  1  0  0  0  0
 12 25  1  0  0  0  0
 12 26  1  0  0  0  0
 13 14  1  0  0  0  0
 13 27  1  0  0  0  0
 13 28  1  0  0  0  0
 14 15  1  0  0  0  0
 14 29  1  0  0  0  0
 15 16  2  0  0  0  0
M  CHG  1   6  -1
M  END
> <s_m_source_file>
AV-unprocessed.smi

> <i_m_source_file_index>
1866

> <i_lp_mmshare_version>
43012

> <i_f3d_flags>
0

> <s_epik_input>
W0NIM11jMW5uYyhzMSlbTkhdQyg9TylbTkhdW0NAQEhdMltDSDJdW0NIMl1bQ0gyXVtOSF1DMj1P

> <s_epik_cmdline>
J2VwaWtfcHl0aG9uJywgJy1waCcsICc3LjAnLCAnLXRuJywgJzgnLCAnLW1hJywgJzIwMCcsICctbWV0YWxfYmluZGluZycsICctaW1hZScsICc8aW5maWxlLm1hZT4nLCAnLW9tYWUnLCAnPG91dGZpbGUubWFlPic=

> <r_lp_tautomer_probability>
1

> <r_epik_Ionization_Penalty>
3.97471

> <r_epik_Ionization_Penalty_Charging>
3.84029

> <r_epik_Ionization_Penalty_Neutral>
0.134427

> <r_epik_State_Penalty>
3.83938

> <r_epik_Charging_Adjusted_Penalty>
7.67966

> <i_epik_Tot_Q>
-1

> <i_epik_Tot_abs_Q>
1

> <r_epik_Metal_State_Penalty>
0.577306

> <b_epik_Metal_Only>
1

> <s_lp_Force_Field>
OPLS_2005

> <r_lp_Energy>
8.91558

> <b_lp_Chiralities_Consistent>
1

> <s_lp_Variant>
AV-unprocessed.smi:1866-4

> <Gold.Version>
5.8.1

> <Gold.Id.Protein>
6NUR|6NUR_protein|mol2

> <Gold.PLP.Fitness>
40.3244

> <Gold.PLP.PLP>
-32.2148

> <Gold.PLP.part.hbond>
-2.9850

> <Gold.PLP.part.metal>
0.0000

> <Gold.PLP.part.buried>
-7.1293

> <Gold.PLP.part.nonpolar>
-22.9157

> <Gold.PLP.part.repulsive>
1.1688

> <Gold.PLP.ligand.clash>
0.0000

> <Gold.PLP.ligand.torsion>
0.4473

> <Gold.PLP.Chemscore.Hbond>
3.0000

> <Gold.PLP.Chemscore.CHOScore>
0.0000

> <Gold.PLP.Chemscore.Metal>
0.0000

> <Gold.Chemscore.Hbonds>
donor molecule, donor type, donor heavy atom, donor atom, acceptor molecule, acceptor atom, score
      L1  H     9    21       P1  8028  0.96
      L1  H    14    29       P1  7957  1.00
      P1  H  7989  7998       L1    16  1.00

> <Gold.PLP.Chemscore.Internal.Correction>
0.0042

> <Gold.Rescore>
     Score         DG    S(hbond)    S(metal)    S(lipo)     H(rot)  DE(clash)    DE(int)     intcor
     16.85     -18.81       2.91        0.00      52.61       1.00       0.11       1.85       ----

> <Gold.Chemscore.Fitness>
16.8483

> <Gold.Chemscore.DG>
-18.8094

> <Gold.Chemscore.ZeroCoef>
-5.4800

> <Gold.Chemscore.Hbond>
2.9144

> <Gold.Chemscore.Metal>
0.0000

> <Gold.Chemscore.Lipo>
52.6110

> <Gold.Chemscore.Internal_Hbond>
0.0000

> <Gold.Chemscore.DEClash>
0.1128

> <Gold.Chemscore.DEInternal>
1.8483

> <Gold.Chemscore.Rot>
1.0000

> <Gold.Chemscore.Internal.Correction>
   9.000000E+99

> <Gold.Chemscore.Hbonds>
donor molecule, donor type, donor heavy atom, donor atom, acceptor molecule, acceptor atom, score
      L1  H     9    21       P1  8028  0.91
      L1  H    14    29       P1  7957  0.99
      P1  H  7989  7998       L1    16  0.78

> <Gold.Chemscore.Hbond.Weighted>
-9.7339

> <Gold.Chemscore.Metal.Weighted>
-0.0000

> <Gold.Chemscore.Lipo.Weighted>
-6.1555

> <Gold.Chemscore.Internal_Hbond.Weighted>
0.0000

> <Gold.Chemscore.DEClash.Weighted>
0.1128

> <Gold.Chemscore.DEInternal.Weighted>
1.8483

> <Gold.Chemscore.Rot.Weighted>
2.5600

> <Gold.Chemscore.Internal.Correction.Weighted>
   9.000000E+99

> <Gold.Protein.RotatedTorsions>
[ 6907 6896 6895 6894 ] final  -56.60 input  -60.11 | X-H torsion
[ 7974 7965 7964 7962 ] final  -45.47 input  175.53 | X-H torsion
[ 8008 7997 7996 7995 ] final   55.05 input   59.86 | X-H torsion
[ 10167 10162 10161 10158 ] final  -83.64 input  -65.29 | X-H torsion
[ 10718 10713 10712 10709 ] final  -88.41 input   66.30 | X-H torsion
[ 10763 10752 10751 10750 ] final   54.46 input  -60.55 | X-H torsion
[ 11005 11000 10999 10996 ] final   -4.07 input  -57.11 | X-H torsion

> <Gold.Protein.ActiveResidues>
 VAL166  LYS551  ARG553  GLY616  TRP617  ASP618  TYR619  PRO620  LYS621  CYS622 
 ASP623  PHE694  ASN695  SER759  ASP760  ASP761  ALA762  ILE779  LEU786  VAL792 
 PHE793  MET794  SER795  GLU796  ALA797  LYS798  CYS799  TRP800  GLU811  SER814 

> <Gold.Protein.RotatedAtoms>
  150.8154  134.7332  159.6724 H   0  0  0  0  0  0  0  0  0  0  0  0  # atno 6907 bound_to 6896
  152.4273  134.5842  159.9966 H   0  0  0  0  0  0  0  0  0  0  0  0  # atno 6908 bound_to 6896
  151.6040  133.3316  159.3089 H   0  0  0  0  0  0  0  0  0  0  0  0  # atno 6909 bound_to 6896
  145.9817  140.7276  142.9360 H   0  0  0  0  0  0  0  0  0  0  0  0  # atno 7974 bound_to 7965
  155.4948  140.3472  155.4361 H   0  0  0  0  0  0  0  0  0  0  0  0  # atno 8008 bound_to 7997
  156.0953  140.1421  156.9567 H   0  0  0  0  0  0  0  0  0  0  0  0  # atno 8009 bound_to 7997
  154.4660  140.0917  156.6998 H   0  0  0  0  0  0  0  0  0  0  0  0  # atno 8010 bound_to 7997
  140.4208  143.2585  151.8893 H   0  0  0  0  0  0  0  0  0  0  0  0  # atno 10167 bound_to 10162
  155.9984  130.4835  150.5015 H   0  0  0  0  0  0  0  0  0  0  0  0  # atno 10718 bound_to 10713
  152.9805  135.5744  154.4908 H   0  0  0  0  0  0  0  0  0  0  0  0  # atno 10763 bound_to 10752
  154.4442  135.2776  155.1828 H   0  0  0  0  0  0  0  0  0  0  0  0  # atno 10764 bound_to 10752
  154.3483  135.6214  153.5684 H   0  0  0  0  0  0  0  0  0  0  0  0  # atno 10765 bound_to 10752
  140.6762  133.9193  155.8526 H   0  0  0  0  0  0  0  0  0  0  0  0  # atno 11005 bound_to 11000
  144.6863  140.2920  143.7276 LP  0  0  0  0  0  0  0  0  0  0  0  0  # atno 17320 bound_to 7965
  145.7759  139.1874  143.2185 LP  0  0  0  0  0  0  0  0  0  0  0  0  # atno 17321 bound_to 7965
  139.4782  144.5439  151.8487 LP  0  0  0  0  0  0  0  0  0  0  0  0  # atno 17342 bound_to 10162
  140.4536  144.1821  150.5899 LP  0  0  0  0  0  0  0  0  0  0  0  0  # atno 17343 bound_to 10162
  157.2999  131.0643  151.2075 LP  0  0  0  0  0  0  0  0  0  0  0  0  # atno 17370 bound_to 10713
  157.3058  130.6865  149.6189 LP  0  0  0  0  0  0  0  0  0  0  0  0  # atno 17371 bound_to 10713
  141.0353  134.0698  157.3966 LP  0  0  0  0  0  0  0  0  0  0  0  0  # atno 17394 bound_to 11000
  139.8966  135.0146  156.7058 LP  0  0  0  0  0  0  0  0  0  0  0  0  # atno 17395 bound_to 11000

$$$$
