AV-unprocessed.smi:3354|AV-procd|sdf|12955|dock7
  -GOLD-   2272019393D 1   1.00000     0.00000
 Structure written by MMmdl.
 38 40  0  0  0  0  0  0  0  0  1 V2000
  149.2688  129.3878  153.6743 C   0  0  0  0  0  0  0  0  0  0  0  0
  150.1114  130.5892  154.0439 C   0  0  2  0  0  0  0  0  0  0  0  0
  151.2689  130.4342  155.0017 C   0  0  0  0  0  0  0  0  0  0  0  0
  150.0310  131.2004  155.4262 C   0  0  1  0  0  0  0  0  0  0  0  0
  150.0621  132.6288  155.5439 N   0  0  0  0  0  0  0  0  0  0  0  0
  150.3291  133.5013  154.4086 C   0  0  0  0  0  0  0  0  0  0  0  0
  150.6568  134.8792  155.0155 C   0  0  1  0  0  0  0  0  0  0  0  0
  149.9689  135.9641  154.3205 N   0  0  0  0  0  0  0  0  0  0  0  0
  149.7259  137.1759  154.8389 C   0  0  0  0  0  0  0  0  0  0  0  0
  150.0854  137.5130  155.9666 O   0  0  0  0  0  0  0  0  0  0  0  0
  149.0633  137.9522  153.9638 N   0  0  0  0  0  0  0  0  0  0  0  0
  148.5880  139.2827  154.1257 C   0  0  0  0  0  0  0  0  0  0  0  0
  147.3633  139.7697  153.6061 C   0  0  0  0  0  0  0  0  0  0  0  0
  147.0198  141.1178  153.8254 C   0  0  0  0  0  0  0  0  0  0  0  0
  147.9127  141.9312  154.5492 C   0  0  0  0  0  0  0  0  0  0  0  0
  149.0870  141.4843  155.0413 N   0  0  0  0  0  0  0  0  0  0  0  0
  149.4098  140.1910  154.8269 C   0  0  0  0  0  0  0  0  0  0  0  0
  150.2305  134.7873  156.4864 C   0  0  0  0  0  0  0  0  0  0  0  0
  150.0231  133.2980  156.7016 C   0  0  0  0  0  0  0  0  0  0  0  0
  149.8563  132.8058  157.8169 O   0  0  0  0  0  0  0  0  0  0  0  0
  149.1423  128.7241  154.5301 H   0  0  0  0  0  0  0  0  0  0  0  0
  149.7451  128.8298  152.8683 H   0  0  0  0  0  0  0  0  0  0  0  0
  148.2839  129.7125  153.3386 H   0  0  0  0  0  0  0  0  0  0  0  0
  150.2668  131.2829  153.2194 H   0  0  0  0  0  0  0  0  0  0  0  0
  151.4247  129.4559  155.4518 H   0  0  0  0  0  0  0  0  0  0  0  0
  152.1803  130.9762  154.7593 H   0  0  0  0  0  0  0  0  0  0  0  0
  149.3944  130.6861  156.1449 H   0  0  0  0  0  0  0  0  0  0  0  0
  151.1592  133.1305  153.8058 H   0  0  0  0  0  0  0  0  0  0  0  0
  149.4399  133.5376  153.7769 H   0  0  0  0  0  0  0  0  0  0  0  0
  151.7357  135.0447  154.9784 H   0  0  0  0  0  0  0  0  0  0  0  0
  149.6461  135.7728  153.3832 H   0  0  0  0  0  0  0  0  0  0  0  0
  148.9019  137.5484  153.0529 H   0  0  0  0  0  0  0  0  0  0  0  0
  146.6886  139.1503  153.0368 H   0  0  0  0  0  0  0  0  0  0  0  0
  146.0935  141.5201  153.4429 H   0  0  0  0  0  0  0  0  0  0  0  0
  147.6796  142.9696  154.7334 H   0  0  0  0  0  0  0  0  0  0  0  0
  150.3586  139.8701  155.2321 H   0  0  0  0  0  0  0  0  0  0  0  0
  150.9918  135.1835  157.1593 H   0  0  0  0  0  0  0  0  0  0  0  0
  149.2909  135.3068  156.6802 H   0  0  0  0  0  0  0  0  0  0  0  0
  1  2  1  0  0  0  0
  1 21  1  0  0  0  0
  1 22  1  0  0  0  0
  1 23  1  0  0  0  0
  2  4  1  0  0  0  0
  2  3  1  0  0  0  0
  2 24  1  0  0  0  0
  3  4  1  0  0  0  0
  3 25  1  0  0  0  0
  3 26  1  0  0  0  0
  4  5  1  0  0  0  0
  4 27  1  0  0  0  0
  5 19  1  0  0  0  0
  5  6  1  0  0  0  0
  6  7  1  0  0  0  0
  6 28  1  0  0  0  0
  6 29  1  0  0  0  0
  7  8  1  0  0  0  0
  7 18  1  0  0  0  0
  7 30  1  0  0  0  0
  8  9  1  0  0  0  0
  8 31  1  0  0  0  0
  9 10  2  0  0  0  0
  9 11  1  0  0  0  0
 11 12  1  0  0  0  0
 11 32  1  0  0  0  0
 12 17  1  0  0  0  0
 12 13  2  0  0  0  0
 13 14  1  0  0  0  0
 13 33  1  0  0  0  0
 14 15  2  0  0  0  0
 14 34  1  0  0  0  0
 15 16  1  0  0  0  0
 15 35  1  0  0  0  0
 16 17  2  0  0  0  0
 17 36  1  0  0  0  0
 18 19  1  0  0  0  0
 18 37  1  0  0  0  0
 18 38  1  0  0  0  0
 19 20  2  0  0  0  0
M  END
> <s_m_source_file>
AV-unprocessed.smi

> <i_m_source_file_index>
3354

> <i_lp_mmshare_version>
43012

> <i_f3d_flags>
0

> <s_epik_input>
W0NIM11bQ0BASF0xW0NIMl1bQ0BIXTFOMltDSDJdW0NASF0oW0NIMl1DMj1PKVtOSF1DKD1PKVtOSF1jM1tjSF1bY0hdW2NIXW5bY0hdMw==

> <s_epik_cmdline>
J2VwaWtfcHl0aG9uJywgJy1waCcsICc3LjAnLCAnLXRuJywgJzgnLCAnLW1hJywgJzIwMCcsICctbWV0YWxfYmluZGluZycsICctaW1hZScsICc8aW5maWxlLm1hZT4nLCAnLW9tYWUnLCAnPG91dGZpbGUubWFlPic=

> <r_epik_Ionization_Penalty>
0.00456191

> <r_epik_Ionization_Penalty_Charging>
0

> <r_epik_Ionization_Penalty_Neutral>
0.00456191

> <r_epik_State_Penalty>
0.00327094

> <r_epik_Charging_Adjusted_Penalty>
0.00327094

> <i_epik_Tot_Q>
0

> <i_epik_Tot_abs_Q>
0

> <r_epik_Metal_State_Penalty>
-0

> <b_epik_Metal_Only>
0

> <s_lp_Force_Field>
OPLS_2005

> <r_lp_Energy>
43.1486

> <b_lp_Chiralities_Consistent>
1

> <s_lp_Variant>
AV-unprocessed.smi:3354-1

> <Gold.Version>
5.8.1

> <Gold.Id.Protein>
6NUR|6NUR_protein|mol2

> <Gold.PLP.Fitness>
41.2279

> <Gold.PLP.PLP>
-30.3958

> <Gold.PLP.part.hbond>
-3.4669

> <Gold.PLP.part.metal>
0.0000

> <Gold.PLP.part.buried>
-1.1713

> <Gold.PLP.part.nonpolar>
-25.8817

> <Gold.PLP.part.repulsive>
0.2342

> <Gold.PLP.ligand.clash>
0.0000

> <Gold.PLP.ligand.torsion>
0.6685

> <Gold.PLP.Chemscore.Hbond>
3.0000

> <Gold.PLP.Chemscore.CHOScore>
1.0000

> <Gold.PLP.Chemscore.Metal>
0.0000

> <Gold.Chemscore.Hbonds>
donor molecule, donor type, donor heavy atom, donor atom, acceptor molecule, acceptor atom, score
      L1  H     8    31       P1  7948  0.75
      L1  H    11    32       P1  7948  1.00
      P1  H  6896  6908       L1    20  1.00
      L1  C    15    35       P1  8028  1.00

> <Gold.PLP.Chemscore.Internal.Correction>
0.1690

> <Gold.Rescore>
     Score         DG    S(hbond)    S(metal)    S(lipo)     H(rot)  DE(clash)    DE(int)     intcor
     15.36     -19.02       2.53        0.00      70.47       1.24       0.56       3.10       ----

> <Gold.Chemscore.Fitness>
15.3551

> <Gold.Chemscore.DG>
-19.0152

> <Gold.Chemscore.ZeroCoef>
-5.4800

> <Gold.Chemscore.Hbond>
2.5314

> <Gold.Chemscore.Metal>
0.0000

> <Gold.Chemscore.Lipo>
70.4667

> <Gold.Chemscore.Internal_Hbond>
0.0000

> <Gold.Chemscore.DEClash>
0.5573

> <Gold.Chemscore.DEInternal>
3.1028

> <Gold.Chemscore.Rot>
1.2361

> <Gold.Chemscore.Internal.Correction>
   9.000000E+99

> <Gold.Chemscore.Hbonds>
donor molecule, donor type, donor heavy atom, donor atom, acceptor molecule, acceptor atom, score
      L1  H     8    31       P1  7948  0.09
      L1  H    11    32       P1  7948  0.98
      P1  H  6896  6908       L1    20  0.90

> <Gold.Chemscore.Hbond.Weighted>
-8.4550

> <Gold.Chemscore.Metal.Weighted>
-0.0000

> <Gold.Chemscore.Lipo.Weighted>
-8.2446

> <Gold.Chemscore.Internal_Hbond.Weighted>
0.0000

> <Gold.Chemscore.DEClash.Weighted>
0.5573

> <Gold.Chemscore.DEInternal.Weighted>
3.1028

> <Gold.Chemscore.Rot.Weighted>
3.1643

> <Gold.Chemscore.Internal.Correction.Weighted>
   9.000000E+99

> <Gold.Protein.RotatedTorsions>
[ 6907 6896 6895 6894 ] final  107.40 input  -60.11 | X-H torsion
[ 7974 7965 7964 7962 ] final  -24.06 input  175.53 | X-H torsion
[ 8008 7997 7996 7995 ] final  120.24 input   59.86 | X-H torsion
[ 10167 10162 10161 10158 ] final -133.52 input  -65.29 | X-H torsion
[ 10718 10713 10712 10709 ] final   13.96 input   66.30 | X-H torsion
[ 10763 10752 10751 10750 ] final  105.75 input  -60.55 | X-H torsion
[ 11005 11000 10999 10996 ] final  134.40 input  -57.11 | X-H torsion

> <Gold.Protein.ActiveResidues>
 VAL166  LYS551  ARG553  GLY616  TRP617  ASP618  TYR619  PRO620  LYS621  CYS622 
 ASP623  PHE694  ASN695  SER759  ASP760  ASP761  ALA762  ILE779  LEU786  VAL792 
 PHE793  MET794  SER795  GLU796  ALA797  LYS798  CYS799  TRP800  GLU811  SER814 

> <Gold.Protein.RotatedAtoms>
  152.5156  133.9241  159.7548 H   0  0  0  0  0  0  0  0  0  0  0  0  # atno 6907 bound_to 6896
  150.9606  133.6441  159.2762 H   0  0  0  0  0  0  0  0  0  0  0  0  # atno 6908 bound_to 6896
  151.3688  135.0924  159.9511 H   0  0  0  0  0  0  0  0  0  0  0  0  # atno 6909 bound_to 6896
  146.1578  140.4700  142.8584 H   0  0  0  0  0  0  0  0  0  0  0  0  # atno 7974 bound_to 7965
  156.2634  140.2835  156.1119 H   0  0  0  0  0  0  0  0  0  0  0  0  # atno 8008 bound_to 7997
  155.1248  140.0393  157.2777 H   0  0  0  0  0  0  0  0  0  0  0  0  # atno 8009 bound_to 7997
  154.6643  140.2573  155.7081 H   0  0  0  0  0  0  0  0  0  0  0  0  # atno 8010 bound_to 7997
  139.8974  143.6648  152.2601 H   0  0  0  0  0  0  0  0  0  0  0  0  # atno 10167 bound_to 10162
  157.0322  130.6197  149.5737 H   0  0  0  0  0  0  0  0  0  0  0  0  # atno 10718 bound_to 10713
  153.3836  135.3899  155.1874 H   0  0  0  0  0  0  0  0  0  0  0  0  # atno 10763 bound_to 10752
  154.8711  135.3731  154.4825 H   0  0  0  0  0  0  0  0  0  0  0  0  # atno 10764 bound_to 10752
  153.5305  135.7086  153.5747 H   0  0  0  0  0  0  0  0  0  0  0  0  # atno 10765 bound_to 10752
  139.9913  134.9514  156.9862 H   0  0  0  0  0  0  0  0  0  0  0  0  # atno 11005 bound_to 11000
  144.7986  140.6171  143.6493 LP  0  0  0  0  0  0  0  0  0  0  0  0  # atno 17320 bound_to 7965
  145.4665  139.1507  143.3838 LP  0  0  0  0  0  0  0  0  0  0  0  0  # atno 17321 bound_to 7965
  139.7055  144.7628  151.1200 LP  0  0  0  0  0  0  0  0  0  0  0  0  # atno 17342 bound_to 10162
  140.7714  143.5400  150.9323 LP  0  0  0  0  0  0  0  0  0  0  0  0  # atno 17343 bound_to 10162
  156.0065  130.5153  150.7849 LP  0  0  0  0  0  0  0  0  0  0  0  0  # atno 17370 bound_to 10713
  157.5168  131.0929  151.0128 LP  0  0  0  0  0  0  0  0  0  0  0  0  # atno 17371 bound_to 10713
  140.4903  134.1199  155.7231 LP  0  0  0  0  0  0  0  0  0  0  0  0  # atno 17394 bound_to 11000
  141.1568  133.8868  157.1956 LP  0  0  0  0  0  0  0  0  0  0  0  0  # atno 17395 bound_to 11000

$$$$
