AV-unprocessed.smi:3032|AV-procd|sdf|11558|dock7
  -GOLD-   2272016523D 1   1.00000     0.00000
 Structure written by MMmdl.
 37 38  0  0  0  0  0  0  0  0  1 V2000
  153.2117  141.9386  160.9261 C   0  0  0  0  0  0  0  0  0  0  0  0
  152.3274  142.7172  159.9419 C   0  0  1  0  0  0  0  0  0  0  0  0
  153.1586  143.6925  159.0864 C   0  0  0  0  0  0  0  0  0  0  0  0
  152.2770  144.4643  158.0914 C   0  0  0  0  0  0  0  0  0  0  0  0
  151.4714  143.5059  157.2003 C   0  0  0  0  0  0  0  0  0  0  0  0
  150.6216  142.5390  158.0504 C   0  0  1  0  0  0  0  0  0  0  0  0
  149.8335  141.5649  157.1659 C   0  0  0  0  0  0  0  0  0  0  0  0
  149.9695  140.3495  157.3093 O   0  0  0  0  0  0  0  0  0  0  0  0
  148.9916  142.1132  156.2747 N   0  0  0  0  0  0  0  0  0  0  0  0
  148.0679  141.3742  155.4166 C   0  0  0  0  0  0  0  0  0  0  0  0
  148.7681  140.7943  154.1719 C   0  0  0  0  0  0  0  0  0  0  0  0
  149.8127  139.7684  154.4833 C   0  0  0  0  0  0  0  0  0  0  0  0
  149.6158  138.4644  154.2766 N   0  0  0  0  0  0  0  0  0  0  0  0
  150.7030  137.7785  154.6862 N   0  0  0  0  0  0  0  0  0  0  0  0
  151.5001  138.7537  155.1192 C   0  0  0  0  0  0  0  0  0  0  0  0
  151.0028  140.0228  155.0164 N   0  0  0  0  0  0  0  0  0  0  0  0
  151.5191  141.7649  159.0395 C   0  0  0  0  0  0  0  0  0  0  0  0
  148.7954  138.0193  153.8908 H   0  0  0  0  0  0  0  0  0  0  0  0
  153.9498  141.3316  160.4008 H   0  0  0  0  0  0  0  0  0  0  0  0
  152.6140  141.2714  161.5479 H   0  0  0  0  0  0  0  0  0  0  0  0
  153.7489  142.6151  161.5910 H   0  0  0  0  0  0  0  0  0  0  0  0
  151.6204  143.3040  160.5298 H   0  0  0  0  0  0  0  0  0  0  0  0
  153.6856  144.3982  159.7296 H   0  0  0  0  0  0  0  0  0  0  0  0
  153.9254  143.1422  158.5395 H   0  0  0  0  0  0  0  0  0  0  0  0
  151.5942  145.1165  158.6371 H   0  0  0  0  0  0  0  0  0  0  0  0
  152.8971  145.1137  157.4728 H   0  0  0  0  0  0  0  0  0  0  0  0
  150.8303  144.0823  156.5318 H   0  0  0  0  0  0  0  0  0  0  0  0
  152.1582  142.9460  156.5633 H   0  0  0  0  0  0  0  0  0  0  0  0
  149.9098  143.1317  158.6281 H   0  0  0  0  0  0  0  0  0  0  0  0
  148.9552  143.1207  156.2199 H   0  0  0  0  0  0  0  0  0  0  0  0
  147.6325  140.5639  156.0015 H   0  0  0  0  0  0  0  0  0  0  0  0
  147.2339  142.0084  155.1112 H   0  0  0  0  0  0  0  0  0  0  0  0
  148.0258  140.3470  153.5092 H   0  0  0  0  0  0  0  0  0  0  0  0
  149.2342  141.6009  153.6053 H   0  0  0  0  0  0  0  0  0  0  0  0
  152.4787  138.5435  155.5248 H   0  0  0  0  0  0  0  0  0  0  0  0
  152.2050  141.1151  158.4928 H   0  0  0  0  0  0  0  0  0  0  0  0
  150.9051  141.1090  159.6586 H   0  0  0  0  0  0  0  0  0  0  0  0
  1  2  1  0  0  0  0
  1 19  1  0  0  0  0
  1 20  1  0  0  0  0
  1 21  1  0  0  0  0
  2 17  1  0  0  0  0
  2  3  1  0  0  0  0
  2 22  1  0  0  0  0
  3  4  1  0  0  0  0
  3 23  1  0  0  0  0
  3 24  1  0  0  0  0
  4  5  1  0  0  0  0
  4 25  1  0  0  0  0
  4 26  1  0  0  0  0
  5  6  1  0  0  0  0
  5 27  1  0  0  0  0
  5 28  1  0  0  0  0
  6  7  1  0  0  0  0
  6 17  1  0  0  0  0
  6 29  1  0  0  0  0
  7  8  2  0  0  0  0
  7  9  1  0  0  0  0
  9 10  1  0  0  0  0
  9 30  1  0  0  0  0
 10 11  1  0  0  0  0
 10 31  1  0  0  0  0
 10 32  1  0  0  0  0
 11 33  1  0  0  0  0
 11 34  1  0  0  0  0
 11 12  1  0  0  0  0
 12 16  2  0  0  0  0
 12 13  1  0  0  0  0
 13 18  1  0  0  0  0
 13 14  1  0  0  0  0
 14 15  2  0  0  0  0
 15 16  1  0  0  0  0
 15 35  1  0  0  0  0
 17 36  1  0  0  0  0
 17 37  1  0  0  0  0
M  END
> <s_m_source_file>
AV-unprocessed.smi

> <i_m_source_file_index>
3032

> <i_lp_mmshare_version>
43012

> <i_f3d_flags>
0

> <s_epik_input>
W0NIM11bQ0BASF0xW0NIMl1bQ0gyXVtDSDJdW0NASF0oW0NIMl0xKUMoPU8pW05IXVtDSDJdW0NIMl1jMm5uW2NIXVtuSF0y

> <s_epik_cmdline>
J2VwaWtfcHl0aG9uJywgJy1waCcsICc3LjAnLCAnLXRuJywgJzgnLCAnLW1hJywgJzIwMCcsICctbWV0YWxfYmluZGluZycsICctaW1hZScsICc8aW5maWxlLm1hZT4nLCAnLW9tYWUnLCAnPG91dGZpbGUubWFlPic=

> <r_lp_tautomer_probability>
0.948284

> <r_epik_Ionization_Penalty>
0.000474052

> <r_epik_Ionization_Penalty_Charging>
0

> <r_epik_Ionization_Penalty_Neutral>
0.000474052

> <r_epik_State_Penalty>
0.271807

> <r_epik_Charging_Adjusted_Penalty>
0.271807

> <i_epik_Tot_Q>
0

> <i_epik_Tot_abs_Q>
0

> <r_epik_Metal_State_Penalty>
0.397201

> <b_epik_Metal_Only>
0

> <s_lp_Force_Field>
OPLS_2005

> <r_lp_Energy>
10.7407

> <b_lp_Chiralities_Consistent>
1

> <s_lp_Variant>
AV-unprocessed.smi:3032-2

> <Gold.Version>
5.8.1

> <Gold.Id.Protein>
6NUR|6NUR_protein|mol2

> <Gold.PLP.Fitness>
44.2866

> <Gold.PLP.PLP>
-38.9031

> <Gold.PLP.part.hbond>
-2.1322

> <Gold.PLP.part.metal>
0.0000

> <Gold.PLP.part.buried>
-4.0305

> <Gold.PLP.part.nonpolar>
-33.2389

> <Gold.PLP.part.repulsive>
0.3603

> <Gold.PLP.ligand.clash>
0.0000

> <Gold.PLP.ligand.torsion>
0.3168

> <Gold.PLP.Chemscore.Hbond>
2.0000

> <Gold.PLP.Chemscore.CHOScore>
0.0000

> <Gold.PLP.Chemscore.Metal>
0.0000

> <Gold.Chemscore.Hbonds>
donor molecule, donor type, donor heavy atom, donor atom, acceptor molecule, acceptor atom, score
      L1  H     9    30       P1  8028  1.00
      P1  H  7989  7998       L1    16  0.70

> <Gold.PLP.Chemscore.Internal.Correction>
0.0172

> <Gold.Rescore>
     Score         DG    S(hbond)    S(metal)    S(lipo)     H(rot)  DE(clash)    DE(int)     intcor
     15.92     -16.70       1.92        0.00      90.45       2.25       0.11       0.67       ----

> <Gold.Chemscore.Fitness>
15.9211

> <Gold.Chemscore.DG>
-16.7035

> <Gold.Chemscore.ZeroCoef>
-5.4800

> <Gold.Chemscore.Hbond>
1.9166

> <Gold.Chemscore.Metal>
0.0000

> <Gold.Chemscore.Lipo>
90.4469

> <Gold.Chemscore.Internal_Hbond>
0.0000

> <Gold.Chemscore.DEClash>
0.1109

> <Gold.Chemscore.DEInternal>
0.6715

> <Gold.Chemscore.Rot>
2.2501

> <Gold.Chemscore.Internal.Correction>
   9.000000E+99

> <Gold.Chemscore.Hbonds>
donor molecule, donor type, donor heavy atom, donor atom, acceptor molecule, acceptor atom, score
      L1  H     9    30       P1  8028  1.00
      P1  H  7989  7998       L1    16  0.06

> <Gold.Chemscore.Hbond.Weighted>
-6.4015

> <Gold.Chemscore.Metal.Weighted>
-0.0000

> <Gold.Chemscore.Lipo.Weighted>
-10.5823

> <Gold.Chemscore.Internal_Hbond.Weighted>
0.0000

> <Gold.Chemscore.DEClash.Weighted>
0.1109

> <Gold.Chemscore.DEInternal.Weighted>
0.6715

> <Gold.Chemscore.Rot.Weighted>
5.7603

> <Gold.Chemscore.Internal.Correction.Weighted>
   9.000000E+99

> <Gold.Protein.RotatedTorsions>
[ 6907 6896 6895 6894 ] final   51.52 input  -60.11 | X-H torsion
[ 7974 7965 7964 7962 ] final  161.15 input  175.53 | X-H torsion
[ 8008 7997 7996 7995 ] final  -13.60 input   59.86 | X-H torsion
[ 10167 10162 10161 10158 ] final  -73.33 input  -65.29 | X-H torsion
[ 10718 10713 10712 10709 ] final  -72.37 input   66.30 | X-H torsion
[ 10763 10752 10751 10750 ] final  110.96 input  -60.55 | X-H torsion
[ 11005 11000 10999 10996 ] final -173.99 input  -57.11 | X-H torsion

> <Gold.Protein.ActiveResidues>
 VAL166  LYS551  ARG553  GLY616  TRP617  ASP618  TYR619  PRO620  LYS621  CYS622 
 ASP623  PHE694  ASN695  SER759  ASP760  ASP761  ALA762  ILE779  LEU786  VAL792 
 PHE793  MET794  SER795  GLU796  ALA797  LYS798  CYS799  TRP800  GLU811  SER814 

> <Gold.Protein.RotatedAtoms>
  152.3135  134.7468  160.0330 H   0  0  0  0  0  0  0  0  0  0  0  0  # atno 6907 bound_to 6896
  151.7940  133.3357  159.3515 H   0  0  0  0  0  0  0  0  0  0  0  0  # atno 6908 bound_to 6896
  150.7332  134.5746  159.5952 H   0  0  0  0  0  0  0  0  0  0  0  0  # atno 6909 bound_to 6896
  144.7700  139.7858  143.6300 H   0  0  0  0  0  0  0  0  0  0  0  0  # atno 7974 bound_to 7965
  154.5279  140.2245  155.8857 H   0  0  0  0  0  0  0  0  0  0  0  0  # atno 8008 bound_to 7997
  156.1733  140.3117  155.8977 H   0  0  0  0  0  0  0  0  0  0  0  0  # atno 8009 bound_to 7997
  155.3513  140.0456  157.3037 H   0  0  0  0  0  0  0  0  0  0  0  0  # atno 8010 bound_to 7997
  140.5119  143.2343  151.7578 H   0  0  0  0  0  0  0  0  0  0  0  0  # atno 10167 bound_to 10162
  156.0323  130.4371  150.2583 H   0  0  0  0  0  0  0  0  0  0  0  0  # atno 10718 bound_to 10713
  153.4565  135.3732  155.2314 H   0  0  0  0  0  0  0  0  0  0  0  0  # atno 10763 bound_to 10752
  154.8757  135.3898  154.3976 H   0  0  0  0  0  0  0  0  0  0  0  0  # atno 10764 bound_to 10752
  153.4543  135.7086  153.6153 H   0  0  0  0  0  0  0  0  0  0  0  0  # atno 10765 bound_to 10752
  140.4795  134.6089  157.4914 H   0  0  0  0  0  0  0  0  0  0  0  0  # atno 11005 bound_to 11000
  146.1839  139.5045  142.9848 LP  0  0  0  0  0  0  0  0  0  0  0  0  # atno 17320 bound_to 7965
  145.6352  141.0296  143.1841 LP  0  0  0  0  0  0  0  0  0  0  0  0  # atno 17321 bound_to 7965
  139.4898  144.4378  151.9799 LP  0  0  0  0  0  0  0  0  0  0  0  0  # atno 17342 bound_to 10162
  140.3471  144.3134  150.5956 LP  0  0  0  0  0  0  0  0  0  0  0  0  # atno 17343 bound_to 10162
  157.0684  131.0110  151.3198 LP  0  0  0  0  0  0  0  0  0  0  0  0  # atno 17370 bound_to 10713
  157.5017  130.7884  149.7612 LP  0  0  0  0  0  0  0  0  0  0  0  0  # atno 17371 bound_to 10713
  139.9835  134.7099  155.9816 LP  0  0  0  0  0  0  0  0  0  0  0  0  # atno 17394 bound_to 11000
  141.1538  133.6545  156.4097 LP  0  0  0  0  0  0  0  0  0  0  0  0  # atno 17395 bound_to 11000

$$$$
