AV-unprocessed.smi:1452|AV-procd|sdf|5910|dock4
  -GOLD-   22720 5593D 1   1.00000     0.00000
 Structure written by MMmdl.
 40 42  0  0  0  0  0  0  0  0  2 V2000
  148.8525  135.1203  158.2126 O   0  0  0  0  0  0  0  0  0  0  0  0
  148.3118  136.2225  158.1394 C   0  0  0  0  0  0  0  0  0  0  0  0
  147.7433  136.7931  159.2232 N   0  0  0  0  0  0  0  0  0  0  0  0
  147.6130  136.3443  160.5711 C   0  0  0  0  0  0  0  0  0  0  0  0
  147.3981  134.9539  160.7056 C   0  0  0  0  0  0  0  0  0  0  0  0
  147.2541  134.3917  161.9887 C   0  0  0  0  0  0  0  0  0  0  0  0
  147.3260  135.2363  163.1105 C   0  0  0  0  0  0  0  0  0  0  0  0
  147.5405  136.6091  162.8926 C   0  0  0  0  0  0  0  0  0  0  0  0
  147.6805  137.1489  161.6631 N   0  0  0  0  0  0  0  0  0  0  0  0
  148.2596  136.9286  156.9985 N   0  0  0  0  0  0  0  0  0  0  0  0
  148.8329  136.5234  155.7197 C   0  0  1  0  0  0  0  0  0  0  0  0
  150.3536  136.2986  155.7911 C   0  0  0  0  0  0  0  0  0  0  0  0
  150.6293  135.0758  154.8938 C   0  0  0  0  0  0  0  0  0  0  0  0
  149.3283  134.7346  154.2875 N   0  3  1  0  0  0  0  0  0  0  0  0
  149.1418  133.3393  153.8330 C   0  0  0  0  0  0  0  0  0  0  0  0
  147.7615  133.2039  153.1594 C   0  0  0  0  0  0  0  0  0  0  0  0
  146.6271  133.7123  154.0721 C   0  0  0  0  0  0  0  0  0  0  0  0
  146.9225  135.1341  154.5878 C   0  0  0  0  0  0  0  0  0  0  0  0
  148.3076  135.1624  155.2559 C   0  0  2  0  0  0  0  0  0  0  0  0
  147.3158  137.6900  159.0430 H   0  0  0  0  0  0  0  0  0  0  0  0
  147.3445  134.3173  159.8340 H   0  0  0  0  0  0  0  0  0  0  0  0
  147.0905  133.3310  162.1087 H   0  0  0  0  0  0  0  0  0  0  0  0
  147.2200  134.8426  164.1106 H   0  0  0  0  0  0  0  0  0  0  0  0
  147.6014  137.2926  163.7264 H   0  0  0  0  0  0  0  0  0  0  0  0
  147.7924  137.8244  157.0271 H   0  0  0  0  0  0  0  0  0  0  0  0
  148.6321  137.2742  154.9523 H   0  0  0  0  0  0  0  0  0  0  0  0
  150.8967  137.1814  155.4518 H   0  0  0  0  0  0  0  0  0  0  0  0
  150.6788  136.0873  156.8112 H   0  0  0  0  0  0  0  0  0  0  0  0
  151.3722  135.2836  154.1233 H   0  0  0  0  0  0  0  0  0  0  0  0
  150.9918  134.2433  155.4987 H   0  0  0  0  0  0  0  0  0  0  0  0
  149.9317  133.0744  153.1292 H   0  0  0  0  0  0  0  0  0  0  0  0
  149.2218  132.6579  154.6816 H   0  0  0  0  0  0  0  0  0  0  0  0
  147.7563  133.7745  152.2297 H   0  0  0  0  0  0  0  0  0  0  0  0
  147.5812  132.1646  152.8829 H   0  0  0  0  0  0  0  0  0  0  0  0
  145.6777  133.6966  153.5362 H   0  0  0  0  0  0  0  0  0  0  0  0
  146.5146  133.0355  154.9200 H   0  0  0  0  0  0  0  0  0  0  0  0
  146.8879  135.8454  153.7616 H   0  0  0  0  0  0  0  0  0  0  0  0
  146.1515  135.4387  155.2960 H   0  0  0  0  0  0  0  0  0  0  0  0
  148.3174  134.4687  156.1001 H   0  0  0  0  0  0  0  0  0  0  0  0
  149.2224  135.3319  153.4799 H   0  0  0  0  0  0  0  0  0  0  0  0
  1  2  2  0  0  0  0
  2  3  1  0  0  0  0
  2 10  1  0  0  0  0
  3  4  1  0  0  0  0
  3 20  1  0  0  0  0
  4  9  1  0  0  0  0
  4  5  2  0  0  0  0
  5  6  1  0  0  0  0
  5 21  1  0  0  0  0
  6  7  2  0  0  0  0
  6 22  1  0  0  0  0
  7  8  1  0  0  0  0
  7 23  1  0  0  0  0
  8  9  2  0  0  0  0
  8 24  1  0  0  0  0
 10 11  1  0  0  0  0
 10 25  1  0  0  0  0
 11 19  1  0  0  0  0
 11 12  1  0  0  0  0
 11 26  1  0  0  0  0
 12 13  1  0  0  0  0
 12 27  1  0  0  0  0
 12 28  1  0  0  0  0
 13 14  1  0  0  0  0
 13 29  1  0  0  0  0
 13 30  1  0  0  0  0
 14 19  1  0  0  0  0
 14 15  1  0  0  0  0
 14 40  1  0  0  0  0
 15 16  1  0  0  0  0
 15 31  1  0  0  0  0
 15 32  1  0  0  0  0
 16 17  1  0  0  0  0
 16 33  1  0  0  0  0
 16 34  1  0  0  0  0
 17 18  1  0  0  0  0
 17 35  1  0  0  0  0
 17 36  1  0  0  0  0
 18 19  1  0  0  0  0
 18 37  1  0  0  0  0
 18 38  1  0  0  0  0
 19 39  1  0  0  0  0
M  CHG  1  14   1
M  END
> <s_m_source_file>
AV-unprocessed.smi

> <i_m_source_file_index>
1452

> <i_lp_mmshare_version>
43012

> <i_f3d_flags>
0

> <s_epik_input>
W0NIMl0xW0NIMl1bQ0gyXVtDSDJdW0NASF0oTjEyKVtDQEBIXShbQ0gyXVtDSDJdMilbTkhdQyg9TylbTkhdYzNbY0hdW2NIXVtjSF1bY0hdbjM=

> <s_epik_cmdline>
J2VwaWtfcHl0aG9uJywgJy1waCcsICc3LjAnLCAnLXRuJywgJzgnLCAnLW1hJywgJzIwMCcsICctbWV0YWxfYmluZGluZycsICctaW1hZScsICc8aW5maWxlLm1hZT4nLCAnLW9tYWUnLCAnPG91dGZpbGUubWFlPic=

> <r_epik_Ionization_Penalty>
0.00100813

> <r_epik_Ionization_Penalty_Charging>
0.000974069

> <r_epik_Ionization_Penalty_Neutral>
3.40643e-05

> <r_epik_State_Penalty>
0.000633842

> <r_epik_Charging_Adjusted_Penalty>
0.00160791

> <i_epik_Tot_Q>
1

> <i_epik_Tot_abs_Q>
1

> <r_epik_Metal_State_Penalty>
-0

> <b_epik_Metal_Only>
0

> <s_lp_Force_Field>
OPLS_2005

> <r_lp_Energy>
38.162

> <b_lp_Chiralities_Consistent>
1

> <s_lp_Variant>
AV-unprocessed.smi:1452-8

> <Gold.Version>
5.8.1

> <Gold.Id.Protein>
6NUR|6NUR_protein|mol2

> <Gold.PLP.Fitness>
43.4853

> <Gold.PLP.PLP>
-31.3137

> <Gold.PLP.part.hbond>
-3.2973

> <Gold.PLP.part.metal>
0.0000

> <Gold.PLP.part.buried>
-3.0316

> <Gold.PLP.part.nonpolar>
-24.5455

> <Gold.PLP.part.repulsive>
0.1631

> <Gold.PLP.ligand.clash>
0.0000

> <Gold.PLP.ligand.torsion>
0.2678

> <Gold.PLP.Chemscore.Hbond>
4.2325

> <Gold.PLP.Chemscore.CHOScore>
0.0000

> <Gold.PLP.Chemscore.Metal>
0.0000

> <Gold.Chemscore.Hbonds>
donor molecule, donor type, donor heavy atom, donor atom, acceptor molecule, acceptor atom, score
      L1  H    14    40       P1  7948  2.00
      P1  H  6896  6908       L1     1  0.32
      P1  H  6931  6943       L1     9  1.00
      P1  H  6934  6947       L1     9  0.67

> <Gold.PLP.Chemscore.Internal.Correction>
0.0096

> <Gold.Rescore>
     Score         DG    S(hbond)    S(metal)    S(lipo)     H(rot)  DE(clash)    DE(int)     intcor
     15.54     -18.55       2.42        0.00      64.47       1.00       0.27       2.74       ----

> <Gold.Chemscore.Fitness>
15.5350

> <Gold.Chemscore.DG>
-18.5459

> <Gold.Chemscore.ZeroCoef>
-5.4800

> <Gold.Chemscore.Hbond>
2.4199

> <Gold.Chemscore.Metal>
0.0000

> <Gold.Chemscore.Lipo>
64.4737

> <Gold.Chemscore.Internal_Hbond>
0.0000

> <Gold.Chemscore.DEClash>
0.2729

> <Gold.Chemscore.DEInternal>
2.7380

> <Gold.Chemscore.Rot>
1.0000

> <Gold.Chemscore.Internal.Correction>
   9.000000E+99

> <Gold.Chemscore.Hbonds>
donor molecule, donor type, donor heavy atom, donor atom, acceptor molecule, acceptor atom, score
      L1  H    14    40       P1  7948  0.30
      P1  H  6896  6908       L1     1  0.33
      P1  H  6931  6943       L1     9  0.29
      P1  H  6934  6947       L1     9  0.33

> <Gold.Chemscore.Hbond.Weighted>
-8.0825

> <Gold.Chemscore.Metal.Weighted>
-0.0000

> <Gold.Chemscore.Lipo.Weighted>
-7.5434

> <Gold.Chemscore.Internal_Hbond.Weighted>
0.0000

> <Gold.Chemscore.DEClash.Weighted>
0.2729

> <Gold.Chemscore.DEInternal.Weighted>
2.7380

> <Gold.Chemscore.Rot.Weighted>
2.5600

> <Gold.Chemscore.Internal.Correction.Weighted>
   9.000000E+99

> <Gold.Protein.RotatedTorsions>
[ 6907 6896 6895 6894 ] final  153.59 input  -60.11 | X-H torsion
[ 7974 7965 7964 7962 ] final  -80.79 input  175.53 | X-H torsion
[ 8008 7997 7996 7995 ] final   37.12 input   59.86 | X-H torsion
[ 10167 10162 10161 10158 ] final   84.99 input  -65.29 | X-H torsion
[ 10718 10713 10712 10709 ] final   -6.10 input   66.30 | X-H torsion
[ 10763 10752 10751 10750 ] final   58.50 input  -60.55 | X-H torsion
[ 11005 11000 10999 10996 ] final  109.58 input  -57.11 | X-H torsion

> <Gold.Protein.ActiveResidues>
 VAL166  LYS551  ARG553  GLY616  TRP617  ASP618  TYR619  PRO620  LYS621  CYS622 
 ASP623  PHE694  ASN695  SER759  ASP760  ASP761  ALA762  ILE779  LEU786  VAL792 
 PHE793  MET794  SER795  GLU796  ALA797  LYS798  CYS799  TRP800  GLU811  SER814 

> <Gold.Protein.RotatedAtoms>
  152.0705  133.4104  159.4456 H   0  0  0  0  0  0  0  0  0  0  0  0  # atno 6907 bound_to 6896
  150.6863  134.3097  159.4750 H   0  0  0  0  0  0  0  0  0  0  0  0  # atno 6908 bound_to 6896
  152.0928  134.9395  160.0622 H   0  0  0  0  0  0  0  0  0  0  0  0  # atno 6909 bound_to 6896
  145.5552  140.9490  143.1477 H   0  0  0  0  0  0  0  0  0  0  0  0  # atno 7974 bound_to 7965
  155.1986  140.3314  155.4347 H   0  0  0  0  0  0  0  0  0  0  0  0  # atno 8008 bound_to 7997
  156.2415  140.1897  156.7024 H   0  0  0  0  0  0  0  0  0  0  0  0  # atno 8009 bound_to 7997
  154.6157  140.0602  156.9536 H   0  0  0  0  0  0  0  0  0  0  0  0  # atno 8010 bound_to 7997
  139.9023  144.6322  150.8623 H   0  0  0  0  0  0  0  0  0  0  0  0  # atno 10167 bound_to 10162
  156.7368  130.5197  149.5833 H   0  0  0  0  0  0  0  0  0  0  0  0  # atno 10718 bound_to 10713
  152.9872  135.5604  154.5563 H   0  0  0  0  0  0  0  0  0  0  0  0  # atno 10763 bound_to 10752
  154.4990  135.2796  155.1438 H   0  0  0  0  0  0  0  0  0  0  0  0  # atno 10764 bound_to 10752
  154.2876  135.6332  153.5425 H   0  0  0  0  0  0  0  0  0  0  0  0  # atno 10765 bound_to 10752
  139.8865  134.9462  156.6147 H   0  0  0  0  0  0  0  0  0  0  0  0  # atno 11005 bound_to 11000
  144.7509  139.7195  143.7273 LP  0  0  0  0  0  0  0  0  0  0  0  0  # atno 17320 bound_to 7965
  146.1889  139.5119  142.9818 LP  0  0  0  0  0  0  0  0  0  0  0  0  # atno 17321 bound_to 7965
  140.7704  143.3427  151.2175 LP  0  0  0  0  0  0  0  0  0  0  0  0  # atno 17342 bound_to 10162
  139.7014  143.9527  152.2907 LP  0  0  0  0  0  0  0  0  0  0  0  0  # atno 17343 bound_to 10162
  156.1491  130.6298  151.0572 LP  0  0  0  0  0  0  0  0  0  0  0  0  # atno 17370 bound_to 10713
  157.6835  131.0831  150.7305 LP  0  0  0  0  0  0  0  0  0  0  0  0  # atno 17371 bound_to 10713
  140.7785  133.8680  155.8548 LP  0  0  0  0  0  0  0  0  0  0  0  0  # atno 17394 bound_to 11000
  140.9781  134.1442  157.4518 LP  0  0  0  0  0  0  0  0  0  0  0  0  # atno 17395 bound_to 11000

$$$$
