AV-unprocessed.smi:1423|AV-procd|sdf|5796|dock6
  -GOLD-   22720 5443D 1   1.00000     0.00000
 Structure written by MMmdl.
 44 45  0  0  0  0  0  0  0  0  2 V2000
  154.3679  140.5174  161.0048 C   0  0  0  0  0  0  0  0  0  0  0  0
  153.9308  141.8539  160.7845 O   0  0  0  0  0  0  0  0  0  0  0  0
  152.9855  142.0811  159.8054 C   0  0  0  0  0  0  0  0  0  0  0  0
  152.5839  143.4073  159.5512 C   0  0  0  0  0  0  0  0  0  0  0  0
  151.6175  143.6487  158.5561 C   0  0  0  0  0  0  0  0  0  0  0  0
  151.0738  142.5494  157.8487 C   0  0  0  0  0  0  0  0  0  0  0  0
  150.1022  142.6548  156.8155 N   0  0  0  0  0  0  0  0  0  0  0  0
  149.5311  141.6762  156.0921 C   0  0  0  0  0  0  0  0  0  0  0  0
  149.7695  140.4742  156.2018 O   0  0  0  0  0  0  0  0  0  0  0  0
  148.6613  142.1758  155.2019 N   0  0  0  0  0  0  0  0  0  0  0  0
  147.8595  141.3830  154.2697 C   0  0  2  0  0  0  0  0  0  0  0  0
  147.0615  142.2715  153.2939 C   0  0  0  0  0  0  0  0  0  0  0  0
  145.9042  143.0039  153.9943 C   0  0  0  0  0  0  0  0  0  0  0  0
  145.0031  142.0418  154.6829 N   0  3  2  0  0  0  0  0  0  0  0  0
  143.7880  142.6821  155.2496 C   0  0  0  0  0  0  0  0  0  0  0  0
  142.7269  141.6699  155.6950 C   0  0  0  0  0  0  0  0  0  0  0  0
  142.2711  140.8283  154.7645 N   0  0  0  0  0  0  0  0  0  0  0  0
  142.3121  141.6536  156.8525 O   0  0  0  0  0  0  0  0  0  0  0  0
  145.7382  141.2304  155.6862 C   0  0  0  0  0  0  0  0  0  0  0  0
  146.8990  140.4559  155.0351 C   0  0  0  0  0  0  0  0  0  0  0  0
  151.5540  141.2627  158.1705 C   0  0  0  0  0  0  0  0  0  0  0  0
  152.4802  141.0243  159.1224 N   0  0  0  0  0  0  0  0  0  0  0  0
  155.1005  140.5064  161.8117 H   0  0  0  0  0  0  0  0  0  0  0  0
  154.8475  140.1040  160.1165 H   0  0  0  0  0  0  0  0  0  0  0  0
  153.5415  139.8695  161.3000 H   0  0  0  0  0  0  0  0  0  0  0  0
  153.0129  144.2269  160.1083 H   0  0  0  0  0  0  0  0  0  0  0  0
  151.3272  144.6674  158.3537 H   0  0  0  0  0  0  0  0  0  0  0  0
  149.8460  143.5981  156.5636 H   0  0  0  0  0  0  0  0  0  0  0  0
  148.5284  143.1764  155.1826 H   0  0  0  0  0  0  0  0  0  0  0  0
  148.5430  140.7561  153.6937 H   0  0  0  0  0  0  0  0  0  0  0  0
  147.7167  142.9914  152.8019 H   0  0  0  0  0  0  0  0  0  0  0  0
  146.6535  141.6473  152.4977 H   0  0  0  0  0  0  0  0  0  0  0  0
  146.2938  143.7236  154.7159 H   0  0  0  0  0  0  0  0  0  0  0  0
  145.3467  143.5768  153.2527 H   0  0  0  0  0  0  0  0  0  0  0  0
  144.0564  143.2599  156.1351 H   0  0  0  0  0  0  0  0  0  0  0  0
  143.3660  143.3875  154.5317 H   0  0  0  0  0  0  0  0  0  0  0  0
  141.5747  140.1363  155.0017 H   0  0  0  0  0  0  0  0  0  0  0  0
  142.6293  140.8824  153.8214 H   0  0  0  0  0  0  0  0  0  0  0  0
  146.1097  141.8803  156.4800 H   0  0  0  0  0  0  0  0  0  0  0  0
  145.0569  140.5188  156.1541 H   0  0  0  0  0  0  0  0  0  0  0  0
  146.4877  139.7204  154.3422 H   0  0  0  0  0  0  0  0  0  0  0  0
  147.4426  139.8872  155.7907 H   0  0  0  0  0  0  0  0  0  0  0  0
  151.1801  140.3926  157.6504 H   0  0  0  0  0  0  0  0  0  0  0  0
  144.6732  141.3941  153.9810 H   0  0  0  0  0  0  0  0  0  0  0  0
  1  2  1  0  0  0  0
  1 23  1  0  0  0  0
  1 24  1  0  0  0  0
  1 25  1  0  0  0  0
  2  3  1  0  0  0  0
  3 22  1  0  0  0  0
  3  4  2  0  0  0  0
  4  5  1  0  0  0  0
  4 26  1  0  0  0  0
  5  6  2  0  0  0  0
  5 27  1  0  0  0  0
  6  7  1  0  0  0  0
  6 21  1  0  0  0  0
  7  8  1  0  0  0  0
  7 28  1  0  0  0  0
  8  9  2  0  0  0  0
  8 10  1  0  0  0  0
 10 11  1  0  0  0  0
 10 29  1  0  0  0  0
 11 20  1  0  0  0  0
 11 12  1  0  0  0  0
 11 30  1  0  0  0  0
 12 13  1  0  0  0  0
 12 31  1  0  0  0  0
 12 32  1  0  0  0  0
 13 14  1  0  0  0  0
 13 33  1  0  0  0  0
 13 34  1  0  0  0  0
 14 15  1  0  0  0  0
 14 19  1  0  0  0  0
 14 44  1  0  0  0  0
 15 16  1  0  0  0  0
 15 35  1  0  0  0  0
 15 36  1  0  0  0  0
 16 17  1  0  0  0  0
 16 18  2  0  0  0  0
 17 37  1  0  0  0  0
 17 38  1  0  0  0  0
 19 20  1  0  0  0  0
 19 39  1  0  0  0  0
 19 40  1  0  0  0  0
 20 41  1  0  0  0  0
 20 42  1  0  0  0  0
 21 22  2  0  0  0  0
 21 43  1  0  0  0  0
M  CHG  1  14   1
M  END
> <s_m_source_file>
AV-unprocessed.smi

> <i_m_source_file_index>
1423

> <i_lp_mmshare_version>
43012

> <i_f3d_flags>
0

> <s_epik_input>
W0NIM11PYzFbY0hdW2NIXWMoW2NIXW4xKVtOSF1DKD1PKVtOSF1bQ0hdMltDSDJdW0NIMl1OKFtDSDJdW0NIMl0yKVtDSDJdQyg9TylbTkgyXQ==

> <s_epik_cmdline>
J2VwaWtfcHl0aG9uJywgJy1waCcsICc3LjAnLCAnLXRuJywgJzgnLCAnLW1hJywgJzIwMCcsICctbWV0YWxfYmluZGluZycsICctaW1hZScsICc8aW5maWxlLm1hZT4nLCAnLW9tYWUnLCAnPG91dGZpbGUubWFlPic=

> <r_lp_tautomer_probability>
1

> <r_epik_Ionization_Penalty>
0.838963

> <r_epik_Ionization_Penalty_Charging>
0.838844

> <r_epik_Ionization_Penalty_Neutral>
0.0001192

> <r_epik_State_Penalty>
0.8734

> <r_epik_Charging_Adjusted_Penalty>
1.71224

> <i_epik_Tot_Q>
1

> <i_epik_Tot_abs_Q>
1

> <r_epik_Metal_State_Penalty>
0.890706

> <b_epik_Metal_Only>
0

> <s_lp_Force_Field>
OPLS_2005

> <r_lp_Energy>
16.4792

> <b_lp_Chiralities_Consistent>
1

> <s_lp_Variant>
AV-unprocessed.smi:1423-3

> <Gold.Version>
5.8.1

> <Gold.Id.Protein>
6NUR|6NUR_protein|mol2

> <Gold.PLP.Fitness>
50.6291

> <Gold.PLP.PLP>
-35.7479

> <Gold.PLP.part.hbond>
-4.5545

> <Gold.PLP.part.metal>
0.0000

> <Gold.PLP.part.buried>
-5.8794

> <Gold.PLP.part.nonpolar>
-26.0376

> <Gold.PLP.part.repulsive>
0.2570

> <Gold.PLP.ligand.clash>
0.0000

> <Gold.PLP.ligand.torsion>
0.0711

> <Gold.PLP.Chemscore.Hbond>
5.0000

> <Gold.PLP.Chemscore.CHOScore>
0.0000

> <Gold.PLP.Chemscore.Metal>
0.0000

> <Gold.Chemscore.Hbonds>
donor molecule, donor type, donor heavy atom, donor atom, acceptor molecule, acceptor atom, score
      L1  H     7    28       P1  8028  1.00
      L1  H    10    29       P1  8028  1.00
      L1  H    14    44       P1 10175  2.00
      L1  H    17    38       P1 10175  0.95

> <Gold.PLP.Chemscore.Internal.Correction>
0.0234

> <Gold.Rescore>
     Score         DG    S(hbond)    S(metal)    S(lipo)     H(rot)  DE(clash)    DE(int)     intcor
     18.22     -21.11       3.75        0.00      77.32       2.33       1.42       1.47       ----

> <Gold.Chemscore.Fitness>
18.2201

> <Gold.Chemscore.DG>
-21.1086

> <Gold.Chemscore.ZeroCoef>
-5.4800

> <Gold.Chemscore.Hbond>
3.7542

> <Gold.Chemscore.Metal>
0.0000

> <Gold.Chemscore.Lipo>
77.3232

> <Gold.Chemscore.Internal_Hbond>
0.0000

> <Gold.Chemscore.DEClash>
1.4202

> <Gold.Chemscore.DEInternal>
1.4683

> <Gold.Chemscore.Rot>
2.3271

> <Gold.Chemscore.Internal.Correction>
   9.000000E+99

> <Gold.Chemscore.Hbonds>
donor molecule, donor type, donor heavy atom, donor atom, acceptor molecule, acceptor atom, score
      L1  H     7    28       P1  8028  0.96
      L1  H    10    29       P1  8028  0.98
      L1  H    14    44       P1 10175  0.38
      L1  H    17    38       P1 10175  0.21

> <Gold.Chemscore.Hbond.Weighted>
-12.5391

> <Gold.Chemscore.Metal.Weighted>
-0.0000

> <Gold.Chemscore.Lipo.Weighted>
-9.0468

> <Gold.Chemscore.Internal_Hbond.Weighted>
0.0000

> <Gold.Chemscore.DEClash.Weighted>
1.4202

> <Gold.Chemscore.DEInternal.Weighted>
1.4683

> <Gold.Chemscore.Rot.Weighted>
5.9573

> <Gold.Chemscore.Internal.Correction.Weighted>
   9.000000E+99

> <Gold.Protein.RotatedTorsions>
[ 6907 6896 6895 6894 ] final   35.08 input  -60.11 | X-H torsion
[ 7974 7965 7964 7962 ] final   54.98 input  175.53 | X-H torsion
[ 8008 7997 7996 7995 ] final  167.24 input   59.86 | X-H torsion
[ 10167 10162 10161 10158 ] final -144.88 input  -65.29 | X-H torsion
[ 10718 10713 10712 10709 ] final   42.98 input   66.30 | X-H torsion
[ 10763 10752 10751 10750 ] final  116.62 input  -60.55 | X-H torsion
[ 11005 11000 10999 10996 ] final  -32.80 input  -57.11 | X-H torsion

> <Gold.Protein.ActiveResidues>
 VAL166  LYS551  ARG553  GLY616  TRP617  ASP618  TYR619  PRO620  LYS621  CYS622 
 ASP623  PHE694  ASN695  SER759  ASP760  ASP761  ALA762  ILE779  LEU786  VAL792 
 PHE793  MET794  SER795  GLU796  ALA797  LYS798  CYS799  TRP800  GLU811  SER814 

> <Gold.Protein.RotatedAtoms>
  152.1112  134.9273  160.0566 H   0  0  0  0  0  0  0  0  0  0  0  0  # atno 6907 bound_to 6896
  152.0449  133.3989  159.4361 H   0  0  0  0  0  0  0  0  0  0  0  0  # atno 6908 bound_to 6896
  150.6843  134.3294  159.4864 H   0  0  0  0  0  0  0  0  0  0  0  0  # atno 6909 bound_to 6896
  145.9552  139.4008  143.0282 H   0  0  0  0  0  0  0  0  0  0  0  0  # atno 7974 bound_to 7965
  156.1651  140.1622  156.8545 H   0  0  0  0  0  0  0  0  0  0  0  0  # atno 8008 bound_to 7997
  154.5199  140.0780  156.8187 H   0  0  0  0  0  0  0  0  0  0  0  0  # atno 8009 bound_to 7997
  155.3628  140.3396  155.4243 H   0  0  0  0  0  0  0  0  0  0  0  0  # atno 8010 bound_to 7997
  139.7858  143.8036  152.2644 H   0  0  0  0  0  0  0  0  0  0  0  0  # atno 10167 bound_to 10162
  157.4109  130.7913  149.7429 H   0  0  0  0  0  0  0  0  0  0  0  0  # atno 10718 bound_to 10713
  153.5400  135.3561  155.2714 H   0  0  0  0  0  0  0  0  0  0  0  0  # atno 10763 bound_to 10752
  154.8718  135.4089  154.3055 H   0  0  0  0  0  0  0  0  0  0  0  0  # atno 10764 bound_to 10752
  153.3760  135.7066  153.6669 H   0  0  0  0  0  0  0  0  0  0  0  0  # atno 10765 bound_to 10752
  140.9582  133.7180  156.1327 H   0  0  0  0  0  0  0  0  0  0  0  0  # atno 11005 bound_to 11000
  145.8116  140.9723  143.0946 LP  0  0  0  0  0  0  0  0  0  0  0  0  # atno 17320 bound_to 7965
  144.6803  139.9928  143.7484 LP  0  0  0  0  0  0  0  0  0  0  0  0  # atno 17321 bound_to 7965
  139.8113  144.7335  150.9694 LP  0  0  0  0  0  0  0  0  0  0  0  0  # atno 17342 bound_to 10162
  140.7819  143.4248  151.0785 LP  0  0  0  0  0  0  0  0  0  0  0  0  # atno 17343 bound_to 10162
  155.9850  130.3986  150.3282 LP  0  0  0  0  0  0  0  0  0  0  0  0  # atno 17370 bound_to 10713
  157.1420  131.0299  151.2923 LP  0  0  0  0  0  0  0  0  0  0  0  0  # atno 17371 bound_to 10713
  140.7505  134.4050  157.5542 LP  0  0  0  0  0  0  0  0  0  0  0  0  # atno 17394 bound_to 11000
  139.8869  134.8897  156.2558 LP  0  0  0  0  0  0  0  0  0  0  0  0  # atno 17395 bound_to 11000

$$$$
