#       Name:                AV-unprocessed.smi:217
#       Creating user name   scv26
#       Creation time:       Thu Mar 26 20:05:36 2020


#       File generated by GOLD software.
#

@<TRIPOS>MOLECULE
AV-unprocessed.smi:217
    67    71     1
SMALL
NO_CHARGES


@<TRIPOS>ATOM
      1 ****        -7.4193  -3.0650  -1.4200 O.3            1 S1                 0.0000
      2 ****        -6.7933  -2.4741  -0.2998 C.3            1 S1                 0.0000
      3 ****        -6.1978  -1.1016  -0.6539 C.3            1 S1                 0.0000
      4 ****        -7.3404  -0.1208  -0.9884 C.3            1 S1                 0.0000
      5 ****        -8.1432   0.1468   0.1436 O.3            1 S1                 0.0000
      6 ****        -5.1358  -0.5636   0.3315 C.3            1 S1                 0.0000
      7 ****        -4.2936  -0.0805  -0.8510 C.3            1 S1                 0.0000
      8 ****        -2.8619  -0.0633  -0.7825 N.pl3          1 S1                 0.0000
      9 ****        -1.9834  -0.4404  -1.7742 C.2            1 S1                 0.0000
     10 ****        -0.7190  -0.2853  -1.4882 N.2            1 S1                 0.0000
     11 ****        -0.7297   0.2764  -0.2183 C.ar           1 S1                 0.0000
     12 ****         0.2818   0.7153   0.6749 C.ar           1 S1                 0.0000
     13 ****         1.5935   0.6272   0.3678 N.3            1 S1                 0.0000
     14 ****         2.3109  -0.3610   1.1669 C.3            1 S1                 0.0000
     15 ****         3.7287  -0.5813   0.6139 C.3            1 S1                 0.0000
     16 ****         4.5094   0.7470   0.5093 C.3            1 S1                 0.0000
     17 ****         5.9124   0.5512  -0.1014 C.3            1 S1                 0.0000
     18 ****         6.8279  -0.3932   0.6782 C.3            1 S1                 0.0000
     19 ****         8.1936   0.0471   0.2038 C.3            1 S1                 0.0000
     20 ****         8.0194   1.5591   0.0938 C.3            1 S1                 0.0000
     21 ****         6.6277   1.7845  -0.1202 O.3            1 S1                 0.0000
     22 ****         3.6769   1.7546  -0.3113 C.3            1 S1                 0.0000
     23 ****         2.2626   1.9206   0.2673 C.3            1 S1                 0.0000
     24 ****        -0.1028   1.2401   1.8682 N.ar           1 S1                 0.0000
     25 ****        -1.4027   1.3339   2.1654 C.ar           1 S1                 0.0000
     26 ****        -2.4561   0.9680   1.4308 N.ar           1 S1                 0.0000
     27 ****        -2.0683   0.4349   0.2362 C.ar           1 S1                 0.0000
     28 ****        -5.0389  -1.1331  -1.6751 C.3            1 S1                 0.0000
     29 ****        -7.7479  -3.9145  -1.1677 H              1 S1                 0.0000
     30 ****        -7.5150  -2.4026   0.5139 H              1 S1                 0.0000
     31 ****        -6.0148  -3.1559   0.0434 H              1 S1                 0.0000
     32 ****        -6.9495   0.8311  -1.3477 H              1 S1                 0.0000
     33 ****        -7.9761  -0.5040  -1.7867 H              1 S1                 0.0000
     34 ****        -8.5511  -0.6593   0.4200 H              1 S1                 0.0000
     35 ****        -5.4777   0.2329   0.9930 H              1 S1                 0.0000
     36 ****        -4.6398  -1.3531   0.8992 H              1 S1                 0.0000
     37 ****        -4.5914   0.9257  -1.1503 H              1 S1                 0.0000
     38 ****        -2.3107  -0.8423  -2.7222 H              1 S1                 0.0000
     39 ****         2.3659  -0.0220   2.2026 H              1 S1                 0.0000
     40 ****         1.7635  -1.3046   1.1680 H              1 S1                 0.0000
     41 ****         4.2564  -1.2847   1.2578 H              1 S1                 0.0000
     42 ****         3.6649  -1.0492  -0.3695 H              1 S1                 0.0000
     43 ****         4.6301   1.1493   1.5163 H              1 S1                 0.0000
     44 ****         5.8293   0.1983  -1.1307 H              1 S1                 0.0000
     45 ****         6.7321  -0.2253   1.7520 H              1 S1                 0.0000
     46 ****         6.6286  -1.4457   0.4750 H              1 S1                 0.0000
     47 ****         8.9986  -0.2427   0.8797 H              1 S1                 0.0000
     48 ****         8.4011  -0.3790  -0.7788 H              1 S1                 0.0000
     49 ****         8.3090   2.0479   1.0247 H              1 S1                 0.0000
     50 ****         8.6182   1.9838  -0.7123 H              1 S1                 0.0000
     51 ****         4.1729   2.7252  -0.3360 H              1 S1                 0.0000
     52 ****         3.6062   1.4176  -1.3465 H              1 S1                 0.0000
     53 ****         1.6795   2.5899  -0.3670 H              1 S1                 0.0000
     54 ****         2.3190   2.3827   1.2541 H              1 S1                 0.0000
     55 ****        -1.6318   1.7629   3.1297 H              1 S1                 0.0000
     56 ****        -4.5190  -2.0927  -1.6969 H              1 S1                 0.0000
     57 ****        -5.3070  -0.8120  -2.6822 H              1 S1                 0.0000
     58 ****        -6.7565  -3.1667  -2.1619 LP             1 S1                 0.0000
     59 ****        -8.1765  -2.4881  -1.7263 LP             1 S1                 0.0000
     60 ****        -8.8468   0.8169  -0.0929 LP             1 S1                 0.0000
     61 ****        -7.5744   0.5075   0.8827 LP             1 S1                 0.0000
     62 ****         0.0732  -0.5172  -2.0527 LP             1 S1                 0.0000
     63 ****         1.6220   0.2654  -0.5641 LP             1 S1                 0.0000
     64 ****         6.2760   2.3797   0.6022 LP             1 S1                 0.0000
     65 ****         6.4987   2.2260  -1.0082 LP             1 S1                 0.0000
     66 ****         0.5849   1.5552   2.5221 LP             1 S1                 0.0000
     67 ****        -3.4080   1.0715   1.7194 LP             1 S1                 0.0000
@<TRIPOS>BOND
    1    1    2 1     
    2    1   29 1     
    3    2    3 1     
    4    2   30 1     
    5    2   31 1     
    6    3   28 1     
    7    3    4 1     
    8    3    6 1     
    9    4    5 1     
   10    4   32 1     
   11    4   33 1     
   12    5   34 1     
   13    6    7 1     
   14    6   35 1     
   15    6   36 1     
   16    7    8 1     
   17    7   28 1     
   18    7   37 1     
   19    8   27 1     
   20    8    9 1     
   21    9   10 2     
   22    9   38 1     
   23   10   11 1     
   24   11   27 ar    
   25   11   12 ar    
   26   12   13 1     
   27   12   24 ar    
   28   13   23 1     
   29   13   14 1     
   30   14   15 1     
   31   14   39 1     
   32   14   40 1     
   33   15   16 1     
   34   15   41 1     
   35   15   42 1     
   36   16   17 1     
   37   16   22 1     
   38   16   43 1     
   39   17   21 1     
   40   17   18 1     
   41   17   44 1     
   42   18   19 1     
   43   18   45 1     
   44   18   46 1     
   45   19   20 1     
   46   19   47 1     
   47   19   48 1     
   48   20   21 1     
   49   20   49 1     
   50   20   50 1     
   51   22   23 1     
   52   22   51 1     
   53   22   52 1     
   54   23   53 1     
   55   23   54 1     
   56   24   25 ar    
   57   25   26 ar    
   58   25   55 1     
   59   26   27 ar    
   60   28   56 1     
   61   28   57 1     
   62    1   58 1     
   63    1   59 1     
   64    5   60 1     
   65    5   61 1     
   66   10   62 1     
   67   13   63 1     
   68   21   64 1     
   69   21   65 1     
   70   24   66 1     
   71   26   67 1     
@<TRIPOS>SUBSTRUCTURE
      1 S1             1
@<TRIPOS>SET
LONE_PAIRS      STATIC     ATOMS    <user>   **** ""
10 58 59 60 61 62 63 64 65 66 67
DONOR_HYDROGENS      STATIC     ATOMS    <user>   **** ""
2 29 34
ATOM$BLUE        STATIC     ATOMS    COLORGROUP SYSTEM
10 58 59 60 61 62 63 64 65 66 67
ATOM$RED        STATIC     ATOMS    COLORGROUP SYSTEM
2 29 34
