AV-unprocessed.smi:625|AV-procd|sdf|3105|dock7
  -GOLD-   22720 0 23D 1   1.00000     0.00000
 Structure written by MMmdl.
 49 51  0  0  0  0  0  0  0  0  1 V2000
  147.1416  134.9635  160.6873 C   0  0  0  0  0  0  0  0  0  0  0  0
  147.9864  135.2401  159.5359 N   0  0  0  0  0  0  0  0  0  0  0  0
  148.5769  136.4220  159.2858 C   0  0  0  0  0  0  0  0  0  0  0  0
  148.4289  137.3893  160.0336 O   0  0  0  0  0  0  0  0  0  0  0  0
  149.4038  136.4353  158.0758 C   0  0  0  0  0  0  0  0  0  0  0  0
  149.1409  135.4747  157.0222 C   0  0  0  0  0  0  0  0  0  0  0  0
  149.8551  135.4922  155.8793 C   0  0  0  0  0  0  0  0  0  0  0  0
  150.9219  136.4718  155.6503 C   0  0  0  0  0  0  0  0  0  0  0  0
  151.5582  136.5084  154.5973 O   0  0  0  0  0  0  0  0  0  0  0  0
  151.1594  137.3401  156.6794 N   0  0  0  0  0  0  0  0  0  0  0  0
  152.1731  138.4017  156.5759 C   0  0  0  0  0  0  0  0  0  0  0  0
  151.5074  139.7702  156.3983 C   0  0  0  0  0  0  0  0  0  0  0  0
  151.0752  140.1121  155.2975 O   0  0  0  0  0  0  0  0  0  0  0  0
  151.4112  140.5234  157.5046 N   0  0  0  0  0  0  0  0  0  0  0  0
  150.6544  141.7669  157.6328 C   0  0  2  0  0  0  0  0  0  0  0  0
  150.9866  142.6661  156.4309 C   0  0  0  0  0  0  0  0  0  0  0  0
  150.9909  142.4265  158.9952 C   0  0  2  0  0  0  0  0  0  0  0  0
  150.3732  143.8371  159.1863 C   0  0  0  0  0  0  0  0  0  0  0  0
  151.5806  144.7058  159.5752 C   0  0  1  0  0  0  0  0  0  0  0  0
  152.0703  144.3113  160.9801 C   0  0  0  0  0  0  0  0  0  0  0  0
  152.7333  142.9429  160.7339 C   0  0  0  0  0  0  0  0  0  0  0  0
  152.4955  142.7136  159.2284 C   0  0  2  0  0  0  0  0  0  0  0  0
  152.6678  144.1269  158.6799 C   0  0  0  0  0  0  0  0  0  0  0  0
  150.4060  137.3168  157.8706 C   0  0  0  0  0  0  0  0  0  0  0  0
  146.8040  133.9276  160.6582 H   0  0  0  0  0  0  0  0  0  0  0  0
  146.2631  135.6101  160.6886 H   0  0  0  0  0  0  0  0  0  0  0  0
  147.6902  135.1172  161.6173 H   0  0  0  0  0  0  0  0  0  0  0  0
  148.1474  134.4808  158.8903 H   0  0  0  0  0  0  0  0  0  0  0  0
  148.3649  134.7320  157.1407 H   0  0  0  0  0  0  0  0  0  0  0  0
  149.6365  134.7664  155.1098 H   0  0  0  0  0  0  0  0  0  0  0  0
  152.7914  138.3960  157.4756 H   0  0  0  0  0  0  0  0  0  0  0  0
  152.8662  138.2411  155.7489 H   0  0  0  0  0  0  0  0  0  0  0  0
  151.8198  140.1595  158.3532 H   0  0  0  0  0  0  0  0  0  0  0  0
  149.5841  141.5571  157.6056 H   0  0  0  0  0  0  0  0  0  0  0  0
  150.3943  143.5804  156.4332 H   0  0  0  0  0  0  0  0  0  0  0  0
  150.7779  142.1533  155.4913 H   0  0  0  0  0  0  0  0  0  0  0  0
  152.0394  142.9507  156.4260 H   0  0  0  0  0  0  0  0  0  0  0  0
  150.6229  141.7663  159.7824 H   0  0  0  0  0  0  0  0  0  0  0  0
  149.9390  144.2191  158.2616 H   0  0  0  0  0  0  0  0  0  0  0  0
  149.5904  143.8478  159.9453 H   0  0  0  0  0  0  0  0  0  0  0  0
  151.4051  145.7753  159.4556 H   0  0  0  0  0  0  0  0  0  0  0  0
  152.8008  145.0296  161.3546 H   0  0  0  0  0  0  0  0  0  0  0  0
  151.2533  144.2559  161.7006 H   0  0  0  0  0  0  0  0  0  0  0  0
  153.8010  142.9921  160.9522 H   0  0  0  0  0  0  0  0  0  0  0  0
  152.3045  142.1534  161.3523 H   0  0  0  0  0  0  0  0  0  0  0  0
  153.1731  141.9748  158.8022 H   0  0  0  0  0  0  0  0  0  0  0  0
  152.4445  144.2131  157.6152 H   0  0  0  0  0  0  0  0  0  0  0  0
  153.6561  144.5486  158.8721 H   0  0  0  0  0  0  0  0  0  0  0  0
  150.6954  138.0815  158.5777 H   0  0  0  0  0  0  0  0  0  0  0  0
  1  2  1  0  0  0  0
  1 25  1  0  0  0  0
  1 26  1  0  0  0  0
  1 27  1  0  0  0  0
  2  3  1  0  0  0  0
  2 28  1  0  0  0  0
  3  4  2  0  0  0  0
  3  5  1  0  0  0  0
  5 24  2  0  0  0  0
  5  6  1  0  0  0  0
  6  7  2  0  0  0  0
  6 29  1  0  0  0  0
  7  8  1  0  0  0  0
  7 30  1  0  0  0  0
  8  9  2  0  0  0  0
  8 10  1  0  0  0  0
 10 11  1  0  0  0  0
 10 24  1  0  0  0  0
 11 12  1  0  0  0  0
 11 31  1  0  0  0  0
 11 32  1  0  0  0  0
 12 13  2  0  0  0  0
 12 14  1  0  0  0  0
 14 15  1  0  0  0  0
 14 33  1  0  0  0  0
 15 16  1  0  0  0  0
 15 17  1  0  0  0  0
 15 34  1  0  0  0  0
 16 35  1  0  0  0  0
 16 36  1  0  0  0  0
 16 37  1  0  0  0  0
 17 22  1  0  0  0  0
 17 18  1  0  0  0  0
 17 38  1  0  0  0  0
 18 19  1  0  0  0  0
 18 39  1  0  0  0  0
 18 40  1  0  0  0  0
 19 23  1  0  0  0  0
 19 20  1  0  0  0  0
 19 41  1  0  0  0  0
 20 21  1  0  0  0  0
 20 42  1  0  0  0  0
 20 43  1  0  0  0  0
 21 22  1  0  0  0  0
 21 44  1  0  0  0  0
 21 45  1  0  0  0  0
 22 23  1  0  0  0  0
 22 46  1  0  0  0  0
 23 47  1  0  0  0  0
 23 48  1  0  0  0  0
 24 49  1  0  0  0  0
M  END
> <s_m_source_file>
AV-unprocessed.smi

> <i_m_source_file_index>
625

> <i_lp_mmshare_version>
43012

> <i_f3d_flags>
0

> <s_epik_input>
W0NIM11bTkhdQyg9TyljMVtjSF1bY0hdYyg9TyluKFtjSF0xKVtDSDJdQyg9TylbTkhdW0NASF0oW0NIM10pW0NASF0oW0NIMl1bQ0BIXTIzKVtDQEhdKFtDSDJdMylbQ0gyXVtDSDJdMg==

> <s_epik_cmdline>
J2VwaWtfcHl0aG9uJywgJy1waCcsICc3LjAnLCAnLXRuJywgJzgnLCAnLW1hJywgJzIwMCcsICctbWV0YWxfYmluZGluZycsICctaW1hZScsICc8aW5maWxlLm1hZT4nLCAnLW9tYWUnLCAnPG91dGZpbGUubWFlPic=

> <r_lp_tautomer_probability>
1

> <r_epik_Ionization_Penalty>
3.7129e-07

> <r_epik_Ionization_Penalty_Charging>
5.04114e-08

> <r_epik_Ionization_Penalty_Neutral>
3.20879e-07

> <r_epik_State_Penalty>
-0

> <r_epik_Charging_Adjusted_Penalty>
5.04114e-08

> <i_epik_Tot_Q>
0

> <i_epik_Tot_abs_Q>
0

> <r_epik_Metal_State_Penalty>
-0

> <b_epik_Metal_Only>
0

> <s_lp_Force_Field>
OPLS_2005

> <r_lp_Energy>
64.2087

> <b_lp_Chiralities_Consistent>
1

> <s_lp_Variant>
AV-unprocessed.smi:625-5

> <Gold.Version>
5.8.1

> <Gold.Id.Protein>
6NUR|6NUR_protein|mol2

> <Gold.PLP.Fitness>
49.2315

> <Gold.PLP.PLP>
-42.3813

> <Gold.PLP.part.hbond>
-4.0000

> <Gold.PLP.part.metal>
0.0000

> <Gold.PLP.part.buried>
-5.5241

> <Gold.PLP.part.nonpolar>
-33.6661

> <Gold.PLP.part.repulsive>
0.3386

> <Gold.PLP.ligand.clash>
0.0000

> <Gold.PLP.ligand.torsion>
0.7747

> <Gold.PLP.Chemscore.Hbond>
2.7843

> <Gold.PLP.Chemscore.CHOScore>
0.0000

> <Gold.PLP.Chemscore.Metal>
0.0000

> <Gold.Chemscore.Hbonds>
donor molecule, donor type, donor heavy atom, donor atom, acceptor molecule, acceptor atom, score
      P1  H  6931  6943       L1     4  0.37
      P1  H  6934  6947       L1     4  0.26
      P1  H  7989  7998       L1    13  1.00
      P1  H 10752 10765       L1     9  1.00

> <Gold.PLP.Chemscore.Internal.Correction>
0.0468

> <Gold.Rescore>
     Score         DG    S(hbond)    S(metal)    S(lipo)     H(rot)  DE(clash)    DE(int)     intcor
     21.39     -23.84       2.69        0.00     116.85       1.67       0.28       2.17       ----

> <Gold.Chemscore.Fitness>
21.3915

> <Gold.Chemscore.DG>
-23.8425

> <Gold.Chemscore.ZeroCoef>
-5.4800

> <Gold.Chemscore.Hbond>
2.6852

> <Gold.Chemscore.Metal>
0.0000

> <Gold.Chemscore.Lipo>
116.8499

> <Gold.Chemscore.Internal_Hbond>
0.0000

> <Gold.Chemscore.DEClash>
0.2829

> <Gold.Chemscore.DEInternal>
2.1682

> <Gold.Chemscore.Rot>
1.6709

> <Gold.Chemscore.Internal.Correction>
   9.000000E+99

> <Gold.Chemscore.Hbonds>
donor molecule, donor type, donor heavy atom, donor atom, acceptor molecule, acceptor atom, score
      P1  H  6931  6943       L1     4  0.37
      P1  H  6934  6947       L1     4  0.26
      P1  H  7989  7998       L1    13  0.92
      P1  H 10752 10765       L1     9  0.99

> <Gold.Chemscore.Hbond.Weighted>
-8.9685

> <Gold.Chemscore.Metal.Weighted>
-0.0000

> <Gold.Chemscore.Lipo.Weighted>
-13.6714

> <Gold.Chemscore.Internal_Hbond.Weighted>
0.0000

> <Gold.Chemscore.DEClash.Weighted>
0.2829

> <Gold.Chemscore.DEInternal.Weighted>
2.1682

> <Gold.Chemscore.Rot.Weighted>
4.2774

> <Gold.Chemscore.Internal.Correction.Weighted>
   9.000000E+99

> <Gold.Protein.RotatedTorsions>
[ 6907 6896 6895 6894 ] final  121.39 input  -60.11 | X-H torsion
[ 7974 7965 7964 7962 ] final -170.28 input  175.53 | X-H torsion
[ 8008 7997 7996 7995 ] final   -1.12 input   59.86 | X-H torsion
[ 10167 10162 10161 10158 ] final  -96.50 input  -65.29 | X-H torsion
[ 10718 10713 10712 10709 ] final   31.05 input   66.30 | X-H torsion
[ 10763 10752 10751 10750 ] final  158.56 input  -60.55 | X-H torsion
[ 11005 11000 10999 10996 ] final  115.51 input  -57.11 | X-H torsion

> <Gold.Protein.ActiveResidues>
 VAL166  LYS551  ARG553  GLY616  TRP617  ASP618  TYR619  PRO620  LYS621  CYS622 
 ASP623  PHE694  ASN695  SER759  ASP760  ASP761  ALA762  ILE779  LEU786  VAL792 
 PHE793  MET794  SER795  GLU796  ALA797  LYS798  CYS799  TRP800  GLU811  SER814 

> <Gold.Protein.RotatedAtoms>
  152.4325  133.7302  159.6582 H   0  0  0  0  0  0  0  0  0  0  0  0  # atno 6907 bound_to 6896
  150.8205  133.8250  159.3147 H   0  0  0  0  0  0  0  0  0  0  0  0  # atno 6908 bound_to 6896
  151.5933  135.1054  160.0095 H   0  0  0  0  0  0  0  0  0  0  0  0  # atno 6909 bound_to 6896
  144.7172  140.2095  143.6329 H   0  0  0  0  0  0  0  0  0  0  0  0  # atno 7974 bound_to 7965
  154.6504  140.2567  155.7220 H   0  0  0  0  0  0  0  0  0  0  0  0  # atno 8008 bound_to 7997
  156.2572  140.2869  156.0856 H   0  0  0  0  0  0  0  0  0  0  0  0  # atno 8009 bound_to 7997
  155.1460  140.0381  157.2800 H   0  0  0  0  0  0  0  0  0  0  0  0  # atno 8010 bound_to 7997
  140.2931  143.3209  152.0325 H   0  0  0  0  0  0  0  0  0  0  0  0  # atno 10167 bound_to 10162
  157.2675  130.7191  149.6486 H   0  0  0  0  0  0  0  0  0  0  0  0  # atno 10718 bound_to 10713
  154.2180  135.2783  155.2935 H   0  0  0  0  0  0  0  0  0  0  0  0  # atno 10763 bound_to 10752
  154.5725  135.5614  153.7111 H   0  0  0  0  0  0  0  0  0  0  0  0  # atno 10764 bound_to 10752
  153.0048  135.6325  154.2320 H   0  0  0  0  0  0  0  0  0  0  0  0  # atno 10765 bound_to 10752
  139.9012  134.9585  156.7056 H   0  0  0  0  0  0  0  0  0  0  0  0  # atno 11005 bound_to 11000
  145.8604  139.2220  143.1720 LP  0  0  0  0  0  0  0  0  0  0  0  0  # atno 17320 bound_to 7965
  146.0179  140.8376  142.9938 LP  0  0  0  0  0  0  0  0  0  0  0  0  # atno 17321 bound_to 7965
  139.4933  144.6510  151.6675 LP  0  0  0  0  0  0  0  0  0  0  0  0  # atno 17342 bound_to 10162
  140.5715  144.0100  150.6219 LP  0  0  0  0  0  0  0  0  0  0  0  0  # atno 17343 bound_to 10162
  155.9663  130.4378  150.5191 LP  0  0  0  0  0  0  0  0  0  0  0  0  # atno 17370 bound_to 10713
  157.3108  131.0663  151.2002 LP  0  0  0  0  0  0  0  0  0  0  0  0  # atno 17371 bound_to 10713
  140.7116  133.9218  155.8088 LP  0  0  0  0  0  0  0  0  0  0  0  0  # atno 17394 bound_to 11000
  141.0296  134.0775  157.4030 LP  0  0  0  0  0  0  0  0  0  0  0  0  # atno 17395 bound_to 11000

$$$$
