AV-unprocessed.smi:470|AV-procd|sdf|2657|dock4
  -GOLD-   2262023 73D 1   1.00000     0.00000
 Structure written by MMmdl.
 32 33  0  0  0  0  0  0  0  0  2 V2000
  147.8719  138.5344  152.3921 N   0  0  0  0  0  0  0  0  0  0  0  0
  147.6342  138.8961  153.6563 C   0  0  0  0  0  0  0  0  0  0  0  0
  147.2590  138.0936  154.5088 O   0  0  0  0  0  0  0  0  0  0  0  0
  147.8605  140.3657  154.0206 C   0  0  0  0  0  0  0  0  0  0  0  0
  149.1136  140.5202  154.8328 C   0  0  0  0  0  0  0  0  0  0  0  0
  150.0674  139.5646  155.0703 C   0  0  0  0  0  0  0  0  0  0  0  0
  151.3495  140.1720  156.0778 S   0  0  0  0  0  0  0  0  0  0  0  0
  150.5288  141.7315  156.1657 C   0  0  0  0  0  0  0  0  0  0  0  0
  150.9785  142.8045  156.8390 N   0  5  0  0  0  0  0  0  0  0  0  0
  151.2160  142.8335  158.1816 C   0  0  0  0  0  0  0  0  0  0  0  0
  150.5540  142.2182  159.0152 O   0  0  0  0  0  0  0  0  0  0  0  0
  152.4053  143.7130  158.6733 C   0  0  1  0  0  0  0  0  0  0  0  0
  151.9454  144.8067  159.6698 C   0  0  0  0  0  0  0  0  0  0  0  0
  151.8472  144.3157  161.1033 C   0  0  0  0  0  0  0  0  0  0  0  0
  152.4411  143.1966  161.5489 C   0  0  0  0  0  0  0  0  0  0  0  0
  153.2755  142.2812  160.6730 C   0  0  0  0  0  0  0  0  0  0  0  0
  153.5673  142.8866  159.2816 C   0  0  0  0  0  0  0  0  0  0  0  0
  149.4053  141.7451  155.4397 N   0  0  0  0  0  0  0  0  0  0  0  0
  147.7164  137.5797  152.1037 H   0  0  0  0  0  0  0  0  0  0  0  0
  148.1875  139.2241  151.7248 H   0  0  0  0  0  0  0  0  0  0  0  0
  147.9226  140.9594  153.1077 H   0  0  0  0  0  0  0  0  0  0  0  0
  146.9925  140.7346  154.5688 H   0  0  0  0  0  0  0  0  0  0  0  0
  150.0916  138.5441  154.7188 H   0  0  0  0  0  0  0  0  0  0  0  0
  152.8554  144.2173  157.8197 H   0  0  0  0  0  0  0  0  0  0  0  0
  152.6380  145.6483  159.6467 H   0  0  0  0  0  0  0  0  0  0  0  0
  150.9721  145.2047  159.3836 H   0  0  0  0  0  0  0  0  0  0  0  0
  151.2808  144.9299  161.7879 H   0  0  0  0  0  0  0  0  0  0  0  0
  152.3257  142.9053  162.5824 H   0  0  0  0  0  0  0  0  0  0  0  0
  154.2142  142.0602  161.1812 H   0  0  0  0  0  0  0  0  0  0  0  0
  152.7493  141.3315  160.5784 H   0  0  0  0  0  0  0  0  0  0  0  0
  153.8738  142.0971  158.5941 H   0  0  0  0  0  0  0  0  0  0  0  0
  154.4318  143.5453  159.3723 H   0  0  0  0  0  0  0  0  0  0  0  0
  1  2  1  0  0  0  0
  1 19  1  0  0  0  0
  1 20  1  0  0  0  0
  2  3  2  0  0  0  0
  2  4  1  0  0  0  0
  4  5  1  0  0  0  0
  4 21  1  0  0  0  0
  4 22  1  0  0  0  0
  5 18  1  0  0  0  0
  5  6  2  0  0  0  0
  6  7  1  0  0  0  0
  6 23  1  0  0  0  0
  7  8  1  0  0  0  0
  8  9  1  0  0  0  0
  8 18  2  0  0  0  0
  9 10  1  0  0  0  0
 10 11  2  0  0  0  0
 10 12  1  0  0  0  0
 12 17  1  0  0  0  0
 12 13  1  0  0  0  0
 12 24  1  0  0  0  0
 13 14  1  0  0  0  0
 13 25  1  0  0  0  0
 13 26  1  0  0  0  0
 14 15  2  0  0  0  0
 14 27  1  0  0  0  0
 15 16  1  0  0  0  0
 15 28  1  0  0  0  0
 16 17  1  0  0  0  0
 16 29  1  0  0  0  0
 16 30  1  0  0  0  0
 17 31  1  0  0  0  0
 17 32  1  0  0  0  0
M  CHG  1   9  -1
M  END
> <s_m_source_file>
AV-unprocessed.smi

> <i_m_source_file_index>
470

> <i_lp_mmshare_version>
43012

> <i_f3d_flags>
0

> <s_epik_input>
W05IMl1DKD1PKVtDSDJdYzFbY0hdc2MobjEpW05IXUMoPU8pW0NAQEhdMltDSDJdW0NIXT1bQ0hdW0NIMl1bQ0gyXTI=

> <s_epik_cmdline>
J2VwaWtfcHl0aG9uJywgJy1waCcsICc3LjAnLCAnLXRuJywgJzgnLCAnLW1hJywgJzIwMCcsICctbWV0YWxfYmluZGluZycsICctaW1hZScsICc8aW5maWxlLm1hZT4nLCAnLW9tYWUnLCAnPG91dGZpbGUubWFlPic=

> <r_lp_tautomer_probability>
1

> <r_epik_Ionization_Penalty>
4.98985

> <r_epik_Ionization_Penalty_Charging>
4.63309

> <r_epik_Ionization_Penalty_Neutral>
0.356756

> <r_epik_State_Penalty>
4.63286

> <r_epik_Charging_Adjusted_Penalty>
9.26595

> <i_epik_Tot_Q>
-1

> <i_epik_Tot_abs_Q>
1

> <r_epik_Metal_State_Penalty>
0.88943

> <b_epik_Metal_Only>
1

> <s_lp_Force_Field>
OPLS_2005

> <r_lp_Energy>
8.68361

> <b_lp_Chiralities_Consistent>
1

> <s_lp_Variant>
AV-unprocessed.smi:470-4

> <Gold.Version>
5.8.1

> <Gold.Id.Protein>
6NUR|6NUR_protein|mol2

> <Gold.PLP.Fitness>
45.3816

> <Gold.PLP.PLP>
-42.8756

> <Gold.PLP.part.hbond>
-2.1114

> <Gold.PLP.part.metal>
0.0000

> <Gold.PLP.part.buried>
-4.4354

> <Gold.PLP.part.nonpolar>
-37.2938

> <Gold.PLP.part.repulsive>
1.1301

> <Gold.PLP.ligand.clash>
0.0000

> <Gold.PLP.ligand.torsion>
1.0787

> <Gold.PLP.Chemscore.Hbond>
1.5360

> <Gold.PLP.Chemscore.CHOScore>
0.0000

> <Gold.PLP.Chemscore.Metal>
0.0000

> <Gold.Chemscore.Hbonds>
donor molecule, donor type, donor heavy atom, donor atom, acceptor molecule, acceptor atom, score
      L1  H     1    19       P1  7948  0.58
      L1  H     1    20       P1  7957  0.88

> <Gold.PLP.Chemscore.Internal.Correction>
0.0554

> <Gold.Rescore>
     Score         DG    S(hbond)    S(metal)    S(lipo)     H(rot)  DE(clash)    DE(int)     intcor
     16.28     -17.72       1.57        0.00     100.59       1.87       0.35       1.08       ----

> <Gold.Chemscore.Fitness>
16.2830

> <Gold.Chemscore.DG>
-17.7151

> <Gold.Chemscore.ZeroCoef>
-5.4800

> <Gold.Chemscore.Hbond>
1.5721

> <Gold.Chemscore.Metal>
0.0000

> <Gold.Chemscore.Lipo>
100.5884

> <Gold.Chemscore.Internal_Hbond>
0.0000

> <Gold.Chemscore.DEClash>
0.3531

> <Gold.Chemscore.DEInternal>
1.0791

> <Gold.Chemscore.Rot>
1.8689

> <Gold.Chemscore.Internal.Correction>
   9.000000E+99

> <Gold.Chemscore.Hbonds>
donor molecule, donor type, donor heavy atom, donor atom, acceptor molecule, acceptor atom, score
      L1  H     1    19       P1  7948  0.56
      L1  H     1    20       P1  7957  0.85

> <Gold.Chemscore.Hbond.Weighted>
-5.2507

> <Gold.Chemscore.Metal.Weighted>
-0.0000

> <Gold.Chemscore.Lipo.Weighted>
-11.7688

> <Gold.Chemscore.Internal_Hbond.Weighted>
0.0000

> <Gold.Chemscore.DEClash.Weighted>
0.3531

> <Gold.Chemscore.DEInternal.Weighted>
1.0791

> <Gold.Chemscore.Rot.Weighted>
4.7844

> <Gold.Chemscore.Internal.Correction.Weighted>
   9.000000E+99

> <Gold.Protein.RotatedTorsions>
[ 6907 6896 6895 6894 ] final -122.11 input  -60.11 | X-H torsion
[ 7974 7965 7964 7962 ] final -143.68 input  175.53 | X-H torsion
[ 8008 7997 7996 7995 ] final -177.78 input   59.86 | X-H torsion
[ 10167 10162 10161 10158 ] final  -86.14 input  -65.29 | X-H torsion
[ 10718 10713 10712 10709 ] final -105.41 input   66.30 | X-H torsion
[ 10763 10752 10751 10750 ] final  141.81 input  -60.55 | X-H torsion
[ 11005 11000 10999 10996 ] final  -84.19 input  -57.11 | X-H torsion

> <Gold.Protein.ActiveResidues>
 VAL166  LYS551  ARG553  GLY616  TRP617  ASP618  TYR619  PRO620  LYS621  CYS622 
 ASP623  PHE694  ASN695  SER759  ASP760  ASP761  ALA762  ILE779  LEU786  VAL792 
 PHE793  MET794  SER795  GLU796  ALA797  LYS798  CYS799  TRP800  GLU811  SER814 

> <Gold.Protein.RotatedAtoms>
  150.8546  133.7735  159.3013 H   0  0  0  0  0  0  0  0  0  0  0  0  # atno 6907 bound_to 6896
  151.5397  135.1067  159.9933 H   0  0  0  0  0  0  0  0  0  0  0  0  # atno 6908 bound_to 6896
  152.4579  133.7718  159.6859 H   0  0  0  0  0  0  0  0  0  0  0  0  # atno 6909 bound_to 6896
  144.8352  140.5804  143.5489 H   0  0  0  0  0  0  0  0  0  0  0  0  # atno 7974 bound_to 7965
  156.0110  140.1241  157.0453 H   0  0  0  0  0  0  0  0  0  0  0  0  # atno 8008 bound_to 7997
  154.4276  140.1087  156.5900 H   0  0  0  0  0  0  0  0  0  0  0  0  # atno 8009 bound_to 7997
  155.6079  140.3471  155.4615 H   0  0  0  0  0  0  0  0  0  0  0  0  # atno 8010 bound_to 7997
  140.3970  143.2679  151.9192 H   0  0  0  0  0  0  0  0  0  0  0  0  # atno 10167 bound_to 10162
  156.0345  130.5562  150.7535 H   0  0  0  0  0  0  0  0  0  0  0  0  # atno 10718 bound_to 10713
  153.9454  135.2975  155.3441 H   0  0  0  0  0  0  0  0  0  0  0  0  # atno 10763 bound_to 10752
  154.7455  135.5005  153.9199 H   0  0  0  0  0  0  0  0  0  0  0  0  # atno 10764 bound_to 10752
  153.1021  135.6737  153.9761 H   0  0  0  0  0  0  0  0  0  0  0  0  # atno 10765 bound_to 10752
  141.1652  133.7333  156.8831 H   0  0  0  0  0  0  0  0  0  0  0  0  # atno 11005 bound_to 11000
  145.4811  139.1495  143.3761 LP  0  0  0  0  0  0  0  0  0  0  0  0  # atno 17320 bound_to 7965
  146.2651  140.4947  142.8837 LP  0  0  0  0  0  0  0  0  0  0  0  0  # atno 17321 bound_to 7965
  139.4786  144.5671  151.8147 LP  0  0  0  0  0  0  0  0  0  0  0  0  # atno 17342 bound_to 10162
  140.4780  144.1491  150.5928 LP  0  0  0  0  0  0  0  0  0  0  0  0  # atno 17343 bound_to 10162
  157.5073  131.0923  151.0241 LP  0  0  0  0  0  0  0  0  0  0  0  0  # atno 17370 bound_to 10713
  157.0606  130.5824  149.5385 LP  0  0  0  0  0  0  0  0  0  0  0  0  # atno 17371 bound_to 10713
  140.1701  134.9106  157.2822 LP  0  0  0  0  0  0  0  0  0  0  0  0  # atno 17394 bound_to 11000
  140.2512  134.3680  155.7441 LP  0  0  0  0  0  0  0  0  0  0  0  0  # atno 17395 bound_to 11000

$$$$
