AV-unprocessed.smi:104|AV-procd|sdf|995|dock10
  -GOLD-   2262017573D 1   1.00000     0.00000
 Structure written by MMmdl.
 47 49  0  0  0  0  0  0  0  0  1 V2000
  152.4529  138.3315  154.6788 C   0  0  0  0  0  0  0  0  0  0  0  0
  151.1280  138.9062  155.1621 C   0  0  0  0  0  0  0  0  0  0  0  0
  150.6469  139.9212  154.6577 O   0  0  0  0  0  0  0  0  0  0  0  0
  150.5922  138.1863  156.1610 O   0  0  0  0  0  0  0  0  0  0  0  0
  149.2855  138.4824  156.6288 C   0  0  0  0  0  0  0  0  0  0  0  0
  148.5579  137.1741  156.9660 C   0  0  2  0  0  0  0  0  0  0  0  0
  148.1700  136.5410  155.7426 O   0  0  0  0  0  0  0  0  0  0  0  0
  146.7846  136.4146  155.6869 C   0  0  2  0  0  0  0  0  0  0  0  0
  146.3149  136.6444  154.2880 N   0  0  0  0  0  0  0  0  0  0  0  0
  146.1357  137.8373  153.6262 C   0  0  0  0  0  0  0  0  0  0  0  0
  146.4980  139.5173  154.4469 Br  0  0  0  0  0  0  0  0  0  0  0  0
  145.7192  137.7778  152.3923 N   0  0  0  0  0  0  0  0  0  0  0  0
  145.6101  136.4101  152.1725 C   0  0  0  0  0  0  0  0  0  0  0  0
  145.2211  135.6186  151.0622 C   0  0  0  0  0  0  0  0  0  0  0  0
  144.8388  136.1415  149.8889 N   0  0  0  0  0  0  0  0  0  0  0  0
  145.2373  134.2711  151.1902 N   0  0  0  0  0  0  0  0  0  0  0  0
  145.6169  133.7233  152.3491 C   0  0  0  0  0  0  0  0  0  0  0  0
  146.0055  134.3323  153.4722 N   0  0  0  0  0  0  0  0  0  0  0  0
  145.9857  135.6911  153.3453 C   0  0  0  0  0  0  0  0  0  0  0  0
  146.2187  137.4683  156.6226 C   0  0  1  0  0  0  0  0  0  0  0  0
  144.9034  137.1280  157.0410 O   0  0  0  0  0  0  0  0  0  0  0  0
  144.2851  137.8658  157.9757 C   0  0  0  0  0  0  0  0  0  0  0  0
  142.9069  137.3212  158.3263 C   0  0  0  0  0  0  0  0  0  0  0  0
  144.7391  138.8708  158.5225 O   0  0  0  0  0  0  0  0  0  0  0  0
  147.2518  137.4333  157.7370 C   0  0  1  0  0  0  0  0  0  0  0  0
  146.9914  136.3534  158.6303 O   0  0  0  0  0  0  0  0  0  0  0  0
  147.5186  136.3523  159.8665 C   0  0  0  0  0  0  0  0  0  0  0  0
  147.3219  135.0213  160.5792 C   0  0  0  0  0  0  0  0  0  0  0  0
  148.1067  137.2902  160.4049 O   0  0  0  0  0  0  0  0  0  0  0  0
  152.3981  137.2442  154.6177 H   0  0  0  0  0  0  0  0  0  0  0  0
  153.2547  138.6011  155.3665 H   0  0  0  0  0  0  0  0  0  0  0  0
  152.6997  138.7195  153.6903 H   0  0  0  0  0  0  0  0  0  0  0  0
  149.3707  139.1049  157.5201 H   0  0  0  0  0  0  0  0  0  0  0  0
  148.7111  139.0493  155.8953 H   0  0  0  0  0  0  0  0  0  0  0  0
  149.2256  136.5211  157.5297 H   0  0  0  0  0  0  0  0  0  0  0  0
  146.4965  135.3953  155.9457 H   0  0  0  0  0  0  0  0  0  0  0  0
  144.8192  137.1439  149.7671 H   0  0  0  0  0  0  0  0  0  0  0  0
  144.5692  135.5327  149.1298 H   0  0  0  0  0  0  0  0  0  0  0  0
  145.6084  132.6437  152.3826 H   0  0  0  0  0  0  0  0  0  0  0  0
  146.2460  138.4321  156.1109 H   0  0  0  0  0  0  0  0  0  0  0  0
  142.3634  137.0480  157.4214 H   0  0  0  0  0  0  0  0  0  0  0  0
  142.3258  138.0702  158.8648 H   0  0  0  0  0  0  0  0  0  0  0  0
  143.0001  136.4364  158.9563 H   0  0  0  0  0  0  0  0  0  0  0  0
  147.2663  138.3810  158.2778 H   0  0  0  0  0  0  0  0  0  0  0  0
  146.2819  134.7019  160.5068 H   0  0  0  0  0  0  0  0  0  0  0  0
  147.5828  135.1096  161.6340 H   0  0  0  0  0  0  0  0  0  0  0  0
  147.9531  134.2549  160.1291 H   0  0  0  0  0  0  0  0  0  0  0  0
  1  2  1  0  0  0  0
  1 30  1  0  0  0  0
  1 31  1  0  0  0  0
  1 32  1  0  0  0  0
  2  3  2  0  0  0  0
  2  4  1  0  0  0  0
  4  5  1  0  0  0  0
  5  6  1  0  0  0  0
  5 33  1  0  0  0  0
  5 34  1  0  0  0  0
  6 25  1  0  0  0  0
  6  7  1  0  0  0  0
  6 35  1  0  0  0  0
  7  8  1  0  0  0  0
  8  9  1  0  0  0  0
  8 20  1  0  0  0  0
  8 36  1  0  0  0  0
  9 19  1  0  0  0  0
  9 10  1  0  0  0  0
 10 11  1  0  0  0  0
 10 12  2  0  0  0  0
 12 13  1  0  0  0  0
 13 19  2  0  0  0  0
 13 14  1  0  0  0  0
 14 15  1  0  0  0  0
 14 16  2  0  0  0  0
 15 37  1  0  0  0  0
 15 38  1  0  0  0  0
 16 17  1  0  0  0  0
 17 18  2  0  0  0  0
 17 39  1  0  0  0  0
 18 19  1  0  0  0  0
 20 21  1  0  0  0  0
 20 25  1  0  0  0  0
 20 40  1  0  0  0  0
 21 22  1  0  0  0  0
 22 23  1  0  0  0  0
 22 24  2  0  0  0  0
 23 41  1  0  0  0  0
 23 42  1  0  0  0  0
 23 43  1  0  0  0  0
 25 26  1  0  0  0  0
 25 44  1  0  0  0  0
 26 27  1  0  0  0  0
 27 28  1  0  0  0  0
 27 29  2  0  0  0  0
 28 45  1  0  0  0  0
 28 46  1  0  0  0  0
 28 47  1  0  0  0  0
M  END
> <s_m_source_file>
AV-unprocessed.smi

> <i_m_source_file_index>
104

> <i_lp_mmshare_version>
43012

> <i_f3d_flags>
0

> <s_epik_input>
W0NIM11DKD1PKU9bQ0gyXVtDQEBIXTFPW0NASF0oW0NAQEhdKE9DKD1PKVtDSDNdKVtDQEhdMU9DKD1PKVtDSDNdKW4oYyhCciluMiljKGMyMyluW2NIXW5jM1tOSDJd

> <s_epik_cmdline>
J2VwaWtfcHl0aG9uJywgJy1waCcsICc3LjAnLCAnLXRuJywgJzgnLCAnLW1hJywgJzIwMCcsICctbWV0YWxfYmluZGluZycsICctaW1hZScsICc8aW5maWxlLm1hZT4nLCAnLW9tYWUnLCAnPG91dGZpbGUubWFlPic=

> <r_lp_tautomer_probability>
1

> <r_epik_Ionization_Penalty>
7.36622e-05

> <r_epik_Ionization_Penalty_Charging>
0

> <r_epik_Ionization_Penalty_Neutral>
7.36622e-05

> <r_epik_State_Penalty>
-0

> <r_epik_Charging_Adjusted_Penalty>
0

> <i_epik_Tot_Q>
0

> <i_epik_Tot_abs_Q>
0

> <r_epik_Metal_State_Penalty>
-0

> <b_epik_Metal_Only>
0

> <s_epik_Chemistry_Notes>
This compound has an ester and may undergo hydrolysis at high or low pH. This compound contains an acetal/aminal-like group ( X-CH(R)-Y where X, Y are N, S, or O) that may be acid/base labile, releasing an aldehyde.

> <s_lp_Force_Field>
OPLS_2005

> <r_lp_Energy>
18.6996

> <b_lp_Chiralities_Consistent>
1

> <s_lp_Variant>
AV-unprocessed.smi:104-3

> <Gold.Version>
5.8.1

> <Gold.Id.Protein>
6NUR|6NUR_protein|mol2

> <Gold.PLP.Fitness>
34.6864

> <Gold.PLP.PLP>
-25.4296

> <Gold.PLP.part.hbond>
-5.0000

> <Gold.PLP.part.metal>
0.0000

> <Gold.PLP.part.buried>
-5.1408

> <Gold.PLP.part.nonpolar>
-16.5416

> <Gold.PLP.part.repulsive>
0.7651

> <Gold.PLP.ligand.clash>
0.0000

> <Gold.PLP.ligand.torsion>
1.3432

> <Gold.PLP.Chemscore.Hbond>
3.9378

> <Gold.PLP.Chemscore.CHOScore>
0.0000

> <Gold.PLP.Chemscore.Metal>
0.0000

> <Gold.Chemscore.Hbonds>
donor molecule, donor type, donor heavy atom, donor atom, acceptor molecule, acceptor atom, score
      L1  H    15    37       P1 10171  0.94
      L1  H    15    38       P1  7921  0.16
      P1  H  6931  6943       L1    29  0.69
      P1  H  6934  6947       L1    29  0.69
      P1  H  7989  7998       L1     3  1.00

> <Gold.PLP.Chemscore.Internal.Correction>
0.1297

> <Gold.Rescore>
     Score         DG    S(hbond)    S(metal)    S(lipo)     H(rot)  DE(clash)    DE(int)     intcor
      7.20      -8.14       3.20        0.00      25.47       4.31       0.00       0.94       ----

> <Gold.Chemscore.Fitness>
7.1971

> <Gold.Chemscore.DG>
-8.1350

> <Gold.Chemscore.ZeroCoef>
-5.4800

> <Gold.Chemscore.Hbond>
3.2039

> <Gold.Chemscore.Metal>
0.0000

> <Gold.Chemscore.Lipo>
25.4682

> <Gold.Chemscore.Internal_Hbond>
0.0000

> <Gold.Chemscore.DEClash>
0.0000

> <Gold.Chemscore.DEInternal>
0.9379

> <Gold.Chemscore.Rot>
4.3070

> <Gold.Chemscore.Internal.Correction>
   9.000000E+99

> <Gold.Chemscore.Hbonds>
donor molecule, donor type, donor heavy atom, donor atom, acceptor molecule, acceptor atom, score
      L1  H    15    37       P1 10171  0.91
      L1  H    15    38       P1  7921  0.16
      P1  H  6931  6943       L1    29  0.65
      P1  H  6934  6947       L1    29  0.63
      P1  H  7989  7998       L1     3  0.97

> <Gold.Chemscore.Hbond.Weighted>
-10.7011

> <Gold.Chemscore.Metal.Weighted>
-0.0000

> <Gold.Chemscore.Lipo.Weighted>
-2.9798

> <Gold.Chemscore.Internal_Hbond.Weighted>
0.0000

> <Gold.Chemscore.DEClash.Weighted>
0.0000

> <Gold.Chemscore.DEInternal.Weighted>
0.9379

> <Gold.Chemscore.Rot.Weighted>
11.0259

> <Gold.Chemscore.Internal.Correction.Weighted>
   9.000000E+99

> <Gold.Protein.RotatedTorsions>
[ 6907 6896 6895 6894 ] final  100.58 input  -60.11 | X-H torsion
[ 7974 7965 7964 7962 ] final -163.54 input  175.53 | X-H torsion
[ 8008 7997 7996 7995 ] final -145.47 input   59.86 | X-H torsion
[ 10167 10162 10161 10158 ] final  -31.12 input  -65.29 | X-H torsion
[ 10718 10713 10712 10709 ] final   47.82 input   66.30 | X-H torsion
[ 10763 10752 10751 10750 ] final   87.85 input  -60.55 | X-H torsion
[ 11005 11000 10999 10996 ] final  -36.23 input  -57.11 | X-H torsion

> <Gold.Protein.ActiveResidues>
 VAL166  LYS551  ARG553  GLY616  TRP617  ASP618  TYR619  PRO620  LYS621  CYS622 
 ASP623  PHE694  ASN695  SER759  ASP760  ASP761  ALA762  ILE779  LEU786  VAL792 
 PHE793  MET794  SER795  GLU796  ALA797  LYS798  CYS799  TRP800  GLU811  SER814 

> <Gold.Protein.RotatedAtoms>
  152.5369  134.0256  159.8001 H   0  0  0  0  0  0  0  0  0  0  0  0  # atno 6907 bound_to 6896
  151.0435  133.5678  159.2656 H   0  0  0  0  0  0  0  0  0  0  0  0  # atno 6908 bound_to 6896
  151.2638  135.0670  159.9162 H   0  0  0  0  0  0  0  0  0  0  0  0  # atno 6909 bound_to 6896
  144.7323  140.3092  143.6191 H   0  0  0  0  0  0  0  0  0  0  0  0  # atno 7974 bound_to 7965
  155.5437  140.0610  157.2864 H   0  0  0  0  0  0  0  0  0  0  0  0  # atno 8008 bound_to 7997
  154.4443  140.1914  156.0661 H   0  0  0  0  0  0  0  0  0  0  0  0  # atno 8009 bound_to 7997
  156.0566  140.3277  155.7416 H   0  0  0  0  0  0  0  0  0  0  0  0  # atno 8010 bound_to 7997
  140.7240  143.3796  151.1626 H   0  0  0  0  0  0  0  0  0  0  0  0  # atno 10167 bound_to 10162
  157.4624  130.8205  149.7900 H   0  0  0  0  0  0  0  0  0  0  0  0  # atno 10718 bound_to 10713
  153.1709  135.4528  154.9901 H   0  0  0  0  0  0  0  0  0  0  0  0  # atno 10763 bound_to 10752
  154.7965  135.3239  154.7656 H   0  0  0  0  0  0  0  0  0  0  0  0  # atno 10764 bound_to 10752
  153.8132  135.6953  153.4892 H   0  0  0  0  0  0  0  0  0  0  0  0  # atno 10765 bound_to 10752
  140.9859  133.7031  156.1764 H   0  0  0  0  0  0  0  0  0  0  0  0  # atno 11005 bound_to 11000
  145.7682  139.1848  143.2227 LP  0  0  0  0  0  0  0  0  0  0  0  0  # atno 17320 bound_to 7965
  146.0932  140.7631  142.9585 LP  0  0  0  0  0  0  0  0  0  0  0  0  # atno 17321 bound_to 7965
  139.7382  143.8966  152.3041 LP  0  0  0  0  0  0  0  0  0  0  0  0  # atno 17342 bound_to 10162
  139.8778  144.7034  150.8913 LP  0  0  0  0  0  0  0  0  0  0  0  0  # atno 17343 bound_to 10162
  156.0035  130.3868  150.2518 LP  0  0  0  0  0  0  0  0  0  0  0  0  # atno 17370 bound_to 10713
  157.0696  131.0113  151.3195 LP  0  0  0  0  0  0  0  0  0  0  0  0  # atno 17371 bound_to 10713
  140.7116  134.4456  157.5581 LP  0  0  0  0  0  0  0  0  0  0  0  0  # atno 17394 bound_to 11000
  139.8970  134.8646  156.2062 LP  0  0  0  0  0  0  0  0  0  0  0  0  # atno 17395 bound_to 11000

$$$$
