AV-unprocessed.smi:522|AV-procd|sdf|2802|dock10
  -GOLD-   2262023273D 1   1.00000     0.00000
 Structure written by MMmdl.
 41 42  0  0  0  0  0  0  0  0  1 V2000
  150.5179  137.4254  159.2652 C   0  0  0  0  0  0  0  0  0  0  0  0
  151.8776  137.0300  159.2906 O   0  0  0  0  0  0  0  0  0  0  0  0
  152.7250  138.0282  159.8358 C   0  0  0  0  0  0  0  0  0  0  0  0
  153.2086  138.9672  158.7222 C   0  0  0  0  0  0  0  0  0  0  0  0
  152.6871  140.3168  158.8816 N   0  0  0  0  0  0  0  0  0  0  0  0
  151.9313  141.0337  158.0137 C   0  0  0  0  0  0  0  0  0  0  0  0
  151.4333  140.3890  156.4477 S   0  0  0  0  0  0  0  0  0  0  0  0
  150.2990  141.7271  155.9577 C   0  0  0  0  0  0  0  0  0  0  0  0
  149.2697  141.2860  154.9070 C   0  0  0  0  0  0  0  0  0  0  0  0
  149.6704  140.8890  153.8119 O   0  0  0  0  0  0  0  0  0  0  0  0
  147.8382  141.4069  155.2859 C   0  0  0  0  0  0  0  0  0  0  0  0
  147.4654  141.9115  156.5702 C   0  0  0  0  0  0  0  0  0  0  0  0
  147.1698  142.3358  157.6060 N   0  0  0  0  0  0  0  0  0  0  0  0
  146.8322  141.0403  154.4471 C   0  0  0  0  0  0  0  0  0  0  0  0
  146.9931  140.4578  153.0480 C   0  0  0  0  0  0  0  0  0  0  0  0
  145.5020  141.1596  154.8100 N   0  0  0  0  0  0  0  0  0  0  0  0
  151.5836  142.2546  158.4228 N   0  0  0  0  0  0  0  0  0  0  0  0
  152.1726  142.3385  159.6689 C   0  0  0  0  0  0  0  0  0  0  0  0
  152.1754  143.3884  160.6150 C   0  0  0  0  0  0  0  0  0  0  0  0
  152.8577  143.2425  161.8407 C   0  0  0  0  0  0  0  0  0  0  0  0
  153.5445  142.0475  162.1375 C   0  0  0  0  0  0  0  0  0  0  0  0
  153.5542  140.9892  161.2087 C   0  0  0  0  0  0  0  0  0  0  0  0
  152.8719  141.1404  159.9867 C   0  0  0  0  0  0  0  0  0  0  0  0
  149.9127  136.6285  158.8330 H   0  0  0  0  0  0  0  0  0  0  0  0
  150.3789  138.3211  158.6584 H   0  0  0  0  0  0  0  0  0  0  0  0
  150.1461  137.6219  160.2717 H   0  0  0  0  0  0  0  0  0  0  0  0
  152.1878  138.6003  160.5934 H   0  0  0  0  0  0  0  0  0  0  0  0
  153.5816  137.5626  160.3260 H   0  0  0  0  0  0  0  0  0  0  0  0
  154.2975  138.9949  158.6924 H   0  0  0  0  0  0  0  0  0  0  0  0
  152.8904  138.5872  157.7510 H   0  0  0  0  0  0  0  0  0  0  0  0
  149.7894  142.1043  156.8445 H   0  0  0  0  0  0  0  0  0  0  0  0
  150.8853  142.5496  155.5484 H   0  0  0  0  0  0  0  0  0  0  0  0
  147.6106  139.5592  153.0737 H   0  0  0  0  0  0  0  0  0  0  0  0
  147.4559  141.1841  152.3794 H   0  0  0  0  0  0  0  0  0  0  0  0
  146.0328  140.1800  152.6111 H   0  0  0  0  0  0  0  0  0  0  0  0
  145.2274  141.5234  155.7117 H   0  0  0  0  0  0  0  0  0  0  0  0
  144.7505  140.8876  154.1917 H   0  0  0  0  0  0  0  0  0  0  0  0
  151.6527  144.3079  160.3967 H   0  0  0  0  0  0  0  0  0  0  0  0
  152.8542  144.0515  162.5565 H   0  0  0  0  0  0  0  0  0  0  0  0
  154.0642  141.9437  163.0788 H   0  0  0  0  0  0  0  0  0  0  0  0
  154.0801  140.0728  161.4324 H   0  0  0  0  0  0  0  0  0  0  0  0
  1  2  1  0  0  0  0
  1 24  1  0  0  0  0
  1 25  1  0  0  0  0
  1 26  1  0  0  0  0
  2  3  1  0  0  0  0
  3  4  1  0  0  0  0
  3 27  1  0  0  0  0
  3 28  1  0  0  0  0
  4  5  1  0  0  0  0
  4 29  1  0  0  0  0
  4 30  1  0  0  0  0
  5 23  1  0  0  0  0
  5  6  1  0  0  0  0
  6  7  1  0  0  0  0
  6 17  2  0  0  0  0
  7  8  1  0  0  0  0
  8  9  1  0  0  0  0
  8 31  1  0  0  0  0
  8 32  1  0  0  0  0
  9 10  2  0  0  0  0
  9 11  1  0  0  0  0
 11 12  1  0  0  0  0
 11 14  2  0  0  0  0
 12 13  3  0  0  0  0
 14 15  1  0  0  0  0
 14 16  1  0  0  0  0
 15 33  1  0  0  0  0
 15 34  1  0  0  0  0
 15 35  1  0  0  0  0
 16 36  1  0  0  0  0
 16 37  1  0  0  0  0
 17 18  1  0  0  0  0
 18 23  2  0  0  0  0
 18 19  1  0  0  0  0
 19 20  2  0  0  0  0
 19 38  1  0  0  0  0
 20 21  1  0  0  0  0
 20 39  1  0  0  0  0
 21 22  2  0  0  0  0
 21 40  1  0  0  0  0
 22 23  1  0  0  0  0
 22 41  1  0  0  0  0
M  END
> <s_m_source_file>
AV-unprocessed.smi

> <i_m_source_file_index>
522

> <i_lp_mmshare_version>
43012

> <i_f3d_flags>
0

> <s_epik_input>
W2NIXTFbY0hdW2NIXVtjSF1jKGMxMiluKFtDSDJdW0NIMl1PW0NIM10pYyhuMilTW0NIMl1DKD1PKS9DKEMjTik9QygvW0NIM10pW05IMl0=

> <s_epik_cmdline>
J2VwaWtfcHl0aG9uJywgJy1waCcsICc3LjAnLCAnLXRuJywgJzgnLCAnLW1hJywgJzIwMCcsICctbWV0YWxfYmluZGluZycsICctaW1hZScsICc8aW5maWxlLm1hZT4nLCAnLW9tYWUnLCAnPG91dGZpbGUubWFlPic=

> <r_lp_tautomer_probability>
0.5

> <r_epik_Ionization_Penalty>
0.0129021

> <r_epik_Ionization_Penalty_Charging>
0

> <r_epik_Ionization_Penalty_Neutral>
0.0129021

> <r_epik_State_Penalty>
0.42069

> <r_epik_Charging_Adjusted_Penalty>
0.42069

> <i_epik_Tot_Q>
0

> <i_epik_Tot_abs_Q>
0

> <r_epik_Metal_State_Penalty>
0.41068

> <b_epik_Metal_Only>
0

> <s_lp_Force_Field>
OPLS_2005

> <r_lp_Energy>
16.5573

> <b_lp_Chiralities_Consistent>
1

> <s_lp_Variant>
AV-unprocessed.smi:522-2

> <Gold.Version>
5.8.1

> <Gold.Id.Protein>
6NUR|6NUR_protein|mol2

> <Gold.PLP.Fitness>
54.1895

> <Gold.PLP.PLP>
-45.5357

> <Gold.PLP.part.hbond>
-3.8824

> <Gold.PLP.part.metal>
0.0000

> <Gold.PLP.part.buried>
-4.0353

> <Gold.PLP.part.nonpolar>
-39.7545

> <Gold.PLP.part.repulsive>
2.7816

> <Gold.PLP.ligand.clash>
0.0000

> <Gold.PLP.ligand.torsion>
0.7173

> <Gold.PLP.Chemscore.Hbond>
3.3353

> <Gold.PLP.Chemscore.CHOScore>
0.0000

> <Gold.PLP.Chemscore.Metal>
0.0000

> <Gold.Chemscore.Hbonds>
donor molecule, donor type, donor heavy atom, donor atom, acceptor molecule, acceptor atom, score
      L1  H    16    37       P1 10175  0.96
      P1  H  6896  6908       L1     2  0.95
      P1  H  7989  7998       L1    10  0.43
      P1  H  8011  8017       L1    10  0.75

> <Gold.PLP.Chemscore.Internal.Correction>
0.0826

> <Gold.Rescore>
     Score         DG    S(hbond)    S(metal)    S(lipo)     H(rot)  DE(clash)    DE(int)     intcor
     18.49     -21.96       2.88        0.00     109.48       2.33       1.34       2.13       ----

> <Gold.Chemscore.Fitness>
18.4885

> <Gold.Chemscore.DG>
-21.9644

> <Gold.Chemscore.ZeroCoef>
-5.4800

> <Gold.Chemscore.Hbond>
2.8849

> <Gold.Chemscore.Metal>
0.0000

> <Gold.Chemscore.Lipo>
109.4759

> <Gold.Chemscore.Internal_Hbond>
0.0000

> <Gold.Chemscore.DEClash>
1.3433

> <Gold.Chemscore.DEInternal>
2.1326

> <Gold.Chemscore.Rot>
2.3280

> <Gold.Chemscore.Internal.Correction>
   9.000000E+99

> <Gold.Chemscore.Hbonds>
donor molecule, donor type, donor heavy atom, donor atom, acceptor molecule, acceptor atom, score
      L1  H    16    37       P1 10175  0.87
      P1  H  6896  6908       L1     2  0.20
      P1  H  7989  7998       L1    10  0.40
      P1  H  8011  8017       L1    10  0.62

> <Gold.Chemscore.Hbond.Weighted>
-9.6356

> <Gold.Chemscore.Metal.Weighted>
-0.0000

> <Gold.Chemscore.Lipo.Weighted>
-12.8087

> <Gold.Chemscore.Internal_Hbond.Weighted>
0.0000

> <Gold.Chemscore.DEClash.Weighted>
1.3433

> <Gold.Chemscore.DEInternal.Weighted>
2.1326

> <Gold.Chemscore.Rot.Weighted>
5.9598

> <Gold.Chemscore.Internal.Correction.Weighted>
   9.000000E+99

> <Gold.Protein.RotatedTorsions>
[ 6907 6896 6895 6894 ] final -116.10 input  -60.11 | X-H torsion
[ 7974 7965 7964 7962 ] final -171.71 input  175.53 | X-H torsion
[ 8008 7997 7996 7995 ] final -138.29 input   59.86 | X-H torsion
[ 10167 10162 10161 10158 ] final -151.33 input  -65.29 | X-H torsion
[ 10718 10713 10712 10709 ] final -172.95 input   66.30 | X-H torsion
[ 10763 10752 10751 10750 ] final   -5.41 input  -60.55 | X-H torsion
[ 11005 11000 10999 10996 ] final -131.91 input  -57.11 | X-H torsion

> <Gold.Protein.ActiveResidues>
 VAL166  LYS551  ARG553  GLY616  TRP617  ASP618  TYR619  PRO620  LYS621  CYS622 
 ASP623  PHE694  ASN695  SER759  ASP760  ASP761  ALA762  ILE779  LEU786  VAL792 
 PHE793  MET794  SER795  GLU796  ALA797  LYS798  CYS799  TRP800  GLU811  SER814 

> <Gold.Protein.RotatedAtoms>
  150.8029  133.8565  159.3219 H   0  0  0  0  0  0  0  0  0  0  0  0  # atno 6907 bound_to 6896
  151.6372  135.1015  160.0143 H   0  0  0  0  0  0  0  0  0  0  0  0  # atno 6908 bound_to 6896
  152.4118  133.6935  159.6439 H   0  0  0  0  0  0  0  0  0  0  0  0  # atno 6909 bound_to 6896
  144.7154  140.1881  143.6351 H   0  0  0  0  0  0  0  0  0  0  0  0  # atno 7974 bound_to 7965
  155.4258  140.0521  157.3022 H   0  0  0  0  0  0  0  0  0  0  0  0  # atno 8008 bound_to 7997
  154.4882  140.2109  155.9566 H   0  0  0  0  0  0  0  0  0  0  0  0  # atno 8009 bound_to 7997
  156.1304  140.3172  155.8346 H   0  0  0  0  0  0  0  0  0  0  0  0  # atno 8010 bound_to 7997
  139.7276  143.8858  152.2524 H   0  0  0  0  0  0  0  0  0  0  0  0  # atno 10167 bound_to 10162
  156.7631  130.9421  151.3118 H   0  0  0  0  0  0  0  0  0  0  0  0  # atno 10718 bound_to 10713
  153.3981  135.7004  153.6446 H   0  0  0  0  0  0  0  0  0  0  0  0  # atno 10763 bound_to 10752
  153.4990  135.3656  155.2531 H   0  0  0  0  0  0  0  0  0  0  0  0  # atno 10764 bound_to 10752
  154.8708  135.4107  154.3311 H   0  0  0  0  0  0  0  0  0  0  0  0  # atno 10765 bound_to 10752
  140.9217  134.1436  157.4309 H   0  0  0  0  0  0  0  0  0  0  0  0  # atno 11005 bound_to 11000
  145.8794  139.2314  143.1614 LP  0  0  0  0  0  0  0  0  0  0  0  0  # atno 17320 bound_to 7965
  146.0009  140.8521  143.0019 LP  0  0  0  0  0  0  0  0  0  0  0  0  # atno 17321 bound_to 7965
  139.8772  144.7037  150.8919 LP  0  0  0  0  0  0  0  0  0  0  0  0  # atno 17342 bound_to 10162
  140.7765  143.3690  151.1685 LP  0  0  0  0  0  0  0  0  0  0  0  0  # atno 17343 bound_to 10162
  157.6725  130.9064  150.0074 LP  0  0  0  0  0  0  0  0  0  0  0  0  # atno 17370 bound_to 10713
  156.1326  130.3643  149.9707 LP  0  0  0  0  0  0  0  0  0  0  0  0  # atno 17371 bound_to 10713
  139.8777  134.9973  156.5842 LP  0  0  0  0  0  0  0  0  0  0  0  0  # atno 17394 bound_to 11000
  140.7980  133.8529  155.8702 LP  0  0  0  0  0  0  0  0  0  0  0  0  # atno 17395 bound_to 11000

$$$$
