AV-unprocessed.smi:109|AV-procd|sdf|1057|dock1
  -GOLD-   2262018123D 1   1.00000     0.00000
 Structure written by MMmdl.
 58 61  0  0  0  0  0  0  0  0  1 V2000
  143.2051  133.6032  156.6140 O   0  0  0  0  0  0  0  0  0  0  0  0
  143.7791  133.0393  157.7737 C   0  0  0  0  0  0  0  0  0  0  0  0
  145.2993  133.2727  157.7701 C   0  0  0  0  0  0  0  0  0  0  0  0
  145.7261  134.7330  158.0641 C   0  0  2  0  0  0  0  0  0  0  0  0
  147.0231  135.0012  157.4373 N   0  0  0  0  0  0  0  0  0  0  0  0
  147.3347  134.5553  156.1989 C   0  0  0  0  0  0  0  0  0  0  0  0
  148.5775  134.0953  155.9007 N   0  0  0  0  0  0  0  0  0  0  0  0
  148.8580  133.6754  154.6636 C   0  0  0  0  0  0  0  0  0  0  0  0
  148.0575  133.6305  153.5966 N   0  0  0  0  0  0  0  0  0  0  0  0
  146.8053  134.0859  153.8906 C   0  0  0  0  0  0  0  0  0  0  0  0
  146.3689  134.5607  155.1592 C   0  0  0  0  0  0  0  0  0  0  0  0
  145.0360  134.9434  155.0847 N   0  0  0  0  0  0  0  0  0  0  0  0
  144.7090  134.7094  153.8419 C   0  0  0  0  0  0  0  0  0  0  0  0
  145.7132  134.1918  153.0540 N   0  0  0  0  0  0  0  0  0  0  0  0
  145.6458  133.8439  151.6026 C   0  0  1  0  0  0  0  0  0  0  0  0
  145.9108  132.4784  151.4773 O   0  0  0  0  0  0  0  0  0  0  0  0
  145.0722  131.9097  150.4784 C   0  0  2  0  0  0  0  0  0  0  0  0
  145.7829  132.0227  149.1123 C   0  0  0  0  0  0  0  0  0  0  0  0
  146.8245  131.0745  149.0105 O   0  0  0  0  0  0  0  0  0  0  0  0
  143.7748  132.7132  150.6431 C   0  0  2  0  0  0  0  0  0  0  0  0
  142.8987  132.6725  149.5307 O   0  0  0  0  0  0  0  0  0  0  0  0
  144.2463  134.1165  151.0223 C   0  0  2  0  0  0  0  0  0  0  0  0
  144.3200  134.9735  149.8978 O   0  0  0  0  0  0  0  0  0  0  0  0
  145.8095  135.0561  159.5846 C   0  0  0  0  0  0  0  0  0  0  0  0
  146.2042  136.5266  159.8761 C   0  0  0  0  0  0  0  0  0  0  0  0
  146.3178  136.8190  161.3815 C   0  0  0  0  0  0  0  0  0  0  0  0
  147.3054  135.8667  162.0658 C   0  0  0  0  0  0  0  0  0  0  0  0
  146.9103  134.4075  161.8108 C   0  0  0  0  0  0  0  0  0  0  0  0
  146.8095  134.1155  160.3055 C   0  0  0  0  0  0  0  0  0  0  0  0
  146.4359  134.4333  151.1344 H   0  0  0  0  0  0  0  0  0  0  0  0
  144.9127  130.8574  150.7176 H   0  0  0  0  0  0  0  0  0  0  0  0
  143.2318  132.2961  151.4913 H   0  0  0  0  0  0  0  0  0  0  0  0
  143.5885  134.5700  151.7652 H   0  0  0  0  0  0  0  0  0  0  0  0
  143.1700  132.9394  155.9424 H   0  0  0  0  0  0  0  0  0  0  0  0
  143.3099  133.4932  158.6465 H   0  0  0  0  0  0  0  0  0  0  0  0
  143.5544  131.9727  157.7961 H   0  0  0  0  0  0  0  0  0  0  0  0
  145.7153  132.6077  158.5247 H   0  0  0  0  0  0  0  0  0  0  0  0
  145.7179  132.9531  156.8147 H   0  0  0  0  0  0  0  0  0  0  0  0
  144.9607  135.3906  157.6521 H   0  0  0  0  0  0  0  0  0  0  0  0
  147.6723  135.5331  157.9993 H   0  0  0  0  0  0  0  0  0  0  0  0
  149.8686  133.3284  154.5057 H   0  0  0  0  0  0  0  0  0  0  0  0
  143.7176  134.9116  153.4628 H   0  0  0  0  0  0  0  0  0  0  0  0
  145.0917  131.9049  148.2784 H   0  0  0  0  0  0  0  0  0  0  0  0
  146.2321  133.0110  149.0128 H   0  0  0  0  0  0  0  0  0  0  0  0
  147.5086  131.3141  149.6171 H   0  0  0  0  0  0  0  0  0  0  0  0
  142.2960  133.3977  149.5980 H   0  0  0  0  0  0  0  0  0  0  0  0
  144.9738  134.6291  149.3080 H   0  0  0  0  0  0  0  0  0  0  0  0
  144.8217  134.8887  160.0176 H   0  0  0  0  0  0  0  0  0  0  0  0
  147.1518  136.7572  159.3873 H   0  0  0  0  0  0  0  0  0  0  0  0
  145.4675  137.2165  159.4684 H   0  0  0  0  0  0  0  0  0  0  0  0
  146.6318  137.8517  161.5358 H   0  0  0  0  0  0  0  0  0  0  0  0
  145.3356  136.7228  161.8461 H   0  0  0  0  0  0  0  0  0  0  0  0
  148.3124  136.0472  161.6878 H   0  0  0  0  0  0  0  0  0  0  0  0
  147.3344  136.0651  163.1374 H   0  0  0  0  0  0  0  0  0  0  0  0
  147.6404  133.7407  162.2705 H   0  0  0  0  0  0  0  0  0  0  0  0
  145.9535  134.1963  162.2900 H   0  0  0  0  0  0  0  0  0  0  0  0
  146.5201  133.0722  160.1798 H   0  0  0  0  0  0  0  0  0  0  0  0
  147.7966  134.2134  159.8512 H   0  0  0  0  0  0  0  0  0  0  0  0
  1  2  1  0  0  0  0
  1 34  1  0  0  0  0
  2  3  1  0  0  0  0
  2 35  1  0  0  0  0
  2 36  1  0  0  0  0
  3  4  1  0  0  0  0
  3 37  1  0  0  0  0
  3 38  1  0  0  0  0
  4  5  1  0  0  0  0
  4 24  1  0  0  0  0
  4 39  1  0  0  0  0
  5  6  1  0  0  0  0
  5 40  1  0  0  0  0
  6 11  1  0  0  0  0
  6  7  2  0  0  0  0
  7  8  1  0  0  0  0
  8  9  2  0  0  0  0
  8 41  1  0  0  0  0
  9 10  1  0  0  0  0
 10 14  1  0  0  0  0
 10 11  2  0  0  0  0
 11 12  1  0  0  0  0
 12 13  2  0  0  0  0
 13 14  1  0  0  0  0
 13 42  1  0  0  0  0
 14 15  1  0  0  0  0
 15 30  1  0  0  0  0
 15 22  1  0  0  0  0
 15 16  1  0  0  0  0
 16 17  1  0  0  0  0
 17 31  1  0  0  0  0
 17 18  1  0  0  0  0
 17 20  1  0  0  0  0
 18 19  1  0  0  0  0
 18 43  1  0  0  0  0
 18 44  1  0  0  0  0
 19 45  1  0  0  0  0
 20 32  1  0  0  0  0
 20 21  1  0  0  0  0
 20 22  1  0  0  0  0
 21 46  1  0  0  0  0
 22 33  1  0  0  0  0
 22 23  1  0  0  0  0
 23 47  1  0  0  0  0
 24 29  1  0  0  0  0
 24 25  1  0  0  0  0
 24 48  1  0  0  0  0
 25 26  1  0  0  0  0
 25 49  1  0  0  0  0
 25 50  1  0  0  0  0
 26 27  1  0  0  0  0
 26 51  1  0  0  0  0
 26 52  1  0  0  0  0
 27 28  1  0  0  0  0
 27 53  1  0  0  0  0
 27 54  1  0  0  0  0
 28 29  1  0  0  0  0
 28 55  1  0  0  0  0
 28 56  1  0  0  0  0
 29 57  1  0  0  0  0
 29 58  1  0  0  0  0
M  END
> <s_m_source_file>
AV-unprocessed.smi

> <i_m_source_file_index>
109

> <i_lp_mmshare_version>
43012

> <i_f3d_flags>
0

> <s_epik_input>
W0NIMl0xW0NIMl1bQ0gyXVtDSDJdW0NIMl1bQ0hdMVtDQEhdKFtDSDJdW0NIMl1bT0hdKVtOSF1jKG5bY0hdbjIpYyhjMjMpbltjSF1uM1tDQEBIXTRPW0NASF0oW0NIMl1bT0hdKVtDQEBIXShbT0hdKVtDQEhdNFtPSF0=

> <s_epik_cmdline>
J2VwaWtfcHl0aG9uJywgJy1waCcsICc3LjAnLCAnLXRuJywgJzgnLCAnLW1hJywgJzIwMCcsICctbWV0YWxfYmluZGluZycsICctaW1hZScsICc8aW5maWxlLm1hZT4nLCAnLW9tYWUnLCAnPG91dGZpbGUubWFlPic=

> <r_lp_tautomer_probability>
1

> <r_epik_Ionization_Penalty>
0.000793976

> <r_epik_Ionization_Penalty_Charging>
0

> <r_epik_Ionization_Penalty_Neutral>
0.000793976

> <r_epik_State_Penalty>
-0

> <r_epik_Charging_Adjusted_Penalty>
0

> <i_epik_Tot_Q>
0

> <i_epik_Tot_abs_Q>
0

> <r_epik_Metal_State_Penalty>
-0

> <b_epik_Metal_Only>
0

> <s_epik_Chemistry_Notes>
This compound contains an acetal/aminal-like group ( X-CH(R)-Y where X, Y are N, S, or O) that may be acid/base labile, releasing an aldehyde.

> <s_lp_Force_Field>
OPLS_2005

> <r_lp_Energy>
58.5181

> <b_lp_Chiralities_Consistent>
1

> <s_lp_Variant>
AV-unprocessed.smi:109-27

> <Gold.Version>
5.8.1

> <Gold.Id.Protein>
6NUR|6NUR_protein|mol2

> <Gold.PLP.Fitness>
50.7413

> <Gold.PLP.PLP>
-37.4247

> <Gold.PLP.part.hbond>
-5.5490

> <Gold.PLP.part.metal>
0.0000

> <Gold.PLP.part.buried>
-7.2220

> <Gold.PLP.part.nonpolar>
-24.6639

> <Gold.PLP.part.repulsive>
0.3404

> <Gold.PLP.ligand.clash>
0.0000

> <Gold.PLP.ligand.torsion>
0.9321

> <Gold.PLP.Chemscore.Hbond>
4.8630

> <Gold.PLP.Chemscore.CHOScore>
0.0000

> <Gold.PLP.Chemscore.Metal>
0.0000

> <Gold.Chemscore.Hbonds>
donor molecule, donor type, donor heavy atom, donor atom, acceptor molecule, acceptor atom, score
      L1  H     1    34       P1 10957  1.00
      L1  H    19    45       P1 10747  0.86
      L1  H    21    46       P1 10186  1.00
      L1  H    23    47       P1  7921  0.96
      P1  H 11000 11005       L1     1  0.91

> <Gold.PLP.Chemscore.Internal.Correction>
0.5918

> <Gold.Rescore>
     Score         DG    S(hbond)    S(metal)    S(lipo)     H(rot)  DE(clash)    DE(int)     intcor
     12.72     -14.20       4.36        0.00      69.78       5.47       0.17       1.31       ----

> <Gold.Chemscore.Fitness>
12.7227

> <Gold.Chemscore.DG>
-14.2030

> <Gold.Chemscore.ZeroCoef>
-5.4800

> <Gold.Chemscore.Hbond>
4.3569

> <Gold.Chemscore.Metal>
0.0000

> <Gold.Chemscore.Lipo>
69.7815

> <Gold.Chemscore.Internal_Hbond>
0.0000

> <Gold.Chemscore.DEClash>
0.1739

> <Gold.Chemscore.DEInternal>
1.3064

> <Gold.Chemscore.Rot>
5.4662

> <Gold.Chemscore.Internal.Correction>
   9.000000E+99

> <Gold.Chemscore.Hbonds>
donor molecule, donor type, donor heavy atom, donor atom, acceptor molecule, acceptor atom, score
      L1  H     1    34       P1 10957  1.00
      L1  H    19    45       P1 10747  0.86
      L1  H    21    46       P1 10186  1.00
      L1  H    23    47       P1  7921  0.86
      P1  H 11000 11005       L1     1  0.10

> <Gold.Chemscore.Hbond.Weighted>
-14.5521

> <Gold.Chemscore.Metal.Weighted>
-0.0000

> <Gold.Chemscore.Lipo.Weighted>
-8.1644

> <Gold.Chemscore.Internal_Hbond.Weighted>
0.0000

> <Gold.Chemscore.DEClash.Weighted>
0.1739

> <Gold.Chemscore.DEInternal.Weighted>
1.3064

> <Gold.Chemscore.Rot.Weighted>
13.9935

> <Gold.Chemscore.Internal.Correction.Weighted>
   9.000000E+99

> <Gold.Protein.RotatedTorsions>
[ 6907 6896 6895 6894 ] final  -34.19 input  -60.11 | X-H torsion
[ 7974 7965 7964 7962 ] final -119.86 input  175.53 | X-H torsion
[ 8008 7997 7996 7995 ] final -178.48 input   59.86 | X-H torsion
[ 10167 10162 10161 10158 ] final -103.55 input  -65.29 | X-H torsion
[ 10718 10713 10712 10709 ] final -130.00 input   66.30 | X-H torsion
[ 10763 10752 10751 10750 ] final   67.54 input  -60.55 | X-H torsion
[ 11005 11000 10999 10996 ] final  -91.78 input  -57.11 | X-H torsion

> <Gold.Protein.ActiveResidues>
 VAL166  LYS551  ARG553  GLY616  TRP617  ASP618  TYR619  PRO620  LYS621  CYS622 
 ASP623  PHE694  ASN695  SER759  ASP760  ASP761  ALA762  ILE779  LEU786  VAL792 
 PHE793  MET794  SER795  GLU796  ALA797  LYS798  CYS799  TRP800  GLU811  SER814 

> <Gold.Protein.RotatedAtoms>
  151.0558  134.9704  159.8234 H   0  0  0  0  0  0  0  0  0  0  0  0  # atno 6907 bound_to 6896
  152.5388  134.2479  159.8897 H   0  0  0  0  0  0  0  0  0  0  0  0  # atno 6908 bound_to 6896
  151.2497  133.4313  159.2644 H   0  0  0  0  0  0  0  0  0  0  0  0  # atno 6909 bound_to 6896
  145.0578  140.8267  143.4171 H   0  0  0  0  0  0  0  0  0  0  0  0  # atno 7974 bound_to 7965
  156.0193  140.1257  157.0374 H   0  0  0  0  0  0  0  0  0  0  0  0  # atno 8008 bound_to 7997
  154.4305  140.1072  156.6011 H   0  0  0  0  0  0  0  0  0  0  0  0  # atno 8009 bound_to 7997
  155.5967  140.3470  155.4584 H   0  0  0  0  0  0  0  0  0  0  0  0  # atno 8010 bound_to 7997
  140.2187  143.3692  152.0988 H   0  0  0  0  0  0  0  0  0  0  0  0  # atno 10167 bound_to 10162
  156.2101  130.6913  151.0640 H   0  0  0  0  0  0  0  0  0  0  0  0  # atno 10718 bound_to 10713
  153.0191  135.5280  154.6996 H   0  0  0  0  0  0  0  0  0  0  0  0  # atno 10763 bound_to 10752
  154.6108  135.2878  155.0436 H   0  0  0  0  0  0  0  0  0  0  0  0  # atno 10764 bound_to 10752
  154.1458  135.6571  153.5005 H   0  0  0  0  0  0  0  0  0  0  0  0  # atno 10765 bound_to 10752
  141.1537  133.7778  156.9928 H   0  0  0  0  0  0  0  0  0  0  0  0  # atno 11005 bound_to 11000
  145.1447  139.2551  143.5472 LP  0  0  0  0  0  0  0  0  0  0  0  0  # atno 17320 bound_to 7965
  146.3522  140.1134  142.8603 LP  0  0  0  0  0  0  0  0  0  0  0  0  # atno 17321 bound_to 7965
  139.5152  144.6959  151.5630 LP  0  0  0  0  0  0  0  0  0  0  0  0  # atno 17342 bound_to 10162
  140.6271  143.9148  150.6573 LP  0  0  0  0  0  0  0  0  0  0  0  0  # atno 17343 bound_to 10162
  157.7034  131.0767  150.6748 LP  0  0  0  0  0  0  0  0  0  0  0  0  # atno 17370 bound_to 10713
  156.6807  130.4566  149.5629 LP  0  0  0  0  0  0  0  0  0  0  0  0  # atno 17371 bound_to 10713
  140.0991  134.9546  157.1896 LP  0  0  0  0  0  0  0  0  0  0  0  0  # atno 17394 bound_to 11000
  140.3342  134.2776  155.7223 LP  0  0  0  0  0  0  0  0  0  0  0  0  # atno 17395 bound_to 11000

$$$$
