AV-unprocessed.smi:95|AV-procd|sdf|855|dock5
  -GOLD-   2262017303D 1   1.00000     0.00000
 Structure written by MMmdl.
 41 44  0  0  0  0  0  0  0  0  1 V2000
  149.2058  139.6374  156.2693 O   0  0  0  0  0  0  0  0  0  0  0  0
  149.0252  138.8422  157.1936 C   0  0  0  0  0  0  0  0  0  0  0  0
  147.7140  138.3179  157.5584 C   0  0  0  0  0  0  0  0  0  0  0  0
  146.6332  138.6729  156.8433 F   0  0  0  0  0  0  0  0  0  0  0  0
  147.5662  137.4787  158.6061 C   0  0  0  0  0  0  0  0  0  0  0  0
  148.6201  137.0700  159.4029 N   0  0  0  0  0  0  0  0  0  0  0  0
  148.3562  136.1140  160.5430 C   0  0  2  0  0  0  0  0  0  0  0  0
  146.9230  135.5476  160.5537 C   0  0  0  0  0  0  0  0  0  0  0  0
  146.4004  135.9715  161.9166 C   0  0  0  0  0  0  0  0  0  0  0  0
  147.6796  136.2210  162.7078 C   0  0  0  0  0  0  0  0  0  0  0  0
  148.5539  136.7904  161.7459 O   0  0  0  0  0  0  0  0  0  0  0  0
  149.9351  137.4903  159.0951 C   0  0  0  0  0  0  0  0  0  0  0  0
  150.8971  137.1107  159.7651 O   0  0  0  0  0  0  0  0  0  0  0  0
  150.0914  138.3704  157.9968 N   0  0  0  0  0  0  0  0  0  0  0  0
  151.4195  138.8917  157.7091 C   0  0  0  0  0  0  0  0  0  0  0  0
  151.7770  140.1884  158.4266 C   0  0  0  0  0  0  0  0  0  0  0  0
  152.7367  140.1826  159.4582 C   0  0  0  0  0  0  0  0  0  0  0  0
  153.0346  141.3961  160.1042 C   0  0  0  0  0  0  0  0  0  0  0  0
  152.3600  142.5662  159.6997 C   0  0  0  0  0  0  0  0  0  0  0  0
  152.6367  143.7982  160.3272 C   0  0  0  0  0  0  0  0  0  0  0  0
  151.9579  144.9619  159.9211 C   0  0  0  0  0  0  0  0  0  0  0  0
  151.0047  144.8924  158.8889 C   0  0  0  0  0  0  0  0  0  0  0  0
  150.7311  143.6608  158.2631 C   0  0  0  0  0  0  0  0  0  0  0  0
  151.3994  142.4812  158.6546 C   0  0  0  0  0  0  0  0  0  0  0  0
  151.1219  141.3083  158.0425 N   0  0  0  0  0  0  0  0  0  0  0  0
  146.5719  137.1204  158.8297 H   0  0  0  0  0  0  0  0  0  0  0  0
  149.1011  135.3221  160.4509 H   0  0  0  0  0  0  0  0  0  0  0  0
  146.3161  135.9229  159.7291 H   0  0  0  0  0  0  0  0  0  0  0  0
  146.9781  134.4614  160.4750 H   0  0  0  0  0  0  0  0  0  0  0  0
  145.8306  136.8971  161.8309 H   0  0  0  0  0  0  0  0  0  0  0  0
  145.7569  135.2219  162.3775 H   0  0  0  0  0  0  0  0  0  0  0  0
  147.5271  136.8859  163.5579 H   0  0  0  0  0  0  0  0  0  0  0  0
  148.1000  135.2828  163.0732 H   0  0  0  0  0  0  0  0  0  0  0  0
  152.1571  138.1223  157.9387 H   0  0  0  0  0  0  0  0  0  0  0  0
  151.4817  139.0147  156.6262 H   0  0  0  0  0  0  0  0  0  0  0  0
  153.2368  139.2699  159.7477 H   0  0  0  0  0  0  0  0  0  0  0  0
  153.7681  141.4239  160.8968 H   0  0  0  0  0  0  0  0  0  0  0  0
  153.3680  143.8555  161.1202 H   0  0  0  0  0  0  0  0  0  0  0  0
  152.1678  145.9066  160.4011 H   0  0  0  0  0  0  0  0  0  0  0  0
  150.4823  145.7844  158.5760 H   0  0  0  0  0  0  0  0  0  0  0  0
  149.9969  143.6213  157.4717 H   0  0  0  0  0  0  0  0  0  0  0  0
  1  2  2  0  0  0  0
  2 14  1  0  0  0  0
  2  3  1  0  0  0  0
  3  4  1  0  0  0  0
  3  5  2  0  0  0  0
  5  6  1  0  0  0  0
  5 26  1  0  0  0  0
  6  7  1  0  0  0  0
  6 12  1  0  0  0  0
  7 11  1  0  0  0  0
  7  8  1  0  0  0  0
  7 27  1  0  0  0  0
  8  9  1  0  0  0  0
  8 28  1  0  0  0  0
  8 29  1  0  0  0  0
  9 10  1  0  0  0  0
  9 30  1  0  0  0  0
  9 31  1  0  0  0  0
 10 11  1  0  0  0  0
 10 32  1  0  0  0  0
 10 33  1  0  0  0  0
 12 13  2  0  0  0  0
 12 14  1  0  0  0  0
 14 15  1  0  0  0  0
 15 16  1  0  0  0  0
 15 34  1  0  0  0  0
 15 35  1  0  0  0  0
 16 25  1  0  0  0  0
 16 17  2  0  0  0  0
 17 18  1  0  0  0  0
 17 36  1  0  0  0  0
 18 19  2  0  0  0  0
 18 37  1  0  0  0  0
 19 24  1  0  0  0  0
 19 20  1  0  0  0  0
 20 21  2  0  0  0  0
 20 38  1  0  0  0  0
 21 22  1  0  0  0  0
 21 39  1  0  0  0  0
 22 23  2  0  0  0  0
 22 40  1  0  0  0  0
 23 24  1  0  0  0  0
 23 41  1  0  0  0  0
 24 25  2  0  0  0  0
M  END
> <s_m_source_file>
AV-unprocessed.smi

> <i_m_source_file_index>
95

> <i_lp_mmshare_version>
43012

> <i_f3d_flags>
0

> <s_epik_input>
TzFbQ0gyXVtDSDJdW0NIMl1bQ0BIXTFuKFtjSF1jKEYpYzI9TyljKD1PKW4yW0NIMl1jKFtjSF1bY0hdMyluYyhjMzQpW2NIXVtjSF1bY0hdW2NIXTQ=

> <s_epik_cmdline>
J2VwaWtfcHl0aG9uJywgJy1waCcsICc3LjAnLCAnLXRuJywgJzgnLCAnLW1hJywgJzIwMCcsICctbWV0YWxfYmluZGluZycsICctaW1hZScsICc8aW5maWxlLm1hZT4nLCAnLW9tYWUnLCAnPG91dGZpbGUubWFlPic=

> <r_lp_tautomer_probability>
1

> <r_epik_Ionization_Penalty>
0.0274176

> <r_epik_Ionization_Penalty_Charging>
1.11818e-08

> <r_epik_Ionization_Penalty_Neutral>
0.0274176

> <r_epik_State_Penalty>
0.0224396

> <r_epik_Charging_Adjusted_Penalty>
0.0224396

> <i_epik_Tot_Q>
0

> <i_epik_Tot_abs_Q>
0

> <r_epik_Metal_State_Penalty>
2.28695e-05

> <b_epik_Metal_Only>
0

> <s_epik_Chemistry_Notes>
This compound contains an acetal/aminal-like group ( X-CH(R)-Y where X, Y are N, S, or O) that may be acid/base labile, releasing an aldehyde.

> <s_lp_Force_Field>
OPLS_2005

> <r_lp_Energy>
29.0351

> <b_lp_Chiralities_Consistent>
1

> <s_lp_Variant>
AV-unprocessed.smi:95-1

> <Gold.Version>
5.8.1

> <Gold.Id.Protein>
6NUR|6NUR_protein|mol2

> <Gold.PLP.Fitness>
50.9995

> <Gold.PLP.PLP>
-46.2855

> <Gold.PLP.part.hbond>
-2.0373

> <Gold.PLP.part.metal>
0.0000

> <Gold.PLP.part.buried>
-7.4967

> <Gold.PLP.part.nonpolar>
-37.9352

> <Gold.PLP.part.repulsive>
0.0122

> <Gold.PLP.ligand.clash>
0.0000

> <Gold.PLP.ligand.torsion>
0.6533

> <Gold.PLP.Chemscore.Hbond>
2.0000

> <Gold.PLP.Chemscore.CHOScore>
0.0000

> <Gold.PLP.Chemscore.Metal>
0.0000

> <Gold.Chemscore.Hbonds>
donor molecule, donor type, donor heavy atom, donor atom, acceptor molecule, acceptor atom, score
      P1  H  6896  6909       L1    13  1.00
      P1  H  6931  6943       L1    11  1.00

> <Gold.PLP.Chemscore.Internal.Correction>
0.0205

> <Gold.Rescore>
     Score         DG    S(hbond)    S(metal)    S(lipo)     H(rot)  DE(clash)    DE(int)     intcor
     20.99     -21.79       1.92        0.00     117.50       1.50       0.01       0.79       ----

> <Gold.Chemscore.Fitness>
20.9917

> <Gold.Chemscore.DG>
-21.7902

> <Gold.Chemscore.ZeroCoef>
-5.4800

> <Gold.Chemscore.Hbond>
1.9158

> <Gold.Chemscore.Metal>
0.0000

> <Gold.Chemscore.Lipo>
117.5000

> <Gold.Chemscore.Internal_Hbond>
0.0000

> <Gold.Chemscore.DEClash>
0.0089

> <Gold.Chemscore.DEInternal>
0.7896

> <Gold.Chemscore.Rot>
1.4985

> <Gold.Chemscore.Internal.Correction>
   9.000000E+99

> <Gold.Chemscore.Hbonds>
donor molecule, donor type, donor heavy atom, donor atom, acceptor molecule, acceptor atom, score
      P1  H  6896  6909       L1    13  0.89
      P1  H  6931  6943       L1    11  0.91

> <Gold.Chemscore.Hbond.Weighted>
-6.3989

> <Gold.Chemscore.Metal.Weighted>
-0.0000

> <Gold.Chemscore.Lipo.Weighted>
-13.7475

> <Gold.Chemscore.Internal_Hbond.Weighted>
0.0000

> <Gold.Chemscore.DEClash.Weighted>
0.0089

> <Gold.Chemscore.DEInternal.Weighted>
0.7896

> <Gold.Chemscore.Rot.Weighted>
3.8362

> <Gold.Chemscore.Internal.Correction.Weighted>
   9.000000E+99

> <Gold.Protein.RotatedTorsions>
[ 6907 6896 6895 6894 ] final   96.78 input  -60.11 | X-H torsion
[ 7974 7965 7964 7962 ] final    1.55 input  175.53 | X-H torsion
[ 8008 7997 7996 7995 ] final -178.95 input   59.86 | X-H torsion
[ 10167 10162 10161 10158 ] final   23.08 input  -65.29 | X-H torsion
[ 10718 10713 10712 10709 ] final  -40.04 input   66.30 | X-H torsion
[ 10763 10752 10751 10750 ] final  117.32 input  -60.55 | X-H torsion
[ 11005 11000 10999 10996 ] final   42.79 input  -57.11 | X-H torsion

> <Gold.Protein.ActiveResidues>
 VAL166  LYS551  ARG553  GLY616  TRP617  ASP618  TYR619  PRO620  LYS621  CYS622 
 ASP623  PHE694  ASN695  SER759  ASP760  ASP761  ALA762  ILE779  LEU786  VAL792 
 PHE793  MET794  SER795  GLU796  ALA797  LYS798  CYS799  TRP800  GLU811  SER814 

> <Gold.Protein.RotatedAtoms>
  152.5431  134.0834  159.8245 H   0  0  0  0  0  0  0  0  0  0  0  0  # atno 6907 bound_to 6896
  151.0933  133.5292  159.2621 H   0  0  0  0  0  0  0  0  0  0  0  0  # atno 6908 bound_to 6896
  151.2075  135.0476  159.8952 H   0  0  0  0  0  0  0  0  0  0  0  0  # atno 6909 bound_to 6896
  146.2441  140.0969  142.8349 H   0  0  0  0  0  0  0  0  0  0  0  0  # atno 7974 bound_to 7965
  156.0248  140.1269  157.0320 H   0  0  0  0  0  0  0  0  0  0  0  0  # atno 8008 bound_to 7997
  154.4326  140.1061  156.6085 H   0  0  0  0  0  0  0  0  0  0  0  0  # atno 8009 bound_to 7997
  155.5893  140.3469  155.4564 H   0  0  0  0  0  0  0  0  0  0  0  0  # atno 8010 bound_to 7997
  140.5297  143.9862  150.6459 H   0  0  0  0  0  0  0  0  0  0  0  0  # atno 10167 bound_to 10162
  156.2858  130.4222  149.8290 H   0  0  0  0  0  0  0  0  0  0  0  0  # atno 10718 bound_to 10713
  153.5506  135.3540  155.2758 H   0  0  0  0  0  0  0  0  0  0  0  0  # atno 10763 bound_to 10752
  154.8707  135.4113  154.2941 H   0  0  0  0  0  0  0  0  0  0  0  0  # atno 10764 bound_to 10752
  153.3666  135.7062  153.6739 H   0  0  0  0  0  0  0  0  0  0  0  0  # atno 10765 bound_to 10752
  140.1706  134.4227  155.8260 H   0  0  0  0  0  0  0  0  0  0  0  0  # atno 11005 bound_to 11000
  145.0602  140.9082  143.4943 LP  0  0  0  0  0  0  0  0  0  0  0  0  # atno 17320 bound_to 7965
  145.1083  139.2774  143.5650 LP  0  0  0  0  0  0  0  0  0  0  0  0  # atno 17321 bound_to 7965
  140.3234  143.3123  152.0761 LP  0  0  0  0  0  0  0  0  0  0  0  0  # atno 17342 bound_to 10162
  139.4950  144.6558  151.6575 LP  0  0  0  0  0  0  0  0  0  0  0  0  # atno 17343 bound_to 10162
  156.5720  130.8429  151.3359 LP  0  0  0  0  0  0  0  0  0  0  0  0  # atno 17370 bound_to 10713
  157.7328  130.9720  150.1946 LP  0  0  0  0  0  0  0  0  0  0  0  0  # atno 17371 bound_to 10713
  141.2217  133.6954  156.7756 LP  0  0  0  0  0  0  0  0  0  0  0  0  # atno 17394 bound_to 11000
  140.2382  134.8634  157.3547 LP  0  0  0  0  0  0  0  0  0  0  0  0  # atno 17395 bound_to 11000

$$$$
