#       Name:                AV-unprocessed.smi:682
#       Creating user name   scv26
#       Creation time:       Fri Mar 27 00:29:52 2020


#       File generated by GOLD software.
#

@<TRIPOS>MOLECULE
AV-unprocessed.smi:682
    46    47     1
SMALL
NO_CHARGES


@<TRIPOS>ATOM
      1 ****        -3.8343  -3.0510  -1.7768 C.3            1 S1                 0.0000
      2 ****        -3.2008  -2.5034  -0.6279 O.3            1 S1                 0.0000
      3 ****        -2.9622  -1.0950  -0.6466 C.3            1 S1                 0.0000
      4 ****        -4.2973  -0.3348  -0.6205 C.3            1 S1                 0.0000
      5 ****        -1.9271  -0.6950  -1.7137 C.3            1 S1                 0.0000
      6 ****        -1.3164   0.2176  -0.6526 C.3            1 S1                 0.0000
      7 ****         0.1392   0.2755  -0.7327 N.am           1 S1                 0.0000
      8 ****         0.9091   1.0478   0.0454 C.2            1 S1                 0.0000
      9 ****         0.4619   1.8003   0.9108 O.2            1 S1                 0.0000
     10 ****         2.2106   0.8865  -0.2422 N.am           1 S1                 0.0000
     11 ****         3.3115   1.5261   0.3801 C.2            1 S1                 0.0000
     12 ****         3.3217   2.4709   1.4452 C.2            1 S1                 0.0000
     13 ****         4.5598   2.8343   1.7456 N.2            1 S1                 0.0000
     14 ****         5.3486   2.1386   0.8912 N.pl3          1 S1                 0.0000
     15 ****         6.7846   2.3067   0.9570 C.3            1 S1                 0.0000
     16 ****         4.6174   1.3296   0.0446 C.2            1 S1                 0.0000
     17 ****        -1.8748  -0.7502   0.4226 C.3            1 S1                 0.0000
     18 ****        -2.3645  -0.0981   1.7196 C.3            1 S1                 0.0000
     19 ****        -0.9566  -1.9109   0.8565 C.3            1 S1                 0.0000
     20 ****        -3.8656  -4.1364  -1.6830 H              1 S1                 0.0000
     21 ****        -3.2929  -2.8156  -2.6931 H              1 S1                 0.0000
     22 ****        -4.8628  -2.7054  -1.8775 H              1 S1                 0.0000
     23 ****        -4.1518   0.7368  -0.4875 H              1 S1                 0.0000
     24 ****        -4.9345  -0.6808   0.1936 H              1 S1                 0.0000
     25 ****        -4.8517  -0.4547  -1.5507 H              1 S1                 0.0000
     26 ****        -1.2723  -1.5137  -2.0184 H              1 S1                 0.0000
     27 ****        -2.3389  -0.1713  -2.5769 H              1 S1                 0.0000
     28 ****        -1.7972   1.1986  -0.6370 H              1 S1                 0.0000
     29 ****         0.5855  -0.3141  -1.4197 H              1 S1                 0.0000
     30 ****         2.4373   0.2368  -0.9808 H              1 S1                 0.0000
     31 ****         2.5018   2.8991   2.0021 H              1 S1                 0.0000
     32 ****         7.2648   1.7441   0.1558 H              1 S1                 0.0000
     33 ****         7.1539   1.9432   1.9164 H              1 S1                 0.0000
     34 ****         7.0397   3.3616   0.8504 H              1 S1                 0.0000
     35 ****         5.0794   0.7011  -0.7026 H              1 S1                 0.0000
     36 ****        -1.5329   0.1742   2.3703 H              1 S1                 0.0000
     37 ****        -3.0163  -0.7683   2.2806 H              1 S1                 0.0000
     38 ****        -2.9239   0.8179   1.5314 H              1 S1                 0.0000
     39 ****        -0.1133  -1.5572   1.4506 H              1 S1                 0.0000
     40 ****        -0.5418  -2.4516   0.0057 H              1 S1                 0.0000
     41 ****        -1.4953  -2.6386   1.4643 H              1 S1                 0.0000
     42 ****        -2.3180  -2.9605  -0.5200 LP             1 S1                 0.0000
     43 ****        -3.7788  -2.7039   0.1632 LP             1 S1                 0.0000
     44 ****        -0.5250   1.8577   1.0621 LP             1 S1                 0.0000
     45 ****         1.0854   2.3542   1.4625 LP             1 S1                 0.0000
     46 ****         4.8495   3.4819   2.4504 LP             1 S1                 0.0000
@<TRIPOS>BOND
    1    1    2 1     
    2    1   20 1     
    3    1   21 1     
    4    1   22 1     
    5    2    3 1     
    6    3   17 1     
    7    3    4 1     
    8    3    5 1     
    9    4   23 1     
   10    4   24 1     
   11    4   25 1     
   12    5    6 1     
   13    5   26 1     
   14    5   27 1     
   15    6    7 1     
   16    6   17 1     
   17    6   28 1     
   18    7    8 am    
   19    7   29 1     
   20    8    9 2     
   21    8   10 am    
   22   10   11 1     
   23   10   30 1     
   24   11   16 2     
   25   11   12 1     
   26   12   13 2     
   27   12   31 1     
   28   13   14 1     
   29   14   15 1     
   30   14   16 1     
   31   15   32 1     
   32   15   33 1     
   33   15   34 1     
   34   16   35 1     
   35   17   18 1     
   36   17   19 1     
   37   18   36 1     
   38   18   37 1     
   39   18   38 1     
   40   19   39 1     
   41   19   40 1     
   42   19   41 1     
   43    2   42 1     
   44    2   43 1     
   45    9   44 1     
   46    9   45 1     
   47   13   46 1     
@<TRIPOS>SUBSTRUCTURE
      1 S1             1
@<TRIPOS>SET
LONE_PAIRS      STATIC     ATOMS    <user>   **** ""
5 42 43 44 45 46
DONOR_HYDROGENS      STATIC     ATOMS    <user>   **** ""
2 29 30
ATOM$BLUE        STATIC     ATOMS    COLORGROUP SYSTEM
5 42 43 44 45 46
ATOM$RED        STATIC     ATOMS    COLORGROUP SYSTEM
2 29 30
