AV-unprocessed.smi:563|AV-procd|sdf|2946|dock1
  -GOLD-   2262023443D 1   1.00000     0.00000
 Structure written by MMmdl.
 31 32  0  0  0  0  0  0  0  0  1 V2000
  154.3769  138.7218  154.3249 C   0  0  0  0  0  0  0  0  0  0  0  0
  152.9409  138.8522  154.7015 C   0  0  0  0  0  0  0  0  0  0  0  0
  152.5020  139.6586  155.6715 N   0  0  0  0  0  0  0  0  0  0  0  0
  151.1130  139.6041  155.8309 C   0  0  0  0  0  0  0  0  0  0  0  0
  150.4441  140.4412  156.8815 C   0  0  0  0  0  0  0  0  0  0  0  0
  151.4886  141.0594  157.8117 C   0  0  0  0  0  0  0  0  0  0  0  0
  152.2045  140.3339  158.5019 O   0  0  0  0  0  0  0  0  0  0  0  0
  151.5703  142.3993  157.8150 N   0  0  0  0  0  0  0  0  0  0  0  0
  152.5043  143.1829  158.6189 C   0  0  0  0  0  0  0  0  0  0  0  0
  152.2321  142.9867  160.1229 C   0  0  0  0  0  0  0  0  0  0  0  0
  152.1969  144.3887  160.7340 C   0  0  0  0  0  0  0  0  0  0  0  0
  151.6995  145.2810  159.6017 C   0  0  0  0  0  0  0  0  0  0  0  0
  152.3521  144.6939  158.3500 C   0  0  0  0  0  0  0  0  0  0  0  0
  150.5040  138.7337  154.9607 C   0  0  0  0  0  0  0  0  0  0  0  0
  151.6522  137.9577  153.9054 S   0  0  0  0  0  0  0  0  0  0  0  0
  155.0187  139.0572  155.1400 H   0  0  0  0  0  0  0  0  0  0  0  0
  154.5859  139.3253  153.4415 H   0  0  0  0  0  0  0  0  0  0  0  0
  154.6127  137.6810  154.1024 H   0  0  0  0  0  0  0  0  0  0  0  0
  149.8603  141.2386  156.4200 H   0  0  0  0  0  0  0  0  0  0  0  0
  149.7409  139.8468  157.4667 H   0  0  0  0  0  0  0  0  0  0  0  0
  150.9386  142.9137  157.2180 H   0  0  0  0  0  0  0  0  0  0  0  0
  153.5272  142.8750  158.3936 H   0  0  0  0  0  0  0  0  0  0  0  0
  151.2641  142.5078  160.2803 H   0  0  0  0  0  0  0  0  0  0  0  0
  152.9834  142.3549  160.5978 H   0  0  0  0  0  0  0  0  0  0  0  0
  151.5669  144.4451  161.6219 H   0  0  0  0  0  0  0  0  0  0  0  0
  153.2052  144.6904  161.0213 H   0  0  0  0  0  0  0  0  0  0  0  0
  150.6142  145.2030  159.5221 H   0  0  0  0  0  0  0  0  0  0  0  0
  151.9488  146.3317  159.7524 H   0  0  0  0  0  0  0  0  0  0  0  0
  153.3412  145.1350  158.2202 H   0  0  0  0  0  0  0  0  0  0  0  0
  151.7817  144.9217  157.4485 H   0  0  0  0  0  0  0  0  0  0  0  0
  149.4517  138.5060  154.8756 H   0  0  0  0  0  0  0  0  0  0  0  0
  1  2  1  0  0  0  0
  1 16  1  0  0  0  0
  1 17  1  0  0  0  0
  1 18  1  0  0  0  0
  2 15  1  0  0  0  0
  2  3  2  0  0  0  0
  3  4  1  0  0  0  0
  4  5  1  0  0  0  0
  4 14  2  0  0  0  0
  5  6  1  0  0  0  0
  5 19  1  0  0  0  0
  5 20  1  0  0  0  0
  6  7  2  0  0  0  0
  6  8  1  0  0  0  0
  8  9  1  0  0  0  0
  8 21  1  0  0  0  0
  9 13  1  0  0  0  0
  9 10  1  0  0  0  0
  9 22  1  0  0  0  0
 10 11  1  0  0  0  0
 10 23  1  0  0  0  0
 10 24  1  0  0  0  0
 11 12  1  0  0  0  0
 11 25  1  0  0  0  0
 11 26  1  0  0  0  0
 12 13  1  0  0  0  0
 12 27  1  0  0  0  0
 12 28  1  0  0  0  0
 13 29  1  0  0  0  0
 13 30  1  0  0  0  0
 14 15  1  0  0  0  0
 14 31  1  0  0  0  0
M  END
> <s_m_source_file>
AV-unprocessed.smi

> <i_m_source_file_index>
563

> <i_lp_mmshare_version>
43012

> <i_f3d_flags>
0

> <s_epik_input>
W0NIM11jMW5jKFtjSF1zMSlbQ0gyXUMoPU8pW05IXVtDSF0yW0NIMl1bQ0gyXVtDSDJdW0NIMl0y

> <s_epik_cmdline>
J2VwaWtfcHl0aG9uJywgJy1waCcsICc3LjAnLCAnLXRuJywgJzgnLCAnLW1hJywgJzIwMCcsICctbWV0YWxfYmluZGluZycsICctaW1hZScsICc8aW5maWxlLm1hZT4nLCAnLW9tYWUnLCAnPG91dGZpbGUubWFlPic=

> <r_lp_tautomer_probability>
1

> <r_epik_Ionization_Penalty>
6.26871e-05

> <r_epik_Ionization_Penalty_Charging>
0

> <r_epik_Ionization_Penalty_Neutral>
6.26871e-05

> <r_epik_State_Penalty>
-0

> <r_epik_Charging_Adjusted_Penalty>
0

> <i_epik_Tot_Q>
0

> <i_epik_Tot_abs_Q>
0

> <r_epik_Metal_State_Penalty>
-0

> <b_epik_Metal_Only>
0

> <s_lp_Force_Field>
OPLS_2005

> <r_lp_Energy>
15.9106

> <b_lp_Chiralities_Consistent>
1

> <s_lp_Variant>
AV-unprocessed.smi:563-1

> <Gold.Version>
5.8.1

> <Gold.Id.Protein>
6NUR|6NUR_protein|mol2

> <Gold.PLP.Fitness>
38.4871

> <Gold.PLP.PLP>
-36.3287

> <Gold.PLP.part.hbond>
-1.0000

> <Gold.PLP.part.metal>
0.0000

> <Gold.PLP.part.buried>
-1.7753

> <Gold.PLP.part.nonpolar>
-33.4455

> <Gold.PLP.part.repulsive>
0.0452

> <Gold.PLP.ligand.clash>
0.0000

> <Gold.PLP.ligand.torsion>
0.1250

> <Gold.PLP.Chemscore.Hbond>
0.8000

> <Gold.PLP.Chemscore.CHOScore>
0.0000

> <Gold.PLP.Chemscore.Metal>
0.0000

> <Gold.Chemscore.Hbonds>
donor molecule, donor type, donor heavy atom, donor atom, acceptor molecule, acceptor atom, score
      P1  H  7997  8009       L1     3  0.79

> <Gold.PLP.Chemscore.Internal.Correction>
0.0083

> <Gold.Rescore>
     Score         DG    S(hbond)    S(metal)    S(lipo)     H(rot)  DE(clash)    DE(int)     intcor
     13.63     -15.35       0.11        0.00     109.70       1.29       0.43       1.30       ----

> <Gold.Chemscore.Fitness>
13.6280

> <Gold.Chemscore.DG>
-15.3536

> <Gold.Chemscore.ZeroCoef>
-5.4800

> <Gold.Chemscore.Hbond>
0.1056

> <Gold.Chemscore.Metal>
0.0000

> <Gold.Chemscore.Lipo>
109.6997

> <Gold.Chemscore.Internal_Hbond>
0.0000

> <Gold.Chemscore.DEClash>
0.4251

> <Gold.Chemscore.DEInternal>
1.3005

> <Gold.Chemscore.Rot>
1.2946

> <Gold.Chemscore.Internal.Correction>
   9.000000E+99

> <Gold.Chemscore.Hbonds>
donor molecule, donor type, donor heavy atom, donor atom, acceptor molecule, acceptor atom, score
      P1  H  7997  8009       L1     3  0.11

> <Gold.Chemscore.Hbond.Weighted>
-0.3529

> <Gold.Chemscore.Metal.Weighted>
-0.0000

> <Gold.Chemscore.Lipo.Weighted>
-12.8349

> <Gold.Chemscore.Internal_Hbond.Weighted>
0.0000

> <Gold.Chemscore.DEClash.Weighted>
0.4251

> <Gold.Chemscore.DEInternal.Weighted>
1.3005

> <Gold.Chemscore.Rot.Weighted>
3.3141

> <Gold.Chemscore.Internal.Correction.Weighted>
   9.000000E+99

> <Gold.Protein.RotatedTorsions>
[ 6907 6896 6895 6894 ] final -160.94 input  -60.11 | X-H torsion
[ 7974 7965 7964 7962 ] final  130.15 input  175.53 | X-H torsion
[ 8008 7997 7996 7995 ] final -168.90 input   59.86 | X-H torsion
[ 10167 10162 10161 10158 ] final -156.32 input  -65.29 | X-H torsion
[ 10718 10713 10712 10709 ] final   23.91 input   66.30 | X-H torsion
[ 10763 10752 10751 10750 ] final  176.08 input  -60.55 | X-H torsion
[ 11005 11000 10999 10996 ] final  137.71 input  -57.11 | X-H torsion

> <Gold.Protein.ActiveResidues>
 VAL166  LYS551  ARG553  GLY616  TRP617  ASP618  TYR619  PRO620  LYS621  CYS622 
 ASP623  PHE694  ASN695  SER759  ASP760  ASP761  ALA762  ILE779  LEU786  VAL792 
 PHE793  MET794  SER795  GLU796  ALA797  LYS798  CYS799  TRP800  GLU811  SER814 

> <Gold.Protein.RotatedAtoms>
  151.3569  133.3904  159.2685 H   0  0  0  0  0  0  0  0  0  0  0  0  # atno 6907 bound_to 6896
  150.9757  134.9122  159.7825 H   0  0  0  0  0  0  0  0  0  0  0  0  # atno 6908 bound_to 6896
  152.5200  134.3532  159.9310 H   0  0  0  0  0  0  0  0  0  0  0  0  # atno 6909 bound_to 6896
  145.0210  139.4132  143.5197 H   0  0  0  0  0  0  0  0  0  0  0  0  # atno 7974 bound_to 7965
  155.8977  140.1035  157.1373 H   0  0  0  0  0  0  0  0  0  0  0  0  # atno 8008 bound_to 7997
  154.4022  140.1298  156.4460 H   0  0  0  0  0  0  0  0  0  0  0  0  # atno 8009 bound_to 7997
  155.7460  140.3466  155.5129 H   0  0  0  0  0  0  0  0  0  0  0  0  # atno 8010 bound_to 7997
  139.6860  143.9501  152.2361 H   0  0  0  0  0  0  0  0  0  0  0  0  # atno 10167 bound_to 10162
  157.1726  130.6766  149.6083 H   0  0  0  0  0  0  0  0  0  0  0  0  # atno 10718 bound_to 10713
  154.4762  135.2773  155.1605 H   0  0  0  0  0  0  0  0  0  0  0  0  # atno 10763 bound_to 10752
  154.3334  135.6185  153.5565 H   0  0  0  0  0  0  0  0  0  0  0  0  # atno 10764 bound_to 10752
  152.9870  135.5771  154.5154 H   0  0  0  0  0  0  0  0  0  0  0  0  # atno 10765 bound_to 10752
  140.0133  134.9429  157.0324 H   0  0  0  0  0  0  0  0  0  0  0  0  # atno 11005 bound_to 11000
  146.3485  139.9707  142.8706 LP  0  0  0  0  0  0  0  0  0  0  0  0  # atno 17320 bound_to 7965
  145.1896  140.9805  143.4218 LP  0  0  0  0  0  0  0  0  0  0  0  0  # atno 17321 bound_to 7965
  139.9304  144.6745  150.8369 LP  0  0  0  0  0  0  0  0  0  0  0  0  # atno 17342 bound_to 10162
  140.7668  143.3313  151.2405 LP  0  0  0  0  0  0  0  0  0  0  0  0  # atno 17343 bound_to 10162
  155.9736  130.4674  150.6323 LP  0  0  0  0  0  0  0  0  0  0  0  0  # atno 17370 bound_to 10713
  157.4029  131.0812  151.1292 LP  0  0  0  0  0  0  0  0  0  0  0  0  # atno 17371 bound_to 10713
  140.4515  134.1577  155.7182 LP  0  0  0  0  0  0  0  0  0  0  0  0  # atno 17394 bound_to 11000
  141.1726  133.8579  157.1523 LP  0  0  0  0  0  0  0  0  0  0  0  0  # atno 17395 bound_to 11000

$$$$
