AV-unprocessed.smi:1464|AV-procd|sdf|5938|dock9
  -GOLD-   22720 6 23D 1   1.00000     0.00000
 Structure written by MMmdl.
 40 41  0  0  0  0  0  0  0  0  2 V2000
  148.7344  141.8566  154.4418 C   0  0  0  0  0  0  0  0  0  0  0  0
  147.8520  141.4972  155.6549 C   0  0  1  0  0  0  0  0  0  0  0  0
  146.4652  140.9850  155.2167 C   0  0  0  0  0  0  0  0  0  0  0  0
  146.5335  139.5720  154.6173 C   0  0  0  0  0  0  0  0  0  0  0  0
  147.1818  138.5861  155.5986 C   0  0  0  0  0  0  0  0  0  0  0  0
  148.5729  139.0627  156.0664 C   0  0  2  0  0  0  0  0  0  0  0  0
  149.0891  138.1342  157.0699 N   0  0  0  0  0  0  0  0  0  0  0  0
  148.5287  137.8760  158.2614 C   0  0  0  0  0  0  0  0  0  0  0  0
  147.4874  138.4107  158.6457 O   0  0  0  0  0  0  0  0  0  0  0  0
  149.2801  136.8590  159.1354 C   0  0  0  0  0  0  0  0  0  0  0  0
  148.4499  136.2005  160.1549 N   0  0  0  0  0  0  0  0  0  0  0  0
  147.8736  137.1227  161.1302 N   0  5  0  0  0  0  0  0  0  0  0  0
  147.0855  136.6304  162.1223 C   0  0  0  0  0  0  0  0  0  0  0  0
  146.5740  137.3432  162.9828 O   0  0  0  0  0  0  0  0  0  0  0  0
  146.8413  135.1979  162.1550 C   0  0  0  0  0  0  0  0  0  0  0  0
  147.3721  134.3724  161.2316 C   0  0  0  0  0  0  0  0  0  0  0  0
  148.2206  134.8561  160.1494 C   0  0  0  0  0  0  0  0  0  0  0  0
  148.6962  134.1093  159.2937 O   0  0  0  0  0  0  0  0  0  0  0  0
  148.5090  140.4998  156.6465 C   0  0  1  0  0  0  0  0  0  0  0  0
  149.8735  140.9991  157.1623 C   0  0  0  0  0  0  0  0  0  0  0  0
  149.0133  140.9788  153.8598 H   0  0  0  0  0  0  0  0  0  0  0  0
  149.6539  142.3544  154.7488 H   0  0  0  0  0  0  0  0  0  0  0  0
  148.2128  142.5412  153.7723 H   0  0  0  0  0  0  0  0  0  0  0  0
  147.6851  142.4297  156.1958 H   0  0  0  0  0  0  0  0  0  0  0  0
  145.7986  140.9721  156.0803 H   0  0  0  0  0  0  0  0  0  0  0  0
  146.0154  141.6734  154.5005 H   0  0  0  0  0  0  0  0  0  0  0  0
  145.5301  139.2304  154.3617 H   0  0  0  0  0  0  0  0  0  0  0  0
  147.0965  139.5872  153.6839 H   0  0  0  0  0  0  0  0  0  0  0  0
  146.5273  138.4616  156.4627 H   0  0  0  0  0  0  0  0  0  0  0  0
  147.2596  137.6043  155.1295 H   0  0  0  0  0  0  0  0  0  0  0  0
  149.2486  139.0692  155.2093 H   0  0  0  0  0  0  0  0  0  0  0  0
  149.9418  137.6455  156.8388 H   0  0  0  0  0  0  0  0  0  0  0  0
  149.7302  136.1123  158.4784 H   0  0  0  0  0  0  0  0  0  0  0  0
  150.1189  137.3650  159.6164 H   0  0  0  0  0  0  0  0  0  0  0  0
  146.2189  134.7873  162.9361 H   0  0  0  0  0  0  0  0  0  0  0  0
  147.1634  133.3148  161.2944 H   0  0  0  0  0  0  0  0  0  0  0  0
  147.8530  140.4608  157.5180 H   0  0  0  0  0  0  0  0  0  0  0  0
  150.6376  140.9523  156.3860 H   0  0  0  0  0  0  0  0  0  0  0  0
  150.2272  140.4009  158.0023 H   0  0  0  0  0  0  0  0  0  0  0  0
  149.8088  142.0310  157.5080 H   0  0  0  0  0  0  0  0  0  0  0  0
  1  2  1  0  0  0  0
  1 21  1  0  0  0  0
  1 22  1  0  0  0  0
  1 23  1  0  0  0  0
  2 19  1  0  0  0  0
  2  3  1  0  0  0  0
  2 24  1  0  0  0  0
  3  4  1  0  0  0  0
  3 25  1  0  0  0  0
  3 26  1  0  0  0  0
  4  5  1  0  0  0  0
  4 27  1  0  0  0  0
  4 28  1  0  0  0  0
  5  6  1  0  0  0  0
  5 29  1  0  0  0  0
  5 30  1  0  0  0  0
  6  7  1  0  0  0  0
  6 19  1  0  0  0  0
  6 31  1  0  0  0  0
  7  8  1  0  0  0  0
  7 32  1  0  0  0  0
  8  9  2  0  0  0  0
  8 10  1  0  0  0  0
 10 33  1  0  0  0  0
 10 34  1  0  0  0  0
 10 11  1  0  0  0  0
 11 12  1  0  0  0  0
 11 17  1  0  0  0  0
 12 13  1  0  0  0  0
 13 14  2  0  0  0  0
 13 15  1  0  0  0  0
 15 35  1  0  0  0  0
 15 16  2  0  0  0  0
 16 36  1  0  0  0  0
 16 17  1  0  0  0  0
 17 18  2  0  0  0  0
 19 20  1  0  0  0  0
 19 37  1  0  0  0  0
 20 38  1  0  0  0  0
 20 39  1  0  0  0  0
 20 40  1  0  0  0  0
M  CHG  1  12  -1
M  END
> <s_m_source_file>
AV-unprocessed.smi

> <i_m_source_file_index>
1464

> <i_lp_mmshare_version>
43012

> <i_f3d_flags>
0

> <s_epik_input>
W0NIM11bQ0BASF0xW0NIMl1bQ0gyXVtDSDJdW0NASF0oW0NASF0xW0NIM10pW05IXUMoPU8pW0NIMl1uMltuSF1jKD1PKVtjSF1bY0hdYzI9Tw==

> <s_epik_cmdline>
J2VwaWtfcHl0aG9uJywgJy1waCcsICc3LjAnLCAnLXRuJywgJzgnLCAnLW1hJywgJzIwMCcsICctbWV0YWxfYmluZGluZycsICctaW1hZScsICc8aW5maWxlLm1hZT4nLCAnLW9tYWUnLCAnPG91dGZpbGUubWFlPic=

> <r_lp_tautomer_probability>
1

> <r_epik_Ionization_Penalty>
0.101366

> <r_epik_Ionization_Penalty_Charging>
0.101366

> <r_epik_Ionization_Penalty_Neutral>
1.90469e-08

> <r_epik_State_Penalty>
0.035861

> <r_epik_Charging_Adjusted_Penalty>
0.137227

> <i_epik_Tot_Q>
-1

> <i_epik_Tot_abs_Q>
1

> <r_epik_Metal_State_Penalty>
0.035861

> <b_epik_Metal_Only>
0

> <s_lp_Force_Field>
OPLS_2005

> <r_lp_Energy>
30.3142

> <b_lp_Chiralities_Consistent>
1

> <s_lp_Variant>
AV-unprocessed.smi:1464-4

> <Gold.Version>
5.8.1

> <Gold.Id.Protein>
6NUR|6NUR_protein|mol2

> <Gold.PLP.Fitness>
38.6200

> <Gold.PLP.PLP>
-25.7113

> <Gold.PLP.part.hbond>
-4.2286

> <Gold.PLP.part.metal>
0.0000

> <Gold.PLP.part.buried>
-1.7266

> <Gold.PLP.part.nonpolar>
-20.1683

> <Gold.PLP.part.repulsive>
0.0115

> <Gold.PLP.ligand.clash>
0.0000

> <Gold.PLP.ligand.torsion>
0.3287

> <Gold.PLP.Chemscore.Hbond>
4.5200

> <Gold.PLP.Chemscore.CHOScore>
0.0000

> <Gold.PLP.Chemscore.Metal>
0.0000

> <Gold.Chemscore.Hbonds>
donor molecule, donor type, donor heavy atom, donor atom, acceptor molecule, acceptor atom, score
      P1  H  6896  6909       L1    18  1.00
      P1  H  6931  6943       L1    12  2.00
      P1  H  6934  6947       L1    12  1.57

> <Gold.PLP.Chemscore.Internal.Correction>
0.0061

> <Gold.Rescore>
     Score         DG    S(hbond)    S(metal)    S(lipo)     H(rot)  DE(clash)    DE(int)     intcor
      9.77     -13.07       1.88        0.00      47.17       1.64       0.31       2.99       ----

> <Gold.Chemscore.Fitness>
9.7653

> <Gold.Chemscore.DG>
-13.0687

> <Gold.Chemscore.ZeroCoef>
-5.4800

> <Gold.Chemscore.Hbond>
1.8795

> <Gold.Chemscore.Metal>
0.0000

> <Gold.Chemscore.Lipo>
47.1729

> <Gold.Chemscore.Internal_Hbond>
0.0000

> <Gold.Chemscore.DEClash>
0.3104

> <Gold.Chemscore.DEInternal>
2.9931

> <Gold.Chemscore.Rot>
1.6438

> <Gold.Chemscore.Internal.Correction>
   9.000000E+99

> <Gold.Chemscore.Hbonds>
donor molecule, donor type, donor heavy atom, donor atom, acceptor molecule, acceptor atom, score
      P1  H  6896  6909       L1    18  0.57
      P1  H  6931  6943       L1    12  0.53
      P1  H  6934  6947       L1    12  0.29

> <Gold.Chemscore.Hbond.Weighted>
-6.2775

> <Gold.Chemscore.Metal.Weighted>
-0.0000

> <Gold.Chemscore.Lipo.Weighted>
-5.5192

> <Gold.Chemscore.Internal_Hbond.Weighted>
0.0000

> <Gold.Chemscore.DEClash.Weighted>
0.3104

> <Gold.Chemscore.DEInternal.Weighted>
2.9931

> <Gold.Chemscore.Rot.Weighted>
4.2080

> <Gold.Chemscore.Internal.Correction.Weighted>
   9.000000E+99

> <Gold.Protein.RotatedTorsions>
[ 6907 6896 6895 6894 ] final   28.21 input  -60.11 | X-H torsion
[ 7974 7965 7964 7962 ] final  -43.80 input  175.53 | X-H torsion
[ 8008 7997 7996 7995 ] final -121.68 input   59.86 | X-H torsion
[ 10167 10162 10161 10158 ] final -161.84 input  -65.29 | X-H torsion
[ 10718 10713 10712 10709 ] final   24.31 input   66.30 | X-H torsion
[ 10763 10752 10751 10750 ] final  103.63 input  -60.55 | X-H torsion
[ 11005 11000 10999 10996 ] final  113.73 input  -57.11 | X-H torsion

> <Gold.Protein.ActiveResidues>
 VAL166  LYS551  ARG553  GLY616  TRP617  ASP618  TYR619  PRO620  LYS621  CYS622 
 ASP623  PHE694  ASN695  SER759  ASP760  ASP761  ALA762  ILE779  LEU786  VAL792 
 PHE793  MET794  SER795  GLU796  ALA797  LYS798  CYS799  TRP800  GLU811  SER814 

> <Gold.Protein.RotatedAtoms>
  152.0136  134.9862  160.0568 H   0  0  0  0  0  0  0  0  0  0  0  0  # atno 6907 bound_to 6896
  152.1405  133.4456  159.4773 H   0  0  0  0  0  0  0  0  0  0  0  0  # atno 6908 bound_to 6896
  150.6864  134.2229  159.4447 H   0  0  0  0  0  0  0  0  0  0  0  0  # atno 6909 bound_to 6896
  145.9983  140.7103  142.9283 H   0  0  0  0  0  0  0  0  0  0  0  0  # atno 7974 bound_to 7965
  155.1519  140.0404  157.2823 H   0  0  0  0  0  0  0  0  0  0  0  0  # atno 8008 bound_to 7997
  154.6398  140.2544  155.7309 H   0  0  0  0  0  0  0  0  0  0  0  0  # atno 8009 bound_to 7997
  156.2527  140.2858  156.0786 H   0  0  0  0  0  0  0  0  0  0  0  0  # atno 8010 bound_to 7997
  139.6436  144.0214  152.2110 H   0  0  0  0  0  0  0  0  0  0  0  0  # atno 10167 bound_to 10162
  157.1781  130.6790  149.6102 H   0  0  0  0  0  0  0  0  0  0  0  0  # atno 10718 bound_to 10713
  153.3552  135.3970  155.1676 H   0  0  0  0  0  0  0  0  0  0  0  0  # atno 10763 bound_to 10752
  154.8669  135.3666  154.5170 H   0  0  0  0  0  0  0  0  0  0  0  0  # atno 10764 bound_to 10752
  153.5625  135.7081  153.5601 H   0  0  0  0  0  0  0  0  0  0  0  0  # atno 10765 bound_to 10752
  139.8961  134.9555  156.6784 H   0  0  0  0  0  0  0  0  0  0  0  0  # atno 11005 bound_to 11000
  144.6911  140.3189  143.7235 LP  0  0  0  0  0  0  0  0  0  0  0  0  # atno 17320 bound_to 7965
  145.7526  139.1798  143.2313 LP  0  0  0  0  0  0  0  0  0  0  0  0  # atno 17321 bound_to 7965
  139.9910  144.6362  150.7815 LP  0  0  0  0  0  0  0  0  0  0  0  0  # atno 17342 bound_to 10162
  140.7503  143.2953  151.3220 LP  0  0  0  0  0  0  0  0  0  0  0  0  # atno 17343 bound_to 10162
  155.9728  130.4656  150.6260 LP  0  0  0  0  0  0  0  0  0  0  0  0  # atno 17370 bound_to 10713
  157.3979  131.0805  151.1335 LP  0  0  0  0  0  0  0  0  0  0  0  0  # atno 17371 bound_to 10713
  140.7318  133.9052  155.8217 LP  0  0  0  0  0  0  0  0  0  0  0  0  # atno 17394 bound_to 11000
  141.0147  134.0972  157.4184 LP  0  0  0  0  0  0  0  0  0  0  0  0  # atno 17395 bound_to 11000

$$$$
