AV-unprocessed.smi:1839|AV-procd|sdf|7485|dock9
  -GOLD-   22720 9183D 1   1.00000     0.00000
 Structure written by MMmdl.
 46 47  0  0  0  0  0  0  0  0  1 V2000
  155.3384  132.2834  162.0007 C   0  0  0  0  0  0  0  0  0  0  0  0
  155.5263  133.6713  162.4237 N   0  0  0  0  0  0  0  0  0  0  0  0
  156.6247  133.8637  163.3784 C   0  0  0  0  0  0  0  0  0  0  0  0
  154.9278  134.6814  161.7443 C   0  0  0  0  0  0  0  0  0  0  0  0
  154.5344  134.5453  160.5841 O   0  0  0  0  0  0  0  0  0  0  0  0
  154.8223  135.8612  162.4011 N   0  0  0  0  0  0  0  0  0  0  0  0
  154.5146  135.9471  163.8360 C   0  0  0  0  0  0  0  0  0  0  0  0
  155.3734  137.0479  164.4820 C   0  0  0  0  0  0  0  0  0  0  0  0
  155.1671  138.3934  163.7657 C   0  0  0  0  0  0  0  0  0  0  0  0
  155.3605  138.2545  162.2391 C   0  0  2  0  0  0  0  0  0  0  0  0
  155.0429  139.5708  161.5173 C   0  0  0  0  0  0  0  0  0  0  0  0
  155.3630  139.7259  160.3383 O   0  0  0  0  0  0  0  0  0  0  0  0
  154.4164  140.5131  162.2386 N   0  0  0  0  0  0  0  0  0  0  0  0
  154.0350  141.8309  161.7441 C   0  0  0  0  0  0  0  0  0  0  0  0
  153.4531  141.7584  160.3221 C   0  0  0  0  0  0  0  0  0  0  0  0
  152.6917  143.0166  159.9506 C   0  0  0  0  0  0  0  0  0  0  0  0
  152.2539  143.2279  158.6256 C   0  0  0  0  0  0  0  0  0  0  0  0
  151.5418  144.4073  158.3341 C   0  0  0  0  0  0  0  0  0  0  0  0
  151.2952  145.3252  159.3733 C   0  0  0  0  0  0  0  0  0  0  0  0
  151.7724  145.0202  160.6637 C   0  0  0  0  0  0  0  0  0  0  0  0
  152.4556  143.8919  160.9543 N   0  0  0  0  0  0  0  0  0  0  0  0
  154.4877  137.1023  161.6929 C   0  0  0  0  0  0  0  0  0  0  0  0
  154.3071  132.0924  161.6994 H   0  0  0  0  0  0  0  0  0  0  0  0
  155.5684  131.5897  162.8103 H   0  0  0  0  0  0  0  0  0  0  0  0
  155.9900  132.0504  161.1577 H   0  0  0  0  0  0  0  0  0  0  0  0
  157.1637  134.7966  163.2060 H   0  0  0  0  0  0  0  0  0  0  0  0
  157.3599  133.0618  163.3003 H   0  0  0  0  0  0  0  0  0  0  0  0
  156.2480  133.8663  164.4012 H   0  0  0  0  0  0  0  0  0  0  0  0
  153.4562  136.1827  163.9578 H   0  0  0  0  0  0  0  0  0  0  0  0
  154.6663  135.0005  164.3555 H   0  0  0  0  0  0  0  0  0  0  0  0
  155.1236  137.1462  165.5389 H   0  0  0  0  0  0  0  0  0  0  0  0
  156.4262  136.7678  164.4383 H   0  0  0  0  0  0  0  0  0  0  0  0
  154.1610  138.7559  163.9830 H   0  0  0  0  0  0  0  0  0  0  0  0
  155.8561  139.1359  164.1700 H   0  0  0  0  0  0  0  0  0  0  0  0
  156.4066  138.0029  162.0530 H   0  0  0  0  0  0  0  0  0  0  0  0
  154.1900  140.3034  163.2000 H   0  0  0  0  0  0  0  0  0  0  0  0
  153.3197  142.2928  162.4265 H   0  0  0  0  0  0  0  0  0  0  0  0
  154.9235  142.4630  161.7514 H   0  0  0  0  0  0  0  0  0  0  0  0
  154.2538  141.6014  159.5977 H   0  0  0  0  0  0  0  0  0  0  0  0
  152.7855  140.9007  160.2292 H   0  0  0  0  0  0  0  0  0  0  0  0
  152.4564  142.5026  157.8512 H   0  0  0  0  0  0  0  0  0  0  0  0
  151.1903  144.6040  157.3319 H   0  0  0  0  0  0  0  0  0  0  0  0
  150.7531  146.2403  159.1862 H   0  0  0  0  0  0  0  0  0  0  0  0
  151.6003  145.7009  161.4844 H   0  0  0  0  0  0  0  0  0  0  0  0
  154.6566  137.0036  160.6185 H   0  0  0  0  0  0  0  0  0  0  0  0
  153.4253  137.3172  161.8226 H   0  0  0  0  0  0  0  0  0  0  0  0
  1  2  1  0  0  0  0
  1 23  1  0  0  0  0
  1 24  1  0  0  0  0
  1 25  1  0  0  0  0
  2  3  1  0  0  0  0
  2  4  1  0  0  0  0
  3 26  1  0  0  0  0
  3 27  1  0  0  0  0
  3 28  1  0  0  0  0
  4  5  2  0  0  0  0
  4  6  1  0  0  0  0
  6 22  1  0  0  0  0
  6  7  1  0  0  0  0
  7  8  1  0  0  0  0
  7 29  1  0  0  0  0
  7 30  1  0  0  0  0
  8  9  1  0  0  0  0
  8 31  1  0  0  0  0
  8 32  1  0  0  0  0
  9 10  1  0  0  0  0
  9 33  1  0  0  0  0
  9 34  1  0  0  0  0
 10 11  1  0  0  0  0
 10 22  1  0  0  0  0
 10 35  1  0  0  0  0
 11 12  2  0  0  0  0
 11 13  1  0  0  0  0
 13 14  1  0  0  0  0
 13 36  1  0  0  0  0
 14 15  1  0  0  0  0
 14 37  1  0  0  0  0
 14 38  1  0  0  0  0
 15 16  1  0  0  0  0
 15 39  1  0  0  0  0
 15 40  1  0  0  0  0
 16 21  1  0  0  0  0
 16 17  2  0  0  0  0
 17 18  1  0  0  0  0
 17 41  1  0  0  0  0
 18 19  2  0  0  0  0
 18 42  1  0  0  0  0
 19 20  1  0  0  0  0
 19 43  1  0  0  0  0
 20 21  2  0  0  0  0
 20 44  1  0  0  0  0
 22 45  1  0  0  0  0
 22 46  1  0  0  0  0
M  END
> <s_m_source_file>
AV-unprocessed.smi

> <i_m_source_file_index>
1839

> <i_lp_mmshare_version>
43012

> <i_f3d_flags>
0

> <s_epik_input>
W0NIM11OKFtDSDNdKUMoPU8pTjFbQ0gyXVtDSDJdW0NIMl1bQ0BIXShbQ0gyXTEpQyg9TylbTkhdW0NIMl1bQ0gyXWMyW2NIXVtjSF1bY0hdW2NIXW4y

> <s_epik_cmdline>
J2VwaWtfcHl0aG9uJywgJy1waCcsICc3LjAnLCAnLXRuJywgJzgnLCAnLW1hJywgJzIwMCcsICctbWV0YWxfYmluZGluZycsICctaW1hZScsICc8aW5maWxlLm1hZT4nLCAnLW9tYWUnLCAnPG91dGZpbGUubWFlPic=

> <r_epik_Ionization_Penalty>
0.0268631

> <r_epik_Ionization_Penalty_Charging>
0

> <r_epik_Ionization_Penalty_Neutral>
0.0268631

> <r_epik_State_Penalty>
0.0219025

> <r_epik_Charging_Adjusted_Penalty>
0.0219025

> <i_epik_Tot_Q>
0

> <i_epik_Tot_abs_Q>
0

> <r_epik_Metal_State_Penalty>
0.0209511

> <b_epik_Metal_Only>
0

> <s_lp_Force_Field>
OPLS_2005

> <r_lp_Energy>
47.8256

> <b_lp_Chiralities_Consistent>
1

> <s_lp_Variant>
AV-unprocessed.smi:1839-2

> <Gold.Version>
5.8.1

> <Gold.Id.Protein>
6NUR|6NUR_protein|mol2

> <Gold.PLP.Fitness>
45.9590

> <Gold.PLP.PLP>
-45.1226

> <Gold.PLP.part.hbond>
-1.0000

> <Gold.PLP.part.metal>
0.0000

> <Gold.PLP.part.buried>
-3.7743

> <Gold.PLP.part.nonpolar>
-40.0663

> <Gold.PLP.part.repulsive>
0.0767

> <Gold.PLP.ligand.clash>
1.1464

> <Gold.PLP.ligand.torsion>
1.1684

> <Gold.PLP.Chemscore.Hbond>
1.0000

> <Gold.PLP.Chemscore.CHOScore>
0.0000

> <Gold.PLP.Chemscore.Metal>
0.0000

> <Gold.Chemscore.Hbonds>
donor molecule, donor type, donor heavy atom, donor atom, acceptor molecule, acceptor atom, score
      P1  H  6896  6907       L1     5  0.93

> <Gold.PLP.Chemscore.Internal.Correction>
1.3197

> <Gold.Rescore>
     Score         DG    S(hbond)    S(metal)    S(lipo)     H(rot)  DE(clash)    DE(int)     intcor
     15.83     -19.16       0.95        0.00     123.00       1.52       0.07       3.25       ----

> <Gold.Chemscore.Fitness>
15.8332

> <Gold.Chemscore.DG>
-19.1571

> <Gold.Chemscore.ZeroCoef>
-5.4800

> <Gold.Chemscore.Hbond>
0.9478

> <Gold.Chemscore.Metal>
0.0000

> <Gold.Chemscore.Lipo>
123.0007

> <Gold.Chemscore.Internal_Hbond>
0.0000

> <Gold.Chemscore.DEClash>
0.0699

> <Gold.Chemscore.DEInternal>
3.2541

> <Gold.Chemscore.Rot>
1.5155

> <Gold.Chemscore.Internal.Correction>
   9.000000E+99

> <Gold.Chemscore.Hbonds>
donor molecule, donor type, donor heavy atom, donor atom, acceptor molecule, acceptor atom, score
      P1  H  6896  6907       L1     5  0.88

> <Gold.Chemscore.Hbond.Weighted>
-3.1657

> <Gold.Chemscore.Metal.Weighted>
-0.0000

> <Gold.Chemscore.Lipo.Weighted>
-14.3911

> <Gold.Chemscore.Internal_Hbond.Weighted>
0.0000

> <Gold.Chemscore.DEClash.Weighted>
0.0699

> <Gold.Chemscore.DEInternal.Weighted>
3.2541

> <Gold.Chemscore.Rot.Weighted>
3.8796

> <Gold.Chemscore.Internal.Correction.Weighted>
   9.000000E+99

> <Gold.Protein.RotatedTorsions>
[ 6907 6896 6895 6894 ] final   78.68 input  -60.11 | X-H torsion
[ 7974 7965 7964 7962 ] final -143.01 input  175.53 | X-H torsion
[ 8008 7997 7996 7995 ] final   45.79 input   59.86 | X-H torsion
[ 10167 10162 10161 10158 ] final  -68.31 input  -65.29 | X-H torsion
[ 10718 10713 10712 10709 ] final  119.70 input   66.30 | X-H torsion
[ 10763 10752 10751 10750 ] final  -69.77 input  -60.55 | X-H torsion
[ 11005 11000 10999 10996 ] final  179.84 input  -57.11 | X-H torsion

> <Gold.Protein.ActiveResidues>
 VAL166  LYS551  ARG553  GLY616  TRP617  ASP618  TYR619  PRO620  LYS621  CYS622 
 ASP623  PHE694  ASN695  SER759  ASP760  ASP761  ALA762  ILE779  LEU786  VAL792 
 PHE793  MET794  SER795  GLU796  ALA797  LYS798  CYS799  TRP800  GLU811  SER814 

> <Gold.Protein.RotatedAtoms>
  152.5169  134.3627  159.9290 H   0  0  0  0  0  0  0  0  0  0  0  0  # atno 6907 bound_to 6896
  151.3580  133.3894  159.2694 H   0  0  0  0  0  0  0  0  0  0  0  0  # atno 6908 bound_to 6896
  150.9674  134.9072  159.7826 H   0  0  0  0  0  0  0  0  0  0  0  0  # atno 6909 bound_to 6896
  144.8401  140.5887  143.5458 H   0  0  0  0  0  0  0  0  0  0  0  0  # atno 7974 bound_to 7965
  155.3417  140.3408  155.4239 H   0  0  0  0  0  0  0  0  0  0  0  0  # atno 8008 bound_to 7997
  156.1810  140.1664  156.8311 H   0  0  0  0  0  0  0  0  0  0  0  0  # atno 8009 bound_to 7997
  154.5333  140.0740  156.8366 H   0  0  0  0  0  0  0  0  0  0  0  0  # atno 8010 bound_to 7997
  140.5517  143.2312  151.6899 H   0  0  0  0  0  0  0  0  0  0  0  0  # atno 10167 bound_to 10162
  157.5943  131.1060  150.7933 H   0  0  0  0  0  0  0  0  0  0  0  0  # atno 10718 bound_to 10713
  154.4081  135.6015  153.5937 H   0  0  0  0  0  0  0  0  0  0  0  0  # atno 10763 bound_to 10752
  152.9789  135.5923  154.4103 H   0  0  0  0  0  0  0  0  0  0  0  0  # atno 10764 bound_to 10752
  154.3911  135.2842  155.2132 H   0  0  0  0  0  0  0  0  0  0  0  0  # atno 10765 bound_to 10752
  140.4106  134.6695  157.4612 H   0  0  0  0  0  0  0  0  0  0  0  0  # atno 11005 bound_to 11000
  145.4712  139.1503  143.3813 LP  0  0  0  0  0  0  0  0  0  0  0  0  # atno 17320 bound_to 7965
  146.2694  140.4846  142.8820 LP  0  0  0  0  0  0  0  0  0  0  0  0  # atno 17321 bound_to 7965
  139.5030  144.3807  152.0378 LP  0  0  0  0  0  0  0  0  0  0  0  0  # atno 17342 bound_to 10162
  140.2925  144.3738  150.6084 LP  0  0  0  0  0  0  0  0  0  0  0  0  # atno 17343 bound_to 10162
  156.8348  130.5028  149.5327 LP  0  0  0  0  0  0  0  0  0  0  0  0  # atno 17370 bound_to 10713
  156.1003  130.5963  150.9882 LP  0  0  0  0  0  0  0  0  0  0  0  0  # atno 17371 bound_to 10713
  140.0270  134.6462  155.9159 LP  0  0  0  0  0  0  0  0  0  0  0  0  # atno 17394 bound_to 11000
  141.1822  133.6548  156.5068 LP  0  0  0  0  0  0  0  0  0  0  0  0  # atno 17395 bound_to 11000

$$$$
