#       Name:                AV-unprocessed.smi:2995
#       Creating user name   scv26
#       Creation time:       Fri Mar 27 16:33:15 2020


#       File generated by GOLD software.
#

@<TRIPOS>MOLECULE
AV-unprocessed.smi:2995
    52    54     1
SMALL
NO_CHARGES


@<TRIPOS>ATOM
      1 ****        -4.4112  -3.0606   0.2678 C.3            1 S1                 0.0000
      2 ****        -5.2348  -1.7843   0.2743 C.ar           1 S1                 0.0000
      3 ****        -6.6449  -1.8661   0.2995 C.ar           1 S1                 0.0000
      4 ****        -7.4069  -0.6819   0.3074 C.ar           1 S1                 0.0000
      5 ****        -6.7844   0.5148   0.2943 N.pl3          1 S1                 1.0000
      6 ****        -5.4405   0.6429   0.2694 C.ar           1 S1                 0.0000
      7 ****        -4.6134  -0.5089   0.2497 C.ar           1 S1                 0.0000
      8 ****        -3.1906  -0.4409   0.2457 N.am           1 S1                 0.0000
      9 ****        -2.3990   0.5766  -0.1358 C.2            1 S1                 0.0000
     10 ****        -2.7939   1.6544  -0.5793 O.2            1 S1                 0.0000
     11 ****        -1.1034   0.2624   0.0106 N.am           1 S1                 0.0000
     12 ****         0.0280   1.1253  -0.3219 C.3            1 S1                 0.0000
     13 ****         0.8659   0.4861  -1.4437 C.3            1 S1                 0.0000
     14 ****         2.1479   1.2969  -1.7161 C.3            1 S1                 0.0000
     15 ****         2.9689   1.4769  -0.4862 N.4            1 S1                 1.0000
     16 ****         3.6945   0.2484  -0.0425 C.3            1 S1                 0.0000
     17 ****         4.6276   0.4780   1.1544 C.3            1 S1                 0.0000
     18 ****         5.5984  -0.7055   1.1312 C.3            1 S1                 0.0000
     19 ****         5.6634  -1.1718  -0.3293 C.3            1 S1                 0.0000
     20 ****         4.6578  -0.3092  -1.1008 C.3            1 S1                 0.0000
     21 ****         2.1717   2.1473   0.5786 C.3            1 S1                 0.0000
     22 ****         0.8951   1.3586   0.9274 C.3            1 S1                 0.0000
     23 ****        -5.0476  -3.9460   0.2734 H              1 S1                 0.0000
     24 ****        -3.7677  -3.1031   1.1470 H              1 S1                 0.0000
     25 ****        -3.7839  -3.1036  -0.6231 H              1 S1                 0.0000
     26 ****        -7.1420  -2.8254   0.3140 H              1 S1                 0.0000
     27 ****        -8.4868  -0.6558   0.3285 H              1 S1                 0.0000
     28 ****        -5.0877   1.6629   0.2806 H              1 S1                 0.0000
     29 ****        -2.7180  -1.2919   0.5142 H              1 S1                 0.0000
     30 ****        -0.8797  -0.6501   0.3805 H              1 S1                 0.0000
     31 ****        -0.3218   2.0975  -0.6742 H              1 S1                 0.0000
     32 ****         1.1257  -0.5402  -1.1817 H              1 S1                 0.0000
     33 ****         0.2729   0.4241  -2.3572 H              1 S1                 0.0000
     34 ****         2.7283   0.8375  -2.5152 H              1 S1                 0.0000
     35 ****         1.8725   2.2846  -2.0881 H              1 S1                 0.0000
     36 ****         2.9806  -0.5319   0.2231 H              1 S1                 0.0000
     37 ****         5.1852   1.4066   1.0221 H              1 S1                 0.0000
     38 ****         4.0943   0.5408   2.1034 H              1 S1                 0.0000
     39 ****         6.5792  -0.4305   1.5205 H              1 S1                 0.0000
     40 ****         5.2142  -1.5130   1.7559 H              1 S1                 0.0000
     41 ****         6.6674  -1.0686  -0.7426 H              1 S1                 0.0000
     42 ****         5.3915  -2.2261  -0.3948 H              1 S1                 0.0000
     43 ****         4.1482  -0.8823  -1.8759 H              1 S1                 0.0000
     44 ****         5.1886   0.5094  -1.5896 H              1 S1                 0.0000
     45 ****         2.7697   2.3234   1.4718 H              1 S1                 0.0000
     46 ****         1.8912   3.1386   0.2195 H              1 S1                 0.0000
     47 ****         0.3221   1.9058   1.6769 H              1 S1                 0.0000
     48 ****         1.1620   0.4057   1.3857 H              1 S1                 0.0000
     49 ****         3.6968   2.1317  -0.7351 H              1 S1                 0.0000
     50 ****        -7.3535   1.3616   0.3076 H              1 S1                 0.0000
     51 ****        -3.7741   1.8251  -0.6789 LP             1 S1                 0.0000
     52 ****        -2.1345   2.3595  -0.8402 LP             1 S1                 0.0000
@<TRIPOS>BOND
    1    1    2 1     
    2    1   23 1     
    3    1   24 1     
    4    1   25 1     
    5    2    7 ar    
    6    2    3 ar    
    7    3    4 ar    
    8    3   26 1     
    9    4    5 ar    
   10    4   27 1     
   11    5    6 ar    
   12    5   50 1     
   13    6    7 ar    
   14    6   28 1     
   15    7    8 1     
   16    8    9 am    
   17    8   29 1     
   18    9   10 2     
   19    9   11 am    
   20   11   12 1     
   21   11   30 1     
   22   12   22 1     
   23   12   13 1     
   24   12   31 1     
   25   13   14 1     
   26   13   32 1     
   27   13   33 1     
   28   14   15 1     
   29   14   34 1     
   30   14   35 1     
   31   15   16 1     
   32   15   21 1     
   33   15   49 1     
   34   16   20 1     
   35   16   17 1     
   36   16   36 1     
   37   17   18 1     
   38   17   37 1     
   39   17   38 1     
   40   18   19 1     
   41   18   39 1     
   42   18   40 1     
   43   19   20 1     
   44   19   41 1     
   45   19   42 1     
   46   20   43 1     
   47   20   44 1     
   48   21   22 1     
   49   21   45 1     
   50   21   46 1     
   51   22   47 1     
   52   22   48 1     
   53   10   51 1     
   54   10   52 1     
@<TRIPOS>SUBSTRUCTURE
      1 S1             1
@<TRIPOS>SET
LONE_PAIRS      STATIC     ATOMS    <user>   **** ""
2 51 52
DONOR_HYDROGENS      STATIC     ATOMS    <user>   **** ""
4 50 29 30 49
ATOM$BLUE        STATIC     ATOMS    COLORGROUP SYSTEM
2 51 52
ATOM$RED        STATIC     ATOMS    COLORGROUP SYSTEM
4 50 29 30 49
