AV-unprocessed.smi:2592|AV-procd|sdf|10161|dock10
  -GOLD-   2272014173D 1   1.00000     0.00000
 Structure written by MMmdl.
 42 43  0  0  0  0  0  0  0  0  3 V2000
  151.5916  143.8705  158.0392 C   0  0  0  0  0  0  0  0  0  0  0  0
  151.3607  142.4545  157.6093 C   0  0  0  0  0  0  0  0  0  0  0  0
  150.8430  142.1932  156.3381 N   0  0  0  0  0  0  0  0  0  0  0  0
  150.6946  140.8908  156.0768 C   0  0  0  0  0  0  0  0  0  0  0  0
  150.2100  140.4265  154.9134 N   0  5  0  0  0  0  0  0  0  0  0  0
  148.8989  140.5760  154.6193 C   0  0  0  0  0  0  0  0  0  0  0  0
  148.0351  141.0622  155.3533 O   0  0  0  0  0  0  0  0  0  0  0  0
  148.5682  140.1430  153.3942 N   0  0  0  0  0  0  0  0  0  0  0  0
  147.2381  140.2019  152.7984 C   0  0  0  0  0  0  0  0  0  0  0  0
  146.8759  138.8790  152.1038 C   0  0  0  0  0  0  0  0  0  0  0  0
  146.2183  137.8736  153.0623 C   0  0  0  0  0  0  0  0  0  0  0  0
  146.1992  136.4971  152.5075 N   0  3  0  0  0  0  0  0  0  0  0  0
  145.9064  135.4744  153.5402 C   0  0  0  0  0  0  0  0  0  0  0  0
  145.9513  134.0631  152.9300 C   0  0  0  0  0  0  0  0  0  0  0  0
  145.0315  133.9814  151.8489 O   0  0  0  0  0  0  0  0  0  0  0  0
  145.3514  134.8970  150.8088 C   0  0  0  0  0  0  0  0  0  0  0  0
  145.2870  136.3360  151.3475 C   0  0  0  0  0  0  0  0  0  0  0  0
  151.1852  139.8866  157.4413 S   0  0  0  0  0  0  0  0  0  0  0  0
  151.6035  141.3193  158.3423 C   0  0  0  0  0  0  0  0  0  0  0  0
  152.1511  141.2231  159.7272 C   0  0  0  0  0  0  0  0  0  0  0  0
  150.9107  144.1516  158.8427 H   0  0  0  0  0  0  0  0  0  0  0  0
  151.4394  144.5718  157.2180 H   0  0  0  0  0  0  0  0  0  0  0  0
  152.6096  144.0092  158.4038 H   0  0  0  0  0  0  0  0  0  0  0  0
  149.3059  139.7477  152.8295 H   0  0  0  0  0  0  0  0  0  0  0  0
  146.5227  140.4147  153.5929 H   0  0  0  0  0  0  0  0  0  0  0  0
  147.1794  141.0350  152.0958 H   0  0  0  0  0  0  0  0  0  0  0  0
  146.2088  139.0887  151.2682 H   0  0  0  0  0  0  0  0  0  0  0  0
  147.7771  138.4377  151.6761 H   0  0  0  0  0  0  0  0  0  0  0  0
  146.7875  137.8734  153.9932 H   0  0  0  0  0  0  0  0  0  0  0  0
  145.2053  138.1872  153.3191 H   0  0  0  0  0  0  0  0  0  0  0  0
  146.6337  135.5450  154.3500 H   0  0  0  0  0  0  0  0  0  0  0  0
  144.9232  135.6638  153.9736 H   0  0  0  0  0  0  0  0  0  0  0  0
  146.9578  133.8174  152.5879 H   0  0  0  0  0  0  0  0  0  0  0  0
  145.6802  133.3205  153.6809 H   0  0  0  0  0  0  0  0  0  0  0  0
  146.3405  134.6764  150.4041 H   0  0  0  0  0  0  0  0  0  0  0  0
  144.6386  134.7686  149.9940 H   0  0  0  0  0  0  0  0  0  0  0  0
  144.2655  136.5753  151.6474 H   0  0  0  0  0  0  0  0  0  0  0  0
  145.5554  137.0272  150.5496 H   0  0  0  0  0  0  0  0  0  0  0  0
  153.2206  141.4342  159.7332 H   0  0  0  0  0  0  0  0  0  0  0  0
  152.0014  140.2262  160.1419 H   0  0  0  0  0  0  0  0  0  0  0  0
  151.6615  141.9377  160.3891 H   0  0  0  0  0  0  0  0  0  0  0  0
  147.1347  136.3071  152.1773 H   0  0  0  0  0  0  0  0  0  0  0  0
  1  2  1  0  0  0  0
  1 21  1  0  0  0  0
  1 22  1  0  0  0  0
  1 23  1  0  0  0  0
  2 19  2  0  0  0  0
  2  3  1  0  0  0  0
  3  4  2  0  0  0  0
  4  5  1  0  0  0  0
  4 18  1  0  0  0  0
  5  6  1  0  0  0  0
  6  7  2  0  0  0  0
  6  8  1  0  0  0  0
  8  9  1  0  0  0  0
  8 24  1  0  0  0  0
  9 10  1  0  0  0  0
  9 25  1  0  0  0  0
  9 26  1  0  0  0  0
 10 11  1  0  0  0  0
 10 27  1  0  0  0  0
 10 28  1  0  0  0  0
 11 12  1  0  0  0  0
 11 29  1  0  0  0  0
 11 30  1  0  0  0  0
 12 17  1  0  0  0  0
 12 13  1  0  0  0  0
 12 42  1  0  0  0  0
 13 14  1  0  0  0  0
 13 31  1  0  0  0  0
 13 32  1  0  0  0  0
 14 15  1  0  0  0  0
 14 33  1  0  0  0  0
 14 34  1  0  0  0  0
 15 16  1  0  0  0  0
 16 17  1  0  0  0  0
 16 35  1  0  0  0  0
 16 36  1  0  0  0  0
 17 37  1  0  0  0  0
 17 38  1  0  0  0  0
 18 19  1  0  0  0  0
 19 20  1  0  0  0  0
 20 39  1  0  0  0  0
 20 40  1  0  0  0  0
 20 41  1  0  0  0  0
M  CHG  1   5  -1
M  CHG  1  12   1
M  END
> <s_m_source_file>
AV-unprocessed.smi

> <i_m_source_file_index>
2592

> <i_lp_mmshare_version>
43012

> <i_f3d_flags>
0

> <s_epik_input>
W0NIM11jMW5jKHNjMVtDSDNdKVtOSF1DKD1PKVtOSF1bQ0gyXVtDSDJdW0NIMl1OMltDSDJdW0NIMl1PW0NIMl1bQ0gyXTI=

> <s_epik_cmdline>
J2VwaWtfcHl0aG9uJywgJy1waCcsICc3LjAnLCAnLXRuJywgJzgnLCAnLW1hJywgJzIwMCcsICctbWV0YWxfYmluZGluZycsICctaW1hZScsICc8aW5maWxlLm1hZT4nLCAnLW9tYWUnLCAnPG91dGZpbGUubWFlPic=

> <r_lp_tautomer_probability>
0.999

> <r_epik_Ionization_Penalty>
7.73516

> <r_epik_Ionization_Penalty_Charging>
6.31615

> <r_epik_Ionization_Penalty_Neutral>
1.41901

> <r_epik_State_Penalty>
6.31054

> <r_epik_Charging_Adjusted_Penalty>
12.6267

> <i_epik_Tot_Q>
0

> <i_epik_Tot_abs_Q>
2

> <r_epik_Metal_State_Penalty>
2.25864

> <b_epik_Metal_Only>
1

> <s_lp_Force_Field>
OPLS_2005

> <r_lp_Energy>
6.70997

> <b_lp_Chiralities_Consistent>
1

> <s_lp_Variant>
AV-unprocessed.smi:2592-3

> <Gold.Version>
5.8.1

> <Gold.Id.Protein>
6NUR|6NUR_protein|mol2

> <Gold.PLP.Fitness>
45.1224

> <Gold.PLP.PLP>
-36.1464

> <Gold.PLP.part.hbond>
-2.7996

> <Gold.PLP.part.metal>
0.0000

> <Gold.PLP.part.buried>
-2.9798

> <Gold.PLP.part.nonpolar>
-30.7222

> <Gold.PLP.part.repulsive>
0.8722

> <Gold.PLP.ligand.clash>
0.0000

> <Gold.PLP.ligand.torsion>
1.0753

> <Gold.PLP.Chemscore.Hbond>
3.6960

> <Gold.PLP.Chemscore.CHOScore>
0.0000

> <Gold.PLP.Chemscore.Metal>
0.0000

> <Gold.Chemscore.Hbonds>
donor molecule, donor type, donor heavy atom, donor atom, acceptor molecule, acceptor atom, score
      L1  H     8    24       P1  7957  0.54
      L1  H    12    42       P1  7948  2.00
      P1  H  7989  7998       L1     5  0.95

> <Gold.PLP.Chemscore.Internal.Correction>
0.0387

> <Gold.Rescore>
     Score         DG    S(hbond)    S(metal)    S(lipo)     H(rot)  DE(clash)    DE(int)     intcor
     17.32     -18.58       2.41        0.00      80.84       1.72       0.04       1.22       ----

> <Gold.Chemscore.Fitness>
17.3224

> <Gold.Chemscore.DG>
-18.5813

> <Gold.Chemscore.ZeroCoef>
-5.4800

> <Gold.Chemscore.Hbond>
2.4054

> <Gold.Chemscore.Metal>
0.0000

> <Gold.Chemscore.Lipo>
80.8437

> <Gold.Chemscore.Internal_Hbond>
0.0000

> <Gold.Chemscore.DEClash>
0.0388

> <Gold.Chemscore.DEInternal>
1.2201

> <Gold.Chemscore.Rot>
1.7154

> <Gold.Chemscore.Internal.Correction>
   9.000000E+99

> <Gold.Chemscore.Hbonds>
donor molecule, donor type, donor heavy atom, donor atom, acceptor molecule, acceptor atom, score
      L1  H     8    24       P1  7957  0.54
      L1  H    12    42       P1  7948  1.00
      P1  H  7989  7998       L1     5  0.45

> <Gold.Chemscore.Hbond.Weighted>
-8.0340

> <Gold.Chemscore.Metal.Weighted>
-0.0000

> <Gold.Chemscore.Lipo.Weighted>
-9.4587

> <Gold.Chemscore.Internal_Hbond.Weighted>
0.0000

> <Gold.Chemscore.DEClash.Weighted>
0.0388

> <Gold.Chemscore.DEInternal.Weighted>
1.2201

> <Gold.Chemscore.Rot.Weighted>
4.3914

> <Gold.Chemscore.Internal.Correction.Weighted>
   9.000000E+99

> <Gold.Protein.RotatedTorsions>
[ 6907 6896 6895 6894 ] final   82.85 input  -60.11 | X-H torsion
[ 7974 7965 7964 7962 ] final  -21.50 input  175.53 | X-H torsion
[ 8008 7997 7996 7995 ] final  -22.35 input   59.86 | X-H torsion
[ 10167 10162 10161 10158 ] final  -92.37 input  -65.29 | X-H torsion
[ 10718 10713 10712 10709 ] final  176.23 input   66.30 | X-H torsion
[ 10763 10752 10751 10750 ] final -100.05 input  -60.55 | X-H torsion
[ 11005 11000 10999 10996 ] final  123.12 input  -57.11 | X-H torsion

> <Gold.Protein.ActiveResidues>
 VAL166  LYS551  ARG553  GLY616  TRP617  ASP618  TYR619  PRO620  LYS621  CYS622 
 ASP623  PHE694  ASN695  SER759  ASP760  ASP761  ALA762  ILE779  LEU786  VAL792 
 PHE793  MET794  SER795  GLU796  ALA797  LYS798  CYS799  TRP800  GLU811  SER814 

> <Gold.Protein.RotatedAtoms>
  152.5311  134.2987  159.9069 H   0  0  0  0  0  0  0  0  0  0  0  0  # atno 6907 bound_to 6896
  151.2938  133.4147  159.2642 H   0  0  0  0  0  0  0  0  0  0  0  0  # atno 6908 bound_to 6896
  151.0178  134.9462  159.8100 H   0  0  0  0  0  0  0  0  0  0  0  0  # atno 6909 bound_to 6896
  146.1729  140.4349  142.8525 H   0  0  0  0  0  0  0  0  0  0  0  0  # atno 7974 bound_to 7965
  154.4649  140.2010  156.0145 H   0  0  0  0  0  0  0  0  0  0  0  0  # atno 8008 bound_to 7997
  156.0909  140.3258  155.7785 H   0  0  0  0  0  0  0  0  0  0  0  0  # atno 8009 bound_to 7997
  155.4958  140.0550  157.2937 H   0  0  0  0  0  0  0  0  0  0  0  0  # atno 8010 bound_to 7997
  140.3355  143.2971  151.9894 H   0  0  0  0  0  0  0  0  0  0  0  0  # atno 10167 bound_to 10162
  156.9232  130.9947  151.3001 H   0  0  0  0  0  0  0  0  0  0  0  0  # atno 10718 bound_to 10713
  154.7548  135.4949  153.9354 H   0  0  0  0  0  0  0  0  0  0  0  0  # atno 10763 bound_to 10752
  153.1183  135.6726  153.9387 H   0  0  0  0  0  0  0  0  0  0  0  0  # atno 10764 bound_to 10752
  153.9127  135.3097  155.3427 H   0  0  0  0  0  0  0  0  0  0  0  0  # atno 10765 bound_to 10752
  139.9298  134.9641  156.8212 H   0  0  0  0  0  0  0  0  0  0  0  0  # atno 11005 bound_to 11000
  144.8191  140.6519  143.6364 LP  0  0  0  0  0  0  0  0  0  0  0  0  # atno 17320 bound_to 7965
  145.4290  139.1552  143.4032 LP  0  0  0  0  0  0  0  0  0  0  0  0  # atno 17321 bound_to 7965
  139.4849  144.6200  151.7274 LP  0  0  0  0  0  0  0  0  0  0  0  0  # atno 17342 bound_to 10162
  140.5357  144.0659  150.6069 LP  0  0  0  0  0  0  0  0  0  0  0  0  # atno 17343 bound_to 10162
  157.5894  130.8433  149.8637 LP  0  0  0  0  0  0  0  0  0  0  0  0  # atno 17370 bound_to 10713
  156.0481  130.3723  150.1267 LP  0  0  0  0  0  0  0  0  0  0  0  0  # atno 17371 bound_to 10713
  140.6233  133.9974  155.7628 LP  0  0  0  0  0  0  0  0  0  0  0  0  # atno 17394 bound_to 11000
  141.0880  133.9960  157.3282 LP  0  0  0  0  0  0  0  0  0  0  0  0  # atno 17395 bound_to 11000

$$$$
