AV-unprocessed.smi:2089|AV-procd|sdf|8530|dock1
  -GOLD-   2272011253D 1   1.00000     0.00000
 Structure written by MMmdl.
 40 41  0  0  0  0  0  0  0  0  2 V2000
  149.7172  135.1820  155.6089 C   0  0  0  0  0  0  0  0  0  0  0  0
  150.4469  136.8668  155.7141 S   0  0  0  0  0  0  0  0  0  0  0  0
  150.8053  137.1274  157.1169 O   0  0  0  0  0  0  0  0  0  0  0  0
  151.4588  137.0215  154.6581 O   0  0  0  0  0  0  0  0  0  0  0  0
  149.1099  137.8920  155.3191 N   0  0  0  0  0  0  0  0  0  0  0  0
  147.7699  137.2981  155.2167 C   0  0  0  0  0  0  0  0  0  0  0  0
  146.9755  138.2282  154.3032 C   0  0  0  0  0  0  0  0  0  0  0  0
  148.0435  138.7880  153.3744 C   0  0  0  0  0  0  0  0  0  0  0  0
  149.2902  138.9081  154.2689 C   0  0  1  0  0  0  0  0  0  0  0  0
  149.5034  140.3166  154.8415 C   0  0  0  0  0  0  0  0  0  0  0  0
  149.6772  141.2828  154.0981 O   0  0  0  0  0  0  0  0  0  0  0  0
  149.4716  140.4204  156.1777 N   0  0  0  0  0  0  0  0  0  0  0  0
  149.6222  141.6685  156.9109 C   0  0  0  0  0  0  0  0  0  0  0  0
  151.0658  142.1805  156.8149 C   0  0  0  0  0  0  0  0  0  0  0  0
  151.4094  143.1387  157.9390 C   0  0  0  0  0  0  0  0  0  0  0  0
  152.2946  142.7885  158.9818 C   0  0  0  0  0  0  0  0  0  0  0  0
  152.5767  143.7319  159.9919 C   0  0  0  0  0  0  0  0  0  0  0  0
  151.9701  145.0042  159.9374 C   0  0  0  0  0  0  0  0  0  0  0  0
  151.0949  145.3011  158.8727 C   0  0  0  0  0  0  0  0  0  0  0  0
  150.8491  144.3701  157.9247 N   0  3  0  0  0  0  0  0  0  0  0  0
  150.4712  134.4443  155.8824 H   0  0  0  0  0  0  0  0  0  0  0  0
  149.3797  134.9901  154.5908 H   0  0  0  0  0  0  0  0  0  0  0  0
  148.8723  135.1073  156.2929 H   0  0  0  0  0  0  0  0  0  0  0  0
  147.8451  136.3075  154.7667 H   0  0  0  0  0  0  0  0  0  0  0  0
  147.3145  137.1929  156.2015 H   0  0  0  0  0  0  0  0  0  0  0  0
  146.1752  137.7152  153.7693 H   0  0  0  0  0  0  0  0  0  0  0  0
  146.5290  139.0335  154.8881 H   0  0  0  0  0  0  0  0  0  0  0  0
  148.2393  138.0791  152.5687 H   0  0  0  0  0  0  0  0  0  0  0  0
  147.7383  139.7270  152.9103 H   0  0  0  0  0  0  0  0  0  0  0  0
  150.1645  138.6529  153.6671 H   0  0  0  0  0  0  0  0  0  0  0  0
  149.3120  139.5813  156.7171 H   0  0  0  0  0  0  0  0  0  0  0  0
  148.9316  142.4097  156.5057 H   0  0  0  0  0  0  0  0  0  0  0  0
  149.3500  141.5088  157.9557 H   0  0  0  0  0  0  0  0  0  0  0  0
  151.7635  141.3418  156.8407 H   0  0  0  0  0  0  0  0  0  0  0  0
  151.2216  142.6813  155.8583 H   0  0  0  0  0  0  0  0  0  0  0  0
  152.7544  141.8111  159.0086 H   0  0  0  0  0  0  0  0  0  0  0  0
  153.2513  143.4831  160.7979 H   0  0  0  0  0  0  0  0  0  0  0  0
  152.1736  145.7410  160.7008 H   0  0  0  0  0  0  0  0  0  0  0  0
  150.5884  146.2475  158.7510 H   0  0  0  0  0  0  0  0  0  0  0  0
  150.2132  144.6073  157.1629 H   0  0  0  0  0  0  0  0  0  0  0  0
  1  2  1  0  0  0  0
  1 21  1  0  0  0  0
  1 22  1  0  0  0  0
  1 23  1  0  0  0  0
  2  3  2  0  0  0  0
  2  4  2  0  0  0  0
  2  5  1  0  0  0  0
  5  9  1  0  0  0  0
  5  6  1  0  0  0  0
  6  7  1  0  0  0  0
  6 24  1  0  0  0  0
  6 25  1  0  0  0  0
  7  8  1  0  0  0  0
  7 26  1  0  0  0  0
  7 27  1  0  0  0  0
  8  9  1  0  0  0  0
  8 28  1  0  0  0  0
  8 29  1  0  0  0  0
  9 10  1  0  0  0  0
  9 30  1  0  0  0  0
 10 11  2  0  0  0  0
 10 12  1  0  0  0  0
 12 13  1  0  0  0  0
 12 31  1  0  0  0  0
 13 14  1  0  0  0  0
 13 32  1  0  0  0  0
 13 33  1  0  0  0  0
 14 15  1  0  0  0  0
 14 34  1  0  0  0  0
 14 35  1  0  0  0  0
 15 20  1  0  0  0  0
 15 16  2  0  0  0  0
 16 17  1  0  0  0  0
 16 36  1  0  0  0  0
 17 18  2  0  0  0  0
 17 37  1  0  0  0  0
 18 19  1  0  0  0  0
 18 38  1  0  0  0  0
 19 20  2  0  0  0  0
 19 39  1  0  0  0  0
 20 40  1  0  0  0  0
M  CHG  1  20   1
M  END
> <s_m_source_file>
AV-unprocessed.smi

> <i_m_source_file_index>
2089

> <i_lp_mmshare_version>
43012

> <i_f3d_flags>
0

> <s_epik_input>
W0NIM11TKD1PKSg9TylOMVtDSDJdW0NIMl1bQ0gyXVtDQEhdMUMoPU8pW05IXVtDSDJdW0NIMl1jMltjSF1bY0hdW2NIXVtjSF1uMg==

> <s_epik_cmdline>
J2VwaWtfcHl0aG9uJywgJy1waCcsICc3LjAnLCAnLXRuJywgJzgnLCAnLW1hJywgJzIwMCcsICctbWV0YWxfYmluZGluZycsICctaW1hZScsICc8aW5maWxlLm1hZT4nLCAnLW9tYWUnLCAnPG91dGZpbGUubWFlPic=

> <r_epik_Ionization_Penalty>
1.90116

> <r_epik_Ionization_Penalty_Charging>
1.90116

> <r_epik_Ionization_Penalty_Neutral>
1.4017e-07

> <r_epik_State_Penalty>
2.02245

> <r_epik_Charging_Adjusted_Penalty>
3.9236

> <i_epik_Tot_Q>
1

> <i_epik_Tot_abs_Q>
1

> <r_epik_Metal_State_Penalty>
2.04621

> <b_epik_Metal_Only>
0

> <s_lp_Force_Field>
OPLS_2005

> <r_lp_Energy>
11.7086

> <b_lp_Chiralities_Consistent>
1

> <s_lp_Variant>
AV-unprocessed.smi:2089-3

> <Gold.Version>
5.8.1

> <Gold.Id.Protein>
6NUR|6NUR_protein|mol2

> <Gold.PLP.Fitness>
46.3189

> <Gold.PLP.PLP>
-35.6225

> <Gold.PLP.part.hbond>
-4.2038

> <Gold.PLP.part.metal>
0.0000

> <Gold.PLP.part.buried>
-1.4712

> <Gold.PLP.part.nonpolar>
-29.8546

> <Gold.PLP.part.repulsive>
1.1190

> <Gold.PLP.ligand.clash>
0.0000

> <Gold.PLP.ligand.torsion>
0.5318

> <Gold.PLP.Chemscore.Hbond>
3.7147

> <Gold.PLP.Chemscore.CHOScore>
0.0000

> <Gold.PLP.Chemscore.Metal>
0.0000

> <Gold.Chemscore.Hbonds>
donor molecule, donor type, donor heavy atom, donor atom, acceptor molecule, acceptor atom, score
      L1  H    20    40       P1  8028  2.00
      P1  H  7989  7998       L1    11  0.33
      P1  H  8011  8017       L1    11  0.60
      P1  H 10752 10764       L1     4  0.78

> <Gold.PLP.Chemscore.Internal.Correction>
0.6159

> <Gold.Rescore>
     Score         DG    S(hbond)    S(metal)    S(lipo)     H(rot)  DE(clash)    DE(int)     intcor
     17.41     -19.33       2.38        0.00      94.31       2.00       1.24       0.67       ----

> <Gold.Chemscore.Fitness>
17.4073

> <Gold.Chemscore.DG>
-19.3261

> <Gold.Chemscore.ZeroCoef>
-5.4800

> <Gold.Chemscore.Hbond>
2.3780

> <Gold.Chemscore.Metal>
0.0000

> <Gold.Chemscore.Lipo>
94.3127

> <Gold.Chemscore.Internal_Hbond>
0.0000

> <Gold.Chemscore.DEClash>
1.2446

> <Gold.Chemscore.DEInternal>
0.6742

> <Gold.Chemscore.Rot>
2.0043

> <Gold.Chemscore.Internal.Correction>
   9.000000E+99

> <Gold.Chemscore.Hbonds>
donor molecule, donor type, donor heavy atom, donor atom, acceptor molecule, acceptor atom, score
      L1  H    20    40       P1  8028  0.49
      P1  H  7989  7998       L1    11  0.08
      P1  H  8011  8017       L1    11  0.59
      P1  H 10752 10764       L1     4  0.74

> <Gold.Chemscore.Hbond.Weighted>
-7.9424

> <Gold.Chemscore.Metal.Weighted>
-0.0000

> <Gold.Chemscore.Lipo.Weighted>
-11.0346

> <Gold.Chemscore.Internal_Hbond.Weighted>
0.0000

> <Gold.Chemscore.DEClash.Weighted>
1.2446

> <Gold.Chemscore.DEInternal.Weighted>
0.6742

> <Gold.Chemscore.Rot.Weighted>
5.1309

> <Gold.Chemscore.Internal.Correction.Weighted>
   9.000000E+99

> <Gold.Protein.RotatedTorsions>
[ 6907 6896 6895 6894 ] final  168.57 input  -60.11 | X-H torsion
[ 7974 7965 7964 7962 ] final  -22.61 input  175.53 | X-H torsion
[ 8008 7997 7996 7995 ] final -132.04 input   59.86 | X-H torsion
[ 10167 10162 10161 10158 ] final -135.47 input  -65.29 | X-H torsion
[ 10718 10713 10712 10709 ] final  170.71 input   66.30 | X-H torsion
[ 10763 10752 10751 10750 ] final  -90.49 input  -60.55 | X-H torsion
[ 11005 11000 10999 10996 ] final  144.50 input  -57.11 | X-H torsion

> <Gold.Protein.ActiveResidues>
 VAL166  LYS551  ARG553  GLY616  TRP617  ASP618  TYR619  PRO620  LYS621  CYS622 
 ASP623  PHE694  ASN695  SER759  ASP760  ASP761  ALA762  ILE779  LEU786  VAL792 
 PHE793  MET794  SER795  GLU796  ALA797  LYS798  CYS799  TRP800  GLU811  SER814 

> <Gold.Protein.RotatedAtoms>
  151.8455  133.3431  159.3656 H   0  0  0  0  0  0  0  0  0  0  0  0  # atno 6907 bound_to 6896
  150.7222  134.5350  159.5728 H   0  0  0  0  0  0  0  0  0  0  0  0  # atno 6908 bound_to 6896
  152.2832  134.7805  160.0443 H   0  0  0  0  0  0  0  0  0  0  0  0  # atno 6909 bound_to 6896
  146.1665  140.4503  142.8550 H   0  0  0  0  0  0  0  0  0  0  0  0  # atno 7974 bound_to 7965
  155.3224  140.0463  157.3040 H   0  0  0  0  0  0  0  0  0  0  0  0  # atno 8008 bound_to 7997
  154.5373  140.2276  155.8667 H   0  0  0  0  0  0  0  0  0  0  0  0  # atno 8009 bound_to 7997
  156.1847  140.3065  155.9222 H   0  0  0  0  0  0  0  0  0  0  0  0  # atno 8010 bound_to 7997
  139.8776  143.6879  152.2631 H   0  0  0  0  0  0  0  0  0  0  0  0  # atno 10167 bound_to 10162
  157.0041  131.0185  151.2822 H   0  0  0  0  0  0  0  0  0  0  0  0  # atno 10718 bound_to 10713
  154.6663  135.5302  153.8081 H   0  0  0  0  0  0  0  0  0  0  0  0  # atno 10763 bound_to 10752
  153.0473  135.6518  154.0795 H   0  0  0  0  0  0  0  0  0  0  0  0  # atno 10764 bound_to 10752
  154.0698  135.2955  155.3290 H   0  0  0  0  0  0  0  0  0  0  0  0  # atno 10765 bound_to 10752
  140.0637  134.9190  157.1228 H   0  0  0  0  0  0  0  0  0  0  0  0  # atno 11005 bound_to 11000
  144.8100  140.6369  143.6421 LP  0  0  0  0  0  0  0  0  0  0  0  0  # atno 17320 bound_to 7965
  145.4453  139.1530  143.3948 LP  0  0  0  0  0  0  0  0  0  0  0  0  # atno 17321 bound_to 7965
  139.7226  144.7599  151.0931 LP  0  0  0  0  0  0  0  0  0  0  0  0  # atno 17342 bound_to 10162
  140.7750  143.5189  150.9561 LP  0  0  0  0  0  0  0  0  0  0  0  0  # atno 17343 bound_to 10162
  157.5368  130.8094  149.7982 LP  0  0  0  0  0  0  0  0  0  0  0  0  # atno 17370 bound_to 10713
  156.0160  130.3813  150.2110 LP  0  0  0  0  0  0  0  0  0  0  0  0  # atno 17371 bound_to 10713
  140.3731  134.2368  155.7176 LP  0  0  0  0  0  0  0  0  0  0  0  0  # atno 17394 bound_to 11000
  141.1984  133.8037  157.0585 LP  0  0  0  0  0  0  0  0  0  0  0  0  # atno 17395 bound_to 11000

$$$$
