AV-unprocessed.smi:2200|AV-procd|sdf|8925|dock4
  -GOLD-   2272012143D 1   1.00000     0.00000
 Structure written by MMmdl.
 31 31  0  0  0  0  0  0  0  0  1 V2000
  153.1211  143.6693  158.8656 C   0  0  0  0  0  0  0  0  0  0  0  0
  151.8333  144.5014  158.9472 C   0  0  0  0  0  0  0  0  0  0  0  0
  151.7928  145.3162  160.2521 C   0  0  0  0  0  0  0  0  0  0  0  0
  150.5898  143.6022  158.7736 C   0  0  0  0  0  0  0  0  0  0  0  0
  150.4431  143.1062  157.4092 N   0  0  0  0  0  0  0  0  0  0  0  0
  150.5444  141.8205  157.0404 C   0  0  0  0  0  0  0  0  0  0  0  0
  150.7325  140.9024  157.8397 O   0  0  0  0  0  0  0  0  0  0  0  0
  150.3951  141.5306  155.5405 C   0  0  0  0  0  0  0  0  0  0  0  0
  150.5458  140.1032  155.2235 N   0  0  0  0  0  0  0  0  0  0  0  0
  151.6415  139.3913  155.6910 C   0  0  0  0  0  0  0  0  0  0  0  0
  151.8469  138.0794  155.4248 C   0  0  0  0  0  0  0  0  0  0  0  0
  150.8954  137.3334  154.6082 C   0  0  0  0  0  0  0  0  0  0  0  0
  150.9932  136.1442  154.3137 O   0  0  0  0  0  0  0  0  0  0  0  0
  149.8081  138.0850  154.1548 N   0  0  0  0  0  0  0  0  0  0  0  0
  149.5907  139.4371  154.4244 C   0  0  0  0  0  0  0  0  0  0  0  0
  148.5983  140.0066  153.9714 O   0  0  0  0  0  0  0  0  0  0  0  0
  149.1240  137.6114  153.5828 H   0  0  0  0  0  0  0  0  0  0  0  0
  153.1735  142.9393  159.6741 H   0  0  0  0  0  0  0  0  0  0  0  0
  154.0046  144.3051  158.9323 H   0  0  0  0  0  0  0  0  0  0  0  0
  153.1789  143.1265  157.9217 H   0  0  0  0  0  0  0  0  0  0  0  0
  151.8584  145.2106  158.1190 H   0  0  0  0  0  0  0  0  0  0  0  0
  151.7421  144.6642  161.1249 H   0  0  0  0  0  0  0  0  0  0  0  0
  150.9312  145.9838  160.2835 H   0  0  0  0  0  0  0  0  0  0  0  0
  152.6834  145.9368  160.3530 H   0  0  0  0  0  0  0  0  0  0  0  0
  150.6296  142.7590  159.4654 H   0  0  0  0  0  0  0  0  0  0  0  0
  149.6886  144.1620  159.0261 H   0  0  0  0  0  0  0  0  0  0  0  0
  150.2787  143.7949  156.6891 H   0  0  0  0  0  0  0  0  0  0  0  0
  149.4159  141.8913  155.2227 H   0  0  0  0  0  0  0  0  0  0  0  0
  151.1178  142.1173  154.9691 H   0  0  0  0  0  0  0  0  0  0  0  0
  152.3755  139.9041  156.2962 H   0  0  0  0  0  0  0  0  0  0  0  0
  152.7208  137.5794  155.8169 H   0  0  0  0  0  0  0  0  0  0  0  0
  1  2  1  0  0  0  0
  1 18  1  0  0  0  0
  1 19  1  0  0  0  0
  1 20  1  0  0  0  0
  2  3  1  0  0  0  0
  2  4  1  0  0  0  0
  2 21  1  0  0  0  0
  3 22  1  0  0  0  0
  3 23  1  0  0  0  0
  3 24  1  0  0  0  0
  4  5  1  0  0  0  0
  4 25  1  0  0  0  0
  4 26  1  0  0  0  0
  5  6  1  0  0  0  0
  5 27  1  0  0  0  0
  6  7  2  0  0  0  0
  6  8  1  0  0  0  0
  8  9  1  0  0  0  0
  8 28  1  0  0  0  0
  8 29  1  0  0  0  0
  9 15  1  0  0  0  0
  9 10  1  0  0  0  0
 10 11  2  0  0  0  0
 10 30  1  0  0  0  0
 11 12  1  0  0  0  0
 11 31  1  0  0  0  0
 12 13  2  0  0  0  0
 12 14  1  0  0  0  0
 14 17  1  0  0  0  0
 14 15  1  0  0  0  0
 15 16  2  0  0  0  0
M  END
> <s_m_source_file>
AV-unprocessed.smi

> <i_m_source_file_index>
2200

> <i_lp_mmshare_version>
43012

> <i_f3d_flags>
0

> <s_epik_input>
W0NIM11bQ0hdKFtDSDNdKVtDSDJdW05IXUMoPU8pW0NIMl1uMVtjSF1bY0hdYyg9TylbbkhdYzE9Tw==

> <s_epik_cmdline>
J2VwaWtfcHl0aG9uJywgJy1waCcsICc3LjAnLCAnLXRuJywgJzgnLCAnLW1hJywgJzIwMCcsICctbWV0YWxfYmluZGluZycsICctaW1hZScsICc8aW5maWxlLm1hZT4nLCAnLW9tYWUnLCAnPG91dGZpbGUubWFlPic=

> <r_lp_tautomer_probability>
0.999537

> <r_epik_Ionization_Penalty>
0.00328917

> <r_epik_Ionization_Penalty_Charging>
0.00328916

> <r_epik_Ionization_Penalty_Neutral>
1.93017e-08

> <r_epik_State_Penalty>
0.00232387

> <r_epik_Charging_Adjusted_Penalty>
0.00561303

> <i_epik_Tot_Q>
0

> <i_epik_Tot_abs_Q>
0

> <r_epik_Metal_State_Penalty>
0.365274

> <b_epik_Metal_Only>
0

> <s_lp_Force_Field>
OPLS_2005

> <r_lp_Energy>
3.18145

> <b_lp_Chiralities_Consistent>
1

> <s_lp_Variant>
AV-unprocessed.smi:2200-1

> <Gold.Version>
5.8.1

> <Gold.Id.Protein>
6NUR|6NUR_protein|mol2

> <Gold.PLP.Fitness>
42.7191

> <Gold.PLP.PLP>
-36.0895

> <Gold.PLP.part.hbond>
-2.5724

> <Gold.PLP.part.metal>
0.0000

> <Gold.PLP.part.buried>
-4.8002

> <Gold.PLP.part.nonpolar>
-30.6724

> <Gold.PLP.part.repulsive>
1.8043

> <Gold.PLP.ligand.clash>
0.0000

> <Gold.PLP.ligand.torsion>
0.1915

> <Gold.PLP.Chemscore.Hbond>
2.3349

> <Gold.PLP.Chemscore.CHOScore>
0.0000

> <Gold.PLP.Chemscore.Metal>
0.0000

> <Gold.Chemscore.Hbonds>
donor molecule, donor type, donor heavy atom, donor atom, acceptor molecule, acceptor atom, score
      L1  H     5    27       P1  8028  0.90
      L1  H    14    17       P1  7948  0.49
      P1  H 10752 10764       L1    13  1.00

> <Gold.PLP.Chemscore.Internal.Correction>
0.0079

> <Gold.Rescore>
     Score         DG    S(hbond)    S(metal)    S(lipo)     H(rot)  DE(clash)    DE(int)     intcor
     14.48     -16.82       2.61        0.00      66.62       2.01       0.59       1.75       ----

> <Gold.Chemscore.Fitness>
14.4794

> <Gold.Chemscore.DG>
-16.8234

> <Gold.Chemscore.ZeroCoef>
-5.4800

> <Gold.Chemscore.Hbond>
2.6069

> <Gold.Chemscore.Metal>
0.0000

> <Gold.Chemscore.Lipo>
66.6220

> <Gold.Chemscore.Internal_Hbond>
0.0000

> <Gold.Chemscore.DEClash>
0.5925

> <Gold.Chemscore.DEInternal>
1.7514

> <Gold.Chemscore.Rot>
2.0150

> <Gold.Chemscore.Internal.Correction>
   9.000000E+99

> <Gold.Chemscore.Hbonds>
donor molecule, donor type, donor heavy atom, donor atom, acceptor molecule, acceptor atom, score
      L1  H     5    27       P1  8028  0.87
      L1  H    14    17       P1  7948  0.49
      P1  H 10752 10764       L1    13  0.67

> <Gold.Chemscore.Hbond.Weighted>
-8.7069

> <Gold.Chemscore.Metal.Weighted>
-0.0000

> <Gold.Chemscore.Lipo.Weighted>
-7.7948

> <Gold.Chemscore.Internal_Hbond.Weighted>
0.0000

> <Gold.Chemscore.DEClash.Weighted>
0.5925

> <Gold.Chemscore.DEInternal.Weighted>
1.7514

> <Gold.Chemscore.Rot.Weighted>
5.1583

> <Gold.Chemscore.Internal.Correction.Weighted>
   9.000000E+99

> <Gold.Protein.RotatedTorsions>
[ 6907 6896 6895 6894 ] final  -96.88 input  -60.11 | X-H torsion
[ 7974 7965 7964 7962 ] final    4.07 input  175.53 | X-H torsion
[ 8008 7997 7996 7995 ] final   -5.45 input   59.86 | X-H torsion
[ 10167 10162 10161 10158 ] final    7.67 input  -65.29 | X-H torsion
[ 10718 10713 10712 10709 ] final  139.66 input   66.30 | X-H torsion
[ 10763 10752 10751 10750 ] final  -67.48 input  -60.55 | X-H torsion
[ 11005 11000 10999 10996 ] final  -34.63 input  -57.11 | X-H torsion

> <Gold.Protein.ActiveResidues>
 VAL166  LYS551  ARG553  GLY616  TRP617  ASP618  TYR619  PRO620  LYS621  CYS622 
 ASP623  PHE694  ASN695  SER759  ASP760  ASP761  ALA762  ILE779  LEU786  VAL792 
 PHE793  MET794  SER795  GLU796  ALA797  LYS798  CYS799  TRP800  GLU811  SER814 

> <Gold.Protein.RotatedAtoms>
  150.7001  134.1434  159.4113 H   0  0  0  0  0  0  0  0  0  0  0  0  # atno 6907 bound_to 6896
  151.9418  135.0207  160.0545 H   0  0  0  0  0  0  0  0  0  0  0  0  # atno 6908 bound_to 6896
  152.2087  133.4859  159.5135 H   0  0  0  0  0  0  0  0  0  0  0  0  # atno 6909 bound_to 6896
  146.2444  140.0590  142.8370 H   0  0  0  0  0  0  0  0  0  0  0  0  # atno 7974 bound_to 7965
  154.6038  140.2458  155.7757 H   0  0  0  0  0  0  0  0  0  0  0  0  # atno 8008 bound_to 7997
  156.2328  140.2960  156.0185 H   0  0  0  0  0  0  0  0  0  0  0  0  # atno 8009 bound_to 7997
  155.2166  140.0399  157.2932 H   0  0  0  0  0  0  0  0  0  0  0  0  # atno 8010 bound_to 7997
  140.6358  143.7888  150.7358 H   0  0  0  0  0  0  0  0  0  0  0  0  # atno 10167 bound_to 10162
  157.4119  131.1029  151.0445 H   0  0  0  0  0  0  0  0  0  0  0  0  # atno 10718 bound_to 10713
  154.3750  135.6087  153.5760 H   0  0  0  0  0  0  0  0  0  0  0  0  # atno 10763 bound_to 10752
  152.9789  135.5847  154.4477 H   0  0  0  0  0  0  0  0  0  0  0  0  # atno 10764 bound_to 10752
  154.4237  135.2846  155.1936 H   0  0  0  0  0  0  0  0  0  0  0  0  # atno 10765 bound_to 10752
  140.9731  133.7098  156.1557 H   0  0  0  0  0  0  0  0  0  0  0  0  # atno 11005 bound_to 11000
  145.0917  140.9288  143.4765 LP  0  0  0  0  0  0  0  0  0  0  0  0  # atno 17320 bound_to 7965
  145.0764  139.2993  143.5806 LP  0  0  0  0  0  0  0  0  0  0  0  0  # atno 17321 bound_to 7965
  140.1509  143.4358  152.2131 LP  0  0  0  0  0  0  0  0  0  0  0  0  # atno 17342 bound_to 10162
  139.5569  144.7379  151.4268 LP  0  0  0  0  0  0  0  0  0  0  0  0  # atno 17343 bound_to 10162
  157.1406  130.6141  149.5554 LP  0  0  0  0  0  0  0  0  0  0  0  0  # atno 17370 bound_to 10713
  155.9853  130.4882  150.7026 LP  0  0  0  0  0  0  0  0  0  0  0  0  # atno 17371 bound_to 10713
  140.7299  134.4266  157.5567 LP  0  0  0  0  0  0  0  0  0  0  0  0  # atno 17394 bound_to 11000
  139.8920  134.8766  156.2292 LP  0  0  0  0  0  0  0  0  0  0  0  0  # atno 17395 bound_to 11000

$$$$
