AV-unprocessed.smi:1013|AV-procd|sdf|4427|dock1
  -GOLD-   22720 2383D 1   1.00000     0.00000
 Structure written by MMmdl.
 30 31  0  0  0  0  0  0  0  0  3 V2000
  148.7911  139.0186  155.7314 O   0  0  0  0  0  0  0  0  0  0  0  0
  149.5336  139.8235  155.1280 C   0  0  0  0  0  0  0  0  0  0  0  0
  150.2376  139.5444  154.1306 O   0  5  0  0  0  0  0  0  0  0  0  0
  149.5666  141.2704  155.6488 C   0  0  1  0  0  0  0  0  0  0  0  0
  151.0262  141.6869  155.9495 C   0  0  0  0  0  0  0  0  0  0  0  0
  151.2135  142.1975  157.2983 N   0  0  0  0  0  0  0  0  0  0  0  0
  150.5506  143.2374  157.9135 C   0  0  0  0  0  0  0  0  0  0  0  0
  151.0804  143.3749  159.1642 C   0  0  0  0  0  0  0  0  0  0  0  0
  152.0903  142.3714  159.2253 C   0  0  0  0  0  0  0  0  0  0  0  0
  153.0173  142.0454  160.3667 C   0  0  0  0  0  0  0  0  0  0  0  0
  152.8232  140.7891  160.7670 F   0  0  0  0  0  0  0  0  0  0  0  0
  154.2868  142.1834  159.9848 F   0  0  0  0  0  0  0  0  0  0  0  0
  152.7847  142.8693  161.3884 F   0  0  0  0  0  0  0  0  0  0  0  0
  152.1678  141.6759  158.0989 N   0  0  0  0  0  0  0  0  0  0  0  0
  148.9596  142.1750  154.6457 N   0  3  0  0  0  0  0  0  0  0  0  0
  147.7052  141.6793  154.0416 C   0  0  0  0  0  0  0  0  0  0  0  0
  146.6003  142.7064  153.9835 C   0  0  0  0  0  0  0  0  0  0  0  0
  146.5651  141.6115  155.0282 C   0  0  0  0  0  0  0  0  0  0  0  0
  148.9866  141.3353  156.5719 H   0  0  0  0  0  0  0  0  0  0  0  0
  151.6952  140.8347  155.8206 H   0  0  0  0  0  0  0  0  0  0  0  0
  151.3613  142.4537  155.2488 H   0  0  0  0  0  0  0  0  0  0  0  0
  149.7643  143.7871  157.4171 H   0  0  0  0  0  0  0  0  0  0  0  0
  150.7944  144.0902  159.9210 H   0  0  0  0  0  0  0  0  0  0  0  0
  148.7480  143.0445  155.1129 H   0  0  0  0  0  0  0  0  0  0  0  0
  147.8027  140.9014  153.2864 H   0  0  0  0  0  0  0  0  0  0  0  0
  146.8214  143.7181  154.3193 H   0  0  0  0  0  0  0  0  0  0  0  0
  145.8944  142.6350  153.1584 H   0  0  0  0  0  0  0  0  0  0  0  0
  145.8300  140.8205  154.8944 H   0  0  0  0  0  0  0  0  0  0  0  0
  146.7582  141.8968  156.0608 H   0  0  0  0  0  0  0  0  0  0  0  0
  149.6385  142.3504  153.9188 H   0  0  0  0  0  0  0  0  0  0  0  0
  1  2  2  0  0  0  0
  2  3  1  0  0  0  0
  2  4  1  0  0  0  0
  4  5  1  0  0  0  0
  4 15  1  0  0  0  0
  4 19  1  0  0  0  0
  5  6  1  0  0  0  0
  5 20  1  0  0  0  0
  5 21  1  0  0  0  0
  6 14  1  0  0  0  0
  6  7  1  0  0  0  0
  7  8  2  0  0  0  0
  7 22  1  0  0  0  0
  8  9  1  0  0  0  0
  8 23  1  0  0  0  0
  9 10  1  0  0  0  0
  9 14  2  0  0  0  0
 10 11  1  0  0  0  0
 10 12  1  0  0  0  0
 10 13  1  0  0  0  0
 15 16  1  0  0  0  0
 15 24  1  0  0  0  0
 15 30  1  0  0  0  0
 16 18  1  0  0  0  0
 16 17  1  0  0  0  0
 16 25  1  0  0  0  0
 17 18  1  0  0  0  0
 17 26  1  0  0  0  0
 17 27  1  0  0  0  0
 18 28  1  0  0  0  0
 18 29  1  0  0  0  0
M  CHG  1   3  -1
M  CHG  1  15   1
M  END
> <s_m_source_file>
AV-unprocessed.smi

> <i_m_source_file_index>
1013

> <i_lp_mmshare_version>
43012

> <i_f3d_flags>
0

> <s_epik_input>
W0NIMl0xW0NIMl1bQ0hdMVtOSF1bQ0BIXShDKD1PKVtPSF0pW0NIMl1uMltjSF1bY0hdYyhuMilDKEYpKEYpRg==

> <s_epik_cmdline>
J2VwaWtfcHl0aG9uJywgJy1waCcsICc3LjAnLCAnLXRuJywgJzgnLCAnLW1hJywgJzIwMCcsICctbWV0YWxfYmluZGluZycsICctaW1hZScsICc8aW5maWxlLm1hZT4nLCAnLW9tYWUnLCAnPG91dGZpbGUubWFlPic=

> <r_lp_tautomer_probability>
1

> <r_epik_Ionization_Penalty>
0.183175

> <r_epik_Ionization_Penalty_Charging>
0.183175

> <r_epik_Ionization_Penalty_Neutral>
3.57035e-11

> <r_epik_State_Penalty>
0.172705

> <r_epik_Charging_Adjusted_Penalty>
0.35588

> <i_epik_Tot_Q>
0

> <i_epik_Tot_abs_Q>
2

> <r_epik_Metal_State_Penalty>
0.172705

> <b_epik_Metal_Only>
0

> <s_lp_Force_Field>
OPLS_2005

> <r_lp_Energy>
10.483

> <b_lp_Chiralities_Consistent>
1

> <s_lp_Variant>
AV-unprocessed.smi:1013-2

> <Gold.Version>
5.8.1

> <Gold.Id.Protein>
6NUR|6NUR_protein|mol2

> <Gold.PLP.Fitness>
45.3564

> <Gold.PLP.PLP>
-35.0388

> <Gold.PLP.part.hbond>
-2.0000

> <Gold.PLP.part.metal>
0.0000

> <Gold.PLP.part.buried>
-5.4860

> <Gold.PLP.part.nonpolar>
-27.5312

> <Gold.PLP.part.repulsive>
1.7847

> <Gold.PLP.ligand.clash>
0.0000

> <Gold.PLP.ligand.torsion>
1.2923

> <Gold.PLP.Chemscore.Hbond>
3.0000

> <Gold.PLP.Chemscore.CHOScore>
1.0000

> <Gold.PLP.Chemscore.Metal>
0.0000

> <Gold.Chemscore.Hbonds>
donor molecule, donor type, donor heavy atom, donor atom, acceptor molecule, acceptor atom, score
      L1  H    15    24       P1  8028  2.00
      P1  H  7989  7998       L1     3  1.00
      L1  C     7    22       P1  8028  1.00

> <Gold.PLP.Chemscore.Internal.Correction>
0.9023

> <Gold.Rescore>
     Score         DG    S(hbond)    S(metal)    S(lipo)     H(rot)  DE(clash)    DE(int)     intcor
     11.72     -13.79       1.96        0.00      71.80       2.60       0.84       1.23       ----

> <Gold.Chemscore.Fitness>
11.7222

> <Gold.Chemscore.DG>
-13.7910

> <Gold.Chemscore.ZeroCoef>
-5.4800

> <Gold.Chemscore.Hbond>
1.9638

> <Gold.Chemscore.Metal>
0.0000

> <Gold.Chemscore.Lipo>
71.7971

> <Gold.Chemscore.Internal_Hbond>
0.0000

> <Gold.Chemscore.DEClash>
0.8365

> <Gold.Chemscore.DEInternal>
1.2323

> <Gold.Chemscore.Rot>
2.5970

> <Gold.Chemscore.Internal.Correction>
   9.000000E+99

> <Gold.Chemscore.Hbonds>
donor molecule, donor type, donor heavy atom, donor atom, acceptor molecule, acceptor atom, score
      L1  H    15    24       P1  8028  1.00
      P1  H  7989  7998       L1     3  0.91

> <Gold.Chemscore.Hbond.Weighted>
-6.5591

> <Gold.Chemscore.Metal.Weighted>
-0.0000

> <Gold.Chemscore.Lipo.Weighted>
-8.4003

> <Gold.Chemscore.Internal_Hbond.Weighted>
0.0000

> <Gold.Chemscore.DEClash.Weighted>
0.8365

> <Gold.Chemscore.DEInternal.Weighted>
1.2323

> <Gold.Chemscore.Rot.Weighted>
6.6484

> <Gold.Chemscore.Internal.Correction.Weighted>
   9.000000E+99

> <Gold.Protein.RotatedTorsions>
[ 6907 6896 6895 6894 ] final   52.35 input  -60.11 | X-H torsion
[ 7974 7965 7964 7962 ] final   79.55 input  175.53 | X-H torsion
[ 8008 7997 7996 7995 ] final -176.90 input   59.86 | X-H torsion
[ 10167 10162 10161 10158 ] final -162.08 input  -65.29 | X-H torsion
[ 10718 10713 10712 10709 ] final   96.29 input   66.30 | X-H torsion
[ 10763 10752 10751 10750 ] final   43.88 input  -60.55 | X-H torsion
[ 11005 11000 10999 10996 ] final   28.70 input  -57.11 | X-H torsion

> <Gold.Protein.ActiveResidues>
 VAL166  LYS551  ARG553  GLY616  TRP617  ASP618  TYR619  PRO620  LYS621  CYS622 
 ASP623  PHE694  ASN695  SER759  ASP760  ASP761  ALA762  ILE779  LEU786  VAL792 
 PHE793  MET794  SER795  GLU796  ALA797  LYS798  CYS799  TRP800  GLU811  SER814 

> <Gold.Protein.RotatedAtoms>
  152.3223  134.7364  160.0310 H   0  0  0  0  0  0  0  0  0  0  0  0  # atno 6907 bound_to 6896
  151.7808  133.3344  159.3479 H   0  0  0  0  0  0  0  0  0  0  0  0  # atno 6908 bound_to 6896
  150.7377  134.5863  159.6009 H   0  0  0  0  0  0  0  0  0  0  0  0  # atno 6909 bound_to 6896
  145.6628  139.2476  143.1913 H   0  0  0  0  0  0  0  0  0  0  0  0  # atno 7974 bound_to 7965
  156.0004  140.1219  157.0552 H   0  0  0  0  0  0  0  0  0  0  0  0  # atno 8008 bound_to 7997
  154.4240  140.1108  156.5758 H   0  0  0  0  0  0  0  0  0  0  0  0  # atno 8009 bound_to 7997
  155.6220  140.3472  155.4657 H   0  0  0  0  0  0  0  0  0  0  0  0  # atno 8010 bound_to 7997
  139.6418  144.0245  152.2098 H   0  0  0  0  0  0  0  0  0  0  0  0  # atno 10167 bound_to 10162
  157.6929  131.0573  150.4469 H   0  0  0  0  0  0  0  0  0  0  0  0  # atno 10718 bound_to 10713
  152.9852  135.6088  154.3183 H   0  0  0  0  0  0  0  0  0  0  0  0  # atno 10763 bound_to 10752
  154.2894  135.2775  155.2663 H   0  0  0  0  0  0  0  0  0  0  0  0  # atno 10764 bound_to 10752
  154.4965  135.5878  153.6555 H   0  0  0  0  0  0  0  0  0  0  0  0  # atno 10765 bound_to 10752
  140.3128  134.2631  155.7731 H   0  0  0  0  0  0  0  0  0  0  0  0  # atno 11005 bound_to 11000
  146.1111  140.7427  142.9503 LP  0  0  0  0  0  0  0  0  0  0  0  0  # atno 17320 bound_to 7965
  144.7083  140.3940  143.7100 LP  0  0  0  0  0  0  0  0  0  0  0  0  # atno 17321 bound_to 7965
  139.9937  144.6343  150.7792 LP  0  0  0  0  0  0  0  0  0  0  0  0  # atno 17342 bound_to 10162
  140.7495  143.2939  151.3256 LP  0  0  0  0  0  0  0  0  0  0  0  0  # atno 17343 bound_to 10162
  156.4823  130.4076  149.6454 LP  0  0  0  0  0  0  0  0  0  0  0  0  # atno 17370 bound_to 10713
  156.3495  130.7424  151.2382 LP  0  0  0  0  0  0  0  0  0  0  0  0  # atno 17371 bound_to 10713
  141.2104  133.7719  156.9932 LP  0  0  0  0  0  0  0  0  0  0  0  0  # atno 17394 bound_to 11000
  140.1010  134.9535  157.1922 LP  0  0  0  0  0  0  0  0  0  0  0  0  # atno 17395 bound_to 11000

$$$$
