AV-unprocessed.smi:1406|AV-procd|sdf|5709|dock1
  -GOLD-   22720 5343D 1   1.00000     0.00000
 Structure written by MMmdl.
 41 43  0  0  0  0  0  0  0  0  2 V2000
  149.8027  137.4444  154.8805 C   0  0  0  0  0  0  0  0  0  0  0  0
  150.6291  136.2096  155.2938 C   0  0  2  0  0  0  0  0  0  0  0  0
  149.7912  134.9223  155.3366 C   0  0  0  0  0  0  0  0  0  0  0  0
  149.7299  134.2450  156.3631 O   0  0  0  0  0  0  0  0  0  0  0  0
  149.1496  134.5948  154.2037 N   0  0  0  0  0  0  0  0  0  0  0  0
  148.3229  133.4067  154.0142 C   0  0  2  0  0  0  0  0  0  0  0  0
  149.1011  132.1067  154.1795 C   0  0  0  0  0  0  0  0  0  0  0  0
  148.1997  131.0985  153.4658 C   0  0  0  0  0  0  0  0  0  0  0  0
  147.5773  131.8362  152.3432 N   0  3  1  0  0  0  0  0  0  0  0  0
  146.1971  131.4070  152.0096 C   0  0  0  0  0  0  0  0  0  0  0  0
  145.6466  132.2278  150.8295 C   0  0  0  0  0  0  0  0  0  0  0  0
  145.7825  133.7506  151.0379 C   0  0  0  0  0  0  0  0  0  0  0  0
  146.4582  134.1054  152.3717 C   0  0  0  0  0  0  0  0  0  0  0  0
  147.7575  133.2960  152.5871 C   0  0  1  0  0  0  0  0  0  0  0  0
  151.3141  136.4045  156.5655 N   0  0  0  0  0  0  0  0  0  0  0  0
  150.8141  136.5977  157.7881 C   0  0  0  0  0  0  0  0  0  0  0  0
  151.7342  136.7912  158.7224 N   0  0  0  0  0  0  0  0  0  0  0  0
  152.8606  136.7088  157.9539 C   0  0  0  0  0  0  0  0  0  0  0  0
  152.6650  136.4903  156.6537 N   0  0  0  0  0  0  0  0  0  0  0  0
  149.3403  137.2987  153.9037 H   0  0  0  0  0  0  0  0  0  0  0  0
  150.4363  138.3292  154.8118 H   0  0  0  0  0  0  0  0  0  0  0  0
  149.0066  137.6646  155.5928 H   0  0  0  0  0  0  0  0  0  0  0  0
  151.4003  136.0716  154.5336 H   0  0  0  0  0  0  0  0  0  0  0  0
  149.2549  135.2084  153.4086 H   0  0  0  0  0  0  0  0  0  0  0  0
  147.5048  133.3969  154.7379 H   0  0  0  0  0  0  0  0  0  0  0  0
  150.0651  132.1700  153.6720 H   0  0  0  0  0  0  0  0  0  0  0  0
  149.2826  131.8479  155.2232 H   0  0  0  0  0  0  0  0  0  0  0  0
  148.7472  130.2239  153.1137 H   0  0  0  0  0  0  0  0  0  0  0  0
  147.4289  130.7534  154.1571 H   0  0  0  0  0  0  0  0  0  0  0  0
  146.1985  130.3460  151.7577 H   0  0  0  0  0  0  0  0  0  0  0  0
  145.5513  131.5218  152.8818 H   0  0  0  0  0  0  0  0  0  0  0  0
  146.1773  131.9451  149.9192 H   0  0  0  0  0  0  0  0  0  0  0  0
  144.6013  131.9675  150.6590 H   0  0  0  0  0  0  0  0  0  0  0  0
  146.3643  134.1727  150.2177 H   0  0  0  0  0  0  0  0  0  0  0  0
  144.8021  134.2252  150.9865 H   0  0  0  0  0  0  0  0  0  0  0  0
  146.6705  135.1741  152.4030 H   0  0  0  0  0  0  0  0  0  0  0  0
  145.7602  133.9144  153.1882 H   0  0  0  0  0  0  0  0  0  0  0  0
  148.5094  133.6304  151.8701 H   0  0  0  0  0  0  0  0  0  0  0  0
  149.7548  136.6019  157.9987 H   0  0  0  0  0  0  0  0  0  0  0  0
  153.8537  136.8210  158.3633 H   0  0  0  0  0  0  0  0  0  0  0  0
  148.1368  131.6342  151.5269 H   0  0  0  0  0  0  0  0  0  0  0  0
  1  2  1  0  0  0  0
  1 20  1  0  0  0  0
  1 21  1  0  0  0  0
  1 22  1  0  0  0  0
  2  3  1  0  0  0  0
  2 15  1  0  0  0  0
  2 23  1  0  0  0  0
  3  4  2  0  0  0  0
  3  5  1  0  0  0  0
  5  6  1  0  0  0  0
  5 24  1  0  0  0  0
  6 14  1  0  0  0  0
  6  7  1  0  0  0  0
  6 25  1  0  0  0  0
  7  8  1  0  0  0  0
  7 26  1  0  0  0  0
  7 27  1  0  0  0  0
  8  9  1  0  0  0  0
  8 28  1  0  0  0  0
  8 29  1  0  0  0  0
  9 14  1  0  0  0  0
  9 10  1  0  0  0  0
  9 41  1  0  0  0  0
 10 11  1  0  0  0  0
 10 30  1  0  0  0  0
 10 31  1  0  0  0  0
 11 12  1  0  0  0  0
 11 32  1  0  0  0  0
 11 33  1  0  0  0  0
 12 13  1  0  0  0  0
 12 34  1  0  0  0  0
 12 35  1  0  0  0  0
 13 14  1  0  0  0  0
 13 36  1  0  0  0  0
 13 37  1  0  0  0  0
 14 38  1  0  0  0  0
 15 19  1  0  0  0  0
 15 16  1  0  0  0  0
 16 17  2  0  0  0  0
 16 39  1  0  0  0  0
 17 18  1  0  0  0  0
 18 19  2  0  0  0  0
 18 40  1  0  0  0  0
M  CHG  1   9   1
M  END
> <s_m_source_file>
AV-unprocessed.smi

> <i_m_source_file_index>
1406

> <i_lp_mmshare_version>
43012

> <i_f3d_flags>
0

> <s_epik_input>
bjFbY0hdbltjSF1uMVtDQEhdKFtDSDNdKUMoPU8pW05IXVtDQEhdKFtDSDJdW0NIMl0yKVtDQEBIXShOMjMpW0NIMl1bQ0gyXVtDSDJdW0NIMl0z

> <s_epik_cmdline>
J2VwaWtfcHl0aG9uJywgJy1waCcsICc3LjAnLCAnLXRuJywgJzgnLCAnLW1hJywgJzIwMCcsICctbWV0YWxfYmluZGluZycsICctaW1hZScsICc8aW5maWxlLm1hZT4nLCAnLW9tYWUnLCAnPG91dGZpbGUubWFlPic=

> <r_lp_tautomer_probability>
1

> <r_epik_Ionization_Penalty>
0.00197066

> <r_epik_Ionization_Penalty_Charging>
0.00196223

> <r_epik_Ionization_Penalty_Neutral>
8.43107e-06

> <r_epik_State_Penalty>
0.00133866

> <r_epik_Charging_Adjusted_Penalty>
0.00330089

> <i_epik_Tot_Q>
1

> <i_epik_Tot_abs_Q>
1

> <r_epik_Metal_State_Penalty>
-0

> <b_epik_Metal_Only>
0

> <s_lp_Force_Field>
OPLS_2005

> <r_lp_Energy>
45.3265

> <b_lp_Chiralities_Consistent>
1

> <s_lp_Variant>
AV-unprocessed.smi:1406-1

> <Gold.Version>
5.8.1

> <Gold.Id.Protein>
6NUR|6NUR_protein|mol2

> <Gold.PLP.Fitness>
39.4681

> <Gold.PLP.PLP>
-28.2419

> <Gold.PLP.part.hbond>
-4.0000

> <Gold.PLP.part.metal>
0.0000

> <Gold.PLP.part.buried>
-3.9851

> <Gold.PLP.part.nonpolar>
-21.6305

> <Gold.PLP.part.repulsive>
0.0120

> <Gold.PLP.ligand.clash>
0.0000

> <Gold.PLP.ligand.torsion>
0.0622

> <Gold.PLP.Chemscore.Hbond>
3.7492

> <Gold.PLP.Chemscore.CHOScore>
0.0000

> <Gold.PLP.Chemscore.Metal>
0.0000

> <Gold.Chemscore.Hbonds>
donor molecule, donor type, donor heavy atom, donor atom, acceptor molecule, acceptor atom, score
      L1  H     5    24       P1  7948  0.90
      L1  H     9    41       P1 10747  1.00
      P1  H  6896  6907       L1    17  0.80
      P1  H 10752 10763       L1    19  1.00

> <Gold.PLP.Chemscore.Internal.Correction>
0.1028

> <Gold.Rescore>
     Score         DG    S(hbond)    S(metal)    S(lipo)     H(rot)  DE(clash)    DE(int)     intcor
     16.75     -18.01       3.25        0.00      55.44       1.89       0.04       1.22       ----

> <Gold.Chemscore.Fitness>
16.7482

> <Gold.Chemscore.DG>
-18.0052

> <Gold.Chemscore.ZeroCoef>
-5.4800

> <Gold.Chemscore.Hbond>
3.2538

> <Gold.Chemscore.Metal>
0.0000

> <Gold.Chemscore.Lipo>
55.4443

> <Gold.Chemscore.Internal_Hbond>
0.0000

> <Gold.Chemscore.DEClash>
0.0357

> <Gold.Chemscore.DEInternal>
1.2213

> <Gold.Chemscore.Rot>
1.8865

> <Gold.Chemscore.Internal.Correction>
   9.000000E+99

> <Gold.Chemscore.Hbonds>
donor molecule, donor type, donor heavy atom, donor atom, acceptor molecule, acceptor atom, score
      L1  H     5    24       P1  7948  0.18
      L1  H     9    41       P1 10747  1.00
      P1  H  6896  6907       L1    17  0.24
      P1  H 10752 10763       L1    19  0.44

> <Gold.Chemscore.Hbond.Weighted>
-10.8678

> <Gold.Chemscore.Metal.Weighted>
-0.0000

> <Gold.Chemscore.Lipo.Weighted>
-6.4870

> <Gold.Chemscore.Internal_Hbond.Weighted>
0.0000

> <Gold.Chemscore.DEClash.Weighted>
0.0357

> <Gold.Chemscore.DEInternal.Weighted>
1.2213

> <Gold.Chemscore.Rot.Weighted>
4.8295

> <Gold.Chemscore.Internal.Correction.Weighted>
   9.000000E+99

> <Gold.Protein.RotatedTorsions>
[ 6907 6896 6895 6894 ] final   -4.76 input  -60.11 | X-H torsion
[ 7974 7965 7964 7962 ] final  118.54 input  175.53 | X-H torsion
[ 8008 7997 7996 7995 ] final  -41.89 input   59.86 | X-H torsion
[ 10167 10162 10161 10158 ] final  -65.84 input  -65.29 | X-H torsion
[ 10718 10713 10712 10709 ] final  133.53 input   66.30 | X-H torsion
[ 10763 10752 10751 10750 ] final  100.28 input  -60.55 | X-H torsion
[ 11005 11000 10999 10996 ] final   14.43 input  -57.11 | X-H torsion

> <Gold.Protein.ActiveResidues>
 VAL166  LYS551  ARG553  GLY616  TRP617  ASP618  TYR619  PRO620  LYS621  CYS622 
 ASP623  PHE694  ASN695  SER759  ASP760  ASP761  ALA762  ILE779  LEU786  VAL792 
 PHE793  MET794  SER795  GLU796  ALA797  LYS798  CYS799  TRP800  GLU811  SER814 

> <Gold.Protein.RotatedAtoms>
  151.4925  135.1058  159.9807 H   0  0  0  0  0  0  0  0  0  0  0  0  # atno 6907 bound_to 6896
  152.4735  133.8080  159.6999 H   0  0  0  0  0  0  0  0  0  0  0  0  # atno 6908 bound_to 6896
  150.8758  133.7378  159.2973 H   0  0  0  0  0  0  0  0  0  0  0  0  # atno 6909 bound_to 6896
  145.1540  139.3194  143.4552 H   0  0  0  0  0  0  0  0  0  0  0  0  # atno 7974 bound_to 7965
  154.4001  140.1488  156.3265 H   0  0  0  0  0  0  0  0  0  0  0  0  # atno 8008 bound_to 7997
  155.8482  140.3459  155.5655 H   0  0  0  0  0  0  0  0  0  0  0  0  # atno 8009 bound_to 7997
  155.8013  140.0870  157.1946 H   0  0  0  0  0  0  0  0  0  0  0  0  # atno 8010 bound_to 7997
  140.5700  143.2317  151.6557 H   0  0  0  0  0  0  0  0  0  0  0  0  # atno 10167 bound_to 10162
  157.4764  131.1083  150.9738 H   0  0  0  0  0  0  0  0  0  0  0  0  # atno 10718 bound_to 10713
  153.3119  135.4084  155.1343 H   0  0  0  0  0  0  0  0  0  0  0  0  # atno 10763 bound_to 10752
  154.8578  135.3566  154.5712 H   0  0  0  0  0  0  0  0  0  0  0  0  # atno 10764 bound_to 10752
  153.6141  135.7067  153.5394 H   0  0  0  0  0  0  0  0  0  0  0  0  # atno 10765 bound_to 10752
  140.4696  134.1044  155.7730 H   0  0  0  0  0  0  0  0  0  0  0  0  # atno 11005 bound_to 11000
  146.3491  140.1625  142.8590 LP  0  0  0  0  0  0  0  0  0  0  0  0  # atno 17320 bound_to 7965
  145.0401  140.8938  143.5058 LP  0  0  0  0  0  0  0  0  0  0  0  0  # atno 17321 bound_to 7965
  139.5113  144.3515  152.0648 LP  0  0  0  0  0  0  0  0  0  0  0  0  # atno 17342 bound_to 10162
  140.2651  144.4025  150.6171 LP  0  0  0  0  0  0  0  0  0  0  0  0  # atno 17343 bound_to 10162
  157.0486  130.5778  149.5367 LP  0  0  0  0  0  0  0  0  0  0  0  0  # atno 17370 bound_to 10713
  156.0099  130.5189  150.7953 LP  0  0  0  0  0  0  0  0  0  0  0  0  # atno 17371 bound_to 10713
  141.1583  133.8841  157.1917 LP  0  0  0  0  0  0  0  0  0  0  0  0  # atno 17394 bound_to 11000
  139.9893  135.0070  156.9938 LP  0  0  0  0  0  0  0  0  0  0  0  0  # atno 17395 bound_to 11000

$$$$
