AV-unprocessed.smi:2344|AV-procd|sdf|9358|dock8
  -GOLD-   2272012583D 1   1.00000     0.00000
 Structure written by MMmdl.
 35 36  0  0  0  0  0  0  0  0  1 V2000
  153.7695  141.9208  161.1347 C   0  0  0  0  0  0  0  0  0  0  0  0
  152.6860  142.0790  160.0889 C   0  0  0  0  0  0  0  0  0  0  0  0
  152.2288  140.9759  159.3435 C   0  0  0  0  0  0  0  0  0  0  0  0
  151.2187  141.1776  158.3834 C   0  0  0  0  0  0  0  0  0  0  0  0
  150.6889  142.4737  158.1920 C   0  0  0  0  0  0  0  0  0  0  0  0
  149.6778  142.5687  157.1991 N   0  0  0  0  0  0  0  0  0  0  0  0
  148.8492  141.6052  156.7600 C   0  0  0  0  0  0  0  0  0  0  0  0
  148.8325  140.4407  157.1602 O   0  0  0  0  0  0  0  0  0  0  0  0
  148.0256  142.0710  155.8102 N   0  0  0  0  0  0  0  0  0  0  0  0
  147.0176  141.2766  155.1177 C   0  0  1  0  0  0  0  0  0  0  0  0
  146.6039  141.9498  153.8382 C   0  0  0  0  0  0  0  0  0  0  0  0
  146.8316  141.1974  152.7641 C   0  0  0  0  0  0  0  0  0  0  0  0
  147.4680  139.8740  153.0989 C   0  0  2  0  0  0  0  0  0  0  0  0
  146.6641  138.6893  152.5390 C   0  0  0  0  0  0  0  0  0  0  0  0
  146.7363  138.6722  151.1291 O   0  0  0  0  0  0  0  0  0  0  0  0
  147.5565  139.9000  154.6476 C   0  0  0  0  0  0  0  0  0  0  0  0
  151.1341  143.5297  158.9175 N   0  0  0  0  0  0  0  0  0  0  0  0
  152.1022  143.3356  159.8374 C   0  0  0  0  0  0  0  0  0  0  0  0
  146.1345  141.1544  155.7474 H   0  0  0  0  0  0  0  0  0  0  0  0
  148.4702  139.8760  152.6683 H   0  0  0  0  0  0  0  0  0  0  0  0
  154.3831  141.0424  160.9322 H   0  0  0  0  0  0  0  0  0  0  0  0
  153.3243  141.8094  162.1236 H   0  0  0  0  0  0  0  0  0  0  0  0
  154.4226  142.7940  161.1472 H   0  0  0  0  0  0  0  0  0  0  0  0
  152.6428  139.9908  159.5015 H   0  0  0  0  0  0  0  0  0  0  0  0
  150.8577  140.3419  157.8016 H   0  0  0  0  0  0  0  0  0  0  0  0
  149.5737  143.4771  156.7723 H   0  0  0  0  0  0  0  0  0  0  0  0
  148.1069  143.0399  155.5395 H   0  0  0  0  0  0  0  0  0  0  0  0
  146.1611  142.9349  153.8235 H   0  0  0  0  0  0  0  0  0  0  0  0
  146.6102  141.4861  151.7472 H   0  0  0  0  0  0  0  0  0  0  0  0
  147.0367  137.7428  152.9325 H   0  0  0  0  0  0  0  0  0  0  0  0
  145.6159  138.7702  152.8287 H   0  0  0  0  0  0  0  0  0  0  0  0
  145.8582  138.6210  150.7837 H   0  0  0  0  0  0  0  0  0  0  0  0
  148.5838  139.7279  154.9716 H   0  0  0  0  0  0  0  0  0  0  0  0
  146.9565  139.1036  155.0892 H   0  0  0  0  0  0  0  0  0  0  0  0
  152.4183  144.2098  160.3874 H   0  0  0  0  0  0  0  0  0  0  0  0
  1  2  1  0  0  0  0
  1 21  1  0  0  0  0
  1 22  1  0  0  0  0
  1 23  1  0  0  0  0
  2 18  1  0  0  0  0
  2  3  2  0  0  0  0
  3  4  1  0  0  0  0
  3 24  1  0  0  0  0
  4  5  2  0  0  0  0
  4 25  1  0  0  0  0
  5  6  1  0  0  0  0
  5 17  1  0  0  0  0
  6  7  1  0  0  0  0
  6 26  1  0  0  0  0
  7  8  2  0  0  0  0
  7  9  1  0  0  0  0
  9 10  1  0  0  0  0
  9 27  1  0  0  0  0
 10 19  1  0  0  0  0
 10 16  1  0  0  0  0
 10 11  1  0  0  0  0
 11 12  2  0  0  0  0
 11 28  1  0  0  0  0
 12 13  1  0  0  0  0
 12 29  1  0  0  0  0
 13 20  1  0  0  0  0
 13 14  1  0  0  0  0
 13 16  1  0  0  0  0
 14 15  1  0  0  0  0
 14 30  1  0  0  0  0
 14 31  1  0  0  0  0
 15 32  1  0  0  0  0
 16 33  1  0  0  0  0
 16 34  1  0  0  0  0
 17 18  2  0  0  0  0
 18 35  1  0  0  0  0
M  END
> <s_m_source_file>
AV-unprocessed.smi

> <i_m_source_file_index>
2344

> <i_lp_mmshare_version>
43012

> <i_f3d_flags>
0

> <s_epik_input>
W0NIM11jMVtjSF1bY0hdYyhuW2NIXTEpW05IXUMoPU8pW05IXVtDQEBIXTJbQ0hdPVtDSF1bQ0BASF0oW0NIMl0yKVtDSDJdW09IXQ==

> <s_epik_cmdline>
J2VwaWtfcHl0aG9uJywgJy1waCcsICc3LjAnLCAnLXRuJywgJzgnLCAnLW1hJywgJzIwMCcsICctbWV0YWxfYmluZGluZycsICctaW1hZScsICc8aW5maWxlLm1hZT4nLCAnLW9tYWUnLCAnPG91dGZpbGUubWFlPic=

> <r_lp_tautomer_probability>
1

> <r_epik_Ionization_Penalty>
5.7643e-05

> <r_epik_Ionization_Penalty_Charging>
0

> <r_epik_Ionization_Penalty_Neutral>
5.7643e-05

> <r_epik_State_Penalty>
-0

> <r_epik_Charging_Adjusted_Penalty>
0

> <i_epik_Tot_Q>
0

> <i_epik_Tot_abs_Q>
0

> <r_epik_Metal_State_Penalty>
-0

> <b_epik_Metal_Only>
0

> <s_lp_Force_Field>
OPLS_2005

> <r_lp_Energy>
17.6743

> <b_lp_Chiralities_Consistent>
1

> <s_lp_Variant>
AV-unprocessed.smi:2344-2

> <Gold.Version>
5.8.1

> <Gold.Id.Protein>
6NUR|6NUR_protein|mol2

> <Gold.PLP.Fitness>
43.6301

> <Gold.PLP.PLP>
-33.6397

> <Gold.PLP.part.hbond>
-4.4886

> <Gold.PLP.part.metal>
0.0000

> <Gold.PLP.part.buried>
-3.9752

> <Gold.PLP.part.nonpolar>
-26.3529

> <Gold.PLP.part.repulsive>
0.1729

> <Gold.PLP.ligand.clash>
0.0000

> <Gold.PLP.ligand.torsion>
0.3779

> <Gold.PLP.Chemscore.Hbond>
3.5775

> <Gold.PLP.Chemscore.CHOScore>
0.0000

> <Gold.PLP.Chemscore.Metal>
0.0000

> <Gold.Chemscore.Hbonds>
donor molecule, donor type, donor heavy atom, donor atom, acceptor molecule, acceptor atom, score
      L1  H     6    26       P1  8028  1.00
      L1  H     9    27       P1  8028  1.00
      L1  H    15    32       P1 10171  0.59
      P1  H  7954  7966       L1    15  0.95

> <Gold.PLP.Chemscore.Internal.Correction>
0.0137

> <Gold.Rescore>
     Score         DG    S(hbond)    S(metal)    S(lipo)     H(rot)  DE(clash)    DE(int)     intcor
     18.17     -23.61       3.76        0.00      87.37       1.82       2.42       3.02       ----

> <Gold.Chemscore.Fitness>
18.1715

> <Gold.Chemscore.DG>
-23.6115

> <Gold.Chemscore.ZeroCoef>
-5.4800

> <Gold.Chemscore.Hbond>
3.7619

> <Gold.Chemscore.Metal>
0.0000

> <Gold.Chemscore.Lipo>
87.3654

> <Gold.Chemscore.Internal_Hbond>
0.0000

> <Gold.Chemscore.DEClash>
2.4197

> <Gold.Chemscore.DEInternal>
3.0203

> <Gold.Chemscore.Rot>
1.8184

> <Gold.Chemscore.Internal.Correction>
   9.000000E+99

> <Gold.Chemscore.Hbonds>
donor molecule, donor type, donor heavy atom, donor atom, acceptor molecule, acceptor atom, score
      L1  H     6    26       P1  8028  0.98
      L1  H     9    27       P1  8028  0.86
      L1  H    15    32       P1 10171  0.58
      P1  H  7954  7966       L1    15  0.76

> <Gold.Chemscore.Hbond.Weighted>
-12.5648

> <Gold.Chemscore.Metal.Weighted>
-0.0000

> <Gold.Chemscore.Lipo.Weighted>
-10.2218

> <Gold.Chemscore.Internal_Hbond.Weighted>
0.0000

> <Gold.Chemscore.DEClash.Weighted>
2.4197

> <Gold.Chemscore.DEInternal.Weighted>
3.0203

> <Gold.Chemscore.Rot.Weighted>
4.6551

> <Gold.Chemscore.Internal.Correction.Weighted>
   9.000000E+99

> <Gold.Protein.RotatedTorsions>
[ 6907 6896 6895 6894 ] final -113.52 input  -60.11 | X-H torsion
[ 7974 7965 7964 7962 ] final  174.08 input  175.53 | X-H torsion
[ 8008 7997 7996 7995 ] final -115.44 input   59.86 | X-H torsion
[ 10167 10162 10161 10158 ] final  -70.59 input  -65.29 | X-H torsion
[ 10718 10713 10712 10709 ] final   74.27 input   66.30 | X-H torsion
[ 10763 10752 10751 10750 ] final -108.10 input  -60.55 | X-H torsion
[ 11005 11000 10999 10996 ] final   -9.64 input  -57.11 | X-H torsion

> <Gold.Protein.ActiveResidues>
 VAL166  LYS551  ARG553  GLY616  TRP617  ASP618  TYR619  PRO620  LYS621  CYS622 
 ASP623  PHE694  ASN695  SER759  ASP760  ASP761  ALA762  ILE779  LEU786  VAL792 
 PHE793  MET794  SER795  GLU796  ALA797  LYS798  CYS799  TRP800  GLU811  SER814 

> <Gold.Protein.RotatedAtoms>
  150.7835  133.8933  159.3319 H   0  0  0  0  0  0  0  0  0  0  0  0  # atno 6907 bound_to 6896
  151.6790  135.0963  160.0222 H   0  0  0  0  0  0  0  0  0  0  0  0  # atno 6908 bound_to 6896
  152.3893  133.6617  159.6259 H   0  0  0  0  0  0  0  0  0  0  0  0  # atno 6909 bound_to 6896
  144.7229  139.9743  143.6437 H   0  0  0  0  0  0  0  0  0  0  0  0  # atno 7974 bound_to 7965
  155.0521  140.0393  157.2547 H   0  0  0  0  0  0  0  0  0  0  0  0  # atno 8008 bound_to 7997
  154.7129  140.2696  155.6588 H   0  0  0  0  0  0  0  0  0  0  0  0  # atno 8009 bound_to 7997
  156.2795  140.2718  156.1776 H   0  0  0  0  0  0  0  0  0  0  0  0  # atno 8010 bound_to 7997
  140.5340  143.2319  151.7211 H   0  0  0  0  0  0  0  0  0  0  0  0  # atno 10167 bound_to 10162
  157.6585  130.9669  150.1187 H   0  0  0  0  0  0  0  0  0  0  0  0  # atno 10718 bound_to 10713
  154.8115  135.4650  154.0530 H   0  0  0  0  0  0  0  0  0  0  0  0  # atno 10763 bound_to 10752
  153.1957  135.6861  153.8302 H   0  0  0  0  0  0  0  0  0  0  0  0  # atno 10764 bound_to 10752
  153.7805  135.3257  155.3342 H   0  0  0  0  0  0  0  0  0  0  0  0  # atno 10765 bound_to 10752
  140.7363  133.8707  155.8932 H   0  0  0  0  0  0  0  0  0  0  0  0  # atno 11005 bound_to 11000
  146.0538  139.3536  143.0623 LP  0  0  0  0  0  0  0  0  0  0  0  0  # atno 17320 bound_to 7965
  145.8181  140.9693  143.0913 LP  0  0  0  0  0  0  0  0  0  0  0  0  # atno 17321 bound_to 7965
  139.4964  144.4071  152.0120 LP  0  0  0  0  0  0  0  0  0  0  0  0  # atno 17342 bound_to 10162
  140.3175  144.3466  150.6018 LP  0  0  0  0  0  0  0  0  0  0  0  0  # atno 17343 bound_to 10162
  156.2064  130.3663  149.8724 LP  0  0  0  0  0  0  0  0  0  0  0  0  # atno 17370 bound_to 10713
  156.6614  130.8783  151.3548 LP  0  0  0  0  0  0  0  0  0  0  0  0  # atno 17371 bound_to 10713
  140.9876  134.1322  157.4438 LP  0  0  0  0  0  0  0  0  0  0  0  0  # atno 17394 bound_to 11000
  139.8815  135.0030  156.6163 LP  0  0  0  0  0  0  0  0  0  0  0  0  # atno 17395 bound_to 11000

$$$$
