#       Name:                AV-unprocessed.smi:3058
#       Creating user name   scv26
#       Creation time:       Fri Mar 27 17:08:03 2020


#       File generated by GOLD software.
#

@<TRIPOS>MOLECULE
AV-unprocessed.smi:3058
    41    43     1
SMALL
NO_CHARGES


@<TRIPOS>ATOM
      1 ****        -0.4284   1.2149   0.0856 O.2            1 S1                 0.0000
      2 ****        -0.8670   0.0736   0.2341 C.2            1 S1                 0.0000
      3 ****        -0.0750  -1.0078   0.3000 N.am           1 S1                 0.0000
      4 ****         1.3806  -0.9840   0.2205 C.3            1 S1                 0.0000
      5 ****         1.8657  -0.8478  -1.2323 C.3            1 S1                 0.0000
      6 ****         3.3784  -0.8234  -1.3295 C.ar           1 S1                 0.0000
      7 ****         4.0794   0.4026  -1.3026 C.ar           1 S1                 0.0000
      8 ****         5.4871   0.3958  -1.3917 C.ar           1 S1                 0.0000
      9 ****         6.1621  -0.8370  -1.5043 C.ar           1 S1                 0.0000
     10 ****         5.4575  -1.9899  -1.5257 N.pl3          1 S1                 1.0000
     11 ****         4.1092  -2.0259  -1.4435 C.ar           1 S1                 0.0000
     12 ****        -2.3807  -0.1903   0.3229 C.3            1 S1                 0.0000
     13 ****        -3.2493   0.7071  -0.5935 C.3            1 S1                 0.0000
     14 ****        -4.2840   1.2995   0.3820 C.3            1 S1                 0.0000
     15 ****        -3.6045   2.3547   1.2747 C.3            1 S1                 0.0000
     16 ****        -2.7669   1.4946   2.2387 C.3            1 S1                 0.0000
     17 ****        -3.0133   0.0613   1.7176 C.3            1 S1                 0.0000
     18 ****        -4.4935   0.1458   1.3561 C.3            1 S1                 0.0000
     19 ****        -0.5132  -1.9102   0.4165 H              1 S1                 0.0000
     20 ****         1.7726  -0.1709   0.8343 H              1 S1                 0.0000
     21 ****         1.7582  -1.9103   0.6541 H              1 S1                 0.0000
     22 ****         1.4843  -1.6742  -1.8336 H              1 S1                 0.0000
     23 ****         1.4707   0.0649  -1.6809 H              1 S1                 0.0000
     24 ****         3.5460   1.3382  -1.2133 H              1 S1                 0.0000
     25 ****         6.0406   1.3235  -1.3732 H              1 S1                 0.0000
     26 ****         7.2355  -0.9353  -1.5766 H              1 S1                 0.0000
     27 ****         3.6603  -3.0083  -1.4696 H              1 S1                 0.0000
     28 ****        -2.5599  -1.2311   0.0458 H              1 S1                 0.0000
     29 ****        -2.6953   1.4863  -1.1188 H              1 S1                 0.0000
     30 ****        -3.7456   0.0995  -1.3514 H              1 S1                 0.0000
     31 ****        -5.1888   1.6601  -0.1081 H              1 S1                 0.0000
     32 ****        -2.9914   3.0479   0.6976 H              1 S1                 0.0000
     33 ****        -4.3436   2.9381   1.8250 H              1 S1                 0.0000
     34 ****        -1.7172   1.7839   2.2651 H              1 S1                 0.0000
     35 ****        -3.1481   1.5947   3.2558 H              1 S1                 0.0000
     36 ****        -2.7764  -0.7138   2.4470 H              1 S1                 0.0000
     37 ****        -5.1345   0.4035   2.2014 H              1 S1                 0.0000
     38 ****        -4.8780  -0.7582   0.8803 H              1 S1                 0.0000
     39 ****         5.9655  -2.8712  -1.6068 H              1 S1                 0.0000
     40 ****         0.5572   1.3657   0.0085 LP             1 S1                 0.0000
     41 ****        -1.0578   1.9907   0.0421 LP             1 S1                 0.0000
@<TRIPOS>BOND
    1    1    2 2     
    2    2    3 am    
    3    2   12 1     
    4    3    4 1     
    5    3   19 1     
    6    4    5 1     
    7    4   20 1     
    8    4   21 1     
    9    5    6 1     
   10    5   22 1     
   11    5   23 1     
   12    6   11 ar    
   13    6    7 ar    
   14    7    8 ar    
   15    7   24 1     
   16    8    9 ar    
   17    8   25 1     
   18    9   10 ar    
   19    9   26 1     
   20   10   11 ar    
   21   10   39 1     
   22   11   27 1     
   23   12   17 1     
   24   12   13 1     
   25   12   28 1     
   26   13   14 1     
   27   13   29 1     
   28   13   30 1     
   29   14   18 1     
   30   14   15 1     
   31   14   31 1     
   32   15   16 1     
   33   15   32 1     
   34   15   33 1     
   35   16   17 1     
   36   16   34 1     
   37   16   35 1     
   38   17   18 1     
   39   17   36 1     
   40   18   37 1     
   41   18   38 1     
   42    1   40 1     
   43    1   41 1     
@<TRIPOS>SUBSTRUCTURE
      1 S1             1
@<TRIPOS>SET
LONE_PAIRS      STATIC     ATOMS    <user>   **** ""
2 40 41
DONOR_HYDROGENS      STATIC     ATOMS    <user>   **** ""
2 19 39
ATOM$BLUE        STATIC     ATOMS    COLORGROUP SYSTEM
2 40 41
ATOM$RED        STATIC     ATOMS    COLORGROUP SYSTEM
2 19 39
