#       Name:                AV-unprocessed.smi:283
#       Creating user name   scv26
#       Creation time:       Thu Mar 26 21:48:35 2020


#       File generated by GOLD software.
#

@<TRIPOS>MOLECULE
AV-unprocessed.smi:283
    59    62     1
SMALL
NO_CHARGES


@<TRIPOS>ATOM
      1 ****        -5.3358  -0.1758  -0.7575 C.3            1 S1                 0.0000
      2 ****        -3.9587   0.4226  -0.4416 C.3            1 S1                 0.0000
      3 ****        -2.9145  -0.5721  -0.6811 N.pl3          1 S1                 0.0000
      4 ****        -1.6086  -0.2277  -0.6182 C.ar           1 S1                 0.0000
      5 ****        -1.2234   1.0742  -0.6677 N.ar           1 S1                 0.0000
      6 ****         0.0731   1.3892  -0.6047 C.ar           1 S1                 0.0000
      7 ****         1.1241   0.5746  -0.4958 N.ar           1 S1                 0.0000
      8 ****         0.7452  -0.7362  -0.4516 C.ar           1 S1                 0.0000
      9 ****        -0.5945  -1.2135  -0.5064 C.ar           1 S1                 0.0000
     10 ****        -0.6062  -2.5996  -0.4292 N.2            1 S1                 0.0000
     11 ****         0.6564  -2.9197  -0.3378 C.2            1 S1                 0.0000
     12 ****         1.5394  -1.8624  -0.3478 N.pl3          1 S1                 0.0000
     13 ****         3.0350  -1.9324  -0.2727 C.3            1 S1                 0.0000
     14 ****         3.5001  -0.8131   0.4167 O.3            1 S1                 0.0000
     15 ****         4.6675  -0.3053  -0.2199 C.3            1 S1                 0.0000
     16 ****         4.8970   1.1729   0.1421 C.3            1 S1                 0.0000
     17 ****         5.5538   1.2738   1.3879 O.3            1 S1                 0.0000
     18 ****         4.4254  -0.5954  -1.7087 C.3            1 S1                 0.0000
     19 ****         3.6506   0.4221  -2.3206 O.3            1 S1                 0.0000
     20 ****         3.7049  -1.9399  -1.6632 C.3            1 S1                 0.0000
     21 ****         2.8401  -2.1614  -2.7657 O.3            1 S1                 0.0000
     22 ****        -3.9414   1.0142   0.9695 C.ar           1 S1                 0.0000
     23 ****        -3.7170   0.1657   2.0785 C.ar           1 S1                 0.0000
     24 ****        -3.6945   0.6840   3.3867 C.ar           1 S1                 0.0000
     25 ****        -3.9013   2.0585   3.6010 C.ar           1 S1                 0.0000
     26 ****        -4.1356   2.9107   2.5061 C.ar           1 S1                 0.0000
     27 ****        -4.1602   2.3970   1.1937 C.ar           1 S1                 0.0000
     28 ****        -4.4647   3.4905  -0.1106 Cl             1 S1                 0.0000
     29 ****         3.2344  -2.8411   0.2965 H              1 S1                 0.0000
     30 ****         5.5194  -0.9067   0.1039 H              1 S1                 0.0000
     31 ****         5.3658  -0.6665  -2.2562 H              1 S1                 0.0000
     32 ****         4.4509  -2.7358  -1.6509 H              1 S1                 0.0000
     33 ****        -6.1199   0.5754  -0.6586 H              1 S1                 0.0000
     34 ****        -5.5763  -0.9997  -0.0846 H              1 S1                 0.0000
     35 ****        -5.3737  -0.5570  -1.7784 H              1 S1                 0.0000
     36 ****        -3.7863   1.2190  -1.1643 H              1 S1                 0.0000
     37 ****        -3.2221  -1.5338  -0.6869 H              1 S1                 0.0000
     38 ****         0.3011   2.4438  -0.6494 H              1 S1                 0.0000
     39 ****         0.9834  -3.9468  -0.2674 H              1 S1                 0.0000
     40 ****         5.5389   1.6470  -0.6012 H              1 S1                 0.0000
     41 ****         3.9582   1.7273   0.1643 H              1 S1                 0.0000
     42 ****         6.3797   0.8182   1.3318 H              1 S1                 0.0000
     43 ****         4.1154   1.2417  -2.2500 H              1 S1                 0.0000
     44 ****         3.3328  -2.0396  -3.5625 H              1 S1                 0.0000
     45 ****        -3.5588  -0.8926   1.9301 H              1 S1                 0.0000
     46 ****        -3.5189   0.0263   4.2252 H              1 S1                 0.0000
     47 ****        -3.8835   2.4586   4.6040 H              1 S1                 0.0000
     48 ****        -4.2986   3.9649   2.6751 H              1 S1                 0.0000
     49 ****        -1.9101   1.7963  -0.7513 LP             1 S1                 0.0000
     50 ****         2.0734   0.8862  -0.4520 LP             1 S1                 0.0000
     51 ****        -1.3976  -3.2107  -0.4409 LP             1 S1                 0.0000
     52 ****         3.7204  -1.0705   1.3575 LP             1 S1                 0.0000
     53 ****         2.7912  -0.1078   0.4214 LP             1 S1                 0.0000
     54 ****         4.9885   0.8595   2.1011 LP             1 S1                 0.0000
     55 ****         5.7144   2.2363   1.6069 LP             1 S1                 0.0000
     56 ****         2.7669   0.4958  -1.8584 LP             1 S1                 0.0000
     57 ****         3.5050   0.2001  -3.2847 LP             1 S1                 0.0000
     58 ****         2.0815  -1.5105  -2.7354 LP             1 S1                 0.0000
     59 ****         2.4809  -3.0939  -2.7306 LP             1 S1                 0.0000
@<TRIPOS>BOND
    1    1    2 1     
    2    1   33 1     
    3    1   34 1     
    4    1   35 1     
    5    2    3 1     
    6    2   22 1     
    7    2   36 1     
    8    3    4 1     
    9    3   37 1     
   10    4    9 ar    
   11    4    5 ar    
   12    5    6 ar    
   13    6    7 ar    
   14    6   38 1     
   15    7    8 ar    
   16    8   12 1     
   17    8    9 ar    
   18    9   10 1     
   19   10   11 2     
   20   11   12 1     
   21   11   39 1     
   22   12   13 1     
   23   13   29 1     
   24   13   20 1     
   25   13   14 1     
   26   14   15 1     
   27   15   30 1     
   28   15   16 1     
   29   15   18 1     
   30   16   17 1     
   31   16   40 1     
   32   16   41 1     
   33   17   42 1     
   34   18   31 1     
   35   18   19 1     
   36   18   20 1     
   37   19   43 1     
   38   20   32 1     
   39   20   21 1     
   40   21   44 1     
   41   22   27 ar    
   42   22   23 ar    
   43   23   24 ar    
   44   23   45 1     
   45   24   25 ar    
   46   24   46 1     
   47   25   26 ar    
   48   25   47 1     
   49   26   27 ar    
   50   26   48 1     
   51   27   28 1     
   52    5   49 1     
   53    7   50 1     
   54   10   51 1     
   55   14   52 1     
   56   14   53 1     
   57   17   54 1     
   58   17   55 1     
   59   19   56 1     
   60   19   57 1     
   61   21   58 1     
   62   21   59 1     
@<TRIPOS>SUBSTRUCTURE
      1 S1             1
@<TRIPOS>SET
LONE_PAIRS      STATIC     ATOMS    <user>   **** ""
11 49 50 51 52 53 54 55 56 57 58 59
DONOR_HYDROGENS      STATIC     ATOMS    <user>   **** ""
4 37 42 43 44
ATOM$BLUE        STATIC     ATOMS    COLORGROUP SYSTEM
11 49 50 51 52 53 54 55 56 57 58 59
ATOM$RED        STATIC     ATOMS    COLORGROUP SYSTEM
4 37 42 43 44
