#       Name:                AV-unprocessed.smi:2019
#       Creating user name   scv26
#       Creation time:       Fri Mar 27 10:42:08 2020


#       File generated by GOLD software.
#

@<TRIPOS>MOLECULE
AV-unprocessed.smi:2019
    42    43     1
SMALL
NO_CHARGES


@<TRIPOS>ATOM
      1 ****         0.2340   1.3759   0.8026 O.2            1 S1                 0.0000
      2 ****         0.8046   0.7312  -0.0783 C.2            1 S1                 0.0000
      3 ****         2.3187   0.8630  -0.2900 C.3            1 S1                 0.0000
      4 ****         3.0476   1.1694   0.9519 N.am           1 S1                 0.0000
      5 ****         3.4015   2.5152   1.1750 C.2            1 S1                 0.0000
      6 ****         4.0624   2.9023   2.2776 C.2            1 S1                 0.0000
      7 ****         4.4120   1.8961   3.2523 C.2            1 S1                 0.0000
      8 ****         4.0767   0.6064   3.0497 C.2            1 S1                 0.0000
      9 ****         3.3539   0.1788   1.8461 C.2            1 S1                 0.0000
     10 ****         3.0436  -0.9970   1.6533 O.2            1 S1                 0.0000
     11 ****         0.1629  -0.1025  -0.9124 N.am           1 S1                 0.0000
     12 ****        -1.2700  -0.4039  -0.8766 C.3            1 S1                 0.0000
     13 ****        -1.6811  -0.8917  -2.2849 C.3            1 S1                 0.0000
     14 ****        -3.1835  -0.7386  -2.5806 C.3            1 S1                 0.0000
     15 ****        -4.1081  -1.6024  -1.7092 C.3            1 S1                 0.0000
     16 ****        -4.0353  -1.2675  -0.2096 C.3            1 S1                 0.0000
     17 ****        -2.8477  -1.8298   0.4202 N.am           1 S1                 0.0000
     18 ****        -1.5702  -1.5170   0.1554 C.2            1 S1                 0.0000
     19 ****        -0.6547  -2.1127   0.7232 O.2            1 S1                 0.0000
     20 ****         2.7093  -0.0547  -0.7346 H              1 S1                 0.0000
     21 ****         2.4892   1.6377  -1.0387 H              1 S1                 0.0000
     22 ****         3.0974   3.2060   0.4020 H              1 S1                 0.0000
     23 ****         4.3222   3.9391   2.4333 H              1 S1                 0.0000
     24 ****         4.9437   2.1788   4.1489 H              1 S1                 0.0000
     25 ****         4.3456  -0.1325   3.7904 H              1 S1                 0.0000
     26 ****         0.7112  -0.5926  -1.6041 H              1 S1                 0.0000
     27 ****        -1.8178   0.5046  -0.6192 H              1 S1                 0.0000
     28 ****        -1.1484  -0.3037  -3.0340 H              1 S1                 0.0000
     29 ****        -1.3669  -1.9243  -2.4491 H              1 S1                 0.0000
     30 ****        -3.4664   0.3101  -2.4795 H              1 S1                 0.0000
     31 ****        -3.3588  -0.9924  -3.6265 H              1 S1                 0.0000
     32 ****        -5.1332  -1.4470  -2.0476 H              1 S1                 0.0000
     33 ****        -3.8984  -2.6611  -1.8699 H              1 S1                 0.0000
     34 ****        -4.0863  -0.1909  -0.0411 H              1 S1                 0.0000
     35 ****        -4.9002  -1.6977   0.2958 H              1 S1                 0.0000
     36 ****        -3.0079  -2.5529   1.1069 H              1 S1                 0.0000
     37 ****         0.7579   1.9934   1.3892 LP             1 S1                 0.0000
     38 ****        -0.7533   1.2817   0.9312 LP             1 S1                 0.0000
     39 ****         2.5515  -1.2544   0.8217 LP             1 S1                 0.0000
     40 ****         3.2836  -1.6947   2.3284 LP             1 S1                 0.0000
     41 ****         0.2960  -1.8791   0.5194 LP             1 S1                 0.0000
     42 ****        -0.8618  -2.8303   1.3883 LP             1 S1                 0.0000
@<TRIPOS>BOND
    1    1    2 2     
    2    2    3 1     
    3    2   11 am    
    4    3    4 1     
    5    3   20 1     
    6    3   21 1     
    7    4    9 am    
    8    4    5 1     
    9    5    6 2     
   10    5   22 1     
   11    6    7 1     
   12    6   23 1     
   13    7    8 2     
   14    7   24 1     
   15    8    9 1     
   16    8   25 1     
   17    9   10 2     
   18   11   12 1     
   19   11   26 1     
   20   12   18 1     
   21   12   13 1     
   22   12   27 1     
   23   13   14 1     
   24   13   28 1     
   25   13   29 1     
   26   14   15 1     
   27   14   30 1     
   28   14   31 1     
   29   15   16 1     
   30   15   32 1     
   31   15   33 1     
   32   16   17 1     
   33   16   34 1     
   34   16   35 1     
   35   17   18 am    
   36   17   36 1     
   37   18   19 2     
   38    1   37 1     
   39    1   38 1     
   40   10   39 1     
   41   10   40 1     
   42   19   41 1     
   43   19   42 1     
@<TRIPOS>SUBSTRUCTURE
      1 S1             1
@<TRIPOS>SET
LONE_PAIRS      STATIC     ATOMS    <user>   **** ""
6 37 38 39 40 41 42
DONOR_HYDROGENS      STATIC     ATOMS    <user>   **** ""
2 26 36
ATOM$BLUE        STATIC     ATOMS    COLORGROUP SYSTEM
6 37 38 39 40 41 42
ATOM$RED        STATIC     ATOMS    COLORGROUP SYSTEM
2 26 36
