AV-unprocessed.smi:1721|AV-procd|sdf|6942|dock2
  -GOLD-   22720 8153D 1   1.00000     0.00000
 Structure written by MMmdl.
 44 46  0  0  0  0  0  0  0  0  2 V2000
  151.0466  138.8558  154.5738 C   0  0  0  0  0  0  0  0  0  0  0  0
  149.7987  138.5821  153.9458 O   0  0  0  0  0  0  0  0  0  0  0  0
  148.9235  139.6302  153.7305 C   0  0  0  0  0  0  0  0  0  0  0  0
  149.2750  140.8629  154.1744 N   0  0  0  0  0  0  0  0  0  0  0  0
  148.4249  141.8881  153.9647 C   0  0  0  0  0  0  0  0  0  0  0  0
  147.1909  141.7414  153.3065 C   0  0  0  0  0  0  0  0  0  0  0  0
  146.8233  140.4640  152.8451 C   0  0  0  0  0  0  0  0  0  0  0  0
  147.7041  139.3742  153.0589 C   0  0  0  0  0  0  0  0  0  0  0  0
  147.4514  138.0355  152.6417 N   0  0  0  0  0  0  0  0  0  0  0  0
  146.2840  137.3978  152.4480 C   0  0  0  0  0  0  0  0  0  0  0  0
  145.1641  137.8826  152.6028 O   0  0  0  0  0  0  0  0  0  0  0  0
  146.4881  136.1316  152.0583 N   0  0  0  0  0  0  0  0  0  0  0  0
  145.4368  135.1638  151.7568 C   0  0  1  0  0  0  0  0  0  0  0  0
  144.7875  135.3898  150.3967 C   0  0  0  0  0  0  0  0  0  0  0  0
  144.1302  134.0360  150.1238 C   0  0  0  0  0  0  0  0  0  0  0  0
  145.0151  133.0204  150.7400 N   0  3  2  0  0  0  0  0  0  0  0  0
  144.3026  131.8619  151.3326 C   0  0  0  0  0  0  0  0  0  0  0  0
  145.3017  130.8502  151.9246 C   0  0  0  0  0  0  0  0  0  0  0  0
  146.3568  131.5056  152.8403 C   0  0  0  0  0  0  0  0  0  0  0  0
  146.1242  133.0141  153.0156 C   0  0  0  0  0  0  0  0  0  0  0  0
  145.9639  133.7225  151.6508 C   0  0  2  0  0  0  0  0  0  0  0  0
  151.6155  137.9303  154.6631 H   0  0  0  0  0  0  0  0  0  0  0  0
  150.9079  139.2570  155.5786 H   0  0  0  0  0  0  0  0  0  0  0  0
  151.6444  139.5553  153.9875 H   0  0  0  0  0  0  0  0  0  0  0  0
  148.7382  142.8543  154.3316 H   0  0  0  0  0  0  0  0  0  0  0  0
  146.5403  142.5905  153.1579 H   0  0  0  0  0  0  0  0  0  0  0  0
  145.8774  140.3602  152.3393 H   0  0  0  0  0  0  0  0  0  0  0  0
  148.2818  137.4859  152.4744 H   0  0  0  0  0  0  0  0  0  0  0  0
  147.4417  135.8161  151.9556 H   0  0  0  0  0  0  0  0  0  0  0  0
  144.6494  135.2142  152.5124 H   0  0  0  0  0  0  0  0  0  0  0  0
  144.0735  136.2142  150.3969 H   0  0  0  0  0  0  0  0  0  0  0  0
  145.5455  135.5961  149.6393 H   0  0  0  0  0  0  0  0  0  0  0  0
  143.1481  134.0128  150.5995 H   0  0  0  0  0  0  0  0  0  0  0  0
  143.9882  133.8477  149.0594 H   0  0  0  0  0  0  0  0  0  0  0  0
  143.6174  132.2097  152.1074 H   0  0  0  0  0  0  0  0  0  0  0  0
  143.6922  131.3798  150.5682 H   0  0  0  0  0  0  0  0  0  0  0  0
  144.7559  130.0837  152.4758 H   0  0  0  0  0  0  0  0  0  0  0  0
  145.8106  130.3286  151.1130 H   0  0  0  0  0  0  0  0  0  0  0  0
  146.3656  131.0159  153.8146 H   0  0  0  0  0  0  0  0  0  0  0  0
  147.3480  131.3462  152.4137 H   0  0  0  0  0  0  0  0  0  0  0  0
  145.2349  133.1718  153.6274 H   0  0  0  0  0  0  0  0  0  0  0  0
  146.9530  133.4527  153.5718 H   0  0  0  0  0  0  0  0  0  0  0  0
  146.9266  133.7261  151.1366 H   0  0  0  0  0  0  0  0  0  0  0  0
  145.5859  132.6469  149.9950 H   0  0  0  0  0  0  0  0  0  0  0  0
  1  2  1  0  0  0  0
  1 22  1  0  0  0  0
  1 23  1  0  0  0  0
  1 24  1  0  0  0  0
  2  3  1  0  0  0  0
  3  8  1  0  0  0  0
  3  4  2  0  0  0  0
  4  5  1  0  0  0  0
  5  6  2  0  0  0  0
  5 25  1  0  0  0  0
  6  7  1  0  0  0  0
  6 26  1  0  0  0  0
  7  8  2  0  0  0  0
  7 27  1  0  0  0  0
  8  9  1  0  0  0  0
  9 10  1  0  0  0  0
  9 28  1  0  0  0  0
 10 11  2  0  0  0  0
 10 12  1  0  0  0  0
 12 13  1  0  0  0  0
 12 29  1  0  0  0  0
 13 21  1  0  0  0  0
 13 14  1  0  0  0  0
 13 30  1  0  0  0  0
 14 15  1  0  0  0  0
 14 31  1  0  0  0  0
 14 32  1  0  0  0  0
 15 16  1  0  0  0  0
 15 33  1  0  0  0  0
 15 34  1  0  0  0  0
 16 21  1  0  0  0  0
 16 17  1  0  0  0  0
 16 44  1  0  0  0  0
 17 18  1  0  0  0  0
 17 35  1  0  0  0  0
 17 36  1  0  0  0  0
 18 19  1  0  0  0  0
 18 37  1  0  0  0  0
 18 38  1  0  0  0  0
 19 20  1  0  0  0  0
 19 39  1  0  0  0  0
 19 40  1  0  0  0  0
 20 21  1  0  0  0  0
 20 41  1  0  0  0  0
 20 42  1  0  0  0  0
 21 43  1  0  0  0  0
M  CHG  1  16   1
M  END
> <s_m_source_file>
AV-unprocessed.smi

> <i_m_source_file_index>
1721

> <i_lp_mmshare_version>
43012

> <i_f3d_flags>
0

> <s_epik_input>
W0NIM11PYzFuW2NIXVtjSF1bY0hdYzFbTkhdQyg9TylbTkhdW0NASF0oW0NIMl1bQ0gyXTIpW0NAQEhdKE4yMylbQ0gyXVtDSDJdW0NIMl1bQ0gyXTM=

> <s_epik_cmdline>
J2VwaWtfcHl0aG9uJywgJy1waCcsICc3LjAnLCAnLXRuJywgJzgnLCAnLW1hJywgJzIwMCcsICctbWV0YWxfYmluZGluZycsICctaW1hZScsICc8aW5maWxlLm1hZT4nLCAnLW9tYWUnLCAnPG91dGZpbGUubWFlPic=

> <r_lp_tautomer_probability>
1

> <r_epik_Ionization_Penalty>
0.00104793

> <r_epik_Ionization_Penalty_Charging>
0.000974069

> <r_epik_Ionization_Penalty_Neutral>
7.38649e-05

> <r_epik_State_Penalty>
0.000633842

> <r_epik_Charging_Adjusted_Penalty>
0.00160791

> <i_epik_Tot_Q>
1

> <i_epik_Tot_abs_Q>
1

> <r_epik_Metal_State_Penalty>
-0

> <b_epik_Metal_Only>
0

> <s_lp_Force_Field>
OPLS_2005

> <r_lp_Energy>
42.7216

> <b_lp_Chiralities_Consistent>
1

> <s_lp_Variant>
AV-unprocessed.smi:1721-8

> <Gold.Version>
5.8.1

> <Gold.Id.Protein>
6NUR|6NUR_protein|mol2

> <Gold.PLP.Fitness>
42.2419

> <Gold.PLP.PLP>
-33.9504

> <Gold.PLP.part.hbond>
-1.6204

> <Gold.PLP.part.metal>
0.0000

> <Gold.PLP.part.buried>
-1.0455

> <Gold.PLP.part.nonpolar>
-32.2367

> <Gold.PLP.part.repulsive>
0.7199

> <Gold.PLP.ligand.clash>
0.0000

> <Gold.PLP.ligand.torsion>
0.3459

> <Gold.PLP.Chemscore.Hbond>
1.9920

> <Gold.PLP.Chemscore.CHOScore>
1.0000

> <Gold.PLP.Chemscore.Metal>
0.0000

> <Gold.Chemscore.Hbonds>
donor molecule, donor type, donor heavy atom, donor atom, acceptor molecule, acceptor atom, score
      L1  H     9    28       P1  7948  1.00
      L1  H    12    29       P1  7948  0.94
      L1  C     5    25       P1  8028  1.00

> <Gold.PLP.Chemscore.Internal.Correction>
0.0073

> <Gold.Rescore>
     Score         DG    S(hbond)    S(metal)    S(lipo)     H(rot)  DE(clash)    DE(int)     intcor
     17.82     -18.70       1.85        0.00      87.37       1.25       0.35       0.54       ----

> <Gold.Chemscore.Fitness>
17.8152

> <Gold.Chemscore.DG>
-18.7032

> <Gold.Chemscore.ZeroCoef>
-5.4800

> <Gold.Chemscore.Hbond>
1.8544

> <Gold.Chemscore.Metal>
0.0000

> <Gold.Chemscore.Lipo>
87.3749

> <Gold.Chemscore.Internal_Hbond>
0.0000

> <Gold.Chemscore.DEClash>
0.3518

> <Gold.Chemscore.DEInternal>
0.5362

> <Gold.Chemscore.Rot>
1.2474

> <Gold.Chemscore.Internal.Correction>
   9.000000E+99

> <Gold.Chemscore.Hbonds>
donor molecule, donor type, donor heavy atom, donor atom, acceptor molecule, acceptor atom, score
      L1  H     9    28       P1  7948  0.88
      L1  H    12    29       P1  7948  0.86
      P1  H  7989  7998       L1     4  0.01

> <Gold.Chemscore.Hbond.Weighted>
-6.1937

> <Gold.Chemscore.Metal.Weighted>
-0.0000

> <Gold.Chemscore.Lipo.Weighted>
-10.2229

> <Gold.Chemscore.Internal_Hbond.Weighted>
0.0000

> <Gold.Chemscore.DEClash.Weighted>
0.3518

> <Gold.Chemscore.DEInternal.Weighted>
0.5362

> <Gold.Chemscore.Rot.Weighted>
3.1934

> <Gold.Chemscore.Internal.Correction.Weighted>
   9.000000E+99

> <Gold.Protein.RotatedTorsions>
[ 6907 6896 6895 6894 ] final  -19.94 input  -60.11 | X-H torsion
[ 7974 7965 7964 7962 ] final   56.97 input  175.53 | X-H torsion
[ 8008 7997 7996 7995 ] final  157.34 input   59.86 | X-H torsion
[ 10167 10162 10161 10158 ] final  -92.03 input  -65.29 | X-H torsion
[ 10718 10713 10712 10709 ] final  -67.85 input   66.30 | X-H torsion
[ 10763 10752 10751 10750 ] final    8.41 input  -60.55 | X-H torsion
[ 11005 11000 10999 10996 ] final  -63.52 input  -57.11 | X-H torsion

> <Gold.Protein.ActiveResidues>
 VAL166  LYS551  ARG553  GLY616  TRP617  ASP618  TYR619  PRO620  LYS621  CYS622 
 ASP623  PHE694  ASN695  SER759  ASP760  ASP761  ALA762  ILE779  LEU786  VAL792 
 PHE793  MET794  SER795  GLU796  ALA797  LYS798  CYS799  TRP800  GLU811  SER814 

> <Gold.Protein.RotatedAtoms>
  151.2556  135.0637  159.9078 H   0  0  0  0  0  0  0  0  0  0  0  0  # atno 6907 bound_to 6896
  152.5373  134.0285  159.8024 H   0  0  0  0  0  0  0  0  0  0  0  0  # atno 6908 bound_to 6896
  151.0500  133.5583  159.2674 H   0  0  0  0  0  0  0  0  0  0  0  0  # atno 6909 bound_to 6896
  145.9341  139.3832  143.0403 H   0  0  0  0  0  0  0  0  0  0  0  0  # atno 7974 bound_to 7965
  156.2370  140.1888  156.7093 H   0  0  0  0  0  0  0  0  0  0  0  0  # atno 8008 bound_to 7997
  154.6125  140.0620  156.9539 H   0  0  0  0  0  0  0  0  0  0  0  0  # atno 8009 bound_to 7997
  155.1993  140.3291  155.4348 H   0  0  0  0  0  0  0  0  0  0  0  0  # atno 8010 bound_to 7997
  140.3389  143.2953  151.9857 H   0  0  0  0  0  0  0  0  0  0  0  0  # atno 10167 bound_to 10162
  156.0536  130.4285  150.1915 H   0  0  0  0  0  0  0  0  0  0  0  0  # atno 10718 bound_to 10713
  153.2253  135.6886  153.7952 H   0  0  0  0  0  0  0  0  0  0  0  0  # atno 10763 bound_to 10752
  153.7136  135.3278  155.3252 H   0  0  0  0  0  0  0  0  0  0  0  0  # atno 10764 bound_to 10752
  154.8289  135.4596  154.1117 H   0  0  0  0  0  0  0  0  0  0  0  0  # atno 10765 bound_to 10752
  141.1395  133.6653  156.5692 H   0  0  0  0  0  0  0  0  0  0  0  0  # atno 11005 bound_to 11000
  145.8387  140.9592  143.0810 LP  0  0  0  0  0  0  0  0  0  0  0  0  # atno 17320 bound_to 7965
  144.6769  140.0256  143.7483 LP  0  0  0  0  0  0  0  0  0  0  0  0  # atno 17321 bound_to 7965
  139.4843  144.6173  151.7322 LP  0  0  0  0  0  0  0  0  0  0  0  0  # atno 17342 bound_to 10162
  140.5327  144.0705  150.6059 LP  0  0  0  0  0  0  0  0  0  0  0  0  # atno 17343 bound_to 10162
  156.9994  130.9918  151.3394 LP  0  0  0  0  0  0  0  0  0  0  0  0  # atno 17370 bound_to 10713
  157.5485  130.8166  149.8115 LP  0  0  0  0  0  0  0  0  0  0  0  0  # atno 17371 bound_to 10713
  140.3926  134.7427  157.4731 LP  0  0  0  0  0  0  0  0  0  0  0  0  # atno 17394 bound_to 11000
  140.0555  134.6070  155.8811 LP  0  0  0  0  0  0  0  0  0  0  0  0  # atno 17395 bound_to 11000

$$$$
