#       Name:                AV-unprocessed.smi:2739
#       Creating user name   scv26
#       Creation time:       Fri Mar 27 15:00:05 2020


#       File generated by GOLD software.
#

@<TRIPOS>MOLECULE
AV-unprocessed.smi:2739
    40    40     1
SMALL
NO_CHARGES


@<TRIPOS>ATOM
      1 ****        -2.7303   0.0780   3.7010 C.3            1 S1                 0.0000
      2 ****        -3.0423  -0.5300   2.3261 C.3            1 S1                 0.0000
      3 ****        -2.6748   0.3883   1.1456 C.3            1 S1                 0.0000
      4 ****        -3.1094  -0.2173  -0.1983 C.3            1 S1                 0.0000
      5 ****        -1.2363   0.6419   1.1295 N.am           1 S1                 0.0000
      6 ****        -0.6461   1.7606   0.6805 C.2            1 S1                 0.0000
      7 ****        -1.2656   2.7329   0.2495 O.2            1 S1                 0.0000
      8 ****         0.8821   1.7789   0.7053 C.3            1 S1                 0.0000
      9 ****         1.4218   1.1791  -0.5012 N.pl3          1 S1                 0.0000
     10 ****         1.6439   1.7718  -1.7255 C.2            1 S1                 0.0000
     11 ****         2.1426   0.8103  -2.5562 C.2            1 S1                 0.0000
     12 ****         2.1889  -0.3601  -1.7438 C.2            1 S1                 0.0000
     13 ****         2.6535  -1.7437  -2.1167 C.3            1 S1                 0.0000
     14 ****         4.0998  -1.9912  -1.6675 C.3            1 S1                 0.0000
     15 ****         2.5751  -1.9739  -3.5082 O.3            1 S1                 0.0000
     16 ****         1.7598  -0.1287  -0.5110 N.2            1 S1                 0.0000
     17 ****        -3.0545  -0.5886   4.5004 H              1 S1                 0.0000
     18 ****        -3.2444   1.0303   3.8349 H              1 S1                 0.0000
     19 ****        -1.6619   0.2518   3.8305 H              1 S1                 0.0000
     20 ****        -2.5243  -1.4850   2.2280 H              1 S1                 0.0000
     21 ****        -4.1080  -0.7583   2.2826 H              1 S1                 0.0000
     22 ****        -3.2061   1.3322   1.2810 H              1 S1                 0.0000
     23 ****        -4.1832  -0.4047  -0.2154 H              1 S1                 0.0000
     24 ****        -2.6028  -1.1642  -0.3888 H              1 S1                 0.0000
     25 ****        -2.8812   0.4546  -1.0265 H              1 S1                 0.0000
     26 ****        -0.6407  -0.1031   1.4610 H              1 S1                 0.0000
     27 ****         1.2400   2.8068   0.7777 H              1 S1                 0.0000
     28 ****         1.2575   1.2452   1.5803 H              1 S1                 0.0000
     29 ****         1.4274   2.8152  -1.9019 H              1 S1                 0.0000
     30 ****         2.4292   0.9241  -3.5911 H              1 S1                 0.0000
     31 ****         2.0100  -2.4832  -1.6384 H              1 S1                 0.0000
     32 ****         4.1995  -1.8811  -0.5874 H              1 S1                 0.0000
     33 ****         4.7867  -1.2869  -2.1382 H              1 S1                 0.0000
     34 ****         4.4256  -2.9990  -1.9266 H              1 S1                 0.0000
     35 ****         1.6702  -1.9026  -3.7711 H              1 S1                 0.0000
     36 ****        -2.2651   2.7162   0.2205 LP             1 S1                 0.0000
     37 ****        -0.7695   3.5395  -0.0717 LP             1 S1                 0.0000
     38 ****         2.9170  -2.8897  -3.7190 LP             1 S1                 0.0000
     39 ****         3.1229  -1.2933  -3.9947 LP             1 S1                 0.0000
     40 ****         1.6995  -0.7796   0.2458 LP             1 S1                 0.0000
@<TRIPOS>BOND
    1    1    2 1     
    2    1   17 1     
    3    1   18 1     
    4    1   19 1     
    5    2    3 1     
    6    2   20 1     
    7    2   21 1     
    8    3    4 1     
    9    3    5 1     
   10    3   22 1     
   11    4   23 1     
   12    4   24 1     
   13    4   25 1     
   14    5    6 am    
   15    5   26 1     
   16    6    7 2     
   17    6    8 1     
   18    8    9 1     
   19    8   27 1     
   20    8   28 1     
   21    9   16 1     
   22    9   10 1     
   23   10   11 2     
   24   10   29 1     
   25   11   12 1     
   26   11   30 1     
   27   12   13 1     
   28   12   16 2     
   29   13   14 1     
   30   13   15 1     
   31   13   31 1     
   32   14   32 1     
   33   14   33 1     
   34   14   34 1     
   35   15   35 1     
   36    7   36 1     
   37    7   37 1     
   38   15   38 1     
   39   15   39 1     
   40   16   40 1     
@<TRIPOS>SUBSTRUCTURE
      1 S1             1
@<TRIPOS>SET
LONE_PAIRS      STATIC     ATOMS    <user>   **** ""
5 36 37 38 39 40
DONOR_HYDROGENS      STATIC     ATOMS    <user>   **** ""
2 26 35
ATOM$BLUE        STATIC     ATOMS    COLORGROUP SYSTEM
5 36 37 38 39 40
ATOM$RED        STATIC     ATOMS    COLORGROUP SYSTEM
2 26 35
