AV-unprocessed.smi:1413|AV-procd|sdf|5748|dock1
  -GOLD-   22720 5383D 1   1.00000     0.00000
 Structure written by MMmdl.
 53 55  0  0  0  0  0  0  0  0  1 V2000
  153.4611  141.3521  160.2374 C   0  0  0  0  0  0  0  0  0  0  0  0
  152.3045  141.9492  159.4290 C   0  0  2  0  0  0  0  0  0  0  0  0
  151.9112  141.0507  158.2428 C   0  0  0  0  0  0  0  0  0  0  0  0
  150.8952  141.7047  157.4247 N   0  0  0  0  0  0  0  0  0  0  0  0
  150.2187  140.8699  156.5086 C   0  0  0  0  0  0  0  0  0  0  0  0
  148.9940  140.2621  156.8703 C   0  0  0  0  0  0  0  0  0  0  0  0
  148.3432  139.4263  155.9437 C   0  0  0  0  0  0  0  0  0  0  0  0
  148.9213  139.2133  154.6771 C   0  0  0  0  0  0  0  0  0  0  0  0
  148.2276  138.3589  153.7753 N   0  0  0  0  0  0  0  0  0  0  0  0
  146.9077  138.2444  153.5467 C   0  0  0  0  0  0  0  0  0  0  0  0
  146.0218  138.8782  154.1181 O   0  0  0  0  0  0  0  0  0  0  0  0
  146.6653  137.3332  152.5939 N   0  0  0  0  0  0  0  0  0  0  0  0
  145.3447  136.9630  152.0898 C   0  0  2  0  0  0  0  0  0  0  0  0
  144.4128  136.6390  153.2687 C   0  0  0  0  0  0  0  0  0  0  0  0
  145.4716  135.7784  151.1124 C   0  0  2  0  0  0  0  0  0  0  0  0
  144.1397  135.2577  150.5653 C   0  0  0  0  0  0  0  0  0  0  0  0
  144.4881  133.8298  150.2153 C   0  0  0  0  0  0  0  0  0  0  0  0
  145.4118  133.4486  151.3668 C   0  0  0  0  0  0  0  0  0  0  0  0
  146.0619  134.6538  151.7620 O   0  0  0  0  0  0  0  0  0  0  0  0
  150.1425  139.8738  154.3993 C   0  0  0  0  0  0  0  0  0  0  0  0
  150.7695  140.6761  155.2857 N   0  0  0  0  0  0  0  0  0  0  0  0
  151.2915  143.0383  156.9762 C   0  0  0  0  0  0  0  0  0  0  0  0
  151.7366  143.9146  158.1638 C   0  0  1  0  0  0  0  0  0  0  0  0
  150.5652  144.4291  159.0197 C   0  0  0  0  0  0  0  0  0  0  0  0
  152.7160  143.2274  158.9461 O   0  0  0  0  0  0  0  0  0  0  0  0
  153.1944  140.3743  160.6396 H   0  0  0  0  0  0  0  0  0  0  0  0
  153.7230  141.9968  161.0767 H   0  0  0  0  0  0  0  0  0  0  0  0
  154.3521  141.2288  159.6208 H   0  0  0  0  0  0  0  0  0  0  0  0
  151.4514  142.0656  160.0978 H   0  0  0  0  0  0  0  0  0  0  0  0
  152.7831  140.8485  157.6189 H   0  0  0  0  0  0  0  0  0  0  0  0
  151.5675  140.0900  158.6233 H   0  0  0  0  0  0  0  0  0  0  0  0
  148.5429  140.4362  157.8358 H   0  0  0  0  0  0  0  0  0  0  0  0
  147.4070  138.9557  156.2074 H   0  0  0  0  0  0  0  0  0  0  0  0
  148.8191  137.7674  153.2107 H   0  0  0  0  0  0  0  0  0  0  0  0
  147.4548  136.8603  152.1790 H   0  0  0  0  0  0  0  0  0  0  0  0
  144.9218  137.8047  151.5379 H   0  0  0  0  0  0  0  0  0  0  0  0
  143.4128  136.3798  152.9207 H   0  0  0  0  0  0  0  0  0  0  0  0
  144.3130  137.4936  153.9388 H   0  0  0  0  0  0  0  0  0  0  0  0
  144.7892  135.7988  153.8532 H   0  0  0  0  0  0  0  0  0  0  0  0
  146.1150  136.0496  150.2736 H   0  0  0  0  0  0  0  0  0  0  0  0
  143.3718  135.2737  151.3403 H   0  0  0  0  0  0  0  0  0  0  0  0
  143.7756  135.8292  149.7111 H   0  0  0  0  0  0  0  0  0  0  0  0
  143.6159  133.1807  150.1344 H   0  0  0  0  0  0  0  0  0  0  0  0
  145.0303  133.7971  149.2692 H   0  0  0  0  0  0  0  0  0  0  0  0
  144.8320  133.0764  152.2123 H   0  0  0  0  0  0  0  0  0  0  0  0
  146.1321  132.6803  151.0851 H   0  0  0  0  0  0  0  0  0  0  0  0
  150.6519  139.7822  153.4544 H   0  0  0  0  0  0  0  0  0  0  0  0
  152.1151  142.9380  156.2677 H   0  0  0  0  0  0  0  0  0  0  0  0
  150.4713  143.5267  156.4485 H   0  0  0  0  0  0  0  0  0  0  0  0
  152.2362  144.7939  157.7561 H   0  0  0  0  0  0  0  0  0  0  0  0
  149.9042  145.0620  158.4273 H   0  0  0  0  0  0  0  0  0  0  0  0
  150.9284  145.0251  159.8571 H   0  0  0  0  0  0  0  0  0  0  0  0
  149.9589  143.6184  159.4225 H   0  0  0  0  0  0  0  0  0  0  0  0
  1  2  1  0  0  0  0
  1 26  1  0  0  0  0
  1 27  1  0  0  0  0
  1 28  1  0  0  0  0
  2 25  1  0  0  0  0
  2  3  1  0  0  0  0
  2 29  1  0  0  0  0
  3  4  1  0  0  0  0
  3 30  1  0  0  0  0
  3 31  1  0  0  0  0
  4  5  1  0  0  0  0
  4 22  1  0  0  0  0
  5 21  1  0  0  0  0
  5  6  2  0  0  0  0
  6  7  1  0  0  0  0
  6 32  1  0  0  0  0
  7  8  2  0  0  0  0
  7 33  1  0  0  0  0
  8  9  1  0  0  0  0
  8 20  1  0  0  0  0
  9 10  1  0  0  0  0
  9 34  1  0  0  0  0
 10 11  2  0  0  0  0
 10 12  1  0  0  0  0
 12 13  1  0  0  0  0
 12 35  1  0  0  0  0
 13 14  1  0  0  0  0
 13 15  1  0  0  0  0
 13 36  1  0  0  0  0
 14 37  1  0  0  0  0
 14 38  1  0  0  0  0
 14 39  1  0  0  0  0
 15 19  1  0  0  0  0
 15 16  1  0  0  0  0
 15 40  1  0  0  0  0
 16 17  1  0  0  0  0
 16 41  1  0  0  0  0
 16 42  1  0  0  0  0
 17 18  1  0  0  0  0
 17 43  1  0  0  0  0
 17 44  1  0  0  0  0
 18 19  1  0  0  0  0
 18 45  1  0  0  0  0
 18 46  1  0  0  0  0
 20 21  2  0  0  0  0
 20 47  1  0  0  0  0
 22 23  1  0  0  0  0
 22 48  1  0  0  0  0
 22 49  1  0  0  0  0
 23 24  1  0  0  0  0
 23 25  1  0  0  0  0
 23 50  1  0  0  0  0
 24 51  1  0  0  0  0
 24 52  1  0  0  0  0
 24 53  1  0  0  0  0
M  END
> <s_m_source_file>
AV-unprocessed.smi

> <i_m_source_file_index>
1413

> <i_lp_mmshare_version>
43012

> <i_f3d_flags>
0

> <s_epik_input>
W0NIM11bQ0BASF0xW0NIMl1OKFtDSDJdW0NASF0oTzEpW0NIM10pYzJbY0hdW2NIXWMoW2NIXW4yKVtOSF1DKD1PKVtOSF1bQ0BIXShbQ0gzXSlbQ0BASF0zW0NIMl1bQ0gyXVtDSDJdTzM=

> <s_epik_cmdline>
J2VwaWtfcHl0aG9uJywgJy1waCcsICc3LjAnLCAnLXRuJywgJzgnLCAnLW1hJywgJzIwMCcsICctbWV0YWxfYmluZGluZycsICctaW1hZScsICc8aW5maWxlLm1hZT4nLCAnLW9tYWUnLCAnPG91dGZpbGUubWFlPic=

> <r_lp_tautomer_probability>
1

> <r_epik_Ionization_Penalty>
0.00271172

> <r_epik_Ionization_Penalty_Charging>
0

> <r_epik_Ionization_Penalty_Neutral>
0.00271172

> <r_epik_State_Penalty>
0.00186503

> <r_epik_Charging_Adjusted_Penalty>
0.00186503

> <i_epik_Tot_Q>
0

> <i_epik_Tot_abs_Q>
0

> <r_epik_Metal_State_Penalty>
-0

> <b_epik_Metal_Only>
0

> <s_lp_Force_Field>
OPLS_2005

> <r_lp_Energy>
36.1069

> <b_lp_Chiralities_Consistent>
1

> <s_lp_Variant>
AV-unprocessed.smi:1413-1

> <Gold.Version>
5.8.1

> <Gold.Id.Protein>
6NUR|6NUR_protein|mol2

> <Gold.PLP.Fitness>
47.9500

> <Gold.PLP.PLP>
-40.3714

> <Gold.PLP.part.hbond>
-3.0000

> <Gold.PLP.part.metal>
0.0000

> <Gold.PLP.part.buried>
-5.1730

> <Gold.PLP.part.nonpolar>
-33.4592

> <Gold.PLP.part.repulsive>
0.4297

> <Gold.PLP.ligand.clash>
0.0000

> <Gold.PLP.ligand.torsion>
0.7949

> <Gold.PLP.Chemscore.Hbond>
1.9920

> <Gold.PLP.Chemscore.CHOScore>
0.9398

> <Gold.PLP.Chemscore.Metal>
0.0000

> <Gold.Chemscore.Hbonds>
donor molecule, donor type, donor heavy atom, donor atom, acceptor molecule, acceptor atom, score
      L1  H     9    34       P1  7948  0.98
      L1  H    12    35       P1  7948  1.00
      L1  C    20    47       P1  7957  0.94

> <Gold.PLP.Chemscore.Internal.Correction>
0.3729

> <Gold.Rescore>
     Score         DG    S(hbond)    S(metal)    S(lipo)     H(rot)  DE(clash)    DE(int)     intcor
     17.85     -21.12       1.93        0.00     108.04       1.35       0.22       3.05       ----

> <Gold.Chemscore.Fitness>
17.8503

> <Gold.Chemscore.DG>
-21.1199

> <Gold.Chemscore.ZeroCoef>
-5.4800

> <Gold.Chemscore.Hbond>
1.9304

> <Gold.Chemscore.Metal>
0.0000

> <Gold.Chemscore.Lipo>
108.0412

> <Gold.Chemscore.Internal_Hbond>
0.0000

> <Gold.Chemscore.DEClash>
0.2186

> <Gold.Chemscore.DEInternal>
3.0510

> <Gold.Chemscore.Rot>
1.3471

> <Gold.Chemscore.Internal.Correction>
   9.000000E+99

> <Gold.Chemscore.Hbonds>
donor molecule, donor type, donor heavy atom, donor atom, acceptor molecule, acceptor atom, score
      L1  H     9    34       P1  7948  0.87
      L1  H    12    35       P1  7948  1.00

> <Gold.Chemscore.Hbond.Weighted>
-6.4477

> <Gold.Chemscore.Metal.Weighted>
-0.0000

> <Gold.Chemscore.Lipo.Weighted>
-12.6408

> <Gold.Chemscore.Internal_Hbond.Weighted>
0.0000

> <Gold.Chemscore.DEClash.Weighted>
0.2186

> <Gold.Chemscore.DEInternal.Weighted>
3.0510

> <Gold.Chemscore.Rot.Weighted>
3.4485

> <Gold.Chemscore.Internal.Correction.Weighted>
   9.000000E+99

> <Gold.Protein.RotatedTorsions>
[ 6907 6896 6895 6894 ] final -176.77 input  -60.11 | X-H torsion
[ 7974 7965 7964 7962 ] final -134.92 input  175.53 | X-H torsion
[ 8008 7997 7996 7995 ] final  -96.17 input   59.86 | X-H torsion
[ 10167 10162 10161 10158 ] final  -48.61 input  -65.29 | X-H torsion
[ 10718 10713 10712 10709 ] final  102.45 input   66.30 | X-H torsion
[ 10763 10752 10751 10750 ] final -155.39 input  -60.55 | X-H torsion
[ 11005 11000 10999 10996 ] final   84.13 input  -57.11 | X-H torsion

> <Gold.Protein.ActiveResidues>
 VAL166  LYS551  ARG553  GLY616  TRP617  ASP618  TYR619  PRO620  LYS621  CYS622 
 ASP623  PHE694  ASN695  SER759  ASP760  ASP761  ALA762  ILE779  LEU786  VAL792 
 PHE793  MET794  SER795  GLU796  ALA797  LYS798  CYS799  TRP800  GLU811  SER814 

> <Gold.Protein.RotatedAtoms>
  151.6102  133.3348  159.3065 H   0  0  0  0  0  0  0  0  0  0  0  0  # atno 6907 bound_to 6896
  150.8160  134.7346  159.6742 H   0  0  0  0  0  0  0  0  0  0  0  0  # atno 6908 bound_to 6896
  152.4256  134.5879  160.0017 H   0  0  0  0  0  0  0  0  0  0  0  0  # atno 6909 bound_to 6896
  144.9060  140.6833  143.5055 H   0  0  0  0  0  0  0  0  0  0  0  0  # atno 7974 bound_to 7965
  154.7710  140.0473  157.1051 H   0  0  0  0  0  0  0  0  0  0  0  0  # atno 8008 bound_to 7997
  154.9820  140.3102  155.4923 H   0  0  0  0  0  0  0  0  0  0  0  0  # atno 8009 bound_to 7997
  156.2921  140.2234  156.4920 H   0  0  0  0  0  0  0  0  0  0  0  0  # atno 8010 bound_to 7997
  140.6723  143.2733  151.4095 H   0  0  0  0  0  0  0  0  0  0  0  0  # atno 10167 bound_to 10162
  157.6802  131.0753  150.5405 H   0  0  0  0  0  0  0  0  0  0  0  0  # atno 10718 bound_to 10713
  154.7791  135.3169  154.8029 H   0  0  0  0  0  0  0  0  0  0  0  0  # atno 10763 bound_to 10752
  153.8745  135.6841  153.4776 H   0  0  0  0  0  0  0  0  0  0  0  0  # atno 10764 bound_to 10752
  153.1422  135.4734  154.9450 H   0  0  0  0  0  0  0  0  0  0  0  0  # atno 10765 bound_to 10752
  139.9009  134.8195  156.2404 H   0  0  0  0  0  0  0  0  0  0  0  0  # atno 11005 bound_to 11000
  145.3535  139.1700  143.4422 LP  0  0  0  0  0  0  0  0  0  0  0  0  # atno 17320 bound_to 7965
  146.3134  140.3589  142.8663 LP  0  0  0  0  0  0  0  0  0  0  0  0  # atno 17321 bound_to 7965
  139.5998  144.1320  152.2185 LP  0  0  0  0  0  0  0  0  0  0  0  0  # atno 17342 bound_to 10162
  140.0701  144.5786  150.7198 LP  0  0  0  0  0  0  0  0  0  0  0  0  # atno 17343 bound_to 10162
  156.5712  130.4280  149.6018 LP  0  0  0  0  0  0  0  0  0  0  0  0  # atno 17370 bound_to 10713
  156.2739  130.7032  151.1838 LP  0  0  0  0  0  0  0  0  0  0  0  0  # atno 17371 bound_to 10713
  141.0289  133.7000  156.1395 LP  0  0  0  0  0  0  0  0  0  0  0  0  # atno 17394 bound_to 11000
  140.7126  134.4445  157.5580 LP  0  0  0  0  0  0  0  0  0  0  0  0  # atno 17395 bound_to 11000

$$$$
