AV-unprocessed.smi:3195|AV-procd|sdf|12216|dock3
  -GOLD-   2272018 53D 1   1.00000     0.00000
 Structure written by MMmdl.
 30 31  0  0  0  0  0  0  0  0  3 V2000
  149.4330  139.1888  154.1177 C   0  0  0  0  0  0  0  0  0  0  0  0
  149.0849  140.5172  154.8111 C   0  0  2  0  0  0  0  0  0  0  0  0
  150.2921  141.0312  155.6246 C   0  0  0  0  0  0  0  0  0  0  0  0
  151.3901  140.4922  155.4732 O   0  0  0  0  0  0  0  0  0  0  0  0
  150.0663  142.0634  156.4605 N   0  0  0  0  0  0  0  0  0  0  0  0
  150.9768  142.7268  157.3291 C   0  0  0  0  0  0  0  0  0  0  0  0
  151.0821  144.0788  157.3689 N   0  3  0  0  0  0  0  0  0  0  0  0
  151.9368  144.7387  158.1797 C   0  0  0  0  0  0  0  0  0  0  0  0
  152.7797  144.0158  159.0453 C   0  0  0  0  0  0  0  0  0  0  0  0
  152.7116  142.6085  159.0455 C   0  0  0  0  0  0  0  0  0  0  0  0
  151.8048  141.9573  158.1825 C   0  0  0  0  0  0  0  0  0  0  0  0
  151.7407  140.5919  158.1829 O   0  5  0  0  0  0  0  0  0  0  0  0
  147.8125  140.4000  155.6836 C   0  0  0  0  0  0  0  0  0  0  0  0
  146.7881  141.2731  154.9810 C   0  0  0  0  0  0  0  0  0  0  0  0
  147.6597  142.2676  154.2320 C   0  0  0  0  0  0  0  0  0  0  0  0
  148.7417  141.4611  153.7908 O   0  0  0  0  0  0  0  0  0  0  0  0
  149.6553  138.4048  154.8430 H   0  0  0  0  0  0  0  0  0  0  0  0
  150.3015  139.2962  153.4667 H   0  0  0  0  0  0  0  0  0  0  0  0
  148.6034  138.8412  153.5013 H   0  0  0  0  0  0  0  0  0  0  0  0
  149.1196  142.4159  156.4864 H   0  0  0  0  0  0  0  0  0  0  0  0
  151.9200  145.8164  158.1106 H   0  0  0  0  0  0  0  0  0  0  0  0
  153.4683  144.5308  159.6984 H   0  0  0  0  0  0  0  0  0  0  0  0
  153.3507  142.0356  159.7016 H   0  0  0  0  0  0  0  0  0  0  0  0
  150.4816  144.6253  156.7507 H   0  0  0  0  0  0  0  0  0  0  0  0
  147.4583  139.3728  155.7823 H   0  0  0  0  0  0  0  0  0  0  0  0
  147.9756  140.7783  156.6944 H   0  0  0  0  0  0  0  0  0  0  0  0
  146.2154  140.6760  154.2703 H   0  0  0  0  0  0  0  0  0  0  0  0
  146.0886  141.7510  155.6673 H   0  0  0  0  0  0  0  0  0  0  0  0
  147.1421  142.7399  153.3969 H   0  0  0  0  0  0  0  0  0  0  0  0
  148.0258  143.0490  154.8997 H   0  0  0  0  0  0  0  0  0  0  0  0
  1  2  1  0  0  0  0
  1 17  1  0  0  0  0
  1 18  1  0  0  0  0
  1 19  1  0  0  0  0
  2 16  1  0  0  0  0
  2  3  1  0  0  0  0
  2 13  1  0  0  0  0
  3  4  2  0  0  0  0
  3  5  1  0  0  0  0
  5 20  1  0  0  0  0
  5  6  1  0  0  0  0
  6 11  2  0  0  0  0
  6  7  1  0  0  0  0
  7 24  1  0  0  0  0
  7  8  2  0  0  0  0
  8 21  1  0  0  0  0
  8  9  1  0  0  0  0
  9 22  1  0  0  0  0
  9 10  2  0  0  0  0
 10 11  1  0  0  0  0
 10 23  1  0  0  0  0
 11 12  1  0  0  0  0
 13 14  1  0  0  0  0
 13 25  1  0  0  0  0
 13 26  1  0  0  0  0
 14 15  1  0  0  0  0
 14 27  1  0  0  0  0
 14 28  1  0  0  0  0
 15 16  1  0  0  0  0
 15 29  1  0  0  0  0
 15 30  1  0  0  0  0
M  CHG  1   7   1
M  CHG  1  12  -1
M  END
> <s_m_source_file>
AV-unprocessed.smi

> <i_m_source_file_index>
3195

> <i_lp_mmshare_version>
43012

> <i_f3d_flags>
0

> <s_epik_input>
TzFbQ0gyXVtDSDJdW0NIMl1bQ0BAXTEoW0NIM10pQyg9TylbTkhdYzJuW2NIXVtjSF1bY0hdYzJbT0hd

> <s_epik_cmdline>
J2VwaWtfcHl0aG9uJywgJy1waCcsICc3LjAnLCAnLXRuJywgJzgnLCAnLW1hJywgJzIwMCcsICctbWV0YWxfYmluZGluZycsICctaW1hZScsICc8aW5maWxlLm1hZT4nLCAnLW9tYWUnLCAnPG91dGZpbGUubWFlPic=

> <r_lp_tautomer_probability>
0.56342

> <r_epik_Ionization_Penalty>
0.213843

> <r_epik_Ionization_Penalty_Charging>
0.0241245

> <r_epik_Ionization_Penalty_Neutral>
0.189718

> <r_epik_State_Penalty>
0.53074

> <r_epik_Charging_Adjusted_Penalty>
0.554865

> <i_epik_Tot_Q>
0

> <i_epik_Tot_abs_Q>
2

> <r_epik_Metal_State_Penalty>
2.53391

> <b_epik_Metal_Only>
0

> <s_lp_Force_Field>
OPLS_2005

> <r_lp_Energy>
20.8299

> <b_lp_Chiralities_Consistent>
1

> <s_lp_Variant>
AV-unprocessed.smi:3195-4

> <Gold.Version>
5.8.1

> <Gold.Id.Protein>
6NUR|6NUR_protein|mol2

> <Gold.PLP.Fitness>
43.6428

> <Gold.PLP.PLP>
-34.2182

> <Gold.PLP.part.hbond>
-4.0000

> <Gold.PLP.part.metal>
0.0000

> <Gold.PLP.part.buried>
-3.7914

> <Gold.PLP.part.nonpolar>
-27.5606

> <Gold.PLP.part.repulsive>
0.4256

> <Gold.PLP.ligand.clash>
0.0000

> <Gold.PLP.ligand.torsion>
0.8775

> <Gold.PLP.Chemscore.Hbond>
3.5568

> <Gold.PLP.Chemscore.CHOScore>
0.0000

> <Gold.PLP.Chemscore.Metal>
0.0000

> <Gold.Chemscore.Hbonds>
donor molecule, donor type, donor heavy atom, donor atom, acceptor molecule, acceptor atom, score
      L1  H     7    24       P1  8028  2.00
      P1  H  7989  7998       L1     4  0.82
      P1  H  8011  8017       L1    16  0.73

> <Gold.PLP.Chemscore.Internal.Correction>
0.5092

> <Gold.Rescore>
     Score         DG    S(hbond)    S(metal)    S(lipo)     H(rot)  DE(clash)    DE(int)     intcor
     16.65     -18.44       2.09        0.00      73.07       1.00       0.42       1.36       ----

> <Gold.Chemscore.Fitness>
16.6550

> <Gold.Chemscore.DG>
-18.4398

> <Gold.Chemscore.ZeroCoef>
-5.4800

> <Gold.Chemscore.Hbond>
2.0869

> <Gold.Chemscore.Metal>
0.0000

> <Gold.Chemscore.Lipo>
73.0721

> <Gold.Chemscore.Internal_Hbond>
0.0000

> <Gold.Chemscore.DEClash>
0.4199

> <Gold.Chemscore.DEInternal>
1.3649

> <Gold.Chemscore.Rot>
1.0000

> <Gold.Chemscore.Internal.Correction>
   9.000000E+99

> <Gold.Chemscore.Hbonds>
donor molecule, donor type, donor heavy atom, donor atom, acceptor molecule, acceptor atom, score
      L1  H     5    20       P1  8028  0.01
      L1  H     7    24       P1  8028  0.83
      P1  H  7989  7998       L1     4  0.17
      P1  H  8011  8017       L1    16  0.51

> <Gold.Chemscore.Hbond.Weighted>
-6.9704

> <Gold.Chemscore.Metal.Weighted>
-0.0000

> <Gold.Chemscore.Lipo.Weighted>
-8.5494

> <Gold.Chemscore.Internal_Hbond.Weighted>
0.0000

> <Gold.Chemscore.DEClash.Weighted>
0.4199

> <Gold.Chemscore.DEInternal.Weighted>
1.3649

> <Gold.Chemscore.Rot.Weighted>
2.5600

> <Gold.Chemscore.Internal.Correction.Weighted>
   9.000000E+99

> <Gold.Protein.RotatedTorsions>
[ 6907 6896 6895 6894 ] final -104.91 input  -60.11 | X-H torsion
[ 7974 7965 7964 7962 ] final  -79.55 input  175.53 | X-H torsion
[ 8008 7997 7996 7995 ] final  -19.06 input   59.86 | X-H torsion
[ 10167 10162 10161 10158 ] final  -35.10 input  -65.29 | X-H torsion
[ 10718 10713 10712 10709 ] final  -27.97 input   66.30 | X-H torsion
[ 10763 10752 10751 10750 ] final   21.95 input  -60.55 | X-H torsion
[ 11005 11000 10999 10996 ] final  156.25 input  -57.11 | X-H torsion

> <Gold.Protein.ActiveResidues>
 VAL166  LYS551  ARG553  GLY616  TRP617  ASP618  TYR619  PRO620  LYS621  CYS622 
 ASP623  PHE694  ASN695  SER759  ASP760  ASP761  ALA762  ILE779  LEU786  VAL792 
 PHE793  MET794  SER795  GLU796  ALA797  LYS798  CYS799  TRP800  GLU811  SER814 

> <Gold.Protein.RotatedAtoms>
  150.7310  134.0206  159.3699 H   0  0  0  0  0  0  0  0  0  0  0  0  # atno 6907 bound_to 6896
  151.8170  135.0661  160.0429 H   0  0  0  0  0  0  0  0  0  0  0  0  # atno 6908 bound_to 6896
  152.3031  133.5639  159.5668 H   0  0  0  0  0  0  0  0  0  0  0  0  # atno 6909 bound_to 6896
  145.5717  140.9465  143.1392 H   0  0  0  0  0  0  0  0  0  0  0  0  # atno 7974 bound_to 7965
  154.4863  140.2099  155.9649 H   0  0  0  0  0  0  0  0  0  0  0  0  # atno 8008 bound_to 7997
  156.1240  140.3208  155.8219 H   0  0  0  0  0  0  0  0  0  0  0  0  # atno 8009 bound_to 7997
  155.4417  140.0510  157.3000 H   0  0  0  0  0  0  0  0  0  0  0  0  # atno 8010 bound_to 7997
  140.7172  143.3501  151.2174 H   0  0  0  0  0  0  0  0  0  0  0  0  # atno 10167 bound_to 10162
  156.4313  130.4445  149.7115 H   0  0  0  0  0  0  0  0  0  0  0  0  # atno 10718 bound_to 10713
  153.0954  135.6658  153.9773 H   0  0  0  0  0  0  0  0  0  0  0  0  # atno 10763 bound_to 10752
  153.9358  135.2999  155.3445 H   0  0  0  0  0  0  0  0  0  0  0  0  # atno 10764 bound_to 10752
  154.7372  135.5096  153.9136 H   0  0  0  0  0  0  0  0  0  0  0  0  # atno 10765 bound_to 10752
  140.1658  134.8578  157.2630 H   0  0  0  0  0  0  0  0  0  0  0  0  # atno 11005 bound_to 11000
  144.7435  139.7385  143.7301 LP  0  0  0  0  0  0  0  0  0  0  0  0  # atno 17320 bound_to 7965
  146.1779  139.4958  142.9885 LP  0  0  0  0  0  0  0  0  0  0  0  0  # atno 17321 bound_to 7965
  139.7029  143.9502  152.2914 LP  0  0  0  0  0  0  0  0  0  0  0  0  # atno 17342 bound_to 10162
  139.9202  144.6804  150.8470 LP  0  0  0  0  0  0  0  0  0  0  0  0  # atno 17343 bound_to 10162
  156.4017  130.7678  151.2686 LP  0  0  0  0  0  0  0  0  0  0  0  0  # atno 17370 bound_to 10713
  157.7508  131.0238  150.3848 LP  0  0  0  0  0  0  0  0  0  0  0  0  # atno 17371 bound_to 10713
  140.2436  134.3766  155.7470 LP  0  0  0  0  0  0  0  0  0  0  0  0  # atno 17394 bound_to 11000
  141.2213  133.7278  156.8827 LP  0  0  0  0  0  0  0  0  0  0  0  0  # atno 17395 bound_to 11000

$$$$
