AV-unprocessed.smi:3354|AV-procd|sdf|12955|dock1
  -GOLD-   2272019393D 1   1.00000     0.00000
 Structure written by MMmdl.
 38 40  0  0  0  0  0  0  0  0  1 V2000
  143.4736  132.7464  148.5988 C   0  0  0  0  0  0  0  0  0  0  0  0
  144.4428  132.9063  149.7499 C   0  0  2  0  0  0  0  0  0  0  0  0
  144.7505  131.7308  150.6471 C   0  0  0  0  0  0  0  0  0  0  0  0
  143.9556  132.9059  151.1829 C   0  0  1  0  0  0  0  0  0  0  0  0
  144.5496  133.8278  152.1061 N   0  0  0  0  0  0  0  0  0  0  0  0
  145.9593  133.7730  152.4681 C   0  0  0  0  0  0  0  0  0  0  0  0
  146.0946  134.6428  153.7328 C   0  0  1  0  0  0  0  0  0  0  0  0
  147.2477  135.5366  153.6650 N   0  0  0  0  0  0  0  0  0  0  0  0
  147.6144  136.3916  154.6299 C   0  0  0  0  0  0  0  0  0  0  0  0
  147.0195  136.4960  155.7021 O   0  0  0  0  0  0  0  0  0  0  0  0
  148.7065  137.0878  154.2695 N   0  0  0  0  0  0  0  0  0  0  0  0
  149.3943  138.1093  154.9808 C   0  0  0  0  0  0  0  0  0  0  0  0
  149.2763  138.3411  156.3734 C   0  0  0  0  0  0  0  0  0  0  0  0
  150.0027  139.4008  156.9502 C   0  0  0  0  0  0  0  0  0  0  0  0
  150.8146  140.1934  156.1163 C   0  0  0  0  0  0  0  0  0  0  0  0
  150.9290  139.9913  154.7870 N   0  0  0  0  0  0  0  0  0  0  0  0
  150.2296  138.9737  154.2410 C   0  0  0  0  0  0  0  0  0  0  0  0
  144.7772  135.4227  153.8325 C   0  0  0  0  0  0  0  0  0  0  0  0
  143.8675  134.7065  152.8493 C   0  0  0  0  0  0  0  0  0  0  0  0
  142.6583  134.9250  152.7840 O   0  0  0  0  0  0  0  0  0  0  0  0
  142.6553  132.0788  148.8699 H   0  0  0  0  0  0  0  0  0  0  0  0
  143.9874  132.3328  147.7311 H   0  0  0  0  0  0  0  0  0  0  0  0
  143.0551  133.7154  148.3267 H   0  0  0  0  0  0  0  0  0  0  0  0
  145.2800  133.5653  149.5265 H   0  0  0  0  0  0  0  0  0  0  0  0
  144.2075  130.8046  150.4704 H   0  0  0  0  0  0  0  0  0  0  0  0
  145.7884  131.6023  150.9461 H   0  0  0  0  0  0  0  0  0  0  0  0
  142.8937  132.7147  151.3315 H   0  0  0  0  0  0  0  0  0  0  0  0
  146.2834  132.7491  152.6594 H   0  0  0  0  0  0  0  0  0  0  0  0
  146.5503  134.1673  151.6397 H   0  0  0  0  0  0  0  0  0  0  0  0
  146.1809  133.9973  154.6095 H   0  0  0  0  0  0  0  0  0  0  0  0
  147.7971  135.5087  152.8184 H   0  0  0  0  0  0  0  0  0  0  0  0
  149.1157  136.8350  153.3821 H   0  0  0  0  0  0  0  0  0  0  0  0
  148.6405  137.7444  157.0080 H   0  0  0  0  0  0  0  0  0  0  0  0
  149.9349  139.6039  158.0087 H   0  0  0  0  0  0  0  0  0  0  0  0
  151.3832  141.0146  156.5271 H   0  0  0  0  0  0  0  0  0  0  0  0
  150.3431  138.8447  153.1742 H   0  0  0  0  0  0  0  0  0  0  0  0
  144.3646  135.4032  154.8419 H   0  0  0  0  0  0  0  0  0  0  0  0
  144.8852  136.4627  153.5212 H   0  0  0  0  0  0  0  0  0  0  0  0
  1  2  1  0  0  0  0
  1 21  1  0  0  0  0
  1 22  1  0  0  0  0
  1 23  1  0  0  0  0
  2  4  1  0  0  0  0
  2  3  1  0  0  0  0
  2 24  1  0  0  0  0
  3  4  1  0  0  0  0
  3 25  1  0  0  0  0
  3 26  1  0  0  0  0
  4  5  1  0  0  0  0
  4 27  1  0  0  0  0
  5 19  1  0  0  0  0
  5  6  1  0  0  0  0
  6  7  1  0  0  0  0
  6 28  1  0  0  0  0
  6 29  1  0  0  0  0
  7  8  1  0  0  0  0
  7 18  1  0  0  0  0
  7 30  1  0  0  0  0
  8  9  1  0  0  0  0
  8 31  1  0  0  0  0
  9 10  2  0  0  0  0
  9 11  1  0  0  0  0
 11 12  1  0  0  0  0
 11 32  1  0  0  0  0
 12 17  1  0  0  0  0
 12 13  2  0  0  0  0
 13 14  1  0  0  0  0
 13 33  1  0  0  0  0
 14 15  2  0  0  0  0
 14 34  1  0  0  0  0
 15 16  1  0  0  0  0
 15 35  1  0  0  0  0
 16 17  2  0  0  0  0
 17 36  1  0  0  0  0
 18 19  1  0  0  0  0
 18 37  1  0  0  0  0
 18 38  1  0  0  0  0
 19 20  2  0  0  0  0
M  END
> <s_m_source_file>
AV-unprocessed.smi

> <i_m_source_file_index>
3354

> <i_lp_mmshare_version>
43012

> <i_f3d_flags>
0

> <s_epik_input>
W0NIM11bQ0BASF0xW0NIMl1bQ0BIXTFOMltDSDJdW0NASF0oW0NIMl1DMj1PKVtOSF1DKD1PKVtOSF1jM1tjSF1bY0hdW2NIXW5bY0hdMw==

> <s_epik_cmdline>
J2VwaWtfcHl0aG9uJywgJy1waCcsICc3LjAnLCAnLXRuJywgJzgnLCAnLW1hJywgJzIwMCcsICctbWV0YWxfYmluZGluZycsICctaW1hZScsICc8aW5maWxlLm1hZT4nLCAnLW9tYWUnLCAnPG91dGZpbGUubWFlPic=

> <r_epik_Ionization_Penalty>
0.00456191

> <r_epik_Ionization_Penalty_Charging>
0

> <r_epik_Ionization_Penalty_Neutral>
0.00456191

> <r_epik_State_Penalty>
0.00327094

> <r_epik_Charging_Adjusted_Penalty>
0.00327094

> <i_epik_Tot_Q>
0

> <i_epik_Tot_abs_Q>
0

> <r_epik_Metal_State_Penalty>
-0

> <b_epik_Metal_Only>
0

> <s_lp_Force_Field>
OPLS_2005

> <r_lp_Energy>
43.1486

> <b_lp_Chiralities_Consistent>
1

> <s_lp_Variant>
AV-unprocessed.smi:3354-1

> <Gold.Version>
5.8.1

> <Gold.Id.Protein>
6NUR|6NUR_protein|mol2

> <Gold.PLP.Fitness>
40.8439

> <Gold.PLP.PLP>
-29.1452

> <Gold.PLP.part.hbond>
-3.0000

> <Gold.PLP.part.metal>
0.0000

> <Gold.PLP.part.buried>
-4.2318

> <Gold.PLP.part.nonpolar>
-22.6455

> <Gold.PLP.part.repulsive>
0.3099

> <Gold.PLP.ligand.clash>
0.0000

> <Gold.PLP.ligand.torsion>
0.2238

> <Gold.PLP.Chemscore.Hbond>
2.9920

> <Gold.PLP.Chemscore.CHOScore>
1.0000

> <Gold.PLP.Chemscore.Metal>
0.0000

> <Gold.Chemscore.Hbonds>
donor molecule, donor type, donor heavy atom, donor atom, acceptor molecule, acceptor atom, score
      L1  H     8    31       P1  7948  0.99
      L1  H    11    32       P1  7948  1.00
      P1  H  7989  7998       L1    16  1.00
      L1  C    17    36       P1  7957  1.00

> <Gold.PLP.Chemscore.Internal.Correction>
0.1702

> <Gold.Rescore>
     Score         DG    S(hbond)    S(metal)    S(lipo)     H(rot)  DE(clash)    DE(int)     intcor
     18.28     -19.59       2.76        0.00      68.88       1.24       0.03       1.28       ----

> <Gold.Chemscore.Fitness>
18.2810

> <Gold.Chemscore.DG>
-19.5912

> <Gold.Chemscore.ZeroCoef>
-5.4800

> <Gold.Chemscore.Hbond>
2.7593

> <Gold.Chemscore.Metal>
0.0000

> <Gold.Chemscore.Lipo>
68.8837

> <Gold.Chemscore.Internal_Hbond>
0.0000

> <Gold.Chemscore.DEClash>
0.0348

> <Gold.Chemscore.DEInternal>
1.2755

> <Gold.Chemscore.Rot>
1.2361

> <Gold.Chemscore.Internal.Correction>
   9.000000E+99

> <Gold.Chemscore.Hbonds>
donor molecule, donor type, donor heavy atom, donor atom, acceptor molecule, acceptor atom, score
      L1  H     8    31       P1  7948  0.93
      L1  H    11    32       P1  7948  0.95
      P1  H  7989  7998       L1    16  0.60

> <Gold.Chemscore.Hbond.Weighted>
-9.2161

> <Gold.Chemscore.Metal.Weighted>
-0.0000

> <Gold.Chemscore.Lipo.Weighted>
-8.0594

> <Gold.Chemscore.Internal_Hbond.Weighted>
0.0000

> <Gold.Chemscore.DEClash.Weighted>
0.0348

> <Gold.Chemscore.DEInternal.Weighted>
1.2755

> <Gold.Chemscore.Rot.Weighted>
3.1643

> <Gold.Chemscore.Internal.Correction.Weighted>
   9.000000E+99

> <Gold.Protein.RotatedTorsions>
[ 6907 6896 6895 6894 ] final   81.22 input  -60.11 | X-H torsion
[ 7974 7965 7964 7962 ] final -177.58 input  175.53 | X-H torsion
[ 8008 7997 7996 7995 ] final  103.57 input   59.86 | X-H torsion
[ 10167 10162 10161 10158 ] final   64.76 input  -65.29 | X-H torsion
[ 10718 10713 10712 10709 ] final    8.14 input   66.30 | X-H torsion
[ 10763 10752 10751 10750 ] final   84.18 input  -60.55 | X-H torsion
[ 11005 11000 10999 10996 ] final  120.08 input  -57.11 | X-H torsion

> <Gold.Protein.ActiveResidues>
 VAL166  LYS551  ARG553  GLY616  TRP617  ASP618  TYR619  PRO620  LYS621  CYS622 
 ASP623  PHE694  ASN695  SER759  ASP760  ASP761  ALA762  ILE779  LEU786  VAL792 
 PHE793  MET794  SER795  GLU796  ALA797  LYS798  CYS799  TRP800  GLU811  SER814 

> <Gold.Protein.RotatedAtoms>
  152.5261  134.3238  159.9157 H   0  0  0  0  0  0  0  0  0  0  0  0  # atno 6907 bound_to 6896
  151.3187  133.4043  159.2660 H   0  0  0  0  0  0  0  0  0  0  0  0  # atno 6908 bound_to 6896
  150.9977  134.9314  159.7993 H   0  0  0  0  0  0  0  0  0  0  0  0  # atno 6909 bound_to 6896
  144.7128  140.0997  143.6417 H   0  0  0  0  0  0  0  0  0  0  0  0  # atno 7974 bound_to 7965
  156.1496  140.3162  155.8626 H   0  0  0  0  0  0  0  0  0  0  0  0  # atno 8008 bound_to 7997
  155.3997  140.0499  157.3054 H   0  0  0  0  0  0  0  0  0  0  0  0  # atno 8009 bound_to 7997
  154.5047  140.2142  155.9288 H   0  0  0  0  0  0  0  0  0  0  0  0  # atno 8010 bound_to 7997
  140.1187  144.4752  150.6934 H   0  0  0  0  0  0  0  0  0  0  0  0  # atno 10167 bound_to 10162
  156.9472  130.5883  149.5655 H   0  0  0  0  0  0  0  0  0  0  0  0  # atno 10718 bound_to 10713
  153.1358  135.4664  154.9420 H   0  0  0  0  0  0  0  0  0  0  0  0  # atno 10763 bound_to 10752
  154.7705  135.3157  154.8202 H   0  0  0  0  0  0  0  0  0  0  0  0  # atno 10764 bound_to 10752
  153.8735  135.6901  153.4826 H   0  0  0  0  0  0  0  0  0  0  0  0  # atno 10765 bound_to 10752
  139.9171  134.9632  156.7753 H   0  0  0  0  0  0  0  0  0  0  0  0  # atno 11005 bound_to 11000
  145.9548  139.2759  143.1191 LP  0  0  0  0  0  0  0  0  0  0  0  0  # atno 17320 bound_to 7965
  145.9284  140.9066  143.0369 LP  0  0  0  0  0  0  0  0  0  0  0  0  # atno 17321 bound_to 7965
  140.6885  143.2363  151.5196 LP  0  0  0  0  0  0  0  0  0  0  0  0  # atno 17342 bound_to 10162
  139.5580  144.2226  152.1645 LP  0  0  0  0  0  0  0  0  0  0  0  0  # atno 17343 bound_to 10162
  156.0378  130.5464  150.8697 LP  0  0  0  0  0  0  0  0  0  0  0  0  # atno 17370 bound_to 10713
  157.5746  131.0946  150.9366 LP  0  0  0  0  0  0  0  0  0  0  0  0  # atno 17371 bound_to 10713
  140.6588  133.9664  155.7794 LP  0  0  0  0  0  0  0  0  0  0  0  0  # atno 17394 bound_to 11000
  141.0657  134.0279  157.3596 LP  0  0  0  0  0  0  0  0  0  0  0  0  # atno 17395 bound_to 11000

$$$$
