AV-unprocessed.smi:2781|AV-procd|sdf|10720|dock5
  -GOLD-   2272015153D 1   1.00000     0.00000
 Structure written by MMmdl.
 35 38  0  0  0  0  0  0  0  0  1 V2000
  151.2587  140.6586  157.5404 O   0  0  0  0  0  0  0  0  0  0  0  0
  150.8735  141.8177  157.3838 C   0  0  0  0  0  0  0  0  0  0  0  0
  151.0434  142.8189  158.2656 N   0  0  0  0  0  0  0  0  0  0  0  0
  151.6843  142.7749  159.5325 C   0  0  0  0  0  0  0  0  0  0  0  0
  152.8242  141.9416  159.5973 C   0  0  0  0  0  0  0  0  0  0  0  0
  153.5323  141.8282  160.8095 C   0  0  0  0  0  0  0  0  0  0  0  0
  153.0803  142.5532  161.9262 C   0  0  0  0  0  0  0  0  0  0  0  0
  153.7290  142.4768  163.1123 F   0  0  0  0  0  0  0  0  0  0  0  0
  151.9371  143.3602  161.7789 C   0  0  0  0  0  0  0  0  0  0  0  0
  151.2574  143.4692  160.6175 N   0  0  0  0  0  0  0  0  0  0  0  0
  150.2213  142.2425  156.2928 N   0  0  0  0  0  0  0  0  0  0  0  0
  149.8737  141.4404  155.1635 C   0  0  2  0  0  0  0  0  0  0  0  0
  148.4529  141.4452  154.6109 C   0  0  2  0  0  0  0  0  0  0  0  0
  147.1418  141.7535  155.3380 C   0  0  1  0  0  0  0  0  0  0  0  0
  146.1216  140.6731  154.9184 C   0  0  0  0  0  0  0  0  0  0  0  0
  146.6518  139.4131  155.6504 C   0  0  0  0  0  0  0  0  0  0  0  0
  147.8983  139.9556  156.3825 C   0  0  2  0  0  0  0  0  0  0  0  0
  147.3655  141.3293  156.7896 C   0  0  0  0  0  0  0  0  0  0  0  0
  148.9665  140.2254  155.3196 C   0  0  2  0  0  0  0  0  0  0  0  0
  150.6705  143.7181  157.9989 H   0  0  0  0  0  0  0  0  0  0  0  0
  153.1571  141.3923  158.7286 H   0  0  0  0  0  0  0  0  0  0  0  0
  154.4059  141.1971  160.8796 H   0  0  0  0  0  0  0  0  0  0  0  0
  151.5585  143.9334  162.6124 H   0  0  0  0  0  0  0  0  0  0  0  0
  149.9444  143.2124  156.2554 H   0  0  0  0  0  0  0  0  0  0  0  0
  150.6519  141.3298  154.4096 H   0  0  0  0  0  0  0  0  0  0  0  0
  148.3713  141.4040  153.5262 H   0  0  0  0  0  0  0  0  0  0  0  0
  146.8067  142.7806  155.1931 H   0  0  0  0  0  0  0  0  0  0  0  0
  145.1179  140.9265  155.2623 H   0  0  0  0  0  0  0  0  0  0  0  0
  146.0803  140.5391  153.8367 H   0  0  0  0  0  0  0  0  0  0  0  0
  145.9123  139.0379  156.3591 H   0  0  0  0  0  0  0  0  0  0  0  0
  146.8947  138.6031  154.9614 H   0  0  0  0  0  0  0  0  0  0  0  0
  148.2591  139.3289  157.1982 H   0  0  0  0  0  0  0  0  0  0  0  0
  148.0571  141.9482  157.3535 H   0  0  0  0  0  0  0  0  0  0  0  0
  146.4422  141.2783  157.3708 H   0  0  0  0  0  0  0  0  0  0  0  0
  149.2316  139.3611  154.7131 H   0  0  0  0  0  0  0  0  0  0  0  0
  1  2  2  0  0  0  0
  2  3  1  0  0  0  0
  2 11  1  0  0  0  0
  3  4  1  0  0  0  0
  3 20  1  0  0  0  0
  4 10  1  0  0  0  0
  4  5  2  0  0  0  0
  5  6  1  0  0  0  0
  5 21  1  0  0  0  0
  6  7  2  0  0  0  0
  6 22  1  0  0  0  0
  7  8  1  0  0  0  0
  7  9  1  0  0  0  0
  9 10  2  0  0  0  0
  9 23  1  0  0  0  0
 11 12  1  0  0  0  0
 11 24  1  0  0  0  0
 12 19  1  0  0  0  0
 12 13  1  0  0  0  0
 12 25  1  0  0  0  0
 13 19  1  0  0  0  0
 13 14  1  0  0  0  0
 13 26  1  0  0  0  0
 14 18  1  0  0  0  0
 14 15  1  0  0  0  0
 14 27  1  0  0  0  0
 15 16  1  0  0  0  0
 15 28  1  0  0  0  0
 15 29  1  0  0  0  0
 16 17  1  0  0  0  0
 16 30  1  0  0  0  0
 16 31  1  0  0  0  0
 17 18  1  0  0  0  0
 17 19  1  0  0  0  0
 17 32  1  0  0  0  0
 18 33  1  0  0  0  0
 18 34  1  0  0  0  0
 19 35  1  0  0  0  0
M  END
> <s_m_source_file>
AV-unprocessed.smi

> <i_m_source_file_index>
2781

> <i_lp_mmshare_version>
43012

> <i_f3d_flags>
0

> <s_epik_input>
bjFbY0hdYyhGKVtjSF1bY0hdYzFbTkhdQyg9TylbTkhdW0NASF0yW0NAQEhdM1tDQEhdKFtDSDJdNClbQ0gyXVtDSDJdW0NASF00W0NASF0yMw==

> <s_epik_cmdline>
J2VwaWtfcHl0aG9uJywgJy1waCcsICc3LjAnLCAnLXRuJywgJzgnLCAnLW1hJywgJzIwMCcsICctbWV0YWxfYmluZGluZycsICctaW1hZScsICc8aW5maWxlLm1hZT4nLCAnLW9tYWUnLCAnPG91dGZpbGUubWFlPic=

> <r_lp_tautomer_probability>
1

> <r_epik_Ionization_Penalty>
4.05776e-05

> <r_epik_Ionization_Penalty_Charging>
0

> <r_epik_Ionization_Penalty_Neutral>
4.05776e-05

> <r_epik_State_Penalty>
-0

> <r_epik_Charging_Adjusted_Penalty>
0

> <i_epik_Tot_Q>
0

> <i_epik_Tot_abs_Q>
0

> <r_epik_Metal_State_Penalty>
-0

> <b_epik_Metal_Only>
0

> <s_lp_Force_Field>
OPLS_2005

> <r_lp_Energy>
83.3371

> <b_lp_Chiralities_Consistent>
1

> <s_lp_Variant>
AV-unprocessed.smi:2781-4

> <Gold.Version>
5.8.1

> <Gold.Id.Protein>
6NUR|6NUR_protein|mol2

> <Gold.PLP.Fitness>
39.9252

> <Gold.PLP.PLP>
-37.5151

> <Gold.PLP.part.hbond>
-1.0556

> <Gold.PLP.part.metal>
0.0000

> <Gold.PLP.part.buried>
-4.3797

> <Gold.PLP.part.nonpolar>
-32.1534

> <Gold.PLP.part.repulsive>
0.2257

> <Gold.PLP.ligand.clash>
0.0000

> <Gold.PLP.ligand.torsion>
0.3198

> <Gold.PLP.Chemscore.Hbond>
1.0000

> <Gold.PLP.Chemscore.CHOScore>
0.0000

> <Gold.PLP.Chemscore.Metal>
0.0000

> <Gold.Chemscore.Hbonds>
donor molecule, donor type, donor heavy atom, donor atom, acceptor molecule, acceptor atom, score
      L1  H    11    24       P1  8028  1.00

> <Gold.PLP.Chemscore.Internal.Correction>
0.0498

> <Gold.Rescore>
     Score         DG    S(hbond)    S(metal)    S(lipo)     H(rot)  DE(clash)    DE(int)     intcor
     13.72     -15.32       0.99        0.00      77.79       1.00       0.02       1.59       ----

> <Gold.Chemscore.Fitness>
13.7155

> <Gold.Chemscore.DG>
-15.3212

> <Gold.Chemscore.ZeroCoef>
-5.4800

> <Gold.Chemscore.Hbond>
0.9881

> <Gold.Chemscore.Metal>
0.0000

> <Gold.Chemscore.Lipo>
77.7866

> <Gold.Chemscore.Internal_Hbond>
0.0000

> <Gold.Chemscore.DEClash>
0.0159

> <Gold.Chemscore.DEInternal>
1.5897

> <Gold.Chemscore.Rot>
1.0000

> <Gold.Chemscore.Internal.Correction>
   9.000000E+99

> <Gold.Chemscore.Hbonds>
donor molecule, donor type, donor heavy atom, donor atom, acceptor molecule, acceptor atom, score
      L1  H    11    24       P1  8028  0.98

> <Gold.Chemscore.Hbond.Weighted>
-3.3001

> <Gold.Chemscore.Metal.Weighted>
-0.0000

> <Gold.Chemscore.Lipo.Weighted>
-9.1010

> <Gold.Chemscore.Internal_Hbond.Weighted>
0.0000

> <Gold.Chemscore.DEClash.Weighted>
0.0159

> <Gold.Chemscore.DEInternal.Weighted>
1.5897

> <Gold.Chemscore.Rot.Weighted>
2.5600

> <Gold.Chemscore.Internal.Correction.Weighted>
   9.000000E+99

> <Gold.Protein.RotatedTorsions>
[ 6907 6896 6895 6894 ] final  -54.91 input  -60.11 | X-H torsion
[ 7974 7965 7964 7962 ] final   66.94 input  175.53 | X-H torsion
[ 8008 7997 7996 7995 ] final -115.25 input   59.86 | X-H torsion
[ 10167 10162 10161 10158 ] final -142.56 input  -65.29 | X-H torsion
[ 10718 10713 10712 10709 ] final  -68.87 input   66.30 | X-H torsion
[ 10763 10752 10751 10750 ] final  116.50 input  -60.55 | X-H torsion
[ 11005 11000 10999 10996 ] final   58.87 input  -57.11 | X-H torsion

> <Gold.Protein.ActiveResidues>
 VAL166  LYS551  ARG553  GLY616  TRP617  ASP618  TYR619  PRO620  LYS621  CYS622 
 ASP623  PHE694  ASN695  SER759  ASP760  ASP761  ALA762  ILE779  LEU786  VAL792 
 PHE793  MET794  SER795  GLU796  ALA797  LYS798  CYS799  TRP800  GLU811  SER814 

> <Gold.Protein.RotatedAtoms>
  150.8297  134.7544  159.6842 H   0  0  0  0  0  0  0  0  0  0  0  0  # atno 6907 bound_to 6896
  152.4403  134.5601  159.9901 H   0  0  0  0  0  0  0  0  0  0  0  0  # atno 6908 bound_to 6896
  151.5765  133.3345  159.3035 H   0  0  0  0  0  0  0  0  0  0  0  0  # atno 6909 bound_to 6896
  145.8206  139.3083  143.1045 H   0  0  0  0  0  0  0  0  0  0  0  0  # atno 7974 bound_to 7965
  155.0490  140.0393  157.2537 H   0  0  0  0  0  0  0  0  0  0  0  0  # atno 8008 bound_to 7997
  154.7153  140.2701  155.6567 H   0  0  0  0  0  0  0  0  0  0  0  0  # atno 8009 bound_to 7997
  156.2801  140.2713  156.1807 H   0  0  0  0  0  0  0  0  0  0  0  0  # atno 8010 bound_to 7997
  139.8077  143.7746  152.2662 H   0  0  0  0  0  0  0  0  0  0  0  0  # atno 10167 bound_to 10162
  156.0484  130.4302  150.2063 H   0  0  0  0  0  0  0  0  0  0  0  0  # atno 10718 bound_to 10713
  153.5382  135.3564  155.2706 H   0  0  0  0  0  0  0  0  0  0  0  0  # atno 10763 bound_to 10752
  154.8720  135.4085  154.3073 H   0  0  0  0  0  0  0  0  0  0  0  0  # atno 10764 bound_to 10752
  153.3775  135.7067  153.6658 H   0  0  0  0  0  0  0  0  0  0  0  0  # atno 10765 bound_to 10752
  140.0346  134.5962  155.9462 H   0  0  0  0  0  0  0  0  0  0  0  0  # atno 11005 bound_to 11000
  145.9678  140.8784  143.0178 LP  0  0  0  0  0  0  0  0  0  0  0  0  # atno 17320 bound_to 7965
  144.6748  140.1903  143.7397 LP  0  0  0  0  0  0  0  0  0  0  0  0  # atno 17321 bound_to 7965
  139.7885  144.7419  150.9987 LP  0  0  0  0  0  0  0  0  0  0  0  0  # atno 17342 bound_to 10162
  140.7819  143.4466  151.0473 LP  0  0  0  0  0  0  0  0  0  0  0  0  # atno 17343 bound_to 10162
  157.0150  130.9962  151.3355 LP  0  0  0  0  0  0  0  0  0  0  0  0  # atno 17370 bound_to 10713
  157.5384  130.8103  149.7999 LP  0  0  0  0  0  0  0  0  0  0  0  0  # atno 17371 bound_to 10713
  141.1850  133.6554  156.5179 LP  0  0  0  0  0  0  0  0  0  0  0  0  # atno 17394 bound_to 11000
  140.4169  134.7222  157.4868 LP  0  0  0  0  0  0  0  0  0  0  0  0  # atno 17395 bound_to 11000

$$$$
