#       Name:                AV-unprocessed.smi:2309
#       Creating user name   scv26
#       Creation time:       Fri Mar 27 12:47:33 2020


#       File generated by GOLD software.
#

@<TRIPOS>MOLECULE
AV-unprocessed.smi:2309
    39    40     1
SMALL
NO_CHARGES


@<TRIPOS>ATOM
      1 ****        -5.1887   0.2194   0.7130 C.3            1 S1                 0.0000
      2 ****        -3.6705   0.2104   0.6885 C.2            1 S1                 0.0000
      3 ****        -3.0586   1.4672   0.6801 N.2            1 S1                 0.0000
      4 ****        -1.7690   1.5565   0.6560 C.2            1 S1                 0.0000
      5 ****        -0.9501   0.4153   0.6401 N.am           1 S1                 0.0000
      6 ****         0.5029   0.6556   0.6058 C.3            1 S1                 0.0000
      7 ****         1.0861   0.5316  -0.8198 C.3            1 S1                 0.0000
      8 ****         0.7458   1.6978  -1.5459 O.3            1 S1                 0.0000
      9 ****         2.5983   0.3204  -0.7692 C.ar           1 S1                 0.0000
     10 ****         3.4542   1.4361  -0.6158 C.ar           1 S1                 0.0000
     11 ****         4.8507   1.2686  -0.5578 C.ar           1 S1                 0.0000
     12 ****         5.8771   2.6428  -0.3740 Cl             1 S1                 0.0000
     13 ****         5.4079  -0.0196  -0.6474 C.ar           1 S1                 0.0000
     14 ****         4.5664  -1.1378  -0.7889 C.ar           1 S1                 0.0000
     15 ****         3.1674  -0.9768  -0.8463 C.ar           1 S1                 0.0000
     16 ****         2.1880  -2.3935  -0.9998 Cl             1 S1                 0.0000
     17 ****        -1.4653  -0.8482   0.6457 C.2            1 S1                 0.0000
     18 ****        -0.7389  -1.8434   0.6266 O.2            1 S1                 0.0000
     19 ****        -2.9344  -0.9342   0.6729 C.2            1 S1                 0.0000
     20 ****        -3.5448  -2.3301   0.6778 C.3            1 S1                 0.0000
     21 ****        -5.5595  -0.2882   1.6038 H              1 S1                 0.0000
     22 ****        -5.5878  -0.2842  -0.1679 H              1 S1                 0.0000
     23 ****        -5.5801   1.2375   0.7220 H              1 S1                 0.0000
     24 ****        -1.2430   2.5126   0.6421 H              1 S1                 0.0000
     25 ****         0.7753   1.6163   1.0480 H              1 S1                 0.0000
     26 ****         0.9819  -0.0815   1.2534 H              1 S1                 0.0000
     27 ****         0.6215  -0.2997  -1.3481 H              1 S1                 0.0000
     28 ****         1.0234   1.5843  -2.4422 H              1 S1                 0.0000
     29 ****         3.0417   2.4314  -0.5374 H              1 S1                 0.0000
     30 ****         6.4789  -0.1526  -0.6028 H              1 S1                 0.0000
     31 ****         4.9980  -2.1261  -0.8497 H              1 S1                 0.0000
     32 ****        -3.2466  -2.8732  -0.2196 H              1 S1                 0.0000
     33 ****        -4.6330  -2.3235   0.7103 H              1 S1                 0.0000
     34 ****        -3.1951  -2.8909   1.5451 H              1 S1                 0.0000
     35 ****        -3.6176   2.2962   0.6928 LP             1 S1                 0.0000
     36 ****         1.2077   2.4902  -1.1473 LP             1 S1                 0.0000
     37 ****        -0.2438   1.8381  -1.5143 LP             1 S1                 0.0000
     38 ****         0.2552  -1.7365   0.6064 LP             1 S1                 0.0000
     39 ****        -1.1435  -2.7579   0.6314 LP             1 S1                 0.0000
@<TRIPOS>BOND
    1    1    2 1     
    2    1   21 1     
    3    1   22 1     
    4    1   23 1     
    5    2   19 2     
    6    2    3 1     
    7    3    4 2     
    8    4    5 1     
    9    4   24 1     
   10    5    6 1     
   11    5   17 am    
   12    6    7 1     
   13    6   25 1     
   14    6   26 1     
   15    7    8 1     
   16    7    9 1     
   17    7   27 1     
   18    8   28 1     
   19    9   15 ar    
   20    9   10 ar    
   21   10   11 ar    
   22   10   29 1     
   23   11   12 1     
   24   11   13 ar    
   25   13   14 ar    
   26   13   30 1     
   27   14   15 ar    
   28   14   31 1     
   29   15   16 1     
   30   17   18 2     
   31   17   19 1     
   32   19   20 1     
   33   20   32 1     
   34   20   33 1     
   35   20   34 1     
   36    3   35 1     
   37    8   36 1     
   38    8   37 1     
   39   18   38 1     
   40   18   39 1     
@<TRIPOS>SUBSTRUCTURE
      1 S1             1
@<TRIPOS>SET
LONE_PAIRS      STATIC     ATOMS    <user>   **** ""
5 35 36 37 38 39
DONOR_HYDROGENS      STATIC     ATOMS    <user>   **** ""
1 28
ATOM$BLUE        STATIC     ATOMS    COLORGROUP SYSTEM
5 35 36 37 38 39
ATOM$RED        STATIC     ATOMS    COLORGROUP SYSTEM
1 28
