AV-unprocessed.smi:3156|AV-procd|sdf|12031|dock4
  -GOLD-   2272017453D 1   1.00000     0.00000
 Structure written by MMmdl.
 41 42  0  0  0  0  0  0  0  0  2 V2000
  150.8901  138.5564  158.5802 C   0  0  0  0  0  0  0  0  0  0  0  0
  151.7350  139.7990  158.2382 C   0  0  2  0  0  0  0  0  0  0  0  0
  151.6125  140.8052  159.3198 N   0  3  0  0  0  0  0  0  0  0  0  0
  152.8726  141.4709  159.7135 C   0  0  0  0  0  0  0  0  0  0  0  0
  152.6223  142.9156  160.1721 C   0  0  1  0  0  0  0  0  0  0  0  0
  151.7392  143.7078  159.1851 C   0  0  0  0  0  0  0  0  0  0  0  0
  151.4332  145.1053  159.7353 C   0  0  0  0  0  0  0  0  0  0  0  0
  150.8482  144.9882  161.1464 C   0  0  0  0  0  0  0  0  0  0  0  0
  151.7656  144.1333  162.0348 C   0  0  0  0  0  0  0  0  0  0  0  0
  151.9665  142.8560  161.4366 O   0  0  0  0  0  0  0  0  0  0  0  0
  151.3296  140.4336  156.8789 C   0  0  2  0  0  0  0  0  0  0  0  0
  150.1062  141.3633  156.9821 C   0  0  0  0  0  0  0  0  0  0  0  0
  151.0817  139.4211  155.8574 N   0  0  0  0  0  0  0  0  0  0  0  0
  151.8778  138.3484  155.5109 C   0  0  0  0  0  0  0  0  0  0  0  0
  151.2553  137.6894  154.4901 C   0  0  0  0  0  0  0  0  0  0  0  0
  150.0738  138.4496  154.2671 C   0  0  0  0  0  0  0  0  0  0  0  0
  149.9748  139.4866  155.0828 N   0  0  0  0  0  0  0  0  0  0  0  0
  151.0225  137.7645  157.8439 H   0  0  0  0  0  0  0  0  0  0  0  0
  149.8278  138.7985  158.6228 H   0  0  0  0  0  0  0  0  0  0  0  0
  151.1699  138.1297  159.5429 H   0  0  0  0  0  0  0  0  0  0  0  0
  152.7812  139.4947  158.1737 H   0  0  0  0  0  0  0  0  0  0  0  0
  150.9899  141.5282  158.9874 H   0  0  0  0  0  0  0  0  0  0  0  0
  153.3756  140.9104  160.5011 H   0  0  0  0  0  0  0  0  0  0  0  0
  153.5408  141.4774  158.8512 H   0  0  0  0  0  0  0  0  0  0  0  0
  153.5830  143.4184  160.3006 H   0  0  0  0  0  0  0  0  0  0  0  0
  152.2295  143.7942  158.2150 H   0  0  0  0  0  0  0  0  0  0  0  0
  150.8045  143.1718  159.0156 H   0  0  0  0  0  0  0  0  0  0  0  0
  152.3483  145.6980  159.7650 H   0  0  0  0  0  0  0  0  0  0  0  0
  150.7394  145.6305  159.0781 H   0  0  0  0  0  0  0  0  0  0  0  0
  150.7137  145.9781  161.5831 H   0  0  0  0  0  0  0  0  0  0  0  0
  149.8595  144.5302  161.0971 H   0  0  0  0  0  0  0  0  0  0  0  0
  152.7251  144.6279  162.1942 H   0  0  0  0  0  0  0  0  0  0  0  0
  151.3128  143.9954  163.0167 H   0  0  0  0  0  0  0  0  0  0  0  0
  152.1689  141.0351  156.5255 H   0  0  0  0  0  0  0  0  0  0  0  0
  150.3120  142.2387  157.5971 H   0  0  0  0  0  0  0  0  0  0  0  0
  149.2471  140.8464  157.4110 H   0  0  0  0  0  0  0  0  0  0  0  0
  149.8121  141.7312  155.9984 H   0  0  0  0  0  0  0  0  0  0  0  0
  152.8120  138.1443  156.0138 H   0  0  0  0  0  0  0  0  0  0  0  0
  151.5954  136.8029  153.9755 H   0  0  0  0  0  0  0  0  0  0  0  0
  149.2925  138.2818  153.5406 H   0  0  0  0  0  0  0  0  0  0  0  0
  151.1937  140.3686  160.1284 H   0  0  0  0  0  0  0  0  0  0  0  0
  1  2  1  0  0  0  0
  1 18  1  0  0  0  0
  1 19  1  0  0  0  0
  1 20  1  0  0  0  0
  2  3  1  0  0  0  0
  2 11  1  0  0  0  0
  2 21  1  0  0  0  0
  3  4  1  0  0  0  0
  3 22  1  0  0  0  0
  3 41  1  0  0  0  0
  4  5  1  0  0  0  0
  4 23  1  0  0  0  0
  4 24  1  0  0  0  0
  5 10  1  0  0  0  0
  5  6  1  0  0  0  0
  5 25  1  0  0  0  0
  6  7  1  0  0  0  0
  6 26  1  0  0  0  0
  6 27  1  0  0  0  0
  7  8  1  0  0  0  0
  7 28  1  0  0  0  0
  7 29  1  0  0  0  0
  8  9  1  0  0  0  0
  8 30  1  0  0  0  0
  8 31  1  0  0  0  0
  9 10  1  0  0  0  0
  9 32  1  0  0  0  0
  9 33  1  0  0  0  0
 11 12  1  0  0  0  0
 11 13  1  0  0  0  0
 11 34  1  0  0  0  0
 12 35  1  0  0  0  0
 12 36  1  0  0  0  0
 12 37  1  0  0  0  0
 13 17  1  0  0  0  0
 13 14  1  0  0  0  0
 14 15  2  0  0  0  0
 14 38  1  0  0  0  0
 15 16  1  0  0  0  0
 15 39  1  0  0  0  0
 16 17  2  0  0  0  0
 16 40  1  0  0  0  0
M  CHG  1   3   1
M  END
> <s_m_source_file>
AV-unprocessed.smi

> <i_m_source_file_index>
3156

> <i_lp_mmshare_version>
43012

> <i_f3d_flags>
0

> <s_epik_input>
bjFbY0hdW2NIXVtjSF1uMVtDQEBIXShbQ0gzXSlbQ0BIXShbQ0gzXSlbTkhdW0NIMl1bQ0BASF0yW0NIMl1bQ0gyXVtDSDJdW0NIMl1PMg==

> <s_epik_cmdline>
J2VwaWtfcHl0aG9uJywgJy1waCcsICc3LjAnLCAnLXRuJywgJzgnLCAnLW1hJywgJzIwMCcsICctbWV0YWxfYmluZGluZycsICctaW1hZScsICc8aW5maWxlLm1hZT4nLCAnLW9tYWUnLCAnPG91dGZpbGUubWFlPic=

> <r_lp_tautomer_probability>
1

> <r_epik_Ionization_Penalty>
0.00658015

> <r_epik_Ionization_Penalty_Charging>
0.00656881

> <r_epik_Ionization_Penalty_Neutral>
1.13431e-05

> <r_epik_State_Penalty>
0.0048654

> <r_epik_Charging_Adjusted_Penalty>
0.0114342

> <i_epik_Tot_Q>
1

> <i_epik_Tot_abs_Q>
1

> <r_epik_Metal_State_Penalty>
-0

> <b_epik_Metal_Only>
0

> <s_lp_Force_Field>
OPLS_2005

> <r_lp_Energy>
18.0883

> <b_lp_Chiralities_Consistent>
1

> <s_lp_Variant>
AV-unprocessed.smi:3156-3

> <Gold.Version>
5.8.1

> <Gold.Id.Protein>
6NUR|6NUR_protein|mol2

> <Gold.PLP.Fitness>
48.4220

> <Gold.PLP.PLP>
-42.1087

> <Gold.PLP.part.hbond>
-1.1332

> <Gold.PLP.part.metal>
0.0000

> <Gold.PLP.part.buried>
-3.7543

> <Gold.PLP.part.nonpolar>
-37.9146

> <Gold.PLP.part.repulsive>
0.3651

> <Gold.PLP.ligand.clash>
0.0000

> <Gold.PLP.ligand.torsion>
1.3410

> <Gold.PLP.Chemscore.Hbond>
1.0000

> <Gold.PLP.Chemscore.CHOScore>
1.9699

> <Gold.PLP.Chemscore.Metal>
0.0000

> <Gold.Chemscore.Hbonds>
donor molecule, donor type, donor heavy atom, donor atom, acceptor molecule, acceptor atom, score
      P1  H  6933  6945       L1    10  0.12
      L1  C    16    40       P1  7948  0.70

> <Gold.PLP.Chemscore.Internal.Correction>
0.0858

> <Gold.Rescore>
     Score         DG    S(hbond)    S(metal)    S(lipo)     H(rot)  DE(clash)    DE(int)     intcor
     15.71     -18.19       0.88        0.00     118.47       1.59       0.08       2.40       ----

> <Gold.Chemscore.Fitness>
15.7148

> <Gold.Chemscore.DG>
-18.1876

> <Gold.Chemscore.ZeroCoef>
-5.4800

> <Gold.Chemscore.Hbond>
0.8764

> <Gold.Chemscore.Metal>
0.0000

> <Gold.Chemscore.Lipo>
118.4688

> <Gold.Chemscore.Internal_Hbond>
0.0000

> <Gold.Chemscore.DEClash>
0.0761

> <Gold.Chemscore.DEInternal>
2.3967

> <Gold.Chemscore.Rot>
1.5938

> <Gold.Chemscore.Internal.Correction>
   9.000000E+99

> <Gold.Chemscore.Hbonds>
donor molecule, donor type, donor heavy atom, donor atom, acceptor molecule, acceptor atom, score
      P1  H  6933  6945       L1    10  0.03

> <Gold.Chemscore.Hbond.Weighted>
-2.9270

> <Gold.Chemscore.Metal.Weighted>
-0.0000

> <Gold.Chemscore.Lipo.Weighted>
-13.8608

> <Gold.Chemscore.Internal_Hbond.Weighted>
0.0000

> <Gold.Chemscore.DEClash.Weighted>
0.0761

> <Gold.Chemscore.DEInternal.Weighted>
2.3967

> <Gold.Chemscore.Rot.Weighted>
4.0802

> <Gold.Chemscore.Internal.Correction.Weighted>
   9.000000E+99

> <Gold.Protein.RotatedTorsions>
[ 6907 6896 6895 6894 ] final   48.15 input  -60.11 | X-H torsion
[ 7974 7965 7964 7962 ] final  109.69 input  175.53 | X-H torsion
[ 8008 7997 7996 7995 ] final  -52.02 input   59.86 | X-H torsion
[ 10167 10162 10161 10158 ] final -128.77 input  -65.29 | X-H torsion
[ 10718 10713 10712 10709 ] final -136.00 input   66.30 | X-H torsion
[ 10763 10752 10751 10750 ] final -160.54 input  -60.55 | X-H torsion
[ 11005 11000 10999 10996 ] final   26.81 input  -57.11 | X-H torsion

> <Gold.Protein.ActiveResidues>
 VAL166  LYS551  ARG553  GLY616  TRP617  ASP618  TYR619  PRO620  LYS621  CYS622 
 ASP623  PHE694  ASN695  SER759  ASP760  ASP761  ALA762  ILE779  LEU786  VAL792 
 PHE793  MET794  SER795  GLU796  ALA797  LYS798  CYS799  TRP800  GLU811  SER814 

> <Gold.Protein.RotatedAtoms>
  152.2762  134.7878  160.0404 H   0  0  0  0  0  0  0  0  0  0  0  0  # atno 6907 bound_to 6896
  151.8474  133.3428  159.3670 H   0  0  0  0  0  0  0  0  0  0  0  0  # atno 6908 bound_to 6896
  150.7171  134.5261  159.5721 H   0  0  0  0  0  0  0  0  0  0  0  0  # atno 6909 bound_to 6896
  145.2645  139.2689  143.3999 H   0  0  0  0  0  0  0  0  0  0  0  0  # atno 7974 bound_to 7965
  154.4096  140.1234  156.4924 H   0  0  0  0  0  0  0  0  0  0  0  0  # atno 8008 bound_to 7997
  155.6977  140.3495  155.4900 H   0  0  0  0  0  0  0  0  0  0  0  0  # atno 8009 bound_to 7997
  155.9413  140.1087  157.1043 H   0  0  0  0  0  0  0  0  0  0  0  0  # atno 8010 bound_to 7997
  139.9468  143.6101  152.2487 H   0  0  0  0  0  0  0  0  0  0  0  0  # atno 10167 bound_to 10162
  156.2723  130.7272  151.1243 H   0  0  0  0  0  0  0  0  0  0  0  0  # atno 10718 bound_to 10713
  154.7381  135.3062  154.8776 H   0  0  0  0  0  0  0  0  0  0  0  0  # atno 10763 bound_to 10752
  153.9598  135.6754  153.4749 H   0  0  0  0  0  0  0  0  0  0  0  0  # atno 10764 bound_to 10752
  153.0982  135.4925  154.8742 H   0  0  0  0  0  0  0  0  0  0  0  0  # atno 10765 bound_to 10752
  140.3330  134.2417  155.7700 H   0  0  0  0  0  0  0  0  0  0  0  0  # atno 11005 bound_to 11000
  146.3265  140.3071  142.8624 LP  0  0  0  0  0  0  0  0  0  0  0  0  # atno 17320 bound_to 7965
  144.9389  140.8056  143.5643 LP  0  0  0  0  0  0  0  0  0  0  0  0  # atno 17321 bound_to 7965
  139.6660  144.7662  151.1872 LP  0  0  0  0  0  0  0  0  0  0  0  0  # atno 17342 bound_to 10162
  140.7595  143.5937  150.8770 LP  0  0  0  0  0  0  0  0  0  0  0  0  # atno 17343 bound_to 10162
  157.7288  131.0629  150.5805 LP  0  0  0  0  0  0  0  0  0  0  0  0  # atno 17370 bound_to 10713
  156.5902  130.4327  149.5940 LP  0  0  0  0  0  0  0  0  0  0  0  0  # atno 17371 bound_to 10713
  141.2058  133.7849  157.0210 LP  0  0  0  0  0  0  0  0  0  0  0  0  # atno 17394 bound_to 11000
  140.0845  134.9629  157.1677 LP  0  0  0  0  0  0  0  0  0  0  0  0  # atno 17395 bound_to 11000

$$$$
