AV-unprocessed.smi:2110|AV-procd|sdf|8608|dock8
  -GOLD-   2272011353D 1   1.00000     0.00000
 Structure written by MMmdl.
 46 47  0  0  0  0  0  0  0  0  1 V2000
  146.1944  142.5184  154.2195 C   0  0  0  0  0  0  0  0  0  0  0  0
  146.9894  141.3334  153.6479 C   0  0  0  0  0  0  0  0  0  0  0  0
  146.8711  140.1099  154.4658 N   0  0  0  0  0  0  0  0  0  0  0  0
  146.4903  138.8709  153.7600 C   0  0  0  0  0  0  0  0  0  0  0  0
  146.7082  138.9540  152.2420 C   0  0  0  0  0  0  0  0  0  0  0  0
  147.5972  140.0310  156.0437 S   0  0  0  0  0  0  0  0  0  0  0  0
  147.5566  141.3652  156.6616 O   0  0  0  0  0  0  0  0  0  0  0  0
  147.0811  138.8527  156.7572 O   0  0  0  0  0  0  0  0  0  0  0  0
  149.2229  139.7032  155.5894 N   0  0  0  0  0  0  0  0  0  0  0  0
  150.2475  139.4194  156.5915 C   0  0  0  0  0  0  0  0  0  0  0  0
  150.6960  140.6316  157.3948 C   0  0  0  0  0  0  0  0  0  0  0  0
  150.3706  141.9228  156.9363 C   0  0  0  0  0  0  0  0  0  0  0  0
  150.7993  143.0323  157.6881 C   0  0  0  0  0  0  0  0  0  0  0  0
  151.5040  142.9225  158.8335 N   0  0  0  0  0  0  0  0  0  0  0  0
  151.8182  141.6858  159.2916 C   0  0  0  0  0  0  0  0  0  0  0  0
  152.5451  141.5797  160.4966 N   0  0  0  0  0  0  0  0  0  0  0  0
  152.5214  142.7664  161.3485 C   0  0  0  0  0  0  0  0  0  0  0  0
  153.0766  142.4344  162.7440 C   0  0  0  0  0  0  0  0  0  0  0  0
  154.3761  141.8656  162.6232 O   0  0  0  0  0  0  0  0  0  0  0  0
  154.3562  140.6505  161.8815 C   0  0  0  0  0  0  0  0  0  0  0  0
  153.8498  140.9229  160.4550 C   0  0  0  0  0  0  0  0  0  0  0  0
  151.4383  140.5159  158.5927 C   0  0  0  0  0  0  0  0  0  0  0  0
  146.3773  143.4181  153.6323 H   0  0  0  0  0  0  0  0  0  0  0  0
  146.4687  142.7386  155.2504 H   0  0  0  0  0  0  0  0  0  0  0  0
  145.1213  142.3307  154.1923 H   0  0  0  0  0  0  0  0  0  0  0  0
  146.6369  141.1132  152.6401 H   0  0  0  0  0  0  0  0  0  0  0  0
  148.0400  141.6082  153.5479 H   0  0  0  0  0  0  0  0  0  0  0  0
  147.0572  138.0331  154.1653 H   0  0  0  0  0  0  0  0  0  0  0  0
  145.4426  138.6520  153.9687 H   0  0  0  0  0  0  0  0  0  0  0  0
  146.4618  138.0025  151.7708 H   0  0  0  0  0  0  0  0  0  0  0  0
  147.7441  139.1798  151.9932 H   0  0  0  0  0  0  0  0  0  0  0  0
  146.0731  139.7123  151.7847 H   0  0  0  0  0  0  0  0  0  0  0  0
  149.3448  139.2536  154.6828 H   0  0  0  0  0  0  0  0  0  0  0  0
  149.8726  138.6532  157.2707 H   0  0  0  0  0  0  0  0  0  0  0  0
  151.1209  139.0010  156.0900 H   0  0  0  0  0  0  0  0  0  0  0  0
  149.8073  142.0630  156.0254 H   0  0  0  0  0  0  0  0  0  0  0  0
  150.5689  144.0355  157.3617 H   0  0  0  0  0  0  0  0  0  0  0  0
  153.1271  143.5446  160.8828 H   0  0  0  0  0  0  0  0  0  0  0  0
  151.5153  143.1698  161.4535 H   0  0  0  0  0  0  0  0  0  0  0  0
  153.1412  143.3403  163.3467 H   0  0  0  0  0  0  0  0  0  0  0  0
  152.4139  141.7470  163.2724 H   0  0  0  0  0  0  0  0  0  0  0  0
  155.3641  140.2372  161.8488 H   0  0  0  0  0  0  0  0  0  0  0  0
  153.7263  139.9151  162.3848 H   0  0  0  0  0  0  0  0  0  0  0  0
  153.7810  139.9812  159.9088 H   0  0  0  0  0  0  0  0  0  0  0  0
  154.5587  141.5590  159.9229 H   0  0  0  0  0  0  0  0  0  0  0  0
  151.7289  139.5475  158.9693 H   0  0  0  0  0  0  0  0  0  0  0  0
  1  2  1  0  0  0  0
  1 23  1  0  0  0  0
  1 24  1  0  0  0  0
  1 25  1  0  0  0  0
  2  3  1  0  0  0  0
  2 26  1  0  0  0  0
  2 27  1  0  0  0  0
  3  4  1  0  0  0  0
  3  6  1  0  0  0  0
  4  5  1  0  0  0  0
  4 28  1  0  0  0  0
  4 29  1  0  0  0  0
  5 30  1  0  0  0  0
  5 31  1  0  0  0  0
  5 32  1  0  0  0  0
  6  7  2  0  0  0  0
  6  8  2  0  0  0  0
  6  9  1  0  0  0  0
  9 10  1  0  0  0  0
  9 33  1  0  0  0  0
 10 11  1  0  0  0  0
 10 34  1  0  0  0  0
 10 35  1  0  0  0  0
 11 22  1  0  0  0  0
 11 12  2  0  0  0  0
 12 13  1  0  0  0  0
 12 36  1  0  0  0  0
 13 14  2  0  0  0  0
 13 37  1  0  0  0  0
 14 15  1  0  0  0  0
 15 16  1  0  0  0  0
 15 22  2  0  0  0  0
 16 21  1  0  0  0  0
 16 17  1  0  0  0  0
 17 18  1  0  0  0  0
 17 38  1  0  0  0  0
 17 39  1  0  0  0  0
 18 19  1  0  0  0  0
 18 40  1  0  0  0  0
 18 41  1  0  0  0  0
 19 20  1  0  0  0  0
 20 21  1  0  0  0  0
 20 42  1  0  0  0  0
 20 43  1  0  0  0  0
 21 44  1  0  0  0  0
 21 45  1  0  0  0  0
 22 46  1  0  0  0  0
M  END
> <s_m_source_file>
AV-unprocessed.smi

> <i_m_source_file_index>
2110

> <i_lp_mmshare_version>
43012

> <i_f3d_flags>
0

> <s_epik_input>
W0NIM11bQ0gyXU4oW0NIMl1bQ0gzXSlTKD1PKSg9TylbTkhdW0NIMl1jMVtjSF1bY0hdbmMoW2NIXTEpTjJbQ0gyXVtDSDJdT1tDSDJdW0NIMl0y

> <s_epik_cmdline>
J2VwaWtfcHl0aG9uJywgJy1waCcsICc3LjAnLCAnLXRuJywgJzgnLCAnLW1hJywgJzIwMCcsICctbWV0YWxfYmluZGluZycsICctaW1hZScsICc8aW5maWxlLm1hZT4nLCAnLW9tYWUnLCAnPG91dGZpbGUubWFlPic=

> <r_lp_tautomer_probability>
1

> <r_epik_Ionization_Penalty>
0.0503757

> <r_epik_Ionization_Penalty_Charging>
0

> <r_epik_Ionization_Penalty_Neutral>
0.0503757

> <r_epik_State_Penalty>
0.0467666

> <r_epik_Charging_Adjusted_Penalty>
0.0467666

> <i_epik_Tot_Q>
0

> <i_epik_Tot_abs_Q>
0

> <r_epik_Metal_State_Penalty>
0.311919

> <b_epik_Metal_Only>
0

> <s_lp_Force_Field>
OPLS_2005

> <r_lp_Energy>
13.6867

> <b_lp_Chiralities_Consistent>
1

> <s_lp_Variant>
AV-unprocessed.smi:2110-1

> <Gold.Version>
5.8.1

> <Gold.Id.Protein>
6NUR|6NUR_protein|mol2

> <Gold.PLP.Fitness>
41.6854

> <Gold.PLP.PLP>
-40.3229

> <Gold.PLP.part.hbond>
-1.0000

> <Gold.PLP.part.metal>
0.0000

> <Gold.PLP.part.buried>
-4.4927

> <Gold.PLP.part.nonpolar>
-34.1725

> <Gold.PLP.part.repulsive>
0.1741

> <Gold.PLP.ligand.clash>
0.0000

> <Gold.PLP.ligand.torsion>
2.4965

> <Gold.PLP.Chemscore.Hbond>
0.0000

> <Gold.PLP.Chemscore.CHOScore>
0.9059

> <Gold.PLP.Chemscore.Metal>
0.0000

> <Gold.Chemscore.Hbonds>
donor molecule, donor type, donor heavy atom, donor atom, acceptor molecule, acceptor atom, score
      L1  C    13    37       P1  8028  0.97

> <Gold.PLP.Chemscore.Internal.Correction>
3.6378

> <Gold.Rescore>
     Score         DG    S(hbond)    S(metal)    S(lipo)     H(rot)  DE(clash)    DE(int)     intcor
      9.96     -12.85       0.00        0.00     100.62       1.72       0.30       2.59       ----

> <Gold.Chemscore.Fitness>
9.9643

> <Gold.Chemscore.DG>
-12.8549

> <Gold.Chemscore.ZeroCoef>
-5.4800

> <Gold.Chemscore.Hbond>
0.0000

> <Gold.Chemscore.Metal>
0.0000

> <Gold.Chemscore.Lipo>
100.6177

> <Gold.Chemscore.Internal_Hbond>
0.0000

> <Gold.Chemscore.DEClash>
0.3033

> <Gold.Chemscore.DEInternal>
2.5873

> <Gold.Chemscore.Rot>
1.7177

> <Gold.Chemscore.Internal.Correction>
   9.000000E+99

> <Gold.Chemscore.Hbond.Weighted>
-0.0000

> <Gold.Chemscore.Metal.Weighted>
-0.0000

> <Gold.Chemscore.Lipo.Weighted>
-11.7723

> <Gold.Chemscore.Internal_Hbond.Weighted>
0.0000

> <Gold.Chemscore.DEClash.Weighted>
0.3033

> <Gold.Chemscore.DEInternal.Weighted>
2.5873

> <Gold.Chemscore.Rot.Weighted>
4.3974

> <Gold.Chemscore.Internal.Correction.Weighted>
   9.000000E+99

> <Gold.Protein.RotatedTorsions>
[ 6907 6896 6895 6894 ] final    0.13 input  -60.11 | X-H torsion
[ 7974 7965 7964 7962 ] final   -6.94 input  175.53 | X-H torsion
[ 8008 7997 7996 7995 ] final -105.34 input   59.86 | X-H torsion
[ 10167 10162 10161 10158 ] final  -32.75 input  -65.29 | X-H torsion
[ 10718 10713 10712 10709 ] final -122.85 input   66.30 | X-H torsion
[ 10763 10752 10751 10750 ] final -134.38 input  -60.55 | X-H torsion
[ 11005 11000 10999 10996 ] final -171.15 input  -57.11 | X-H torsion

> <Gold.Protein.ActiveResidues>
 VAL166  LYS551  ARG553  GLY616  TRP617  ASP618  TYR619  PRO620  LYS621  CYS622 
 ASP623  PHE694  ASN695  SER759  ASP760  ASP761  ALA762  ILE779  LEU786  VAL792 
 PHE793  MET794  SER795  GLU796  ALA797  LYS798  CYS799  TRP800  GLU811  SER814 

> <Gold.Protein.RotatedAtoms>
  151.5714  135.1062  159.9995 H   0  0  0  0  0  0  0  0  0  0  0  0  # atno 6907 bound_to 6896
  152.4399  133.7424  159.6659 H   0  0  0  0  0  0  0  0  0  0  0  0  # atno 6908 bound_to 6896
  150.8302  133.8034  159.3125 H   0  0  0  0  0  0  0  0  0  0  0  0  # atno 6909 bound_to 6896
  146.2319  140.2245  142.8338 H   0  0  0  0  0  0  0  0  0  0  0  0  # atno 7974 bound_to 7965
  154.8984  140.0413  157.1879 H   0  0  0  0  0  0  0  0  0  0  0  0  # atno 8008 bound_to 7997
  154.8469  140.2923  155.5602 H   0  0  0  0  0  0  0  0  0  0  0  0  # atno 8009 bound_to 7997
  156.2994  140.2472  156.3421 H   0  0  0  0  0  0  0  0  0  0  0  0  # atno 8010 bound_to 7997
  140.7216  143.3671  151.1849 H   0  0  0  0  0  0  0  0  0  0  0  0  # atno 10167 bound_to 10162
  156.1452  130.6495  150.9832 H   0  0  0  0  0  0  0  0  0  0  0  0  # atno 10718 bound_to 10713
  154.8720  135.3736  154.4727 H   0  0  0  0  0  0  0  0  0  0  0  0  # atno 10763 bound_to 10752
  153.5386  135.7027  153.5653 H   0  0  0  0  0  0  0  0  0  0  0  0  # atno 10764 bound_to 10752
  153.3825  135.3993  155.1831 H   0  0  0  0  0  0  0  0  0  0  0  0  # atno 10765 bound_to 10752
  140.5114  134.5797  157.5020 H   0  0  0  0  0  0  0  0  0  0  0  0  # atno 11005 bound_to 11000
  144.9606  140.8271  143.5516 LP  0  0  0  0  0  0  0  0  0  0  0  0  # atno 17320 bound_to 7965
  145.2215  139.2156  143.5090 LP  0  0  0  0  0  0  0  0  0  0  0  0  # atno 17321 bound_to 7965
  139.7235  143.9185  152.2994 LP  0  0  0  0  0  0  0  0  0  0  0  0  # atno 17342 bound_to 10162
  139.8950  144.6944  150.8728 LP  0  0  0  0  0  0  0  0  0  0  0  0  # atno 17343 bound_to 10162
  157.6611  131.0880  150.7837 LP  0  0  0  0  0  0  0  0  0  0  0  0  # atno 17370 bound_to 10713
  156.7909  130.4890  149.5385 LP  0  0  0  0  0  0  0  0  0  0  0  0  # atno 17371 bound_to 10713
  139.9656  134.7378  156.0145 LP  0  0  0  0  0  0  0  0  0  0  0  0  # atno 17394 bound_to 11000
  141.1383  133.6570  156.3657 LP  0  0  0  0  0  0  0  0  0  0  0  0  # atno 17395 bound_to 11000

$$$$
