AV-unprocessed.smi:2845|AV-procd|sdf|10945|dock9
  -GOLD-   2272015393D 1   1.00000     0.00000
 Structure written by MMmdl.
 42 44  0  0  0  0  0  0  0  0  1 V2000
  153.3175  142.4991  161.6338 C   0  0  0  0  0  0  0  0  0  0  0  0
  152.6624  142.2645  160.2841 C   0  0  0  0  0  0  0  0  0  0  0  0
  152.9839  141.0956  159.5578 C   0  0  0  0  0  0  0  0  0  0  0  0
  152.3981  140.8413  158.2983 C   0  0  0  0  0  0  0  0  0  0  0  0
  152.5667  139.7787  157.4270 N   0  0  0  0  0  0  0  0  0  0  0  0
  151.7546  140.1185  156.4304 C   0  0  0  0  0  0  0  0  0  0  0  0
  151.0783  141.2766  156.5529 N   0  0  0  0  0  0  0  0  0  0  0  0
  150.1441  141.8465  155.5981 C   0  0  0  0  0  0  0  0  0  0  0  0
  149.3170  140.7710  154.8688 C   0  0  2  0  0  0  0  0  0  0  0  0
  150.1254  140.1167  153.9083 O   0  0  0  0  0  0  0  0  0  0  0  0
  148.0732  141.3686  154.1842 C   0  0  0  0  0  0  0  0  0  0  0  0
  147.1668  141.9938  155.1303 N   0  0  0  0  0  0  0  0  0  0  0  0
  146.1965  142.8919  154.9362 C   0  0  0  0  0  0  0  0  0  0  0  0
  145.5682  143.2556  156.0465 N   0  0  0  0  0  0  0  0  0  0  0  0
  146.2520  142.4839  156.9401 C   0  0  0  0  0  0  0  0  0  0  0  0
  145.8675  142.5270  158.7189 S   0  0  2  0  0  0  0  0  0  0  0  0
  145.3368  144.3042  158.7489 C   0  0  0  0  0  0  0  0  0  0  0  0
  147.2129  142.4488  159.4436 O   0  0  0  0  0  0  0  0  0  0  0  0
  147.2195  141.7092  156.4532 N   0  0  0  0  0  0  0  0  0  0  0  0
  151.4734  141.7955  157.7814 C   0  0  0  0  0  0  0  0  0  0  0  0
  151.1460  142.9623  158.4944 C   0  0  0  0  0  0  0  0  0  0  0  0
  151.7407  143.2011  159.7510 C   0  0  0  0  0  0  0  0  0  0  0  0
  151.3816  144.4650  160.5123 C   0  0  0  0  0  0  0  0  0  0  0  0
  153.9958  141.6860  161.8942 H   0  0  0  0  0  0  0  0  0  0  0  0
  152.5633  142.5692  162.4179 H   0  0  0  0  0  0  0  0  0  0  0  0
  153.8939  143.4244  161.6227 H   0  0  0  0  0  0  0  0  0  0  0  0
  153.6867  140.3824  159.9630 H   0  0  0  0  0  0  0  0  0  0  0  0
  151.6449  139.4897  155.5589 H   0  0  0  0  0  0  0  0  0  0  0  0
  149.4835  142.5281  156.1356 H   0  0  0  0  0  0  0  0  0  0  0  0
  150.7002  142.4534  154.8824 H   0  0  0  0  0  0  0  0  0  0  0  0
  148.9943  140.0229  155.5943 H   0  0  0  0  0  0  0  0  0  0  0  0
  149.6464  140.0674  153.0950 H   0  0  0  0  0  0  0  0  0  0  0  0
  148.3731  142.1250  153.4578 H   0  0  0  0  0  0  0  0  0  0  0  0
  147.5332  140.6000  153.6285 H   0  0  0  0  0  0  0  0  0  0  0  0
  145.9487  143.2907  153.9634 H   0  0  0  0  0  0  0  0  0  0  0  0
  144.9389  144.6115  157.7814 H   0  0  0  0  0  0  0  0  0  0  0  0
  146.1828  144.9460  158.9958 H   0  0  0  0  0  0  0  0  0  0  0  0
  144.5611  144.4498  159.5006 H   0  0  0  0  0  0  0  0  0  0  0  0
  150.4456  143.6691  158.0747 H   0  0  0  0  0  0  0  0  0  0  0  0
  150.6490  145.0621  159.9686 H   0  0  0  0  0  0  0  0  0  0  0  0
  152.2672  145.0816  160.6676 H   0  0  0  0  0  0  0  0  0  0  0  0
  150.9555  144.2181  161.4850 H   0  0  0  0  0  0  0  0  0  0  0  0
  1  2  1  0  0  0  0
  1 24  1  0  0  0  0
  1 25  1  0  0  0  0
  1 26  1  0  0  0  0
  2 22  1  0  0  0  0
  2  3  2  0  0  0  0
  3  4  1  0  0  0  0
  3 27  1  0  0  0  0
  4 20  2  0  0  0  0
  4  5  1  0  0  0  0
  5  6  2  0  0  0  0
  6  7  1  0  0  0  0
  6 28  1  0  0  0  0
  7  8  1  0  0  0  0
  7 20  1  0  0  0  0
  8  9  1  0  0  0  0
  8 29  1  0  0  0  0
  8 30  1  0  0  0  0
  9 10  1  0  0  0  0
  9 11  1  0  0  0  0
  9 31  1  0  0  0  0
 10 32  1  0  0  0  0
 11 12  1  0  0  0  0
 11 33  1  0  0  0  0
 11 34  1  0  0  0  0
 12 19  1  0  0  0  0
 12 13  1  0  0  0  0
 13 14  2  0  0  0  0
 13 35  1  0  0  0  0
 14 15  1  0  0  0  0
 15 16  1  0  0  0  0
 15 19  2  0  0  0  0
 16 17  1  0  0  0  0
 16 18  2  0  0  0  0
 17 36  1  0  0  0  0
 17 37  1  0  0  0  0
 17 38  1  0  0  0  0
 20 21  1  0  0  0  0
 21 22  2  0  0  0  0
 21 39  1  0  0  0  0
 22 23  1  0  0  0  0
 23 40  1  0  0  0  0
 23 41  1  0  0  0  0
 23 42  1  0  0  0  0
M  END
> <s_m_source_file>
AV-unprocessed.smi

> <i_m_source_file_index>
2845

> <i_lp_mmshare_version>
43012

> <i_f3d_flags>
0

> <s_epik_input>
W0NIM11jKFtjSF0xKWMoW0NIM10pW2NIXWMoYzEyKW4oW2NIXW4yKVtDSDJdW0NASF0oW09IXSlbQ0gyXW4zW2NIXW5jKG4zKVtTQF0oPU8pW0NIM10=

> <s_epik_cmdline>
J2VwaWtfcHl0aG9uJywgJy1waCcsICc3LjAnLCAnLXRuJywgJzgnLCAnLW1hJywgJzIwMCcsICctbWV0YWxfYmluZGluZycsICctaW1hZScsICc8aW5maWxlLm1hZT4nLCAnLW9tYWUnLCAnPG91dGZpbGUubWFlPic=

> <r_lp_tautomer_probability>
1

> <r_epik_Ionization_Penalty>
0.0968684

> <r_epik_Ionization_Penalty_Charging>
0

> <r_epik_Ionization_Penalty_Neutral>
0.0968684

> <r_epik_State_Penalty>
0.0870047

> <r_epik_Charging_Adjusted_Penalty>
0.0870047

> <i_epik_Tot_Q>
0

> <i_epik_Tot_abs_Q>
0

> <r_epik_Metal_State_Penalty>
0.0746849

> <b_epik_Metal_Only>
0

> <s_lp_Force_Field>
OPLS_2005

> <r_lp_Energy>
9.81721

> <b_lp_Chiralities_Consistent>
1

> <s_lp_Variant>
AV-unprocessed.smi:2845-3

> <Gold.Version>
5.8.1

> <Gold.Id.Protein>
6NUR|6NUR_protein|mol2

> <Gold.PLP.Fitness>
56.3634

> <Gold.PLP.PLP>
-46.6852

> <Gold.PLP.part.hbond>
-4.8507

> <Gold.PLP.part.metal>
0.0000

> <Gold.PLP.part.buried>
-5.8523

> <Gold.PLP.part.nonpolar>
-37.2102

> <Gold.PLP.part.repulsive>
0.3143

> <Gold.PLP.ligand.clash>
0.0000

> <Gold.PLP.ligand.torsion>
1.2374

> <Gold.PLP.Chemscore.Hbond>
3.7029

> <Gold.PLP.Chemscore.CHOScore>
0.0000

> <Gold.PLP.Chemscore.Metal>
0.0000

> <Gold.Chemscore.Hbonds>
donor molecule, donor type, donor heavy atom, donor atom, acceptor molecule, acceptor atom, score
      L1  H    10    32       P1  7957  1.00
      P1  H  6933  6944       L1    18  0.10
      P1  H  6934  6946       L1    18  0.69
      P1  H  7989  7998       L1    10  0.86
      P1  H  7997  8010       L1     5  1.00

> <Gold.PLP.Chemscore.Internal.Correction>
1.0443

> <Gold.Rescore>
     Score         DG    S(hbond)    S(metal)    S(lipo)     H(rot)  DE(clash)    DE(int)     intcor
     17.20     -19.63       2.78        0.00     100.75       2.71       0.07       2.35       ----

> <Gold.Chemscore.Fitness>
17.2042

> <Gold.Chemscore.DG>
-19.6288

> <Gold.Chemscore.ZeroCoef>
-5.4800

> <Gold.Chemscore.Hbond>
2.7846

> <Gold.Chemscore.Metal>
0.0000

> <Gold.Chemscore.Lipo>
100.7521

> <Gold.Chemscore.Internal_Hbond>
0.0000

> <Gold.Chemscore.DEClash>
0.0715

> <Gold.Chemscore.DEInternal>
2.3531

> <Gold.Chemscore.Rot>
2.7108

> <Gold.Chemscore.Internal.Correction>
   9.000000E+99

> <Gold.Chemscore.Hbonds>
donor molecule, donor type, donor heavy atom, donor atom, acceptor molecule, acceptor atom, score
      L1  H    10    32       P1  7957  0.94
      P1  H  6933  6944       L1    18  0.11
      P1  H  6934  6946       L1    18  0.23
      P1  H  7989  7998       L1    10  0.36
      P1  H  7997  8010       L1     5  0.18

> <Gold.Chemscore.Hbond.Weighted>
-9.3004

> <Gold.Chemscore.Metal.Weighted>
-0.0000

> <Gold.Chemscore.Lipo.Weighted>
-11.7880

> <Gold.Chemscore.Internal_Hbond.Weighted>
0.0000

> <Gold.Chemscore.DEClash.Weighted>
0.0715

> <Gold.Chemscore.DEInternal.Weighted>
2.3531

> <Gold.Chemscore.Rot.Weighted>
6.9396

> <Gold.Chemscore.Internal.Correction.Weighted>
   9.000000E+99

> <Gold.Protein.RotatedTorsions>
[ 6907 6896 6895 6894 ] final  125.56 input  -60.11 | X-H torsion
[ 7974 7965 7964 7962 ] final  -97.17 input  175.53 | X-H torsion
[ 8008 7997 7996 7995 ] final   41.06 input   59.86 | X-H torsion
[ 10167 10162 10161 10158 ] final   50.26 input  -65.29 | X-H torsion
[ 10718 10713 10712 10709 ] final   87.86 input   66.30 | X-H torsion
[ 10763 10752 10751 10750 ] final   55.34 input  -60.55 | X-H torsion
[ 11005 11000 10999 10996 ] final -166.88 input  -57.11 | X-H torsion

> <Gold.Protein.ActiveResidues>
 VAL166  LYS551  ARG553  GLY616  TRP617  ASP618  TYR619  PRO620  LYS621  CYS622 
 ASP623  PHE694  ASN695  SER759  ASP760  ASP761  ALA762  ILE779  LEU786  VAL792 
 PHE793  MET794  SER795  GLU796  ALA797  LYS798  CYS799  TRP800  GLU811  SER814 

> <Gold.Protein.RotatedAtoms>
  152.3981  133.6776  159.6292 H   0  0  0  0  0  0  0  0  0  0  0  0  # atno 6907 bound_to 6896
  150.7876  133.8839  159.3302 H   0  0  0  0  0  0  0  0  0  0  0  0  # atno 6908 bound_to 6896
  151.6611  135.0991  160.0231 H   0  0  0  0  0  0  0  0  0  0  0  0  # atno 6909 bound_to 6896
  145.3372  140.9453  143.2628 H   0  0  0  0  0  0  0  0  0  0  0  0  # atno 7974 bound_to 7965
  155.2633  140.3361  155.4271 H   0  0  0  0  0  0  0  0  0  0  0  0  # atno 8008 bound_to 7997
  156.2165  140.1791  156.7620 H   0  0  0  0  0  0  0  0  0  0  0  0  # atno 8009 bound_to 7997
  154.5761  140.0661  156.9021 H   0  0  0  0  0  0  0  0  0  0  0  0  # atno 8010 bound_to 7997
  140.2743  144.3230  150.6281 H   0  0  0  0  0  0  0  0  0  0  0  0  # atno 10167 bound_to 10162
  157.6944  131.0272  150.3187 H   0  0  0  0  0  0  0  0  0  0  0  0  # atno 10718 bound_to 10713
  152.9816  135.5714  154.5052 H   0  0  0  0  0  0  0  0  0  0  0  0  # atno 10763 bound_to 10752
  154.4565  135.2780  155.1746 H   0  0  0  0  0  0  0  0  0  0  0  0  # atno 10764 bound_to 10752
  154.3352  135.6241  153.5623 H   0  0  0  0  0  0  0  0  0  0  0  0  # atno 10765 bound_to 10752
  140.5595  134.5347  157.5140 H   0  0  0  0  0  0  0  0  0  0  0  0  # atno 11005 bound_to 11000
  144.8818  139.4893  143.6719 LP  0  0  0  0  0  0  0  0  0  0  0  0  # atno 17320 bound_to 7965
  146.3022  139.7463  142.9083 LP  0  0  0  0  0  0  0  0  0  0  0  0  # atno 17321 bound_to 7965
  140.5864  143.2170  151.7334 LP  0  0  0  0  0  0  0  0  0  0  0  0  # atno 17342 bound_to 10162
  139.4980  144.4004  152.0187 LP  0  0  0  0  0  0  0  0  0  0  0  0  # atno 17343 bound_to 10162
  156.3677  130.3858  149.7200 LP  0  0  0  0  0  0  0  0  0  0  0  0  # atno 17370 bound_to 10713
  156.4625  130.7958  151.2978 LP  0  0  0  0  0  0  0  0  0  0  0  0  # atno 17371 bound_to 10713
  139.9415  134.7779  156.0667 LP  0  0  0  0  0  0  0  0  0  0  0  0  # atno 17394 bound_to 11000
  141.1123  133.6639  156.3009 LP  0  0  0  0  0  0  0  0  0  0  0  0  # atno 17395 bound_to 11000

$$$$
