AV-unprocessed.smi:2881|AV-procd|sdf|11063|dock4
  -GOLD-   2272015533D 1   1.00000     0.00000
 Structure written by MMmdl.
 40 42  0  0  0  0  0  0  0  0  1 V2000
  143.6215  132.8964  150.4903 C   0  0  0  0  0  0  0  0  0  0  0  0
  144.5443  134.0432  150.7812 C   0  0  0  0  0  0  0  0  0  0  0  0
  144.3016  135.4363  150.5983 C   0  0  0  0  0  0  0  0  0  0  0  0
  145.4554  136.0385  151.0162 C   0  0  0  0  0  0  0  0  0  0  0  0
  145.8492  137.4787  151.0852 C   0  0  0  0  0  0  0  0  0  0  0  0
  146.2753  137.8560  152.5035 C   0  0  0  0  0  0  0  0  0  0  0  0
  145.5677  137.5413  153.4600 O   0  0  0  0  0  0  0  0  0  0  0  0
  147.4253  138.5372  152.6205 N   0  0  0  0  0  0  0  0  0  0  0  0
  148.0065  139.0096  153.8751 C   0  0  2  0  0  0  0  0  0  0  0  0
  147.1728  140.1792  154.4440 C   0  0  1  0  0  0  0  0  0  0  0  0
  147.5556  140.3875  155.9200 C   0  0  0  0  0  0  0  0  0  0  0  0
  148.9619  141.0067  155.8136 C   0  0  0  0  0  0  0  0  0  0  0  0
  149.2016  141.0636  154.2889 C   0  0  2  0  0  0  0  0  0  0  0  0
  147.8045  141.4028  153.7862 C   0  0  0  0  0  0  0  0  0  0  0  0
  149.4045  139.6542  153.6823 C   0  0  1  0  0  0  0  0  0  0  0  0
  150.5786  138.8564  154.2831 C   0  0  0  0  0  0  0  0  0  0  0  0
  150.5568  137.5253  153.8153 O   0  0  0  0  0  0  0  0  0  0  0  0
  146.2973  135.0220  151.4076 N   0  0  0  0  0  0  0  0  0  0  0  0
  145.7519  133.7995  151.2685 N   0  0  0  0  0  0  0  0  0  0  0  0
  147.2312  135.1476  151.7722 H   0  0  0  0  0  0  0  0  0  0  0  0
  142.5889  133.2352  150.4032 H   0  0  0  0  0  0  0  0  0  0  0  0
  143.6574  132.1474  151.2822 H   0  0  0  0  0  0  0  0  0  0  0  0
  143.8907  132.4064  149.5544 H   0  0  0  0  0  0  0  0  0  0  0  0
  143.4128  135.9194  150.2202 H   0  0  0  0  0  0  0  0  0  0  0  0
  145.0190  138.1109  150.7668 H   0  0  0  0  0  0  0  0  0  0  0  0
  146.6717  137.6777  150.3969 H   0  0  0  0  0  0  0  0  0  0  0  0
  147.9345  138.7532  151.7759 H   0  0  0  0  0  0  0  0  0  0  0  0
  148.0345  138.1907  154.5967 H   0  0  0  0  0  0  0  0  0  0  0  0
  146.0977  140.0756  154.2912 H   0  0  0  0  0  0  0  0  0  0  0  0
  146.8678  141.0805  156.4060 H   0  0  0  0  0  0  0  0  0  0  0  0
  147.5491  139.4573  156.4895 H   0  0  0  0  0  0  0  0  0  0  0  0
  148.9621  142.0125  156.2358 H   0  0  0  0  0  0  0  0  0  0  0  0
  149.7167  140.4327  156.3498 H   0  0  0  0  0  0  0  0  0  0  0  0
  149.9735  141.7763  153.9966 H   0  0  0  0  0  0  0  0  0  0  0  0
  147.7217  141.4036  152.6978 H   0  0  0  0  0  0  0  0  0  0  0  0
  147.4210  142.3490  154.1727 H   0  0  0  0  0  0  0  0  0  0  0  0
  149.6035  139.7933  152.6174 H   0  0  0  0  0  0  0  0  0  0  0  0
  151.5289  139.3044  153.9919 H   0  0  0  0  0  0  0  0  0  0  0  0
  150.5423  138.8468  155.3723 H   0  0  0  0  0  0  0  0  0  0  0  0
  149.8775  137.4459  153.1633 H   0  0  0  0  0  0  0  0  0  0  0  0
  1 21  1  0  0  0  0
  1 22  1  0  0  0  0
  1 23  1  0  0  0  0
  1  2  1  0  0  0  0
  2 19  2  0  0  0  0
  2  3  1  0  0  0  0
  3  4  2  0  0  0  0
  3 24  1  0  0  0  0
  4 18  1  0  0  0  0
  4  5  1  0  0  0  0
  5  6  1  0  0  0  0
  5 25  1  0  0  0  0
  5 26  1  0  0  0  0
  6  7  2  0  0  0  0
  6  8  1  0  0  0  0
  8  9  1  0  0  0  0
  8 27  1  0  0  0  0
  9 15  1  0  0  0  0
  9 10  1  0  0  0  0
  9 28  1  0  0  0  0
 10 14  1  0  0  0  0
 10 11  1  0  0  0  0
 10 29  1  0  0  0  0
 11 12  1  0  0  0  0
 11 30  1  0  0  0  0
 11 31  1  0  0  0  0
 12 13  1  0  0  0  0
 12 32  1  0  0  0  0
 12 33  1  0  0  0  0
 13 14  1  0  0  0  0
 13 15  1  0  0  0  0
 13 34  1  0  0  0  0
 14 35  1  0  0  0  0
 14 36  1  0  0  0  0
 15 16  1  0  0  0  0
 15 37  1  0  0  0  0
 16 17  1  0  0  0  0
 16 38  1  0  0  0  0
 16 39  1  0  0  0  0
 17 40  1  0  0  0  0
 18 19  1  0  0  0  0
 18 20  1  0  0  0  0
M  END
> <s_m_source_file>
AV-unprocessed.smi

> <i_m_source_file_index>
2881

> <i_lp_mmshare_version>
43012

> <i_f3d_flags>
0

> <s_epik_input>
W0NIM11jMVtjSF1jKG5bbkhdMSlbQ0gyXUMoPU8pW05IXVtDQEhdKFtDQEBIXTIzKVtDQEhdKFtDSDJdW09IXSlbQ0BASF0oW0NIMl0zKVtDSDJdW0NIMl0y

> <s_epik_cmdline>
J2VwaWtfcHl0aG9uJywgJy1waCcsICc3LjAnLCAnLXRuJywgJzgnLCAnLW1hJywgJzIwMCcsICctbWV0YWxfYmluZGluZycsICctaW1hZScsICc8aW5maWxlLm1hZT4nLCAnLW9tYWUnLCAnPG91dGZpbGUubWFlPic=

> <r_lp_tautomer_probability>
0.5

> <r_epik_Ionization_Penalty>
0.00013396

> <r_epik_Ionization_Penalty_Charging>
0

> <r_epik_Ionization_Penalty_Neutral>
0.00013396

> <r_epik_State_Penalty>
0.41068

> <r_epik_Charging_Adjusted_Penalty>
0.41068

> <i_epik_Tot_Q>
0

> <i_epik_Tot_abs_Q>
0

> <r_epik_Metal_State_Penalty>
0.41066

> <b_epik_Metal_Only>
0

> <s_lp_Force_Field>
OPLS_2005

> <r_lp_Energy>
47.2043

> <b_lp_Chiralities_Consistent>
1

> <s_lp_Variant>
AV-unprocessed.smi:2881-9

> <Gold.Version>
5.8.1

> <Gold.Id.Protein>
6NUR|6NUR_protein|mol2

> <Gold.PLP.Fitness>
40.6628

> <Gold.PLP.PLP>
-33.6186

> <Gold.PLP.part.hbond>
-5.0000

> <Gold.PLP.part.metal>
0.0000

> <Gold.PLP.part.buried>
3.1654

> <Gold.PLP.part.nonpolar>
-33.1352

> <Gold.PLP.part.repulsive>
0.4770

> <Gold.PLP.ligand.clash>
0.0000

> <Gold.PLP.ligand.torsion>
0.2469

> <Gold.PLP.Chemscore.Hbond>
2.5030

> <Gold.PLP.Chemscore.CHOScore>
0.0000

> <Gold.PLP.Chemscore.Metal>
0.0000

> <Gold.Chemscore.Hbonds>
donor molecule, donor type, donor heavy atom, donor atom, acceptor molecule, acceptor atom, score
      L1  H     8    27       P1  7957  0.53
      L1  H    17    40       P1  7948  0.91
      L1  H    18    20       P1  7948  0.99

> <Gold.PLP.Chemscore.Internal.Correction>
0.0290

> <Gold.Rescore>
     Score         DG    S(hbond)    S(metal)    S(lipo)     H(rot)  DE(clash)    DE(int)     intcor
     13.11     -16.31       1.93        0.00      87.24       2.28       2.89       0.30       ----

> <Gold.Chemscore.Fitness>
13.1132

> <Gold.Chemscore.DG>
-16.3074

> <Gold.Chemscore.ZeroCoef>
-5.4800

> <Gold.Chemscore.Hbond>
1.9299

> <Gold.Chemscore.Metal>
0.0000

> <Gold.Chemscore.Lipo>
87.2382

> <Gold.Chemscore.Internal_Hbond>
0.0000

> <Gold.Chemscore.DEClash>
2.8907

> <Gold.Chemscore.DEInternal>
0.3035

> <Gold.Chemscore.Rot>
2.2755

> <Gold.Chemscore.Internal.Correction>
   9.000000E+99

> <Gold.Chemscore.Hbonds>
donor molecule, donor type, donor heavy atom, donor atom, acceptor molecule, acceptor atom, score
      L1  H     8    27       P1  7957  0.45
      L1  H    17    40       P1  7948  0.34
      L1  H    18    20       P1  7948  0.87

> <Gold.Chemscore.Hbond.Weighted>
-6.4457

> <Gold.Chemscore.Metal.Weighted>
-0.0000

> <Gold.Chemscore.Lipo.Weighted>
-10.2069

> <Gold.Chemscore.Internal_Hbond.Weighted>
0.0000

> <Gold.Chemscore.DEClash.Weighted>
2.8907

> <Gold.Chemscore.DEInternal.Weighted>
0.3035

> <Gold.Chemscore.Rot.Weighted>
5.8252

> <Gold.Chemscore.Internal.Correction.Weighted>
   9.000000E+99

> <Gold.Protein.RotatedTorsions>
[ 6907 6896 6895 6894 ] final -126.96 input  -60.11 | X-H torsion
[ 7974 7965 7964 7962 ] final  -62.07 input  175.53 | X-H torsion
[ 8008 7997 7996 7995 ] final  167.62 input   59.86 | X-H torsion
[ 10167 10162 10161 10158 ] final  105.13 input  -65.29 | X-H torsion
[ 10718 10713 10712 10709 ] final  -10.45 input   66.30 | X-H torsion
[ 10763 10752 10751 10750 ] final -146.53 input  -60.55 | X-H torsion
[ 11005 11000 10999 10996 ] final  113.92 input  -57.11 | X-H torsion

> <Gold.Protein.ActiveResidues>
 VAL166  LYS551  ARG553  GLY616  TRP617  ASP618  TYR619  PRO620  LYS621  CYS622 
 ASP623  PHE694  ASN695  SER759  ASP760  ASP761  ALA762  ILE779  LEU786  VAL792 
 PHE793  MET794  SER795  GLU796  ALA797  LYS798  CYS799  TRP800  GLU811  SER814 

> <Gold.Protein.RotatedAtoms>
  150.9023  133.7102  159.2875 H   0  0  0  0  0  0  0  0  0  0  0  0  # atno 6907 bound_to 6896
  151.4617  135.1037  159.9736 H   0  0  0  0  0  0  0  0  0  0  0  0  # atno 6908 bound_to 6896
  152.4884  133.8384  159.7195 H   0  0  0  0  0  0  0  0  0  0  0  0  # atno 6909 bound_to 6896
  145.7958  140.8683  143.0257 H   0  0  0  0  0  0  0  0  0  0  0  0  # atno 7974 bound_to 7965
  156.1618  140.1612  156.8599 H   0  0  0  0  0  0  0  0  0  0  0  0  # atno 8008 bound_to 7997
  154.5168  140.0787  156.8132 H   0  0  0  0  0  0  0  0  0  0  0  0  # atno 8009 bound_to 7997
  155.3692  140.3399  155.4245 H   0  0  0  0  0  0  0  0  0  0  0  0  # atno 8010 bound_to 7997
  139.7118  144.7076  151.1014 H   0  0  0  0  0  0  0  0  0  0  0  0  # atno 10167 bound_to 10162
  156.6734  130.5016  149.5993 H   0  0  0  0  0  0  0  0  0  0  0  0  # atno 10718 bound_to 10713
  154.8331  135.3384  154.6675 H   0  0  0  0  0  0  0  0  0  0  0  0  # atno 10763 bound_to 10752
  153.7293  135.6953  153.4998 H   0  0  0  0  0  0  0  0  0  0  0  0  # atno 10764 bound_to 10752
  153.2324  135.4412  155.0562 H   0  0  0  0  0  0  0  0  0  0  0  0  # atno 10765 bound_to 10752
  139.8966  134.9559  156.6813 H   0  0  0  0  0  0  0  0  0  0  0  0  # atno 11005 bound_to 11000
  144.6775  140.0188  143.7484 LP  0  0  0  0  0  0  0  0  0  0  0  0  # atno 17320 bound_to 7965
  145.9929  139.3029  143.0974 LP  0  0  0  0  0  0  0  0  0  0  0  0  # atno 17321 bound_to 7965
  140.7735  143.5282  150.9454 LP  0  0  0  0  0  0  0  0  0  0  0  0  # atno 17342 bound_to 10162
  139.8967  143.6886  152.3137 LP  0  0  0  0  0  0  0  0  0  0  0  0  # atno 17343 bound_to 10162
  156.1922  130.6567  151.1074 LP  0  0  0  0  0  0  0  0  0  0  0  0  # atno 17370 bound_to 10713
  157.7069  131.0752  150.6635 LP  0  0  0  0  0  0  0  0  0  0  0  0  # atno 17371 bound_to 10713
  140.7297  133.9070  155.8203 LP  0  0  0  0  0  0  0  0  0  0  0  0  # atno 17394 bound_to 11000
  141.0163  134.0951  157.4168 LP  0  0  0  0  0  0  0  0  0  0  0  0  # atno 17395 bound_to 11000

$$$$
