AV-unprocessed.smi:288|AV-procd|sdf|2210|dock4
  -GOLD-   2262022 43D 1   1.00000     0.00000
 Structure written by MMmdl.
 33 34  0  0  0  0  0  0  0  0  1 V2000
  152.9952  136.6609  160.1600 O   0  0  0  0  0  0  0  0  0  0  0  0
  153.1184  137.8839  160.0720 C   0  0  0  0  0  0  0  0  0  0  0  0
  152.1414  138.7445  159.4137 C   0  0  0  0  0  0  0  0  0  0  0  0
  151.0531  138.1991  158.8446 F   0  0  0  0  0  0  0  0  0  0  0  0
  152.3099  140.0837  159.3669 C   0  0  0  0  0  0  0  0  0  0  0  0
  153.3994  140.7282  159.9306 N   0  0  0  0  0  0  0  0  0  0  0  0
  153.5617  142.2321  159.8712 C   0  0  1  0  0  0  0  0  0  0  0  0
  152.5043  142.8525  158.9403 C   0  0  0  0  0  0  0  0  0  0  0  0
  151.9316  143.9702  159.7879 C   0  0  0  0  0  0  0  0  0  0  0  0
  152.0905  143.4090  161.1931 C   0  0  0  0  0  0  0  0  0  0  0  0
  153.3661  142.7828  161.1431 O   0  0  0  0  0  0  0  0  0  0  0  0
  154.3956  139.9736  160.5876 C   0  0  0  0  0  0  0  0  0  0  0  0
  155.3640  140.5299  161.1108 O   0  0  0  0  0  0  0  0  0  0  0  0
  154.2293  138.5694  160.6228 N   0  0  0  0  0  0  0  0  0  0  0  0
  155.2420  137.7789  161.3033 C   0  0  0  0  0  0  0  0  0  0  0  0
  155.2323  137.9642  162.8375 C   0  0  2  0  0  0  0  0  0  0  0  0
  156.5392  137.7332  163.3276 O   0  0  0  0  0  0  0  0  0  0  0  0
  154.2805  136.9787  163.5432 C   0  0  0  0  0  0  0  0  0  0  0  0
  153.0576  137.0639  163.0188 F   0  0  0  0  0  0  0  0  0  0  0  0
  154.7172  135.7324  163.3609 F   0  0  0  0  0  0  0  0  0  0  0  0
  154.2240  137.2229  164.8534 F   0  0  0  0  0  0  0  0  0  0  0  0
  151.5475  140.6595  158.8654 H   0  0  0  0  0  0  0  0  0  0  0  0
  154.5923  142.4107  159.5592 H   0  0  0  0  0  0  0  0  0  0  0  0
  152.9556  143.2009  158.0108 H   0  0  0  0  0  0  0  0  0  0  0  0
  151.7306  142.1189  158.7070 H   0  0  0  0  0  0  0  0  0  0  0  0
  152.5326  144.8736  159.6751 H   0  0  0  0  0  0  0  0  0  0  0  0
  150.8981  144.2113  159.5377 H   0  0  0  0  0  0  0  0  0  0  0  0
  152.0518  144.1794  161.9632 H   0  0  0  0  0  0  0  0  0  0  0  0
  151.3165  142.6701  161.4048 H   0  0  0  0  0  0  0  0  0  0  0  0
  155.0540  136.7398  161.0292 H   0  0  0  0  0  0  0  0  0  0  0  0
  156.2161  137.9945  160.8608 H   0  0  0  0  0  0  0  0  0  0  0  0
  154.9375  138.9815  163.0989 H   0  0  0  0  0  0  0  0  0  0  0  0
  156.7087  136.8037  163.3038 H   0  0  0  0  0  0  0  0  0  0  0  0
  1  2  2  0  0  0  0
  2 14  1  0  0  0  0
  2  3  1  0  0  0  0
  3  4  1  0  0  0  0
  3  5  2  0  0  0  0
  5  6  1  0  0  0  0
  5 22  1  0  0  0  0
  6  7  1  0  0  0  0
  6 12  1  0  0  0  0
  7 11  1  0  0  0  0
  7  8  1  0  0  0  0
  7 23  1  0  0  0  0
  8  9  1  0  0  0  0
  8 24  1  0  0  0  0
  8 25  1  0  0  0  0
  9 10  1  0  0  0  0
  9 26  1  0  0  0  0
  9 27  1  0  0  0  0
 10 11  1  0  0  0  0
 10 28  1  0  0  0  0
 10 29  1  0  0  0  0
 12 13  2  0  0  0  0
 12 14  1  0  0  0  0
 14 15  1  0  0  0  0
 15 16  1  0  0  0  0
 15 30  1  0  0  0  0
 15 31  1  0  0  0  0
 16 17  1  0  0  0  0
 16 18  1  0  0  0  0
 16 32  1  0  0  0  0
 17 33  1  0  0  0  0
 18 19  1  0  0  0  0
 18 20  1  0  0  0  0
 18 21  1  0  0  0  0
M  END
> <s_m_source_file>
AV-unprocessed.smi

> <i_m_source_file_index>
288

> <i_lp_mmshare_version>
43012

> <i_f3d_flags>
0

> <s_epik_input>
TzFbQ0gyXVtDSDJdW0NIMl1bQ0BIXTFuKFtjSF1jKEYpYzI9TyljKD1PKW4yW0NIMl1bQ0BIXShbT0hdKUMoRikoRilG

> <s_epik_cmdline>
J2VwaWtfcHl0aG9uJywgJy1waCcsICc3LjAnLCAnLXRuJywgJzgnLCAnLW1hJywgJzIwMCcsICctbWV0YWxfYmluZGluZycsICctaW1hZScsICc8aW5maWxlLm1hZT4nLCAnLW9tYWUnLCAnPG91dGZpbGUubWFlPic=

> <r_lp_tautomer_probability>
1

> <r_epik_Ionization_Penalty>
0.000551119

> <r_epik_Ionization_Penalty_Charging>
2.51184e-08

> <r_epik_Ionization_Penalty_Neutral>
0.000551094

> <r_epik_State_Penalty>
0.000345115

> <r_epik_Charging_Adjusted_Penalty>
0.00034514

> <i_epik_Tot_Q>
0

> <i_epik_Tot_abs_Q>
0

> <r_epik_Metal_State_Penalty>
-0

> <b_epik_Metal_Only>
0

> <s_epik_Chemistry_Notes>
This compound contains an acetal/aminal-like group ( X-CH(R)-Y where X, Y are N, S, or O) that may be acid/base labile, releasing an aldehyde.

> <s_lp_Force_Field>
OPLS_2005

> <r_lp_Energy>
35.1555

> <b_lp_Chiralities_Consistent>
1

> <s_lp_Variant>
AV-unprocessed.smi:288-2

> <Gold.Version>
5.8.1

> <Gold.Id.Protein>
6NUR|6NUR_protein|mol2

> <Gold.PLP.Fitness>
41.9776

> <Gold.PLP.PLP>
-40.3018

> <Gold.PLP.part.hbond>
-1.9923

> <Gold.PLP.part.metal>
0.0000

> <Gold.PLP.part.buried>
-2.6607

> <Gold.PLP.part.nonpolar>
-35.7690

> <Gold.PLP.part.repulsive>
0.0135

> <Gold.PLP.ligand.clash>
0.0000

> <Gold.PLP.ligand.torsion>
0.6670

> <Gold.PLP.Chemscore.Hbond>
1.0000

> <Gold.PLP.Chemscore.CHOScore>
0.0000

> <Gold.PLP.Chemscore.Metal>
0.0000

> <Gold.Chemscore.Hbonds>
donor molecule, donor type, donor heavy atom, donor atom, acceptor molecule, acceptor atom, score
      P1  H  6896  6907       L1     1  1.00

> <Gold.PLP.Chemscore.Internal.Correction>
0.0098

> <Gold.Rescore>
     Score         DG    S(hbond)    S(metal)    S(lipo)     H(rot)  DE(clash)    DE(int)     intcor
      7.13      -9.53       1.00        0.00      62.24       2.57       0.02       2.39       ----

> <Gold.Chemscore.Fitness>
7.1280

> <Gold.Chemscore.DG>
-9.5327

> <Gold.Chemscore.ZeroCoef>
-5.4800

> <Gold.Chemscore.Hbond>
0.9995

> <Gold.Chemscore.Metal>
0.0000

> <Gold.Chemscore.Lipo>
62.2411

> <Gold.Chemscore.Internal_Hbond>
0.0000

> <Gold.Chemscore.DEClash>
0.0159

> <Gold.Chemscore.DEInternal>
2.3888

> <Gold.Chemscore.Rot>
2.5656

> <Gold.Chemscore.Internal.Correction>
   9.000000E+99

> <Gold.Chemscore.Hbonds>
donor molecule, donor type, donor heavy atom, donor atom, acceptor molecule, acceptor atom, score
      P1  H  6896  6907       L1     1  1.00

> <Gold.Chemscore.Hbond.Weighted>
-3.3384

> <Gold.Chemscore.Metal.Weighted>
-0.0000

> <Gold.Chemscore.Lipo.Weighted>
-7.2822

> <Gold.Chemscore.Internal_Hbond.Weighted>
0.0000

> <Gold.Chemscore.DEClash.Weighted>
0.0159

> <Gold.Chemscore.DEInternal.Weighted>
2.3888

> <Gold.Chemscore.Rot.Weighted>
6.5679

> <Gold.Chemscore.Internal.Correction.Weighted>
   9.000000E+99

> <Gold.Protein.RotatedTorsions>
[ 6907 6896 6895 6894 ] final   31.46 input  -60.11 | X-H torsion
[ 7974 7965 7964 7962 ] final  -25.31 input  175.53 | X-H torsion
[ 8008 7997 7996 7995 ] final  -19.66 input   59.86 | X-H torsion
[ 10167 10162 10161 10158 ] final  173.46 input  -65.29 | X-H torsion
[ 10718 10713 10712 10709 ] final  -36.24 input   66.30 | X-H torsion
[ 10763 10752 10751 10750 ] final  -55.63 input  -60.55 | X-H torsion
[ 11005 11000 10999 10996 ] final -179.36 input  -57.11 | X-H torsion

> <Gold.Protein.ActiveResidues>
 VAL166  LYS551  ARG553  GLY616  TRP617  ASP618  TYR619  PRO620  LYS621  CYS622 
 ASP623  PHE694  ASN695  SER759  ASP760  ASP761  ALA762  ILE779  LEU786  VAL792 
 PHE793  MET794  SER795  GLU796  ALA797  LYS798  CYS799  TRP800  GLU811  SER814 

> <Gold.Protein.RotatedAtoms>
  152.0606  134.9596  160.0574 H   0  0  0  0  0  0  0  0  0  0  0  0  # atno 6907 bound_to 6896
  152.0961  133.4221  159.4574 H   0  0  0  0  0  0  0  0  0  0  0  0  # atno 6908 bound_to 6896
  150.6838  134.2734  159.4641 H   0  0  0  0  0  0  0  0  0  0  0  0  # atno 6909 bound_to 6896
  146.1499  140.4869  142.8615 H   0  0  0  0  0  0  0  0  0  0  0  0  # atno 7974 bound_to 7965
  154.4821  140.2083  155.9738 H   0  0  0  0  0  0  0  0  0  0  0  0  # atno 8008 bound_to 7997
  156.1181  140.3218  155.8138 H   0  0  0  0  0  0  0  0  0  0  0  0  # atno 8009 bound_to 7997
  155.4516  140.0517  157.2991 H   0  0  0  0  0  0  0  0  0  0  0  0  # atno 8010 bound_to 7997
  139.5109  144.3258  152.0159 H   0  0  0  0  0  0  0  0  0  0  0  0  # atno 10167 bound_to 10162
  156.3292  130.4277  149.7888 H   0  0  0  0  0  0  0  0  0  0  0  0  # atno 10718 bound_to 10713
  154.1939  135.6422  153.5067 H   0  0  0  0  0  0  0  0  0  0  0  0  # atno 10763 bound_to 10752
  153.0028  135.5435  154.6386 H   0  0  0  0  0  0  0  0  0  0  0  0  # atno 10764 bound_to 10752
  154.5782  135.2923  155.0732 H   0  0  0  0  0  0  0  0  0  0  0  0  # atno 10765 bound_to 10752
  140.4195  134.6618  157.4657 H   0  0  0  0  0  0  0  0  0  0  0  0  # atno 11005 bound_to 11000
  144.7892  140.5997  143.6553 LP  0  0  0  0  0  0  0  0  0  0  0  0  # atno 17320 bound_to 7965
  145.4847  139.1493  143.3742 LP  0  0  0  0  0  0  0  0  0  0  0  0  # atno 17321 bound_to 7965
  140.2698  144.3976  150.6155 LP  0  0  0  0  0  0  0  0  0  0  0  0  # atno 17342 bound_to 10162
  140.6096  143.2169  151.6912 LP  0  0  0  0  0  0  0  0  0  0  0  0  # atno 17343 bound_to 10162
  156.5167  130.8196  151.3189 LP  0  0  0  0  0  0  0  0  0  0  0  0  # atno 17370 bound_to 10713
  157.7427  130.9896  150.2537 LP  0  0  0  0  0  0  0  0  0  0  0  0  # atno 17371 bound_to 10713
  140.0210  134.6547  155.9240 LP  0  0  0  0  0  0  0  0  0  0  0  0  # atno 17394 bound_to 11000
  141.1789  133.6543  156.4941 LP  0  0  0  0  0  0  0  0  0  0  0  0  # atno 17395 bound_to 11000

$$$$
