AV-unprocessed.smi:1046|AV-procd|sdf|4553|dock1
  -GOLD-   22720 2583D 1   1.00000     0.00000
 Structure written by MMmdl.
 54 56  0  0  0  0  0  0  0  0  3 V2000
  152.4495  143.6020  160.4450 C   0  0  0  0  0  0  0  0  0  0  0  0
  152.0858  142.7135  159.2673 C   0  0  0  0  0  0  0  0  0  0  0  0
  151.1084  143.1716  158.3550 C   0  0  0  0  0  0  0  0  0  0  0  0
  150.7939  142.3360  157.2898 C   0  0  0  0  0  0  0  0  0  0  0  0
  149.8857  142.4917  156.2403 N   0  3  0  0  0  0  0  0  0  0  0  0
  149.9265  141.3930  155.4364 C   0  0  0  0  0  0  0  0  0  0  0  0
  150.8570  140.5430  155.9513 N   0  0  0  0  0  0  0  0  0  0  0  0
  151.2947  139.2208  155.4852 C   0  0  0  0  0  0  0  0  0  0  0  0
  150.1321  138.3347  154.9927 C   0  0  1  0  0  0  0  0  0  0  0  0
  149.9398  138.6197  153.6221 O   0  0  0  0  0  0  0  0  0  0  0  0
  150.4075  136.8241  155.1621 C   0  0  0  0  0  0  0  0  0  0  0  0
  149.3019  135.9736  154.6528 N   0  3  0  0  0  0  0  0  0  0  0  0
  147.9799  136.2980  155.2540 C   0  0  0  0  0  0  0  0  0  0  0  0
  146.8798  135.4006  154.6514 C   0  0  0  0  0  0  0  0  0  0  0  0
  147.1519  133.9688  154.8009 N   0  0  0  0  0  0  0  0  0  0  0  0
  147.0454  133.4684  156.1756 C   0  0  0  0  0  0  0  0  0  0  0  0
  145.7248  132.7556  156.5079 C   0  0  0  0  0  0  0  0  0  0  0  0
  144.6505  133.4960  155.9716 O   0  0  0  0  0  0  0  0  0  0  0  0
  148.4512  133.6799  154.1951 C   0  0  0  0  0  0  0  0  0  0  0  0
  149.5992  134.5236  154.7863 C   0  0  0  0  0  0  0  0  0  0  0  0
  151.4162  141.0852  157.1133 C   0  0  0  0  0  0  0  0  0  0  0  0
  152.3790  140.6170  158.0039 C   0  0  0  0  0  0  0  0  0  0  0  0
  152.7110  141.4510  159.0954 C   0  0  0  0  0  0  0  0  0  0  0  0
  153.7555  140.9649  160.0858 C   0  0  0  0  0  0  0  0  0  0  0  0
  151.9690  144.5780  160.3714 H   0  0  0  0  0  0  0  0  0  0  0  0
  153.5263  143.7666  160.4886 H   0  0  0  0  0  0  0  0  0  0  0  0
  152.1306  143.1411  161.3803 H   0  0  0  0  0  0  0  0  0  0  0  0
  150.6246  144.1291  158.4837 H   0  0  0  0  0  0  0  0  0  0  0  0
  149.3306  141.2284  154.5501 H   0  0  0  0  0  0  0  0  0  0  0  0
  152.0364  139.3674  154.6983 H   0  0  0  0  0  0  0  0  0  0  0  0
  151.8152  138.7382  156.3140 H   0  0  0  0  0  0  0  0  0  0  0  0
  149.2257  138.6222  155.5235 H   0  0  0  0  0  0  0  0  0  0  0  0
  150.6902  138.3161  153.1345 H   0  0  0  0  0  0  0  0  0  0  0  0
  151.3329  136.5814  154.6371 H   0  0  0  0  0  0  0  0  0  0  0  0
  150.5813  136.5724  156.2087 H   0  0  0  0  0  0  0  0  0  0  0  0
  148.0222  136.1830  156.3378 H   0  0  0  0  0  0  0  0  0  0  0  0
  147.7259  137.3400  155.0639 H   0  0  0  0  0  0  0  0  0  0  0  0
  145.9131  135.6538  155.0849 H   0  0  0  0  0  0  0  0  0  0  0  0
  146.7865  135.6307  153.5891 H   0  0  0  0  0  0  0  0  0  0  0  0
  147.8541  132.7566  156.3472 H   0  0  0  0  0  0  0  0  0  0  0  0
  147.2066  134.2745  156.8907 H   0  0  0  0  0  0  0  0  0  0  0  0
  145.6915  131.7514  156.0865 H   0  0  0  0  0  0  0  0  0  0  0  0
  145.5943  132.6672  157.5868 H   0  0  0  0  0  0  0  0  0  0  0  0
  143.9925  132.8920  155.6618 H   0  0  0  0  0  0  0  0  0  0  0  0
  148.6806  132.6185  154.2975 H   0  0  0  0  0  0  0  0  0  0  0  0
  148.3923  133.8667  153.1218 H   0  0  0  0  0  0  0  0  0  0  0  0
  150.5226  134.2917  154.2543 H   0  0  0  0  0  0  0  0  0  0  0  0
  149.7703  134.2721  155.8339 H   0  0  0  0  0  0  0  0  0  0  0  0
  152.8524  139.6548  157.8746 H   0  0  0  0  0  0  0  0  0  0  0  0
  154.0736  139.9460  159.8623 H   0  0  0  0  0  0  0  0  0  0  0  0
  153.3582  140.9725  161.1010 H   0  0  0  0  0  0  0  0  0  0  0  0
  154.6376  141.6049  160.0536 H   0  0  0  0  0  0  0  0  0  0  0  0
  149.2292  136.1506  153.6612 H   0  0  0  0  0  0  0  0  0  0  0  0
  149.2768  143.2855  156.0857 H   0  0  0  0  0  0  0  0  0  0  0  0
  1  2  1  0  0  0  0
  1 25  1  0  0  0  0
  1 26  1  0  0  0  0
  1 27  1  0  0  0  0
  2 23  1  0  0  0  0
  2  3  2  0  0  0  0
  3  4  1  0  0  0  0
  3 28  1  0  0  0  0
  4 21  2  0  0  0  0
  4  5  1  0  0  0  0
  5  6  2  0  0  0  0
  5 54  1  0  0  0  0
  6  7  1  0  0  0  0
  6 29  1  0  0  0  0
  7  8  1  0  0  0  0
  7 21  1  0  0  0  0
  8  9  1  0  0  0  0
  8 30  1  0  0  0  0
  8 31  1  0  0  0  0
  9 10  1  0  0  0  0
  9 11  1  0  0  0  0
  9 32  1  0  0  0  0
 10 33  1  0  0  0  0
 11 12  1  0  0  0  0
 11 34  1  0  0  0  0
 11 35  1  0  0  0  0
 12 20  1  0  0  0  0
 12 13  1  0  0  0  0
 12 53  1  0  0  0  0
 13 14  1  0  0  0  0
 13 36  1  0  0  0  0
 13 37  1  0  0  0  0
 14 15  1  0  0  0  0
 14 38  1  0  0  0  0
 14 39  1  0  0  0  0
 15 16  1  0  0  0  0
 15 19  1  0  0  0  0
 16 17  1  0  0  0  0
 16 40  1  0  0  0  0
 16 41  1  0  0  0  0
 17 18  1  0  0  0  0
 17 42  1  0  0  0  0
 17 43  1  0  0  0  0
 18 44  1  0  0  0  0
 19 20  1  0  0  0  0
 19 45  1  0  0  0  0
 19 46  1  0  0  0  0
 20 47  1  0  0  0  0
 20 48  1  0  0  0  0
 21 22  1  0  0  0  0
 22 23  2  0  0  0  0
 22 49  1  0  0  0  0
 23 24  1  0  0  0  0
 24 50  1  0  0  0  0
 24 51  1  0  0  0  0
 24 52  1  0  0  0  0
M  CHG  1   5   1
M  CHG  1  12   1
M  END
> <s_m_source_file>
AV-unprocessed.smi

> <i_m_source_file_index>
1046

> <i_lp_mmshare_version>
43012

> <i_f3d_flags>
0

> <s_epik_input>
W0NIM11jKFtjSF0xKWMoW0NIM10pW2NIXWMoYzEyKW4oW2NIXW4yKVtDSDJdW0NASF0oW09IXSlbQ0gyXU4zW0NIMl1bQ0gyXU4oW0NIMl1bQ0gyXTMpW0NIMl1bQ0gyXVtPSF0=

> <s_epik_cmdline>
J2VwaWtfcHl0aG9uJywgJy1waCcsICc3LjAnLCAnLXRuJywgJzgnLCAnLW1hJywgJzIwMCcsICctbWV0YWxfYmluZGluZycsICctaW1hZScsICc8aW5maWxlLm1hZT4nLCAnLW9tYWUnLCAnPG91dGZpbGUubWFlPic=

> <r_epik_Ionization_Penalty>
1.22056

> <r_epik_Ionization_Penalty_Charging>
1.17959

> <r_epik_Ionization_Penalty_Neutral>
0.0409743

> <r_epik_State_Penalty>
1.27074

> <r_epik_Charging_Adjusted_Penalty>
2.45032

> <i_epik_Tot_Q>
2

> <i_epik_Tot_abs_Q>
2

> <r_epik_Metal_State_Penalty>
5.26922

> <b_epik_Metal_Only>
0

> <s_lp_Force_Field>
OPLS_2005

> <r_lp_Energy>
42.2252

> <b_lp_Chiralities_Consistent>
1

> <s_lp_Variant>
AV-unprocessed.smi:1046-6

> <Gold.Version>
5.8.1

> <Gold.Id.Protein>
6NUR|6NUR_protein|mol2

> <Gold.PLP.Fitness>
56.5690

> <Gold.PLP.PLP>
-43.9814

> <Gold.PLP.part.hbond>
-4.7702

> <Gold.PLP.part.metal>
0.0000

> <Gold.PLP.part.buried>
-4.3227

> <Gold.PLP.part.nonpolar>
-35.0180

> <Gold.PLP.part.repulsive>
0.2062

> <Gold.PLP.ligand.clash>
0.0000

> <Gold.PLP.ligand.torsion>
1.2637

> <Gold.PLP.Chemscore.Hbond>
5.0000

> <Gold.PLP.Chemscore.CHOScore>
0.0000

> <Gold.PLP.Chemscore.Metal>
0.0000

> <Gold.Chemscore.Hbonds>
donor molecule, donor type, donor heavy atom, donor atom, acceptor molecule, acceptor atom, score
      L1  H     5    54       P1  8028  2.00
      L1  H    12    53       P1  7948  2.00
      L1  H    18    44       P1 10957  1.00

> <Gold.PLP.Chemscore.Internal.Correction>
0.1150

> <Gold.Rescore>
     Score         DG    S(hbond)    S(metal)    S(lipo)     H(rot)  DE(clash)    DE(int)     intcor
     17.96     -19.23       2.93        0.00     105.88       3.29       0.00       1.27       ----

> <Gold.Chemscore.Fitness>
17.9591

> <Gold.Chemscore.DG>
-19.2321

> <Gold.Chemscore.ZeroCoef>
-5.4800

> <Gold.Chemscore.Hbond>
2.9300

> <Gold.Chemscore.Metal>
0.0000

> <Gold.Chemscore.Lipo>
105.8759

> <Gold.Chemscore.Internal_Hbond>
0.0000

> <Gold.Chemscore.DEClash>
0.0029

> <Gold.Chemscore.DEInternal>
1.2701

> <Gold.Chemscore.Rot>
3.2896

> <Gold.Chemscore.Internal.Correction>
   9.000000E+99

> <Gold.Chemscore.Hbonds>
donor molecule, donor type, donor heavy atom, donor atom, acceptor molecule, acceptor atom, score
      L1  H     5    54       P1  8028  0.94
      L1  H    12    53       P1  7948  0.88
      L1  H    18    44       P1 10957  1.00

> <Gold.Chemscore.Hbond.Weighted>
-9.7861

> <Gold.Chemscore.Metal.Weighted>
-0.0000

> <Gold.Chemscore.Lipo.Weighted>
-12.3875

> <Gold.Chemscore.Internal_Hbond.Weighted>
0.0000

> <Gold.Chemscore.DEClash.Weighted>
0.0029

> <Gold.Chemscore.DEInternal.Weighted>
1.2701

> <Gold.Chemscore.Rot.Weighted>
8.4215

> <Gold.Chemscore.Internal.Correction.Weighted>
   9.000000E+99

> <Gold.Protein.RotatedTorsions>
[ 6907 6896 6895 6894 ] final   24.11 input  -60.11 | X-H torsion
[ 7974 7965 7964 7962 ] final -108.16 input  175.53 | X-H torsion
[ 8008 7997 7996 7995 ] final   94.68 input   59.86 | X-H torsion
[ 10167 10162 10161 10158 ] final   56.96 input  -65.29 | X-H torsion
[ 10718 10713 10712 10709 ] final -105.80 input   66.30 | X-H torsion
[ 10763 10752 10751 10750 ] final   89.45 input  -60.55 | X-H torsion
[ 11005 11000 10999 10996 ] final   38.33 input  -57.11 | X-H torsion

> <Gold.Protein.ActiveResidues>
 VAL166  LYS551  ARG553  GLY616  TRP617  ASP618  TYR619  PRO620  LYS621  CYS622 
 ASP623  PHE694  ASN695  SER759  ASP760  ASP761  ALA762  ILE779  LEU786  VAL792 
 PHE793  MET794  SER795  GLU796  ALA797  LYS798  CYS799  TRP800  GLU811  SER814 

> <Gold.Protein.RotatedAtoms>
  151.9525  135.0162  160.0542 H   0  0  0  0  0  0  0  0  0  0  0  0  # atno 6907 bound_to 6896
  152.1940  133.4789  159.5031 H   0  0  0  0  0  0  0  0  0  0  0  0  # atno 6908 bound_to 6896
  150.6941  134.1593  159.4213 H   0  0  0  0  0  0  0  0  0  0  0  0  # atno 6909 bound_to 6896
  145.1964  140.9037  143.3395 H   0  0  0  0  0  0  0  0  0  0  0  0  # atno 7974 bound_to 7965
  156.0605  140.3296  155.7456 H   0  0  0  0  0  0  0  0  0  0  0  0  # atno 8008 bound_to 7997
  155.5462  140.0606  157.2877 H   0  0  0  0  0  0  0  0  0  0  0  0  # atno 8009 bound_to 7997
  154.4479  140.1902  156.0628 H   0  0  0  0  0  0  0  0  0  0  0  0  # atno 8010 bound_to 7997
  140.2031  144.3967  150.6520 H   0  0  0  0  0  0  0  0  0  0  0  0  # atno 10167 bound_to 10162
  156.0362  130.5581  150.7590 H   0  0  0  0  0  0  0  0  0  0  0  0  # atno 10718 bound_to 10713
  153.1872  135.4470  155.0104 H   0  0  0  0  0  0  0  0  0  0  0  0  # atno 10763 bound_to 10752
  154.8068  135.3277  154.7413 H   0  0  0  0  0  0  0  0  0  0  0  0  # atno 10764 bound_to 10752
  153.7871  135.6973  153.4933 H   0  0  0  0  0  0  0  0  0  0  0  0  # atno 10765 bound_to 10752
  140.2136  134.3725  155.8037 H   0  0  0  0  0  0  0  0  0  0  0  0  # atno 11005 bound_to 11000
  144.9991  139.3615  143.6176 LP  0  0  0  0  0  0  0  0  0  0  0  0  # atno 17320 bound_to 7965
  146.3426  139.9206  142.8767 LP  0  0  0  0  0  0  0  0  0  0  0  0  # atno 17321 bound_to 7965
  140.6376  143.2197  151.6360 LP  0  0  0  0  0  0  0  0  0  0  0  0  # atno 17342 bound_to 10162
  139.5209  144.3208  152.0912 LP  0  0  0  0  0  0  0  0  0  0  0  0  # atno 17343 bound_to 10162
  157.5114  131.0926  151.0193 LP  0  0  0  0  0  0  0  0  0  0  0  0  # atno 17370 bound_to 10713
  157.0547  130.5801  149.5376 LP  0  0  0  0  0  0  0  0  0  0  0  0  # atno 17371 bound_to 10713
  141.2225  133.7156  156.8460 LP  0  0  0  0  0  0  0  0  0  0  0  0  # atno 17394 bound_to 11000
  140.1924  134.8956  157.3075 LP  0  0  0  0  0  0  0  0  0  0  0  0  # atno 17395 bound_to 11000

$$$$
