AV-unprocessed.smi:3326|AV-procd|sdf|12786|dock10
  -GOLD-   2272019133D 1   1.00000     0.00000
 Structure written by MMmdl.
 30 31  0  0  0  0  0  0  0  0  1 V2000
  151.7035  144.8371  160.3509 F   0  0  0  0  0  0  0  0  0  0  0  0
  151.4536  143.9381  159.3982 C   0  0  0  0  0  0  0  0  0  0  0  0
  150.1312  143.8368  159.2628 F   0  0  0  0  0  0  0  0  0  0  0  0
  151.9721  144.3914  158.2566 F   0  0  0  0  0  0  0  0  0  0  0  0
  152.0505  142.5740  159.7372 C   0  0  0  0  0  0  0  0  0  0  0  0
  152.7730  142.3872  160.9378 C   0  0  0  0  0  0  0  0  0  0  0  0
  153.3152  141.1220  161.2276 C   0  0  0  0  0  0  0  0  0  0  0  0
  153.1154  140.0832  160.3011 C   0  0  0  0  0  0  0  0  0  0  0  0
  152.4281  140.2434  159.1519 N   0  0  0  0  0  0  0  0  0  0  0  0
  151.9027  141.4603  158.8693 C   0  0  0  0  0  0  0  0  0  0  0  0
  151.1895  141.6016  157.6688 N   0  0  0  0  0  0  0  0  0  0  0  0
  151.5288  140.8181  156.4893 C   0  0  0  0  0  0  0  0  0  0  0  0
  150.2724  140.2839  155.7885 C   0  0  1  0  0  0  0  0  0  0  0  0
  149.3564  141.3645  155.2206 C   0  0  0  0  0  0  0  0  0  0  0  0
  148.5521  140.5948  154.1916 C   0  0  0  0  0  0  0  0  0  0  0  0
  149.4945  139.4624  153.7706 C   0  0  0  0  0  0  0  0  0  0  0  0
  150.6286  139.5482  154.6288 O   0  0  0  0  0  0  0  0  0  0  0  0
  152.9167  143.1976  161.6366 H   0  0  0  0  0  0  0  0  0  0  0  0
  153.8710  140.9520  162.1378 H   0  0  0  0  0  0  0  0  0  0  0  0
  153.5171  139.0981  160.4872 H   0  0  0  0  0  0  0  0  0  0  0  0
  150.4094  142.2408  157.6190 H   0  0  0  0  0  0  0  0  0  0  0  0
  152.1150  141.4260  155.7992 H   0  0  0  0  0  0  0  0  0  0  0  0
  152.1572  139.9806  156.7946 H   0  0  0  0  0  0  0  0  0  0  0  0
  149.7120  139.6254  156.4552 H   0  0  0  0  0  0  0  0  0  0  0  0
  148.7340  141.8398  155.9793 H   0  0  0  0  0  0  0  0  0  0  0  0
  149.9448  142.1396  154.7273 H   0  0  0  0  0  0  0  0  0  0  0  0
  147.6535  140.1803  154.6503 H   0  0  0  0  0  0  0  0  0  0  0  0
  148.2444  141.2208  153.3535 H   0  0  0  0  0  0  0  0  0  0  0  0
  149.0111  138.4916  153.8864 H   0  0  0  0  0  0  0  0  0  0  0  0
  149.8118  139.5609  152.7321 H   0  0  0  0  0  0  0  0  0  0  0  0
  1  2  1  0  0  0  0
  2  3  1  0  0  0  0
  2  4  1  0  0  0  0
  2  5  1  0  0  0  0
  5 10  1  0  0  0  0
  5  6  2  0  0  0  0
  6  7  1  0  0  0  0
  6 18  1  0  0  0  0
  7  8  2  0  0  0  0
  7 19  1  0  0  0  0
  8  9  1  0  0  0  0
  8 20  1  0  0  0  0
  9 10  2  0  0  0  0
 10 11  1  0  0  0  0
 11 12  1  0  0  0  0
 11 21  1  0  0  0  0
 12 13  1  0  0  0  0
 12 22  1  0  0  0  0
 12 23  1  0  0  0  0
 13 17  1  0  0  0  0
 13 14  1  0  0  0  0
 13 24  1  0  0  0  0
 14 15  1  0  0  0  0
 14 25  1  0  0  0  0
 14 26  1  0  0  0  0
 15 16  1  0  0  0  0
 15 27  1  0  0  0  0
 15 28  1  0  0  0  0
 16 17  1  0  0  0  0
 16 29  1  0  0  0  0
 16 30  1  0  0  0  0
M  END
> <s_m_source_file>
AV-unprocessed.smi

> <i_m_source_file_index>
3326

> <i_lp_mmshare_version>
43012

> <i_f3d_flags>
0

> <s_epik_input>
RkMoRikoRiljMVtjSF1bY0hdW2NIXW5jMVtOSF1bQ0gyXVtDQEBIXTJbQ0gyXVtDSDJdW0NIMl1PMg==

> <s_epik_cmdline>
J2VwaWtfcHl0aG9uJywgJy1waCcsICc3LjAnLCAnLXRuJywgJzgnLCAnLW1hJywgJzIwMCcsICctbWV0YWxfYmluZGluZycsICctaW1hZScsICc8aW5maWxlLm1hZT4nLCAnLW9tYWUnLCAnPG91dGZpbGUubWFlPic=

> <r_lp_tautomer_probability>
1

> <r_epik_Ionization_Penalty>
0.000820218

> <r_epik_Ionization_Penalty_Charging>
0

> <r_epik_Ionization_Penalty_Neutral>
0.000820218

> <r_epik_State_Penalty>
0.000527207

> <r_epik_Charging_Adjusted_Penalty>
0.000527207

> <i_epik_Tot_Q>
0

> <i_epik_Tot_abs_Q>
0

> <r_epik_Metal_State_Penalty>
-0

> <b_epik_Metal_Only>
0

> <s_lp_Force_Field>
OPLS_2005

> <r_lp_Energy>
21.9295

> <b_lp_Chiralities_Consistent>
1

> <s_lp_Variant>
AV-unprocessed.smi:3326-2

> <Gold.Version>
5.8.1

> <Gold.Id.Protein>
6NUR|6NUR_protein|mol2

> <Gold.PLP.Fitness>
45.0457

> <Gold.PLP.PLP>
-42.6714

> <Gold.PLP.part.hbond>
-1.0000

> <Gold.PLP.part.metal>
0.0000

> <Gold.PLP.part.buried>
-3.2106

> <Gold.PLP.part.nonpolar>
-39.0832

> <Gold.PLP.part.repulsive>
0.1594

> <Gold.PLP.ligand.clash>
0.4775

> <Gold.PLP.ligand.torsion>
0.3175

> <Gold.PLP.Chemscore.Hbond>
1.0000

> <Gold.PLP.Chemscore.CHOScore>
0.0000

> <Gold.PLP.Chemscore.Metal>
0.0000

> <Gold.Chemscore.Hbonds>
donor molecule, donor type, donor heavy atom, donor atom, acceptor molecule, acceptor atom, score
      P1  H  7989  7998       L1    17  0.75

> <Gold.PLP.Chemscore.Internal.Correction>
0.4868

> <Gold.Rescore>
     Score         DG    S(hbond)    S(metal)    S(lipo)     H(rot)  DE(clash)    DE(int)     intcor
     11.92     -14.69       0.94        0.00      79.24       1.25       0.22       2.55       ----

> <Gold.Chemscore.Fitness>
11.9246

> <Gold.Chemscore.DG>
-14.6917

> <Gold.Chemscore.ZeroCoef>
-5.4800

> <Gold.Chemscore.Hbond>
0.9413

> <Gold.Chemscore.Metal>
0.0000

> <Gold.Chemscore.Lipo>
79.2423

> <Gold.Chemscore.Internal_Hbond>
0.0000

> <Gold.Chemscore.DEClash>
0.2176

> <Gold.Chemscore.DEInternal>
2.5494

> <Gold.Chemscore.Rot>
1.2514

> <Gold.Chemscore.Internal.Correction>
   9.000000E+99

> <Gold.Chemscore.Hbonds>
donor molecule, donor type, donor heavy atom, donor atom, acceptor molecule, acceptor atom, score
      P1  H  7989  7998       L1    17  0.04

> <Gold.Chemscore.Hbond.Weighted>
-3.1439

> <Gold.Chemscore.Metal.Weighted>
-0.0000

> <Gold.Chemscore.Lipo.Weighted>
-9.2713

> <Gold.Chemscore.Internal_Hbond.Weighted>
0.0000

> <Gold.Chemscore.DEClash.Weighted>
0.2176

> <Gold.Chemscore.DEInternal.Weighted>
2.5494

> <Gold.Chemscore.Rot.Weighted>
3.2036

> <Gold.Chemscore.Internal.Correction.Weighted>
   9.000000E+99

> <Gold.Protein.RotatedTorsions>
[ 6907 6896 6895 6894 ] final  124.28 input  -60.11 | X-H torsion
[ 7974 7965 7964 7962 ] final  -88.41 input  175.53 | X-H torsion
[ 8008 7997 7996 7995 ] final  118.12 input   59.86 | X-H torsion
[ 10167 10162 10161 10158 ] final   54.53 input  -65.29 | X-H torsion
[ 10718 10713 10712 10709 ] final -171.21 input   66.30 | X-H torsion
[ 10763 10752 10751 10750 ] final  -49.82 input  -60.55 | X-H torsion
[ 11005 11000 10999 10996 ] final  110.82 input  -57.11 | X-H torsion

> <Gold.Protein.ActiveResidues>
 VAL166  LYS551  ARG553  GLY616  TRP617  ASP618  TYR619  PRO620  LYS621  CYS622 
 ASP623  PHE694  ASN695  SER759  ASP760  ASP761  ALA762  ILE779  LEU786  VAL792 
 PHE793  MET794  SER795  GLU796  ALA797  LYS798  CYS799  TRP800  GLU811  SER814 

> <Gold.Protein.RotatedAtoms>
  152.4091  133.6936  159.6382 H   0  0  0  0  0  0  0  0  0  0  0  0  # atno 6907 bound_to 6896
  150.7973  133.8655  159.3252 H   0  0  0  0  0  0  0  0  0  0  0  0  # atno 6908 bound_to 6896
  151.6402  135.1015  160.0191 H   0  0  0  0  0  0  0  0  0  0  0  0  # atno 6909 bound_to 6896
  145.4536  140.9561  143.2009 H   0  0  0  0  0  0  0  0  0  0  0  0  # atno 7974 bound_to 7965
  156.2530  140.2881  156.0784 H   0  0  0  0  0  0  0  0  0  0  0  0  # atno 8008 bound_to 7997
  155.1593  140.0399  157.2856 H   0  0  0  0  0  0  0  0  0  0  0  0  # atno 8009 bound_to 7997
  154.6404  140.2521  155.7335 H   0  0  0  0  0  0  0  0  0  0  0  0  # atno 8010 bound_to 7997
  140.2292  144.3705  150.6421 H   0  0  0  0  0  0  0  0  0  0  0  0  # atno 10167 bound_to 10162
  156.7375  130.9329  151.3108 H   0  0  0  0  0  0  0  0  0  0  0  0  # atno 10718 bound_to 10713
  154.1003  135.6564  153.4867 H   0  0  0  0  0  0  0  0  0  0  0  0  # atno 10763 bound_to 10752
  153.0291  135.5223  154.7293 H   0  0  0  0  0  0  0  0  0  0  0  0  # atno 10764 bound_to 10752
  154.6443  135.2992  155.0035 H   0  0  0  0  0  0  0  0  0  0  0  0  # atno 10765 bound_to 10752
  139.8890  134.9493  156.6338 H   0  0  0  0  0  0  0  0  0  0  0  0  # atno 11005 bound_to 11000
  144.8046  139.6075  143.7056 LP  0  0  0  0  0  0  0  0  0  0  0  0  # atno 17320 bound_to 7965
  146.2491  139.6160  142.9439 LP  0  0  0  0  0  0  0  0  0  0  0  0  # atno 17321 bound_to 7965
  140.6198  143.2175  151.6718 LP  0  0  0  0  0  0  0  0  0  0  0  0  # atno 17342 bound_to 10162
  139.5116  144.3503  152.0658 LP  0  0  0  0  0  0  0  0  0  0  0  0  # atno 17343 bound_to 10162
  157.6833  130.9161  150.0321 LP  0  0  0  0  0  0  0  0  0  0  0  0  # atno 17370 bound_to 10713
  156.1487  130.3642  149.9471 LP  0  0  0  0  0  0  0  0  0  0  0  0  # atno 17371 bound_to 10713
  140.7646  133.8789  155.8444 LP  0  0  0  0  0  0  0  0  0  0  0  0  # atno 17394 bound_to 11000
  140.9893  134.1300  157.4423 LP  0  0  0  0  0  0  0  0  0  0  0  0  # atno 17395 bound_to 11000

$$$$
