#       Name:                AV-unprocessed.smi:3228
#       Creating user name   scv26
#       Creation time:       Fri Mar 27 18:16:57 2020


#       File generated by GOLD software.
#

@<TRIPOS>MOLECULE
AV-unprocessed.smi:3228
    36    37     1
SMALL
NO_CHARGES


@<TRIPOS>ATOM
      1 ****        -0.5751   1.7762  -0.9052 O.2            1 S1                 0.0000
      2 ****        -1.0758   0.6622  -1.0623 C.2            1 S1                 0.0000
      3 ****        -0.3543  -0.4623  -1.1743 N.am           1 S1                 0.0000
      4 ****         1.1027  -0.5289  -1.1310 C.3            1 S1                 0.0000
      5 ****         1.6424  -0.4807   0.3144 C.3            1 S1                 0.0000
      6 ****         1.1725  -1.6248   1.2229 C.3            1 S1                 0.0000
      7 ****         2.2195  -1.7261   2.3429 C.3            1 S1                 0.0000
      8 ****         3.3979  -0.8319   1.9255 C.3            1 S1                 0.0000
      9 ****         3.1724  -0.4987   0.4472 C.3            1 S1                 0.0000
     10 ****         3.7520  -1.5168  -0.3477 O.3            1 S1                 0.0000
     11 ****        -2.3935   0.4059  -1.1408 N.am           1 S1                 0.0000
     12 ****        -3.4719   1.3270  -1.0753 C.2            1 S1                 0.0000
     13 ****        -3.3275   2.6507  -0.9395 N.2            1 S1                 0.0000
     14 ****        -4.5577   3.3120  -0.9062 C.2            1 S1                 0.0000
     15 ****        -5.6363   2.4704  -1.0198 C.2            1 S1                 0.0000
     16 ****        -5.1470   0.8040  -1.1733 S.3            1 S1                 0.0000
     17 ****        -0.8459  -1.3350  -1.3006 H              1 S1                 0.0000
     18 ****         1.4037  -1.4555  -1.6202 H              1 S1                 0.0000
     19 ****         1.5294   0.2838  -1.7209 H              1 S1                 0.0000
     20 ****         1.3038   0.4518   0.7700 H              1 S1                 0.0000
     21 ****         0.1682  -1.4532   1.6118 H              1 S1                 0.0000
     22 ****         1.1501  -2.5606   0.6629 H              1 S1                 0.0000
     23 ****         1.8100  -1.3976   3.2986 H              1 S1                 0.0000
     24 ****         2.5410  -2.7610   2.4653 H              1 S1                 0.0000
     25 ****         3.3646   0.0907   2.5068 H              1 S1                 0.0000
     26 ****         4.3669  -1.2952   2.1163 H              1 S1                 0.0000
     27 ****         3.6176   0.4585   0.1736 H              1 S1                 0.0000
     28 ****         3.5849  -1.3190  -1.2565 H              1 S1                 0.0000
     29 ****        -2.6564  -0.5608  -1.2634 H              1 S1                 0.0000
     30 ****        -4.5734   4.3866  -0.7985 H              1 S1                 0.0000
     31 ****        -6.6846   2.7294  -1.0222 H              1 S1                 0.0000
     32 ****         0.4187   1.8751  -0.8552 LP             1 S1                 0.0000
     33 ****        -1.1623   2.5819  -0.8276 LP             1 S1                 0.0000
     34 ****         3.3450  -2.3999  -0.1143 LP             1 S1                 0.0000
     35 ****         4.7382  -1.5511  -0.1857 LP             1 S1                 0.0000
     36 ****        -2.4430   3.1121  -0.8701 LP             1 S1                 0.0000
@<TRIPOS>BOND
    1    1    2 2     
    2    2    3 am    
    3    2   11 am    
    4    3    4 1     
    5    3   17 1     
    6    4    5 1     
    7    4   18 1     
    8    4   19 1     
    9    5    9 1     
   10    5    6 1     
   11    5   20 1     
   12    6    7 1     
   13    6   21 1     
   14    6   22 1     
   15    7    8 1     
   16    7   23 1     
   17    7   24 1     
   18    8    9 1     
   19    8   25 1     
   20    8   26 1     
   21    9   10 1     
   22    9   27 1     
   23   10   28 1     
   24   11   12 1     
   25   11   29 1     
   26   12   16 1     
   27   12   13 2     
   28   13   14 1     
   29   14   15 2     
   30   14   30 1     
   31   15   16 1     
   32   15   31 1     
   33    1   32 1     
   34    1   33 1     
   35   10   34 1     
   36   10   35 1     
   37   13   36 1     
@<TRIPOS>SUBSTRUCTURE
      1 S1             1
@<TRIPOS>SET
LONE_PAIRS      STATIC     ATOMS    <user>   **** ""
5 32 33 34 35 36
DONOR_HYDROGENS      STATIC     ATOMS    <user>   **** ""
3 17 28 29
ATOM$BLUE        STATIC     ATOMS    COLORGROUP SYSTEM
5 32 33 34 35 36
ATOM$RED        STATIC     ATOMS    COLORGROUP SYSTEM
3 17 28 29
