AV-unprocessed.smi:1244|AV-procd|sdf|5226|dock5
  -GOLD-   22720 4323D 1   1.00000     0.00000
 Structure written by MMmdl.
 55 57  0  0  0  0  0  0  0  0  2 V2000
  142.2338  140.9582  155.6116 C   0  0  0  0  0  0  0  0  0  0  0  0
  143.2724  142.0530  155.3456 C   0  0  2  0  0  0  0  0  0  0  0  0
  144.5715  141.8254  156.1451 C   0  0  0  0  0  0  0  0  0  0  0  0
  145.5331  142.9354  155.9380 N   0  3  1  0  0  0  0  0  0  0  0  0
  146.2456  142.8706  154.6348 C   0  0  0  0  0  0  0  0  0  0  0  0
  147.3279  141.7749  154.6148 C   0  0  0  0  0  0  0  0  0  0  0  0
  148.3675  142.0369  155.6030 N   0  0  0  0  0  0  0  0  0  0  0  0
  149.1561  141.0998  156.1482 C   0  0  0  0  0  0  0  0  0  0  0  0
  149.0802  139.9040  155.8654 O   0  0  0  0  0  0  0  0  0  0  0  0
  150.0269  141.6417  157.0158 N   0  0  0  0  0  0  0  0  0  0  0  0
  151.0625  140.9955  157.7497 C   0  0  0  0  0  0  0  0  0  0  0  0
  151.4303  139.6509  157.4972 C   0  0  0  0  0  0  0  0  0  0  0  0
  152.4146  139.0430  158.2952 C   0  0  0  0  0  0  0  0  0  0  0  0
  152.9881  139.7967  159.3326 C   0  0  0  0  0  0  0  0  0  0  0  0
  152.6387  141.0714  159.5964 N   0  0  0  0  0  0  0  0  0  0  0  0
  151.7011  141.6760  158.8260 C   0  0  0  0  0  0  0  0  0  0  0  0
  151.3866  143.0185  159.1372 N   0  0  0  0  0  0  0  0  0  0  0  0
  151.7340  143.5776  160.4393 C   0  0  0  0  0  0  0  0  0  0  0  0
  151.6097  145.0884  160.2646 C   0  0  0  0  0  0  0  0  0  0  0  0
  152.0909  145.2899  158.8309 C   0  0  0  0  0  0  0  0  0  0  0  0
  151.6121  144.0272  158.1059 C   0  0  0  0  0  0  0  0  0  0  0  0
  144.8849  144.2406  156.2263 C   0  0  0  0  0  0  0  0  0  0  0  0
  143.5607  144.4059  155.4485 C   0  0  2  0  0  0  0  0  0  0  0  0
  142.8209  145.6895  155.8404 C   0  0  0  0  0  0  0  0  0  0  0  0
  142.7083  143.3014  155.7322 O   0  0  0  0  0  0  0  0  0  0  0  0
  142.6139  139.9781  155.3225 H   0  0  0  0  0  0  0  0  0  0  0  0
  141.3212  141.1407  155.0435 H   0  0  0  0  0  0  0  0  0  0  0  0
  141.9656  140.9155  156.6676 H   0  0  0  0  0  0  0  0  0  0  0  0
  143.4873  142.0692  154.2759 H   0  0  0  0  0  0  0  0  0  0  0  0
  144.3385  141.7714  157.2096 H   0  0  0  0  0  0  0  0  0  0  0  0
  145.0284  140.8696  155.8852 H   0  0  0  0  0  0  0  0  0  0  0  0
  145.5274  142.6431  153.8458 H   0  0  0  0  0  0  0  0  0  0  0  0
  146.6700  143.8427  154.3843 H   0  0  0  0  0  0  0  0  0  0  0  0
  146.9036  140.7869  154.7960 H   0  0  0  0  0  0  0  0  0  0  0  0
  147.7967  141.7339  153.6312 H   0  0  0  0  0  0  0  0  0  0  0  0
  148.4999  142.9970  155.8868 H   0  0  0  0  0  0  0  0  0  0  0  0
  150.0215  142.6494  157.0802 H   0  0  0  0  0  0  0  0  0  0  0  0
  150.9597  139.0671  156.7210 H   0  0  0  0  0  0  0  0  0  0  0  0
  152.7136  138.0195  158.1236 H   0  0  0  0  0  0  0  0  0  0  0  0
  153.7427  139.3633  159.9722 H   0  0  0  0  0  0  0  0  0  0  0  0
  151.0722  143.2035  161.2213 H   0  0  0  0  0  0  0  0  0  0  0  0
  152.7609  143.3277  160.7089 H   0  0  0  0  0  0  0  0  0  0  0  0
  150.5653  145.3909  160.3530 H   0  0  0  0  0  0  0  0  0  0  0  0
  152.1913  145.6505  160.9958 H   0  0  0  0  0  0  0  0  0  0  0  0
  151.7135  146.2076  158.3788 H   0  0  0  0  0  0  0  0  0  0  0  0
  153.1808  145.3310  158.8142 H   0  0  0  0  0  0  0  0  0  0  0  0
  152.3362  143.6981  157.3592 H   0  0  0  0  0  0  0  0  0  0  0  0
  150.6688  144.2273  157.5972 H   0  0  0  0  0  0  0  0  0  0  0  0
  144.6809  144.2825  157.2973 H   0  0  0  0  0  0  0  0  0  0  0  0
  145.5596  145.0696  156.0154 H   0  0  0  0  0  0  0  0  0  0  0  0
  143.7529  144.4423  154.3755 H   0  0  0  0  0  0  0  0  0  0  0  0
  143.4291  146.5711  155.6353 H   0  0  0  0  0  0  0  0  0  0  0  0
  142.5712  145.6946  156.9019 H   0  0  0  0  0  0  0  0  0  0  0  0
  141.8915  145.7902  155.2792 H   0  0  0  0  0  0  0  0  0  0  0  0
  146.2519  142.8088  156.6364 H   0  0  0  0  0  0  0  0  0  0  0  0
  1  2  1  0  0  0  0
  1 26  1  0  0  0  0
  1 27  1  0  0  0  0
  1 28  1  0  0  0  0
  2 25  1  0  0  0  0
  2  3  1  0  0  0  0
  2 29  1  0  0  0  0
  3  4  1  0  0  0  0
  3 30  1  0  0  0  0
  3 31  1  0  0  0  0
  4  5  1  0  0  0  0
  4 22  1  0  0  0  0
  4 55  1  0  0  0  0
  5  6  1  0  0  0  0
  5 32  1  0  0  0  0
  5 33  1  0  0  0  0
  6  7  1  0  0  0  0
  6 34  1  0  0  0  0
  6 35  1  0  0  0  0
  7  8  1  0  0  0  0
  7 36  1  0  0  0  0
  8  9  2  0  0  0  0
  8 10  1  0  0  0  0
 10 11  1  0  0  0  0
 10 37  1  0  0  0  0
 11 16  1  0  0  0  0
 11 12  2  0  0  0  0
 12 13  1  0  0  0  0
 12 38  1  0  0  0  0
 13 14  2  0  0  0  0
 13 39  1  0  0  0  0
 14 15  1  0  0  0  0
 14 40  1  0  0  0  0
 15 16  2  0  0  0  0
 16 17  1  0  0  0  0
 17 21  1  0  0  0  0
 17 18  1  0  0  0  0
 18 19  1  0  0  0  0
 18 41  1  0  0  0  0
 18 42  1  0  0  0  0
 19 20  1  0  0  0  0
 19 43  1  0  0  0  0
 19 44  1  0  0  0  0
 20 21  1  0  0  0  0
 20 45  1  0  0  0  0
 20 46  1  0  0  0  0
 21 47  1  0  0  0  0
 21 48  1  0  0  0  0
 22 23  1  0  0  0  0
 22 49  1  0  0  0  0
 22 50  1  0  0  0  0
 23 24  1  0  0  0  0
 23 25  1  0  0  0  0
 23 51  1  0  0  0  0
 24 52  1  0  0  0  0
 24 53  1  0  0  0  0
 24 54  1  0  0  0  0
M  CHG  1   4   1
M  END
> <s_m_source_file>
AV-unprocessed.smi

> <i_m_source_file_index>
1244

> <i_lp_mmshare_version>
43012

> <i_f3d_flags>
0

> <s_epik_input>
W0NIM11bQ0BASF0xW0NIMl1OKFtDSDJdW0NASF0oTzEpW0NIM10pW0NIMl1bQ0gyXVtOSF1DKD1PKVtOSF1jMltjSF1bY0hdW2NIXW5jMk4zW0NIMl1bQ0gyXVtDSDJdW0NIMl0z

> <s_epik_cmdline>
J2VwaWtfcHl0aG9uJywgJy1waCcsICc3LjAnLCAnLXRuJywgJzgnLCAnLW1hJywgJzIwMCcsICctbWV0YWxfYmluZGluZycsICctaW1hZScsICc8aW5maWxlLm1hZT4nLCAnLW9tYWUnLCAnPG91dGZpbGUubWFlPic=

> <r_lp_tautomer_probability>
1

> <r_epik_Ionization_Penalty>
0.684913

> <r_epik_Ionization_Penalty_Charging>
0.602531

> <r_epik_Ionization_Penalty_Neutral>
0.0823829

> <r_epik_State_Penalty>
0.678827

> <r_epik_Charging_Adjusted_Penalty>
1.28136

> <i_epik_Tot_Q>
1

> <i_epik_Tot_abs_Q>
1

> <r_epik_Metal_State_Penalty>
0.67806

> <b_epik_Metal_Only>
0

> <s_lp_Force_Field>
OPLS_2005

> <r_lp_Energy>
44.826

> <b_lp_Chiralities_Consistent>
1

> <s_lp_Variant>
AV-unprocessed.smi:1244-6

> <Gold.Version>
5.8.1

> <Gold.Id.Protein>
6NUR|6NUR_protein|mol2

> <Gold.PLP.Fitness>
42.0825

> <Gold.PLP.PLP>
-39.9602

> <Gold.PLP.part.hbond>
-1.0000

> <Gold.PLP.part.metal>
0.0000

> <Gold.PLP.part.buried>
-8.3389

> <Gold.PLP.part.nonpolar>
-30.8823

> <Gold.PLP.part.repulsive>
0.2647

> <Gold.PLP.ligand.clash>
0.0000

> <Gold.PLP.ligand.torsion>
0.6163

> <Gold.PLP.Chemscore.Hbond>
1.0000

> <Gold.PLP.Chemscore.CHOScore>
0.0000

> <Gold.PLP.Chemscore.Metal>
0.0000

> <Gold.Chemscore.Hbonds>
donor molecule, donor type, donor heavy atom, donor atom, acceptor molecule, acceptor atom, score
      L1  H     7    36       P1  8028  1.00

> <Gold.PLP.Chemscore.Internal.Correction>
0.3550

> <Gold.Rescore>
     Score         DG    S(hbond)    S(metal)    S(lipo)     H(rot)  DE(clash)    DE(int)     intcor
     14.70     -16.63       0.99        0.00     101.83       1.60       0.01       1.91       ----

> <Gold.Chemscore.Fitness>
14.7031

> <Gold.Chemscore.DG>
-16.6266

> <Gold.Chemscore.ZeroCoef>
-5.4800

> <Gold.Chemscore.Hbond>
0.9949

> <Gold.Chemscore.Metal>
0.0000

> <Gold.Chemscore.Lipo>
101.8293

> <Gold.Chemscore.Internal_Hbond>
0.0000

> <Gold.Chemscore.DEClash>
0.0111

> <Gold.Chemscore.DEInternal>
1.9123

> <Gold.Chemscore.Rot>
1.5978

> <Gold.Chemscore.Internal.Correction>
   9.000000E+99

> <Gold.Chemscore.Hbonds>
donor molecule, donor type, donor heavy atom, donor atom, acceptor molecule, acceptor atom, score
      L1  H     7    36       P1  8028  0.97

> <Gold.Chemscore.Hbond.Weighted>
-3.3230

> <Gold.Chemscore.Metal.Weighted>
-0.0000

> <Gold.Chemscore.Lipo.Weighted>
-11.9140

> <Gold.Chemscore.Internal_Hbond.Weighted>
0.0000

> <Gold.Chemscore.DEClash.Weighted>
0.0111

> <Gold.Chemscore.DEInternal.Weighted>
1.9123

> <Gold.Chemscore.Rot.Weighted>
4.0905

> <Gold.Chemscore.Internal.Correction.Weighted>
   9.000000E+99

> <Gold.Protein.RotatedTorsions>
[ 6907 6896 6895 6894 ] final   93.64 input  -60.11 | X-H torsion
[ 7974 7965 7964 7962 ] final  -65.90 input  175.53 | X-H torsion
[ 8008 7997 7996 7995 ] final  138.56 input   59.86 | X-H torsion
[ 10167 10162 10161 10158 ] final -133.57 input  -65.29 | X-H torsion
[ 10718 10713 10712 10709 ] final  -14.91 input   66.30 | X-H torsion
[ 10763 10752 10751 10750 ] final  153.81 input  -60.55 | X-H torsion
[ 11005 11000 10999 10996 ] final  -86.45 input  -57.11 | X-H torsion

> <Gold.Protein.ActiveResidues>
 VAL166  LYS551  ARG553  GLY616  TRP617  ASP618  TYR619  PRO620  LYS621  CYS622 
 ASP623  PHE694  ASN695  SER759  ASP760  ASP761  ALA762  ILE779  LEU786  VAL792 
 PHE793  MET794  SER795  GLU796  ALA797  LYS798  CYS799  TRP800  GLU811  SER814 

> <Gold.Protein.RotatedAtoms>
  152.5452  134.1317  159.8441 H   0  0  0  0  0  0  0  0  0  0  0  0  # atno 6907 bound_to 6896
  151.1362  133.4996  159.2605 H   0  0  0  0  0  0  0  0  0  0  0  0  # atno 6908 bound_to 6896
  151.1622  135.0289  159.8770 H   0  0  0  0  0  0  0  0  0  0  0  0  # atno 6909 bound_to 6896
  145.7485  140.8920  143.0492 H   0  0  0  0  0  0  0  0  0  0  0  0  # atno 7974 bound_to 7965
  156.2996  140.2390  156.4093 H   0  0  0  0  0  0  0  0  0  0  0  0  # atno 8008 bound_to 7997
  154.8456  140.0426  157.1590 H   0  0  0  0  0  0  0  0  0  0  0  0  # atno 8009 bound_to 7997
  154.9055  140.2983  155.5298 H   0  0  0  0  0  0  0  0  0  0  0  0  # atno 8010 bound_to 7997
  139.8969  143.6655  152.2602 H   0  0  0  0  0  0  0  0  0  0  0  0  # atno 10167 bound_to 10162
  156.6093  130.4845  149.6208 H   0  0  0  0  0  0  0  0  0  0  0  0  # atno 10718 bound_to 10713
  154.1422  135.2820  155.3158 H   0  0  0  0  0  0  0  0  0  0  0  0  # atno 10763 bound_to 10752
  154.6279  135.5445  153.7651 H   0  0  0  0  0  0  0  0  0  0  0  0  # atno 10764 bound_to 10752
  153.0247  135.6455  154.1568 H   0  0  0  0  0  0  0  0  0  0  0  0  # atno 10765 bound_to 10752
  141.1630  133.7455  156.9162 H   0  0  0  0  0  0  0  0  0  0  0  0  # atno 11005 bound_to 11000
  144.6855  139.9559  143.7479 LP  0  0  0  0  0  0  0  0  0  0  0  0  # atno 17320 bound_to 7965
  146.0379  139.3395  143.0715 LP  0  0  0  0  0  0  0  0  0  0  0  0  # atno 17321 bound_to 7965
  139.7060  144.7628  151.1193 LP  0  0  0  0  0  0  0  0  0  0  0  0  # atno 17342 bound_to 10162
  140.7715  143.5394  150.9330 LP  0  0  0  0  0  0  0  0  0  0  0  0  # atno 17343 bound_to 10162
  156.2403  130.6847  151.1549 LP  0  0  0  0  0  0  0  0  0  0  0  0  # atno 17370 bound_to 10713
  157.7258  131.0650  150.5935 LP  0  0  0  0  0  0  0  0  0  0  0  0  # atno 17371 bound_to 10713
  140.1482  134.9248  157.2558 LP  0  0  0  0  0  0  0  0  0  0  0  0  # atno 17394 bound_to 11000
  140.2754  134.3412  155.7360 LP  0  0  0  0  0  0  0  0  0  0  0  0  # atno 17395 bound_to 11000

$$$$
