AV-unprocessed.smi:3262|AV-procd|sdf|12485|dock4
  -GOLD-   2272018383D 1   1.00000     0.00000
 Structure written by MMmdl.
 40 41  0  0  0  0  0  0  0  0  2 V2000
  154.1073  141.0429  158.8761 O   0  0  0  0  0  0  0  0  0  0  0  0
  153.6363  141.3832  159.9630 C   0  0  0  0  0  0  0  0  0  0  0  0
  154.1510  140.9447  161.1259 N   0  0  0  0  0  0  0  0  0  0  0  0
  155.3090  140.0675  161.2568 C   0  0  0  0  0  0  0  0  0  0  0  0
  155.4849  139.5790  162.7079 C   0  0  0  0  0  0  0  0  0  0  0  0
  154.8773  138.2171  163.0182 C   0  0  0  0  0  0  0  0  0  0  0  0
  154.8367  137.6386  164.3095 C   0  0  0  0  0  0  0  0  0  0  0  0
  154.2442  136.3700  164.4810 C   0  0  0  0  0  0  0  0  0  0  0  0
  153.7032  135.7021  163.3638 C   0  0  0  0  0  0  0  0  0  0  0  0
  153.7688  136.3216  162.0999 C   0  0  0  0  0  0  0  0  0  0  0  0
  154.3446  137.5376  161.9762 N   0  3  0  0  0  0  0  0  0  0  0  0
  152.5371  142.1748  160.0837 N   0  0  0  0  0  0  0  0  0  0  0  0
  152.1753  142.9074  161.3170 C   0  0  0  0  0  0  0  0  0  0  0  0
  151.5247  144.2898  161.0944 C   0  0  0  0  0  0  0  0  0  0  0  0
  152.2228  145.1674  160.0389 C   0  0  0  0  0  0  0  0  0  0  0  0
  151.7235  144.9040  158.6084 C   0  0  0  0  0  0  0  0  0  0  0  0
  152.0906  143.5231  158.0427 C   0  0  0  0  0  0  0  0  0  0  0  0
  151.6380  142.3515  158.9326 C   0  0  0  0  0  0  0  0  0  0  0  0
  153.7026  141.2414  161.9808 H   0  0  0  0  0  0  0  0  0  0  0  0
  155.1586  139.2178  160.5902 H   0  0  0  0  0  0  0  0  0  0  0  0
  156.2036  140.5880  160.9104 H   0  0  0  0  0  0  0  0  0  0  0  0
  156.5467  139.5309  162.9525 H   0  0  0  0  0  0  0  0  0  0  0  0
  155.0453  140.3090  163.3892 H   0  0  0  0  0  0  0  0  0  0  0  0
  155.2481  138.1467  165.1687 H   0  0  0  0  0  0  0  0  0  0  0  0
  154.2046  135.9145  165.4597 H   0  0  0  0  0  0  0  0  0  0  0  0
  153.2446  134.7303  163.4749 H   0  0  0  0  0  0  0  0  0  0  0  0
  153.3808  135.8854  161.1911 H   0  0  0  0  0  0  0  0  0  0  0  0
  151.5142  142.2810  161.9170 H   0  0  0  0  0  0  0  0  0  0  0  0
  153.0579  143.0930  161.9304 H   0  0  0  0  0  0  0  0  0  0  0  0
  150.4682  144.1801  160.8467 H   0  0  0  0  0  0  0  0  0  0  0  0
  151.5357  144.8179  162.0487 H   0  0  0  0  0  0  0  0  0  0  0  0
  152.0157  146.2120  160.2742 H   0  0  0  0  0  0  0  0  0  0  0  0
  153.3063  145.0567  160.0992 H   0  0  0  0  0  0  0  0  0  0  0  0
  150.6408  145.0310  158.5765 H   0  0  0  0  0  0  0  0  0  0  0  0
  152.1297  145.6690  157.9459 H   0  0  0  0  0  0  0  0  0  0  0  0
  151.6222  143.4213  157.0634 H   0  0  0  0  0  0  0  0  0  0  0  0
  153.1652  143.4685  157.8634 H   0  0  0  0  0  0  0  0  0  0  0  0
  151.6091  141.4382  158.3356 H   0  0  0  0  0  0  0  0  0  0  0  0
  150.6076  142.4900  159.2616 H   0  0  0  0  0  0  0  0  0  0  0  0
  154.3782  137.9659  161.0507 H   0  0  0  0  0  0  0  0  0  0  0  0
  1  2  2  0  0  0  0
  2  3  1  0  0  0  0
  2 12  1  0  0  0  0
  3  4  1  0  0  0  0
  3 19  1  0  0  0  0
  4  5  1  0  0  0  0
  4 20  1  0  0  0  0
  4 21  1  0  0  0  0
  5  6  1  0  0  0  0
  5 22  1  0  0  0  0
  5 23  1  0  0  0  0
  6 11  1  0  0  0  0
  6  7  2  0  0  0  0
  7  8  1  0  0  0  0
  7 24  1  0  0  0  0
  8  9  2  0  0  0  0
  8 25  1  0  0  0  0
  9 10  1  0  0  0  0
  9 26  1  0  0  0  0
 10 11  2  0  0  0  0
 10 27  1  0  0  0  0
 11 40  1  0  0  0  0
 12 18  1  0  0  0  0
 12 13  1  0  0  0  0
 13 14  1  0  0  0  0
 13 28  1  0  0  0  0
 13 29  1  0  0  0  0
 14 15  1  0  0  0  0
 14 30  1  0  0  0  0
 14 31  1  0  0  0  0
 15 16  1  0  0  0  0
 15 32  1  0  0  0  0
 15 33  1  0  0  0  0
 16 17  1  0  0  0  0
 16 34  1  0  0  0  0
 16 35  1  0  0  0  0
 17 18  1  0  0  0  0
 17 36  1  0  0  0  0
 17 37  1  0  0  0  0
 18 38  1  0  0  0  0
 18 39  1  0  0  0  0
M  CHG  1  11   1
M  END
> <s_m_source_file>
AV-unprocessed.smi

> <i_m_source_file_index>
3262

> <i_lp_mmshare_version>
43012

> <i_f3d_flags>
0

> <s_epik_input>
W0NIMl0xW0NIMl1bQ0gyXVtDSDJdW0NIMl1bQ0gyXU4xQyg9TylbTkhdW0NIMl1bQ0gyXWMyW2NIXVtjSF1bY0hdW2NIXW4y

> <s_epik_cmdline>
J2VwaWtfcHl0aG9uJywgJy1waCcsICc3LjAnLCAnLXRuJywgJzgnLCAnLW1hJywgJzIwMCcsICctbWV0YWxfYmluZGluZycsICctaW1hZScsICc8aW5maWxlLm1hZT4nLCAnLW9tYWUnLCAnPG91dGZpbGUubWFlPic=

> <r_epik_Ionization_Penalty>
1.55113

> <r_epik_Ionization_Penalty_Charging>
1.55107

> <r_epik_Ionization_Penalty_Neutral>
5.98909e-05

> <r_epik_State_Penalty>
1.64529

> <r_epik_Charging_Adjusted_Penalty>
3.19637

> <i_epik_Tot_Q>
1

> <i_epik_Tot_abs_Q>
1

> <r_epik_Metal_State_Penalty>
1.68744

> <b_epik_Metal_Only>
0

> <s_lp_Force_Field>
OPLS_2005

> <r_lp_Energy>
39.791

> <b_lp_Chiralities_Consistent>
1

> <s_lp_Variant>
AV-unprocessed.smi:3262-2

> <Gold.Version>
5.8.1

> <Gold.Id.Protein>
6NUR|6NUR_protein|mol2

> <Gold.PLP.Fitness>
42.7900

> <Gold.PLP.PLP>
-42.1753

> <Gold.PLP.part.hbond>
-1.0000

> <Gold.PLP.part.metal>
0.0000

> <Gold.PLP.part.buried>
-0.0416

> <Gold.PLP.part.nonpolar>
-40.9120

> <Gold.PLP.part.repulsive>
0.0075

> <Gold.PLP.ligand.clash>
0.0000

> <Gold.PLP.ligand.torsion>
0.4688

> <Gold.PLP.Chemscore.Hbond>
0.5148

> <Gold.PLP.Chemscore.CHOScore>
0.0000

> <Gold.PLP.Chemscore.Metal>
0.0000

> <Gold.Chemscore.Hbonds>
donor molecule, donor type, donor heavy atom, donor atom, acceptor molecule, acceptor atom, score
      P1  H  7997  8008       L1     1  0.44

> <Gold.PLP.Chemscore.Internal.Correction>
0.0079

> <Gold.Rescore>
     Score         DG    S(hbond)    S(metal)    S(lipo)     H(rot)  DE(clash)    DE(int)     intcor
     16.01     -17.77       0.51        0.00     119.71       1.34       1.37       0.39       ----

> <Gold.Chemscore.Fitness>
16.0110

> <Gold.Chemscore.DG>
-17.7709

> <Gold.Chemscore.ZeroCoef>
-5.4800

> <Gold.Chemscore.Hbond>
0.5146

> <Gold.Chemscore.Metal>
0.0000

> <Gold.Chemscore.Lipo>
119.7105

> <Gold.Chemscore.Internal_Hbond>
0.0000

> <Gold.Chemscore.DEClash>
1.3695

> <Gold.Chemscore.DEInternal>
0.3903

> <Gold.Chemscore.Rot>
1.3415

> <Gold.Chemscore.Internal.Correction>
   9.000000E+99

> <Gold.Chemscore.Hbonds>
donor molecule, donor type, donor heavy atom, donor atom, acceptor molecule, acceptor atom, score
      P1  H  7997  8008       L1     1  0.42

> <Gold.Chemscore.Hbond.Weighted>
-1.7189

> <Gold.Chemscore.Metal.Weighted>
-0.0000

> <Gold.Chemscore.Lipo.Weighted>
-14.0061

> <Gold.Chemscore.Internal_Hbond.Weighted>
0.0000

> <Gold.Chemscore.DEClash.Weighted>
1.3695

> <Gold.Chemscore.DEInternal.Weighted>
0.3903

> <Gold.Chemscore.Rot.Weighted>
3.4342

> <Gold.Chemscore.Internal.Correction.Weighted>
   9.000000E+99

> <Gold.Protein.RotatedTorsions>
[ 6907 6896 6895 6894 ] final   39.05 input  -60.11 | X-H torsion
[ 7974 7965 7964 7962 ] final   77.46 input  175.53 | X-H torsion
[ 8008 7997 7996 7995 ] final -104.58 input   59.86 | X-H torsion
[ 10167 10162 10161 10158 ] final  -63.47 input  -65.29 | X-H torsion
[ 10718 10713 10712 10709 ] final   -7.25 input   66.30 | X-H torsion
[ 10763 10752 10751 10750 ] final   53.34 input  -60.55 | X-H torsion
[ 11005 11000 10999 10996 ] final   31.81 input  -57.11 | X-H torsion

> <Gold.Protein.ActiveResidues>
 VAL166  LYS551  ARG553  GLY616  TRP617  ASP618  TYR619  PRO620  LYS621  CYS622 
 ASP623  PHE694  ASN695  SER759  ASP760  ASP761  ALA762  ILE779  LEU786  VAL792 
 PHE793  MET794  SER795  GLU796  ALA797  LYS798  CYS799  TRP800  GLU811  SER814 

> <Gold.Protein.RotatedAtoms>
  152.1645  134.8885  160.0538 H   0  0  0  0  0  0  0  0  0  0  0  0  # atno 6907 bound_to 6896
  151.9869  133.3772  159.4137 H   0  0  0  0  0  0  0  0  0  0  0  0  # atno 6908 bound_to 6896
  150.6892  134.3902  159.5116 H   0  0  0  0  0  0  0  0  0  0  0  0  # atno 6909 bound_to 6896
  145.6897  139.2548  143.1767 H   0  0  0  0  0  0  0  0  0  0  0  0  # atno 7974 bound_to 7965
  154.8874  140.0417  157.1818 H   0  0  0  0  0  0  0  0  0  0  0  0  # atno 8008 bound_to 7997
  154.8576  140.2939  155.5538 H   0  0  0  0  0  0  0  0  0  0  0  0  # atno 8009 bound_to 7997
  156.2997  140.2453  156.3544 H   0  0  0  0  0  0  0  0  0  0  0  0  # atno 8010 bound_to 7997
  140.5868  143.2335  151.6225 H   0  0  0  0  0  0  0  0  0  0  0  0  # atno 10167 bound_to 10162
  156.7200  130.5148  149.5870 H   0  0  0  0  0  0  0  0  0  0  0  0  # atno 10718 bound_to 10713
  152.9794  135.5782  154.4726 H   0  0  0  0  0  0  0  0  0  0  0  0  # atno 10763 bound_to 10752
  154.4286  135.2773  155.1929 H   0  0  0  0  0  0  0  0  0  0  0  0  # atno 10764 bound_to 10752
  154.3647  135.6181  153.5762 H   0  0  0  0  0  0  0  0  0  0  0  0  # atno 10765 bound_to 10752
  140.2800  134.2984  155.7803 H   0  0  0  0  0  0  0  0  0  0  0  0  # atno 11005 bound_to 11000
  146.0892  140.7675  142.9603 LP  0  0  0  0  0  0  0  0  0  0  0  0  # atno 17320 bound_to 7965
  144.7000  140.3611  143.7163 LP  0  0  0  0  0  0  0  0  0  0  0  0  # atno 17321 bound_to 7965
  139.5202  144.3228  152.0895 LP  0  0  0  0  0  0  0  0  0  0  0  0  # atno 17342 bound_to 10162
  140.2387  144.4292  150.6269 LP  0  0  0  0  0  0  0  0  0  0  0  0  # atno 17343 bound_to 10162
  156.1601  130.6368  151.0707 LP  0  0  0  0  0  0  0  0  0  0  0  0  # atno 17370 bound_to 10713
  157.6902  131.0812  150.7130 LP  0  0  0  0  0  0  0  0  0  0  0  0  # atno 17371 bound_to 10713
  141.2164  133.7519  156.9465 LP  0  0  0  0  0  0  0  0  0  0  0  0  # atno 17394 bound_to 11000
  140.1293  134.9366  157.2314 LP  0  0  0  0  0  0  0  0  0  0  0  0  # atno 17395 bound_to 11000

$$$$
