AV-unprocessed.smi:2958|AV-procd|sdf|11308|dock1
  -GOLD-   2272016203D 1   1.00000     0.00000
 Structure written by MMmdl.
 40 42  0  0  0  0  0  0  0  0  2 V2000
  154.4446  139.8542  160.9073 C   0  0  0  0  0  0  0  0  0  0  0  0
  153.5197  140.9725  160.4731 C   0  0  0  0  0  0  0  0  0  0  0  0
  153.5131  142.2007  161.1643 C   0  0  0  0  0  0  0  0  0  0  0  0
  152.6504  143.2331  160.7530 C   0  0  0  0  0  0  0  0  0  0  0  0
  151.7951  143.0397  159.6518 C   0  0  0  0  0  0  0  0  0  0  0  0
  151.7898  141.8181  158.9482 C   0  0  0  0  0  0  0  0  0  0  0  0
  150.9232  141.7157  157.8811 O   0  0  0  0  0  0  0  0  0  0  0  0
  150.8143  140.4627  157.2218 C   0  0  0  0  0  0  0  0  0  0  0  0
  151.1855  140.6556  155.7468 C   0  0  0  0  0  0  0  0  0  0  0  0
  150.2903  139.9067  154.8559 N   0  0  0  0  0  0  0  0  0  0  0  0
  150.4237  138.6615  154.3157 C   0  0  0  0  0  0  0  0  0  0  0  0
  151.5656  137.7195  154.5089 C   0  0  0  0  0  0  0  0  0  0  0  0
  151.2732  136.4199  154.0457 O   0  0  0  0  0  0  0  0  0  0  0  0
  149.3161  138.4311  153.5554 N   0  3  0  0  0  0  0  0  0  0  0  0
  148.4642  139.5351  153.6151 C   0  0  0  0  0  0  0  0  0  0  0  0
  147.2300  139.7682  153.0162 C   0  0  0  0  0  0  0  0  0  0  0  0
  146.6185  141.0095  153.2895 C   0  0  0  0  0  0  0  0  0  0  0  0
  147.2322  141.9615  154.1295 C   0  0  0  0  0  0  0  0  0  0  0  0
  148.4842  141.7143  154.7306 C   0  0  0  0  0  0  0  0  0  0  0  0
  149.0827  140.4859  154.4527 C   0  0  0  0  0  0  0  0  0  0  0  0
  152.6617  140.7822  159.3702 C   0  0  0  0  0  0  0  0  0  0  0  0
  155.0573  140.1518  161.7586 H   0  0  0  0  0  0  0  0  0  0  0  0
  155.1097  139.5761  160.0894 H   0  0  0  0  0  0  0  0  0  0  0  0
  153.8665  138.9756  161.1950 H   0  0  0  0  0  0  0  0  0  0  0  0
  154.1672  142.3563  162.0097 H   0  0  0  0  0  0  0  0  0  0  0  0
  152.6446  144.1746  161.2818 H   0  0  0  0  0  0  0  0  0  0  0  0
  151.1364  143.8382  159.3428 H   0  0  0  0  0  0  0  0  0  0  0  0
  151.4893  139.7358  157.6766 H   0  0  0  0  0  0  0  0  0  0  0  0
  149.7950  140.0820  157.3038 H   0  0  0  0  0  0  0  0  0  0  0  0
  151.1651  141.7097  155.4684 H   0  0  0  0  0  0  0  0  0  0  0  0
  152.2033  140.3078  155.5663 H   0  0  0  0  0  0  0  0  0  0  0  0
  152.4422  138.0993  153.9833 H   0  0  0  0  0  0  0  0  0  0  0  0
  151.8219  137.6706  155.5675 H   0  0  0  0  0  0  0  0  0  0  0  0
  151.2166  136.4421  153.1023 H   0  0  0  0  0  0  0  0  0  0  0  0
  146.7572  139.0401  152.3733 H   0  0  0  0  0  0  0  0  0  0  0  0
  145.6591  141.2357  152.8469 H   0  0  0  0  0  0  0  0  0  0  0  0
  146.7328  142.9011  154.3167 H   0  0  0  0  0  0  0  0  0  0  0  0
  148.9455  142.4492  155.3735 H   0  0  0  0  0  0  0  0  0  0  0  0
  152.6910  139.8303  158.8620 H   0  0  0  0  0  0  0  0  0  0  0  0
  149.1583  137.5789  153.0331 H   0  0  0  0  0  0  0  0  0  0  0  0
  1  2  1  0  0  0  0
  1 22  1  0  0  0  0
  1 23  1  0  0  0  0
  1 24  1  0  0  0  0
  2 21  1  0  0  0  0
  2  3  2  0  0  0  0
  3  4  1  0  0  0  0
  3 25  1  0  0  0  0
  4  5  2  0  0  0  0
  4 26  1  0  0  0  0
  5  6  1  0  0  0  0
  5 27  1  0  0  0  0
  6  7  1  0  0  0  0
  6 21  2  0  0  0  0
  7  8  1  0  0  0  0
  8  9  1  0  0  0  0
  8 28  1  0  0  0  0
  8 29  1  0  0  0  0
  9 10  1  0  0  0  0
  9 30  1  0  0  0  0
  9 31  1  0  0  0  0
 10 20  1  0  0  0  0
 10 11  1  0  0  0  0
 11 12  1  0  0  0  0
 11 14  2  0  0  0  0
 12 13  1  0  0  0  0
 12 32  1  0  0  0  0
 12 33  1  0  0  0  0
 13 34  1  0  0  0  0
 14 15  1  0  0  0  0
 14 40  1  0  0  0  0
 15 20  2  0  0  0  0
 15 16  1  0  0  0  0
 16 17  2  0  0  0  0
 16 35  1  0  0  0  0
 17 18  1  0  0  0  0
 17 36  1  0  0  0  0
 18 19  2  0  0  0  0
 18 37  1  0  0  0  0
 19 20  1  0  0  0  0
 19 38  1  0  0  0  0
 21 39  1  0  0  0  0
M  CHG  1  14   1
M  END
> <s_m_source_file>
AV-unprocessed.smi

> <i_m_source_file_index>
2958

> <i_lp_mmshare_version>
43012

> <i_f3d_flags>
0

> <s_epik_input>
W0NIM11jMVtjSF1bY0hdW2NIXWMoW2NIXTEpT1tDSDJdW0NIMl1uKGMobjIpW0NIMl1bT0hdKWMoYzIzKVtjSF1bY0hdW2NIXVtjSF0z

> <s_epik_cmdline>
J2VwaWtfcHl0aG9uJywgJy1waCcsICc3LjAnLCAnLXRuJywgJzgnLCAnLW1hJywgJzIwMCcsICctbWV0YWxfYmluZGluZycsICctaW1hZScsICc8aW5maWxlLm1hZT4nLCAnLW9tYWUnLCAnPG91dGZpbGUubWFlPic=

> <r_lp_tautomer_probability>
1

> <r_epik_Ionization_Penalty>
1.51131

> <r_epik_Ionization_Penalty_Charging>
1.51045

> <r_epik_Ionization_Penalty_Neutral>
0.000855784

> <r_epik_State_Penalty>
1.60143

> <r_epik_Charging_Adjusted_Penalty>
3.11188

> <i_epik_Tot_Q>
1

> <i_epik_Tot_abs_Q>
1

> <r_epik_Metal_State_Penalty>
5.65313

> <b_epik_Metal_Only>
0

> <s_lp_Force_Field>
OPLS_2005

> <r_lp_Energy>
18.3571

> <b_lp_Chiralities_Consistent>
1

> <s_lp_Variant>
AV-unprocessed.smi:2958-2

> <Gold.Version>
5.8.1

> <Gold.Id.Protein>
6NUR|6NUR_protein|mol2

> <Gold.PLP.Fitness>
59.1021

> <Gold.PLP.PLP>
-49.4187

> <Gold.PLP.part.hbond>
-4.4480

> <Gold.PLP.part.metal>
0.0000

> <Gold.PLP.part.buried>
2.2522

> <Gold.PLP.part.nonpolar>
-47.0707

> <Gold.PLP.part.repulsive>
0.1104

> <Gold.PLP.ligand.clash>
0.0000

> <Gold.PLP.ligand.torsion>
1.1895

> <Gold.PLP.Chemscore.Hbond>
4.0000

> <Gold.PLP.Chemscore.CHOScore>
0.0000

> <Gold.PLP.Chemscore.Metal>
0.0000

> <Gold.Chemscore.Hbonds>
donor molecule, donor type, donor heavy atom, donor atom, acceptor molecule, acceptor atom, score
      L1  H    13    34       P1  7949  1.00
      L1  H    14    40       P1  7948  2.00
      P1  H 10752 10765       L1    13  0.95

> <Gold.PLP.Chemscore.Internal.Correction>
0.0625

> <Gold.Rescore>
     Score         DG    S(hbond)    S(metal)    S(lipo)     H(rot)  DE(clash)    DE(int)     intcor
     20.65     -22.89       2.38        0.00     129.43       2.23       1.14       1.10       ----

> <Gold.Chemscore.Fitness>
20.6463

> <Gold.Chemscore.DG>
-22.8854

> <Gold.Chemscore.ZeroCoef>
-5.4800

> <Gold.Chemscore.Hbond>
2.3833

> <Gold.Chemscore.Metal>
0.0000

> <Gold.Chemscore.Lipo>
129.4300

> <Gold.Chemscore.Internal_Hbond>
0.0000

> <Gold.Chemscore.DEClash>
1.1371

> <Gold.Chemscore.DEInternal>
1.1021

> <Gold.Chemscore.Rot>
2.2258

> <Gold.Chemscore.Internal.Correction>
   9.000000E+99

> <Gold.Chemscore.Hbonds>
donor molecule, donor type, donor heavy atom, donor atom, acceptor molecule, acceptor atom, score
      L1  H    13    34       P1  7949  0.55
      L1  H    14    40       P1  7948  0.99
      P1  H 10752 10765       L1    13  0.09

> <Gold.Chemscore.Hbond.Weighted>
-7.9603

> <Gold.Chemscore.Metal.Weighted>
-0.0000

> <Gold.Chemscore.Lipo.Weighted>
-15.1433

> <Gold.Chemscore.Internal_Hbond.Weighted>
0.0000

> <Gold.Chemscore.DEClash.Weighted>
1.1371

> <Gold.Chemscore.DEInternal.Weighted>
1.1021

> <Gold.Chemscore.Rot.Weighted>
5.6982

> <Gold.Chemscore.Internal.Correction.Weighted>
   9.000000E+99

> <Gold.Protein.RotatedTorsions>
[ 6907 6896 6895 6894 ] final  -93.27 input  -60.11 | X-H torsion
[ 7974 7965 7964 7962 ] final   96.30 input  175.53 | X-H torsion
[ 8008 7997 7996 7995 ] final   57.36 input   59.86 | X-H torsion
[ 10167 10162 10161 10158 ] final   36.19 input  -65.29 | X-H torsion
[ 10718 10713 10712 10709 ] final   99.02 input   66.30 | X-H torsion
[ 10763 10752 10751 10750 ] final  165.90 input  -60.55 | X-H torsion
[ 11005 11000 10999 10996 ] final  151.16 input  -57.11 | X-H torsion

> <Gold.Protein.ActiveResidues>
 VAL166  LYS551  ARG553  GLY616  TRP617  ASP618  TYR619  PRO620  LYS621  CYS622 
 ASP623  PHE694  ASN695  SER759  ASP760  ASP761  ALA762  ILE779  LEU786  VAL792 
 PHE793  MET794  SER795  GLU796  ALA797  LYS798  CYS799  TRP800  GLU811  SER814 

> <Gold.Protein.RotatedAtoms>
  150.6920  134.1992  159.4315 H   0  0  0  0  0  0  0  0  0  0  0  0  # atno 6907 bound_to 6896
  151.9960  134.9952  160.0572 H   0  0  0  0  0  0  0  0  0  0  0  0  # atno 6908 bound_to 6896
  152.1623  133.4555  159.4904 H   0  0  0  0  0  0  0  0  0  0  0  0  # atno 6909 bound_to 6896
  145.4406  139.2301  143.3094 H   0  0  0  0  0  0  0  0  0  0  0  0  # atno 7974 bound_to 7965
  155.5326  140.3482  155.4429 H   0  0  0  0  0  0  0  0  0  0  0  0  # atno 8008 bound_to 7997
  156.0708  140.1362  156.9858 H   0  0  0  0  0  0  0  0  0  0  0  0  # atno 8009 bound_to 7997
  154.4527  140.0966  156.6641 H   0  0  0  0  0  0  0  0  0  0  0  0  # atno 8010 bound_to 7997
  140.4151  144.1538  150.6142 H   0  0  0  0  0  0  0  0  0  0  0  0  # atno 10167 bound_to 10162
  157.6884  131.0657  150.4884 H   0  0  0  0  0  0  0  0  0  0  0  0  # atno 10718 bound_to 10713
  154.3309  135.2755  155.2472 H   0  0  0  0  0  0  0  0  0  0  0  0  # atno 10763 bound_to 10752
  154.4784  135.5865  153.6375 H   0  0  0  0  0  0  0  0  0  0  0  0  # atno 10764 bound_to 10752
  152.9866  135.6105  154.3501 H   0  0  0  0  0  0  0  0  0  0  0  0  # atno 10765 bound_to 10752
  140.1194  134.8873  157.2050 H   0  0  0  0  0  0  0  0  0  0  0  0  # atno 11005 bound_to 11000
  146.2558  140.5154  142.8874 LP  0  0  0  0  0  0  0  0  0  0  0  0  # atno 17320 bound_to 7965
  144.8124  140.6408  143.6407 LP  0  0  0  0  0  0  0  0  0  0  0  0  # atno 17321 bound_to 7965
  140.4595  143.2454  151.9238 LP  0  0  0  0  0  0  0  0  0  0  0  0  # atno 17342 bound_to 10162
  139.4782  144.5481  151.8427 LP  0  0  0  0  0  0  0  0  0  0  0  0  # atno 17343 bound_to 10162
  156.5212  130.4162  149.6249 LP  0  0  0  0  0  0  0  0  0  0  0  0  # atno 17370 bound_to 10713
  156.3152  130.7251  151.2152 LP  0  0  0  0  0  0  0  0  0  0  0  0  # atno 17371 bound_to 10713
  140.2985  134.3159  155.7296 LP  0  0  0  0  0  0  0  0  0  0  0  0  # atno 17394 bound_to 11000
  141.2148  133.7577  156.9606 LP  0  0  0  0  0  0  0  0  0  0  0  0  # atno 17395 bound_to 11000

$$$$
