AV-unprocessed.smi:2026|AV-procd|sdf|8207|dock2
  -GOLD-   2272010463D 1   1.00000     0.00000
 Structure written by MMmdl.
 46 48  0  0  0  0  0  0  0  0  3 V2000
  152.2709  145.2172  159.9990 C   0  0  0  0  0  0  0  0  0  0  0  0
  152.0420  143.9570  159.1823 C   0  0  0  0  0  0  0  0  0  0  0  0
  151.2003  144.0310  158.0486 C   0  0  0  0  0  0  0  0  0  0  0  0
  151.0100  142.8608  157.3226 C   0  0  0  0  0  0  0  0  0  0  0  0
  150.2551  142.6036  156.1752 N   0  3  0  0  0  0  0  0  0  0  0  0
  150.3825  141.2913  155.8312 C   0  0  0  0  0  0  0  0  0  0  0  0
  151.2071  140.7091  156.7425 N   0  0  0  0  0  0  0  0  0  0  0  0
  151.6853  139.3260  156.8486 C   0  0  0  0  0  0  0  0  0  0  0  0
  152.2491  138.7986  155.5129 C   0  0  2  0  0  0  0  0  0  0  0  0
  152.9833  139.8263  154.8787 O   0  0  0  0  0  0  0  0  0  0  0  0
  151.1676  138.2898  154.5384 C   0  0  0  0  0  0  0  0  0  0  0  0
  150.3275  137.2423  155.1342 N   0  0  0  0  0  0  0  0  0  0  0  0
  148.9805  137.2351  155.1465 C   0  0  0  0  0  0  0  0  0  0  0  0
  148.3123  138.1342  154.6373 O   0  0  0  0  0  0  0  0  0  0  0  0
  148.5061  136.1415  155.7881 N   0  5  0  0  0  0  0  0  0  0  0  0
  149.6257  135.3453  156.2482 C   0  0  0  0  0  0  0  0  0  0  0  0
  149.6019  135.2365  157.7847 C   0  0  0  0  0  0  0  0  0  0  0  0
  149.6010  133.9566  155.5825 C   0  0  0  0  0  0  0  0  0  0  0  0
  150.8082  136.1663  155.7667 C   0  0  0  0  0  0  0  0  0  0  0  0
  151.9887  135.8700  155.9555 O   0  0  0  0  0  0  0  0  0  0  0  0
  151.6232  141.6484  157.6905 C   0  0  0  0  0  0  0  0  0  0  0  0
  152.4569  141.5579  158.8017 C   0  0  0  0  0  0  0  0  0  0  0  0
  152.6638  142.7360  159.5530 C   0  0  0  0  0  0  0  0  0  0  0  0
  153.5697  142.6665  160.7706 C   0  0  0  0  0  0  0  0  0  0  0  0
  151.6988  146.0578  159.6052 H   0  0  0  0  0  0  0  0  0  0  0  0
  153.3250  145.4951  159.9845 H   0  0  0  0  0  0  0  0  0  0  0  0
  151.9666  145.0636  161.0346 H   0  0  0  0  0  0  0  0  0  0  0  0
  150.7264  144.9577  157.7591 H   0  0  0  0  0  0  0  0  0  0  0  0
  149.9175  140.8023  154.9875 H   0  0  0  0  0  0  0  0  0  0  0  0
  152.4345  139.2970  157.6400 H   0  0  0  0  0  0  0  0  0  0  0  0
  150.8549  138.7055  157.1884 H   0  0  0  0  0  0  0  0  0  0  0  0
  152.9509  137.9883  155.7110 H   0  0  0  0  0  0  0  0  0  0  0  0
  153.1855  139.5489  153.9984 H   0  0  0  0  0  0  0  0  0  0  0  0
  150.5587  139.1254  154.1898 H   0  0  0  0  0  0  0  0  0  0  0  0
  151.6418  137.8827  153.6435 H   0  0  0  0  0  0  0  0  0  0  0  0
  150.4612  134.6770  158.1561 H   0  0  0  0  0  0  0  0  0  0  0  0
  148.7045  134.7207  158.1278 H   0  0  0  0  0  0  0  0  0  0  0  0
  149.6148  136.2174  158.2611 H   0  0  0  0  0  0  0  0  0  0  0  0
  150.4404  133.3445  155.9145 H   0  0  0  0  0  0  0  0  0  0  0  0
  149.6556  134.0268  154.4950 H   0  0  0  0  0  0  0  0  0  0  0  0
  148.6859  133.4177  155.8306 H   0  0  0  0  0  0  0  0  0  0  0  0
  152.9311  140.6278  159.0786 H   0  0  0  0  0  0  0  0  0  0  0  0
  154.0089  141.6751  160.8849 H   0  0  0  0  0  0  0  0  0  0  0  0
  153.0082  142.8893  161.6779 H   0  0  0  0  0  0  0  0  0  0  0  0
  154.3878  143.3818  160.6833 H   0  0  0  0  0  0  0  0  0  0  0  0
  149.6953  143.2720  155.6617 H   0  0  0  0  0  0  0  0  0  0  0  0
  1  2  1  0  0  0  0
  1 25  1  0  0  0  0
  1 26  1  0  0  0  0
  1 27  1  0  0  0  0
  2 23  1  0  0  0  0
  2  3  2  0  0  0  0
  3  4  1  0  0  0  0
  3 28  1  0  0  0  0
  4 21  2  0  0  0  0
  4  5  1  0  0  0  0
  5  6  2  0  0  0  0
  5 46  1  0  0  0  0
  6  7  1  0  0  0  0
  6 29  1  0  0  0  0
  7  8  1  0  0  0  0
  7 21  1  0  0  0  0
  8  9  1  0  0  0  0
  8 30  1  0  0  0  0
  8 31  1  0  0  0  0
  9 10  1  0  0  0  0
  9 11  1  0  0  0  0
  9 32  1  0  0  0  0
 10 33  1  0  0  0  0
 11 12  1  0  0  0  0
 11 34  1  0  0  0  0
 11 35  1  0  0  0  0
 12 19  1  0  0  0  0
 12 13  1  0  0  0  0
 13 14  2  0  0  0  0
 13 15  1  0  0  0  0
 15 16  1  0  0  0  0
 16 17  1  0  0  0  0
 16 18  1  0  0  0  0
 16 19  1  0  0  0  0
 17 36  1  0  0  0  0
 17 37  1  0  0  0  0
 17 38  1  0  0  0  0
 18 39  1  0  0  0  0
 18 40  1  0  0  0  0
 18 41  1  0  0  0  0
 19 20  2  0  0  0  0
 21 22  1  0  0  0  0
 22 23  2  0  0  0  0
 22 42  1  0  0  0  0
 23 24  1  0  0  0  0
 24 43  1  0  0  0  0
 24 44  1  0  0  0  0
 24 45  1  0  0  0  0
M  CHG  1   5   1
M  CHG  1  15  -1
M  END
> <s_m_source_file>
AV-unprocessed.smi

> <i_m_source_file_index>
2026

> <i_lp_mmshare_version>
43012

> <i_f3d_flags>
0

> <s_epik_input>
W0NIM11jKFtjSF0xKWMoW0NIM10pW2NIXWMoYzEyKW4oW2NIXW4yKVtDSDJdW0NASF0oW09IXSlbQ0gyXU4oQzM9TylDKD1PKVtOSF1DMyhbQ0gzXSlbQ0gzXQ==

> <s_epik_cmdline>
J2VwaWtfcHl0aG9uJywgJy1waCcsICc3LjAnLCAnLXRuJywgJzgnLCAnLW1hJywgJzIwMCcsICctbWV0YWxfYmluZGluZycsICctaW1hZScsICc8aW5maWxlLm1hZT4nLCAnLW9tYWUnLCAnPG91dGZpbGUubWFlPic=

> <r_lp_tautomer_probability>
1

> <r_epik_Ionization_Penalty>
6.70784

> <r_epik_Ionization_Penalty_Charging>
6.70784

> <r_epik_Ionization_Penalty_Neutral>
1.13852e-06

> <r_epik_State_Penalty>
6.78089

> <r_epik_Charging_Adjusted_Penalty>
13.4887

> <i_epik_Tot_Q>
0

> <i_epik_Tot_abs_Q>
2

> <r_epik_Metal_State_Penalty>
2.84685

> <b_epik_Metal_Only>
1

> <s_lp_Force_Field>
OPLS_2005

> <r_lp_Energy>
17.8482

> <b_lp_Chiralities_Consistent>
1

> <s_lp_Variant>
AV-unprocessed.smi:2026-7

> <Gold.Version>
5.8.1

> <Gold.Id.Protein>
6NUR|6NUR_protein|mol2

> <Gold.PLP.Fitness>
57.8894

> <Gold.PLP.PLP>
-46.6743

> <Gold.PLP.part.hbond>
-4.0000

> <Gold.PLP.part.metal>
0.0000

> <Gold.PLP.part.buried>
-4.2982

> <Gold.PLP.part.nonpolar>
-39.4804

> <Gold.PLP.part.repulsive>
0.4146

> <Gold.PLP.ligand.clash>
0.0000

> <Gold.PLP.ligand.torsion>
0.4064

> <Gold.PLP.Chemscore.Hbond>
4.0000

> <Gold.PLP.Chemscore.CHOScore>
0.0000

> <Gold.PLP.Chemscore.Metal>
0.0000

> <Gold.Chemscore.Hbonds>
donor molecule, donor type, donor heavy atom, donor atom, acceptor molecule, acceptor atom, score
      L1  H     5    46       P1  8028  1.92
      P1  H  7997  8010       L1    10  1.00
      P1  H 10752 10763       L1    20  0.93

> <Gold.PLP.Chemscore.Internal.Correction>
0.0279

> <Gold.Rescore>
     Score         DG    S(hbond)    S(metal)    S(lipo)     H(rot)  DE(clash)    DE(int)     intcor
     20.46     -22.04       2.83        0.00     114.03       2.44       0.07       1.51       ----

> <Gold.Chemscore.Fitness>
20.4641

> <Gold.Chemscore.DG>
-22.0395

> <Gold.Chemscore.ZeroCoef>
-5.4800

> <Gold.Chemscore.Hbond>
2.8304

> <Gold.Chemscore.Metal>
0.0000

> <Gold.Chemscore.Lipo>
114.0277

> <Gold.Chemscore.Internal_Hbond>
0.0000

> <Gold.Chemscore.DEClash>
0.0650

> <Gold.Chemscore.DEInternal>
1.5103

> <Gold.Chemscore.Rot>
2.4357

> <Gold.Chemscore.Internal.Correction>
   9.000000E+99

> <Gold.Chemscore.Hbonds>
donor molecule, donor type, donor heavy atom, donor atom, acceptor molecule, acceptor atom, score
      L1  H     5    46       P1  8028  0.92
      P1  H  7997  8010       L1    10  0.61
      P1  H 10752 10763       L1    20  0.87

> <Gold.Chemscore.Hbond.Weighted>
-9.4536

> <Gold.Chemscore.Metal.Weighted>
-0.0000

> <Gold.Chemscore.Lipo.Weighted>
-13.3412

> <Gold.Chemscore.Internal_Hbond.Weighted>
0.0000

> <Gold.Chemscore.DEClash.Weighted>
0.0650

> <Gold.Chemscore.DEInternal.Weighted>
1.5103

> <Gold.Chemscore.Rot.Weighted>
6.2353

> <Gold.Chemscore.Internal.Correction.Weighted>
   9.000000E+99

> <Gold.Protein.RotatedTorsions>
[ 6907 6896 6895 6894 ] final -131.27 input  -60.11 | X-H torsion
[ 7974 7965 7964 7962 ] final -109.31 input  175.53 | X-H torsion
[ 8008 7997 7996 7995 ] final  112.69 input   59.86 | X-H torsion
[ 10167 10162 10161 10158 ] final  -37.40 input  -65.29 | X-H torsion
[ 10718 10713 10712 10709 ] final   26.16 input   66.30 | X-H torsion
[ 10763 10752 10751 10750 ] final   63.93 input  -60.55 | X-H torsion
[ 11005 11000 10999 10996 ] final -154.70 input  -57.11 | X-H torsion

> <Gold.Protein.ActiveResidues>
 VAL166  LYS551  ARG553  GLY616  TRP617  ASP618  TYR619  PRO620  LYS621  CYS622 
 ASP623  PHE694  ASN695  SER759  ASP760  ASP761  ALA762  ILE779  LEU786  VAL792 
 PHE793  MET794  SER795  GLU796  ALA797  LYS798  CYS799  TRP800  GLU811  SER814 

> <Gold.Protein.RotatedAtoms>
  150.9491  133.6570  159.2775 H   0  0  0  0  0  0  0  0  0  0  0  0  # atno 6907 bound_to 6896
  151.3932  135.0958  159.9542 H   0  0  0  0  0  0  0  0  0  0  0  0  # atno 6908 bound_to 6896
  152.5102  133.9000  159.7491 H   0  0  0  0  0  0  0  0  0  0  0  0  # atno 6909 bound_to 6896
  145.1821  140.8976  143.3474 H   0  0  0  0  0  0  0  0  0  0  0  0  # atno 7974 bound_to 7965
  156.2209  140.2994  155.9950 H   0  0  0  0  0  0  0  0  0  0  0  0  # atno 8008 bound_to 7997
  155.2484  140.0425  157.3001 H   0  0  0  0  0  0  0  0  0  0  0  0  # atno 8009 bound_to 7997
  154.5839  140.2383  155.8023 H   0  0  0  0  0  0  0  0  0  0  0  0  # atno 8010 bound_to 7997
  140.7119  143.3345  151.2495 H   0  0  0  0  0  0  0  0  0  0  0  0  # atno 10167 bound_to 10162
  157.2031  130.6899  149.6197 H   0  0  0  0  0  0  0  0  0  0  0  0  # atno 10718 bound_to 10713
  153.0036  135.5411  154.6429 H   0  0  0  0  0  0  0  0  0  0  0  0  # atno 10763 bound_to 10752
  154.5680  135.2839  155.0857 H   0  0  0  0  0  0  0  0  0  0  0  0  # atno 10764 bound_to 10752
  154.2034  135.6480  153.5146 H   0  0  0  0  0  0  0  0  0  0  0  0  # atno 10765 bound_to 10752
  140.6945  134.4005  157.5216 H   0  0  0  0  0  0  0  0  0  0  0  0  # atno 11005 bound_to 11000
  145.0126  139.3496  143.6112 LP  0  0  0  0  0  0  0  0  0  0  0  0  # atno 17320 bound_to 7965
  146.3451  139.9394  142.8743 LP  0  0  0  0  0  0  0  0  0  0  0  0  # atno 17321 bound_to 7965
  139.6836  143.9813  152.2822 LP  0  0  0  0  0  0  0  0  0  0  0  0  # atno 17342 bound_to 10162
  139.9451  144.6657  150.8228 LP  0  0  0  0  0  0  0  0  0  0  0  0  # atno 17343 bound_to 10162
  155.9698  130.4576  150.5968 LP  0  0  0  0  0  0  0  0  0  0  0  0  # atno 17370 bound_to 10713
  157.3747  131.0771  151.1528 LP  0  0  0  0  0  0  0  0  0  0  0  0  # atno 17371 bound_to 10713
  139.8914  134.8780  156.2321 LP  0  0  0  0  0  0  0  0  0  0  0  0  # atno 17394 bound_to 11000
  141.0215  133.7039  156.1275 LP  0  0  0  0  0  0  0  0  0  0  0  0  # atno 17395 bound_to 11000

$$$$
