AV-unprocessed.smi:235|AV-procd|sdf|1807|dock6
  -GOLD-   2262020383D 1   1.00000     0.00000
 Structure written by MMmdl.
 54 58  0  0  0  0  0  0  0  0  1 V2000
  150.6217  140.7055  157.9882 O   0  0  0  0  0  0  0  0  0  0  0  0
  149.9682  141.4708  157.2778 C   0  0  0  0  0  0  0  0  0  0  0  0
  149.9118  142.7960  157.4754 N   0  0  0  0  0  0  0  0  0  0  0  0
  150.5898  143.5112  158.5070 C   0  0  0  0  0  0  0  0  0  0  0  0
  151.6341  144.5241  158.0886 C   0  0  0  0  0  0  0  0  0  0  0  0
  152.0616  143.2227  158.7096 C   0  0  0  0  0  0  0  0  0  0  0  0
  149.1453  140.9306  156.0996 C   0  0  2  0  0  0  0  0  0  0  0  0
  149.4230  141.6972  154.8003 C   0  0  0  0  0  0  0  0  0  0  0  0
  148.1594  141.4524  153.9849 C   0  0  0  0  0  0  0  0  0  0  0  0
  147.0585  141.4480  155.0460 C   0  0  0  0  0  0  0  0  0  0  0  0
  147.7055  141.0988  156.3078 N   0  0  0  0  0  0  0  0  0  0  0  0
  147.1053  140.1243  157.0262 C   0  0  0  0  0  0  0  0  0  0  0  0
  145.7761  140.2521  157.2570 N   0  0  0  0  0  0  0  0  0  0  0  0
  145.1311  139.3248  157.9719 C   0  0  0  0  0  0  0  0  0  0  0  0
  145.6175  138.2168  158.5366 N   0  0  0  0  0  0  0  0  0  0  0  0
  146.9554  138.0887  158.3039 C   0  0  0  0  0  0  0  0  0  0  0  0
  147.7721  138.9878  157.5635 C   0  0  0  0  0  0  0  0  0  0  0  0
  149.0844  138.5302  157.5403 N   0  0  0  0  0  0  0  0  0  0  0  0
  149.0449  137.4210  158.2276 C   0  0  0  0  0  0  0  0  0  0  0  0
  147.8059  137.0820  158.7225 N   0  0  0  0  0  0  0  0  0  0  0  0
  147.4727  135.9117  159.5140 C   0  0  0  0  0  0  0  0  0  0  0  0
  147.8223  136.0952  161.0033 C   0  0  1  0  0  0  0  0  0  0  0  0
  147.2028  137.2576  161.5216 O   0  0  0  0  0  0  0  0  0  0  0  0
  147.4571  134.8660  161.8592 C   0  0  1  0  0  0  0  0  0  0  0  0
  146.0450  134.8615  162.4706 C   0  0  0  0  0  0  0  0  0  0  0  0
  145.4664  133.5236  162.0401 C   0  0  0  0  0  0  0  0  0  0  0  0
  146.7046  132.7056  161.6947 C   0  0  0  0  0  0  0  0  0  0  0  0
  147.5630  133.6652  161.1016 O   0  0  0  0  0  0  0  0  0  0  0  0
  149.3451  143.3418  156.8427 H   0  0  0  0  0  0  0  0  0  0  0  0
  150.0223  143.7535  159.4045 H   0  0  0  0  0  0  0  0  0  0  0  0
  151.8188  144.6564  157.0242 H   0  0  0  0  0  0  0  0  0  0  0  0
  151.7307  145.4242  158.6927 H   0  0  0  0  0  0  0  0  0  0  0  0
  152.4423  143.2533  159.7285 H   0  0  0  0  0  0  0  0  0  0  0  0
  152.5297  142.4850  158.0603 H   0  0  0  0  0  0  0  0  0  0  0  0
  149.3808  139.8758  155.9444 H   0  0  0  0  0  0  0  0  0  0  0  0
  149.5367  142.7664  154.9897 H   0  0  0  0  0  0  0  0  0  0  0  0
  150.3214  141.3481  154.2902 H   0  0  0  0  0  0  0  0  0  0  0  0
  147.9991  142.2007  153.2083 H   0  0  0  0  0  0  0  0  0  0  0  0
  148.2154  140.4736  153.5066 H   0  0  0  0  0  0  0  0  0  0  0  0
  146.6369  142.4479  155.1541 H   0  0  0  0  0  0  0  0  0  0  0  0
  146.2408  140.7803  154.7691 H   0  0  0  0  0  0  0  0  0  0  0  0
  144.0739  139.4962  158.1121 H   0  0  0  0  0  0  0  0  0  0  0  0
  149.9238  136.8143  158.3912 H   0  0  0  0  0  0  0  0  0  0  0  0
  146.4101  135.6993  159.3903 H   0  0  0  0  0  0  0  0  0  0  0  0
  148.0120  135.0577  159.1025 H   0  0  0  0  0  0  0  0  0  0  0  0
  148.8984  136.2527  161.0886 H   0  0  0  0  0  0  0  0  0  0  0  0
  146.5387  136.9903  162.1386 H   0  0  0  0  0  0  0  0  0  0  0  0
  148.1785  134.7848  162.6742 H   0  0  0  0  0  0  0  0  0  0  0  0
  146.1091  134.9219  163.5578 H   0  0  0  0  0  0  0  0  0  0  0  0
  145.4208  135.6899  162.1345 H   0  0  0  0  0  0  0  0  0  0  0  0
  144.8491  133.0571  162.8082 H   0  0  0  0  0  0  0  0  0  0  0  0
  144.8543  133.6571  161.1473 H   0  0  0  0  0  0  0  0  0  0  0  0
  147.1709  132.3020  162.5949 H   0  0  0  0  0  0  0  0  0  0  0  0
  146.4905  131.8806  161.0150 H   0  0  0  0  0  0  0  0  0  0  0  0
  1  2  2  0  0  0  0
  2  3  1  0  0  0  0
  2  7  1  0  0  0  0
  3  4  1  0  0  0  0
  3 29  1  0  0  0  0
  4  6  1  0  0  0  0
  4  5  1  0  0  0  0
  4 30  1  0  0  0  0
  5  6  1  0  0  0  0
  5 31  1  0  0  0  0
  5 32  1  0  0  0  0
  6 33  1  0  0  0  0
  6 34  1  0  0  0  0
  7 11  1  0  0  0  0
  7  8  1  0  0  0  0
  7 35  1  0  0  0  0
  8  9  1  0  0  0  0
  8 36  1  0  0  0  0
  8 37  1  0  0  0  0
  9 10  1  0  0  0  0
  9 38  1  0  0  0  0
  9 39  1  0  0  0  0
 10 11  1  0  0  0  0
 10 40  1  0  0  0  0
 10 41  1  0  0  0  0
 11 12  1  0  0  0  0
 12 17  1  0  0  0  0
 12 13  2  0  0  0  0
 13 14  1  0  0  0  0
 14 15  2  0  0  0  0
 14 42  1  0  0  0  0
 15 16  1  0  0  0  0
 16 20  1  0  0  0  0
 16 17  2  0  0  0  0
 17 18  1  0  0  0  0
 18 19  2  0  0  0  0
 19 20  1  0  0  0  0
 19 43  1  0  0  0  0
 20 21  1  0  0  0  0
 21 22  1  0  0  0  0
 21 44  1  0  0  0  0
 21 45  1  0  0  0  0
 22 23  1  0  0  0  0
 22 24  1  0  0  0  0
 22 46  1  0  0  0  0
 23 47  1  0  0  0  0
 24 28  1  0  0  0  0
 24 25  1  0  0  0  0
 24 48  1  0  0  0  0
 25 26  1  0  0  0  0
 25 49  1  0  0  0  0
 25 50  1  0  0  0  0
 26 27  1  0  0  0  0
 26 51  1  0  0  0  0
 26 52  1  0  0  0  0
 27 28  1  0  0  0  0
 27 53  1  0  0  0  0
 27 54  1  0  0  0  0
M  END
> <s_m_source_file>
AV-unprocessed.smi

> <i_m_source_file_index>
235

> <i_lp_mmshare_version>
43012

> <i_f3d_flags>
0

> <s_epik_input>
W0NIMl0xW0NIMl1bQ0hdMVtOSF1DKD1PKVtDQEBIXTJbQ0gyXVtDSDJdW0NIMl1OMmMobltjSF1uMyljKGMzNCluW2NIXW40W0NIMl1bQ0BIXShbT0hdKVtDQEBIXTVbQ0gyXVtDSDJdW0NIMl1PNQ==

> <s_epik_cmdline>
J2VwaWtfcHl0aG9uJywgJy1waCcsICc3LjAnLCAnLXRuJywgJzgnLCAnLW1hJywgJzIwMCcsICctbWV0YWxfYmluZGluZycsICctaW1hZScsICc8aW5maWxlLm1hZT4nLCAnLW9tYWUnLCAnPG91dGZpbGUubWFlPic=

> <r_lp_tautomer_probability>
1

> <r_epik_Ionization_Penalty>
0.000526714

> <r_epik_Ionization_Penalty_Charging>
0

> <r_epik_Ionization_Penalty_Neutral>
0.000526714

> <r_epik_State_Penalty>
0.000272704

> <r_epik_Charging_Adjusted_Penalty>
0.000272704

> <i_epik_Tot_Q>
0

> <i_epik_Tot_abs_Q>
0

> <r_epik_Metal_State_Penalty>
-0

> <b_epik_Metal_Only>
0

> <s_lp_Force_Field>
OPLS_2005

> <r_lp_Energy>
60.9584

> <b_lp_Chiralities_Consistent>
1

> <s_lp_Variant>
AV-unprocessed.smi:235-7

> <Gold.Version>
5.8.1

> <Gold.Id.Protein>
6NUR|6NUR_protein|mol2

> <Gold.PLP.Fitness>
49.5124

> <Gold.PLP.PLP>
-43.3824

> <Gold.PLP.part.hbond>
-3.0000

> <Gold.PLP.part.metal>
0.0000

> <Gold.PLP.part.buried>
-4.8929

> <Gold.PLP.part.nonpolar>
-34.7248

> <Gold.PLP.part.repulsive>
0.0784

> <Gold.PLP.ligand.clash>
0.0000

> <Gold.PLP.ligand.torsion>
1.2438

> <Gold.PLP.Chemscore.Hbond>
2.7920

> <Gold.PLP.Chemscore.CHOScore>
0.0000

> <Gold.PLP.Chemscore.Metal>
0.0000

> <Gold.Chemscore.Hbonds>
donor molecule, donor type, donor heavy atom, donor atom, acceptor molecule, acceptor atom, score
      L1  H     3    29       P1  8028  1.00
      P1  H  6931  6943       L1    23  0.50
      P1  H  6934  6947       L1    23  0.96

> <Gold.PLP.Chemscore.Internal.Correction>
0.2416

> <Gold.Rescore>
     Score         DG    S(hbond)    S(metal)    S(lipo)     H(rot)  DE(clash)    DE(int)     intcor
     13.29     -17.23       2.17        0.00     104.06       3.00       0.20       3.75       ----

> <Gold.Chemscore.Fitness>
13.2853

> <Gold.Chemscore.DG>
-17.2334

> <Gold.Chemscore.ZeroCoef>
-5.4800

> <Gold.Chemscore.Hbond>
2.1723

> <Gold.Chemscore.Metal>
0.0000

> <Gold.Chemscore.Lipo>
104.0603

> <Gold.Chemscore.Internal_Hbond>
0.0000

> <Gold.Chemscore.DEClash>
0.1983

> <Gold.Chemscore.DEInternal>
3.7499

> <Gold.Chemscore.Rot>
2.9989

> <Gold.Chemscore.Internal.Correction>
   9.000000E+99

> <Gold.Chemscore.Hbonds>
donor molecule, donor type, donor heavy atom, donor atom, acceptor molecule, acceptor atom, score
      L1  H     3    29       P1  8028  0.96
      P1  H  6931  6943       L1    23  0.06
      P1  H  6934  6947       L1    23  0.87

> <Gold.Chemscore.Hbond.Weighted>
-7.2556

> <Gold.Chemscore.Metal.Weighted>
-0.0000

> <Gold.Chemscore.Lipo.Weighted>
-12.1751

> <Gold.Chemscore.Internal_Hbond.Weighted>
0.0000

> <Gold.Chemscore.DEClash.Weighted>
0.1983

> <Gold.Chemscore.DEInternal.Weighted>
3.7499

> <Gold.Chemscore.Rot.Weighted>
7.6772

> <Gold.Chemscore.Internal.Correction.Weighted>
   9.000000E+99

> <Gold.Protein.RotatedTorsions>
[ 6907 6896 6895 6894 ] final  179.64 input  -60.11 | X-H torsion
[ 7974 7965 7964 7962 ] final   99.06 input  175.53 | X-H torsion
[ 8008 7997 7996 7995 ] final -138.90 input   59.86 | X-H torsion
[ 10167 10162 10161 10158 ] final -103.60 input  -65.29 | X-H torsion
[ 10718 10713 10712 10709 ] final -138.61 input   66.30 | X-H torsion
[ 10763 10752 10751 10750 ] final  -57.84 input  -60.55 | X-H torsion
[ 11005 11000 10999 10996 ] final   -9.30 input  -57.11 | X-H torsion

> <Gold.Protein.ActiveResidues>
 VAL166  LYS551  ARG553  GLY616  TRP617  ASP618  TYR619  PRO620  LYS621  CYS622 
 ASP623  PHE694  ASN695  SER759  ASP760  ASP761  ALA762  ILE779  LEU786  VAL792 
 PHE793  MET794  SER795  GLU796  ALA797  LYS798  CYS799  TRP800  GLU811  SER814 

> <Gold.Protein.RotatedAtoms>
  151.6683  133.3314  159.3190 H   0  0  0  0  0  0  0  0  0  0  0  0  # atno 6907 bound_to 6896
  150.7880  134.6884  159.6492 H   0  0  0  0  0  0  0  0  0  0  0  0  # atno 6908 bound_to 6896
  152.3954  134.6378  160.0143 H   0  0  0  0  0  0  0  0  0  0  0  0  # atno 6909 bound_to 6896
  145.4038  139.2343  143.3285 H   0  0  0  0  0  0  0  0  0  0  0  0  # atno 7974 bound_to 7965
  155.4359  140.0528  157.3014 H   0  0  0  0  0  0  0  0  0  0  0  0  # atno 8008 bound_to 7997
  154.4839  140.2093  155.9657 H   0  0  0  0  0  0  0  0  0  0  0  0  # atno 8009 bound_to 7997
  156.1246  140.3182  155.8264 H   0  0  0  0  0  0  0  0  0  0  0  0  # atno 8010 bound_to 7997
  140.2182  143.3695  152.0992 H   0  0  0  0  0  0  0  0  0  0  0  0  # atno 10167 bound_to 10162
  156.3013  130.7430  151.1483 H   0  0  0  0  0  0  0  0  0  0  0  0  # atno 10718 bound_to 10713
  154.2288  135.6364  153.5168 H   0  0  0  0  0  0  0  0  0  0  0  0  # atno 10763 bound_to 10752
  152.9953  135.5514  154.6035 H   0  0  0  0  0  0  0  0  0  0  0  0  # atno 10764 bound_to 10752
  154.5513  135.2902  155.0980 H   0  0  0  0  0  0  0  0  0  0  0  0  # atno 10765 bound_to 10752
  140.7327  133.8735  155.8905 H   0  0  0  0  0  0  0  0  0  0  0  0  # atno 11005 bound_to 11000
  146.2738  140.4740  142.8803 LP  0  0  0  0  0  0  0  0  0  0  0  0  # atno 17320 bound_to 7965
  144.8355  140.6775  143.6263 LP  0  0  0  0  0  0  0  0  0  0  0  0  # atno 17321 bound_to 7965
  139.5154  144.6962  151.5623 LP  0  0  0  0  0  0  0  0  0  0  0  0  # atno 17342 bound_to 10162
  140.6274  143.9142  150.6576 LP  0  0  0  0  0  0  0  0  0  0  0  0  # atno 17343 bound_to 10162
  157.7368  131.0558  150.5389 LP  0  0  0  0  0  0  0  0  0  0  0  0  # atno 17370 bound_to 10713
  156.5517  130.4233  149.6104 LP  0  0  0  0  0  0  0  0  0  0  0  0  # atno 17371 bound_to 10713
  140.9906  134.1283  157.4411 LP  0  0  0  0  0  0  0  0  0  0  0  0  # atno 17394 bound_to 11000
  139.8823  135.0039  156.6217 LP  0  0  0  0  0  0  0  0  0  0  0  0  # atno 17395 bound_to 11000

$$$$
