AV-unprocessed.smi:527|AV-procd|sdf|2820|dock5
  -GOLD-   2262023303D 1   1.00000     0.00000
 Structure written by MMmdl.
 42 43  0  0  0  0  0  0  0  0  1 V2000
  151.4848  140.1396  155.3534 C   0  0  0  0  0  0  0  0  0  0  0  0
  149.9520  140.0575  155.2279 C   0  0  1  0  0  0  0  0  0  0  0  0
  149.4094  141.3929  154.6802 C   0  0  0  0  0  0  0  0  0  0  0  0
  147.8815  141.3833  154.5640 C   0  0  0  0  0  0  0  0  0  0  0  0
  147.4161  140.2277  153.6737 C   0  0  0  0  0  0  0  0  0  0  0  0
  147.9263  138.8725  154.2010 C   0  0  1  0  0  0  0  0  0  0  0  0
  147.4921  137.8070  153.2981 N   0  0  0  0  0  0  0  0  0  0  0  0
  146.2223  137.4215  153.1034 C   0  0  0  0  0  0  0  0  0  0  0  0
  145.2840  137.7999  153.8080 O   0  0  0  0  0  0  0  0  0  0  0  0
  146.1291  136.5809  152.0547 N   0  0  0  0  0  0  0  0  0  0  0  0
  145.0171  135.9939  151.5667 C   0  0  0  0  0  0  0  0  0  0  0  0
  143.8801  136.1521  152.0190 O   0  0  0  0  0  0  0  0  0  0  0  0
  145.2556  135.0702  150.3645 C   0  0  0  0  0  0  0  0  0  0  0  0
  144.9036  133.6856  150.6303 N   0  0  0  0  0  0  0  0  0  0  0  0
  143.8363  132.9735  150.0971 C   0  0  0  0  0  0  0  0  0  0  0  0
  143.9050  131.7056  150.6293 C   0  0  0  0  0  0  0  0  0  0  0  0
  144.9979  131.6159  151.4879 N   0  0  0  0  0  0  0  0  0  0  0  0
  145.5418  132.8248  151.4357 C   0  0  0  0  0  0  0  0  0  0  0  0
  149.4714  138.8585  154.3607 C   0  0  2  0  0  0  0  0  0  0  0  0
  149.9567  137.5054  154.9263 C   0  0  0  0  0  0  0  0  0  0  0  0
  151.9624  140.1839  154.3743 H   0  0  0  0  0  0  0  0  0  0  0  0
  151.8968  139.2865  155.8912 H   0  0  0  0  0  0  0  0  0  0  0  0
  151.7839  141.0305  155.9062 H   0  0  0  0  0  0  0  0  0  0  0  0
  149.5491  139.9283  156.2336 H   0  0  0  0  0  0  0  0  0  0  0  0
  149.7138  142.2143  155.3298 H   0  0  0  0  0  0  0  0  0  0  0  0
  149.8472  141.5967  153.7020 H   0  0  0  0  0  0  0  0  0  0  0  0
  147.4355  141.2899  155.5550 H   0  0  0  0  0  0  0  0  0  0  0  0
  147.5328  142.3316  154.1542 H   0  0  0  0  0  0  0  0  0  0  0  0
  146.3266  140.2277  153.6231 H   0  0  0  0  0  0  0  0  0  0  0  0
  147.7724  140.3874  152.6549 H   0  0  0  0  0  0  0  0  0  0  0  0
  147.4889  138.6999  155.1868 H   0  0  0  0  0  0  0  0  0  0  0  0
  148.2190  137.3187  152.7960 H   0  0  0  0  0  0  0  0  0  0  0  0
  146.9926  136.3603  151.5812 H   0  0  0  0  0  0  0  0  0  0  0  0
  144.6721  135.4212  149.5121 H   0  0  0  0  0  0  0  0  0  0  0  0
  146.3067  135.1140  150.0767 H   0  0  0  0  0  0  0  0  0  0  0  0
  143.1386  133.4138  149.3998 H   0  0  0  0  0  0  0  0  0  0  0  0
  143.2581  130.8575  150.4603 H   0  0  0  0  0  0  0  0  0  0  0  0
  146.4261  133.0902  151.9963 H   0  0  0  0  0  0  0  0  0  0  0  0
  149.9084  138.9731  153.3672 H   0  0  0  0  0  0  0  0  0  0  0  0
  149.5927  137.3496  155.9423 H   0  0  0  0  0  0  0  0  0  0  0  0
  151.0436  137.4396  154.9467 H   0  0  0  0  0  0  0  0  0  0  0  0
  149.6149  136.6650  154.3227 H   0  0  0  0  0  0  0  0  0  0  0  0
  1  2  1  0  0  0  0
  1 21  1  0  0  0  0
  1 22  1  0  0  0  0
  1 23  1  0  0  0  0
  2 19  1  0  0  0  0
  2  3  1  0  0  0  0
  2 24  1  0  0  0  0
  3  4  1  0  0  0  0
  3 25  1  0  0  0  0
  3 26  1  0  0  0  0
  4  5  1  0  0  0  0
  4 27  1  0  0  0  0
  4 28  1  0  0  0  0
  5  6  1  0  0  0  0
  5 29  1  0  0  0  0
  5 30  1  0  0  0  0
  6  7  1  0  0  0  0
  6 19  1  0  0  0  0
  6 31  1  0  0  0  0
  7  8  1  0  0  0  0
  7 32  1  0  0  0  0
  8  9  2  0  0  0  0
  8 10  1  0  0  0  0
 10 11  1  0  0  0  0
 10 33  1  0  0  0  0
 11 12  2  0  0  0  0
 11 13  1  0  0  0  0
 13 14  1  0  0  0  0
 13 34  1  0  0  0  0
 13 35  1  0  0  0  0
 14 18  1  0  0  0  0
 14 15  1  0  0  0  0
 15 16  2  0  0  0  0
 15 36  1  0  0  0  0
 16 17  1  0  0  0  0
 16 37  1  0  0  0  0
 17 18  2  0  0  0  0
 18 38  1  0  0  0  0
 19 20  1  0  0  0  0
 19 39  1  0  0  0  0
 20 40  1  0  0  0  0
 20 41  1  0  0  0  0
 20 42  1  0  0  0  0
M  END
> <s_m_source_file>
AV-unprocessed.smi

> <i_m_source_file_index>
527

> <i_lp_mmshare_version>
43012

> <i_f3d_flags>
0

> <s_epik_input>
W0NIM11bQ0BASF0xW0NIMl1bQ0gyXVtDSDJdW0NASF0oW0NASF0xW0NIM10pW05IXUMoPU8pW05IXUMoPU8pW0NIMl1uMltjSF1bY0hdbltjSF0y

> <s_epik_cmdline>
J2VwaWtfcHl0aG9uJywgJy1waCcsICc3LjAnLCAnLXRuJywgJzgnLCAnLW1hJywgJzIwMCcsICctbWV0YWxfYmluZGluZycsICctaW1hZScsICc8aW5maWxlLm1hZT4nLCAnLW9tYWUnLCAnPG91dGZpbGUubWFlPic=

> <r_lp_tautomer_probability>
1

> <r_epik_Ionization_Penalty>
0.172132

> <r_epik_Ionization_Penalty_Charging>
0.172105

> <r_epik_Ionization_Penalty_Neutral>
2.71747e-05

> <r_epik_State_Penalty>
0.161503

> <r_epik_Charging_Adjusted_Penalty>
0.333607

> <i_epik_Tot_Q>
0

> <i_epik_Tot_abs_Q>
0

> <r_epik_Metal_State_Penalty>
0.124763

> <b_epik_Metal_Only>
0

> <s_lp_Force_Field>
OPLS_2005

> <r_lp_Energy>
15.9673

> <b_lp_Chiralities_Consistent>
1

> <s_lp_Variant>
AV-unprocessed.smi:527-6

> <Gold.Version>
5.8.1

> <Gold.Id.Protein>
6NUR|6NUR_protein|mol2

> <Gold.PLP.Fitness>
44.9268

> <Gold.PLP.PLP>
-33.5868

> <Gold.PLP.part.hbond>
-2.0000

> <Gold.PLP.part.metal>
0.0000

> <Gold.PLP.part.buried>
0.0071

> <Gold.PLP.part.nonpolar>
-32.0606

> <Gold.PLP.part.repulsive>
0.7624

> <Gold.PLP.ligand.clash>
0.0000

> <Gold.PLP.ligand.torsion>
0.2000

> <Gold.PLP.Chemscore.Hbond>
1.9120

> <Gold.PLP.Chemscore.CHOScore>
1.9928

> <Gold.PLP.Chemscore.Metal>
0.0000

> <Gold.Chemscore.Hbonds>
donor molecule, donor type, donor heavy atom, donor atom, acceptor molecule, acceptor atom, score
      L1  H     7    32       P1  7948  1.00
      L1  H    10    33       P1  7948  0.88
      L1  C    15    36       P1 10186  1.00
      L1  C    16    37       P1 10952  0.72

> <Gold.PLP.Chemscore.Internal.Correction>
0.0256

> <Gold.Rescore>
     Score         DG    S(hbond)    S(metal)    S(lipo)     H(rot)  DE(clash)    DE(int)     intcor
     14.48     -16.11       1.96        0.00      71.36       1.66       0.19       1.44       ----

> <Gold.Chemscore.Fitness>
14.4827

> <Gold.Chemscore.DG>
-16.1096

> <Gold.Chemscore.ZeroCoef>
-5.4800

> <Gold.Chemscore.Hbond>
1.9574

> <Gold.Chemscore.Metal>
0.0000

> <Gold.Chemscore.Lipo>
71.3568

> <Gold.Chemscore.Internal_Hbond>
0.0000

> <Gold.Chemscore.DEClash>
0.1890

> <Gold.Chemscore.DEInternal>
1.4379

> <Gold.Chemscore.Rot>
1.6629

> <Gold.Chemscore.Internal.Correction>
   9.000000E+99

> <Gold.Chemscore.Hbonds>
donor molecule, donor type, donor heavy atom, donor atom, acceptor molecule, acceptor atom, score
      L1  H     7    32       P1  7948  0.98
      L1  H    10    33       P1  7948  0.86

> <Gold.Chemscore.Hbond.Weighted>
-6.5377

> <Gold.Chemscore.Metal.Weighted>
-0.0000

> <Gold.Chemscore.Lipo.Weighted>
-8.3487

> <Gold.Chemscore.Internal_Hbond.Weighted>
0.0000

> <Gold.Chemscore.DEClash.Weighted>
0.1890

> <Gold.Chemscore.DEInternal.Weighted>
1.4379

> <Gold.Chemscore.Rot.Weighted>
4.2569

> <Gold.Chemscore.Internal.Correction.Weighted>
   9.000000E+99

> <Gold.Protein.RotatedTorsions>
[ 6907 6896 6895 6894 ] final  172.70 input  -60.11 | X-H torsion
[ 7974 7965 7964 7962 ] final -174.71 input  175.53 | X-H torsion
[ 8008 7997 7996 7995 ] final  -54.37 input   59.86 | X-H torsion
[ 10167 10162 10161 10158 ] final   82.34 input  -65.29 | X-H torsion
[ 10718 10713 10712 10709 ] final  101.35 input   66.30 | X-H torsion
[ 10763 10752 10751 10750 ] final   13.51 input  -60.55 | X-H torsion
[ 11005 11000 10999 10996 ] final  173.35 input  -57.11 | X-H torsion

> <Gold.Protein.ActiveResidues>
 VAL166  LYS551  ARG553  GLY616  TRP617  ASP618  TYR619  PRO620  LYS621  CYS622 
 ASP623  PHE694  ASN695  SER759  ASP760  ASP761  ALA762  ILE779  LEU786  VAL792 
 PHE793  MET794  SER795  GLU796  ALA797  LYS798  CYS799  TRP800  GLU811  SER814 

> <Gold.Protein.RotatedAtoms>
  151.7802  133.3349  159.3468 H   0  0  0  0  0  0  0  0  0  0  0  0  # atno 6907 bound_to 6896
  150.7429  134.5938  159.6010 H   0  0  0  0  0  0  0  0  0  0  0  0  # atno 6908 bound_to 6896
  152.3281  134.7296  160.0348 H   0  0  0  0  0  0  0  0  0  0  0  0  # atno 6909 bound_to 6896
  144.7131  140.1431  143.6390 H   0  0  0  0  0  0  0  0  0  0  0  0  # atno 7974 bound_to 7965
  154.4161  140.1178  156.5305 H   0  0  0  0  0  0  0  0  0  0  0  0  # atno 8008 bound_to 7997
  155.6610  140.3496  155.4763 H   0  0  0  0  0  0  0  0  0  0  0  0  # atno 8009 bound_to 7997
  155.9713  140.1142  157.0800 H   0  0  0  0  0  0  0  0  0  0  0  0  # atno 8010 bound_to 7997
  139.9298  144.6159  150.8356 H   0  0  0  0  0  0  0  0  0  0  0  0  # atno 10167 bound_to 10162
  157.6831  131.0723  150.5239 H   0  0  0  0  0  0  0  0  0  0  0  0  # atno 10718 bound_to 10713
  153.1714  135.6813  153.8603 H   0  0  0  0  0  0  0  0  0  0  0  0  # atno 10763 bound_to 10752
  153.7966  135.3161  155.3386 H   0  0  0  0  0  0  0  0  0  0  0  0  # atno 10764 bound_to 10752
  154.8000  135.4783  154.0345 H   0  0  0  0  0  0  0  0  0  0  0  0  # atno 10765 bound_to 10752
  140.3395  134.7288  157.4192 H   0  0  0  0  0  0  0  0  0  0  0  0  # atno 11005 bound_to 11000
  145.9184  139.2530  143.1396 LP  0  0  0  0  0  0  0  0  0  0  0  0  # atno 17320 bound_to 7965
  145.9645  140.8809  143.0193 LP  0  0  0  0  0  0  0  0  0  0  0  0  # atno 17321 bound_to 7965
  140.7640  143.3238  151.2562 LP  0  0  0  0  0  0  0  0  0  0  0  0  # atno 17342 bound_to 10162
  139.6791  143.9885  152.2798 LP  0  0  0  0  0  0  0  0  0  0  0  0  # atno 17343 bound_to 10162
  156.5551  130.4241  149.6089 LP  0  0  0  0  0  0  0  0  0  0  0  0  # atno 17370 bound_to 10713
  156.2869  130.7102  151.1941 LP  0  0  0  0  0  0  0  0  0  0  0  0  # atno 17371 bound_to 10713
  140.0793  134.5754  155.8558 LP  0  0  0  0  0  0  0  0  0  0  0  0  # atno 17394 bound_to 11000
  141.2042  133.6637  156.6108 LP  0  0  0  0  0  0  0  0  0  0  0  0  # atno 17395 bound_to 11000

$$$$
