AV-unprocessed.smi:944|AV-procd|sdf|4232|dock3
  -GOLD-   22720 2143D 1   1.00000     0.00000
 Structure written by MMmdl.
 28 28  0  0  0  0  0  0  0  0  1 V2000
  148.8206  141.1694  154.4983 C   0  0  0  0  0  0  0  0  0  0  0  0
  149.2874  140.7842  155.8211 N   0  0  0  0  0  0  0  0  0  0  0  0
  150.5685  140.5334  156.1257 C   0  0  0  0  0  0  0  0  0  0  0  0
  151.4812  140.5985  155.3003 O   0  0  0  0  0  0  0  0  0  0  0  0
  150.8543  140.1309  157.5822 C   0  0  1  0  0  0  0  0  0  0  0  0
  151.7173  138.8582  157.5629 C   0  0  0  0  0  0  0  0  0  0  0  0
  151.6101  141.1776  158.2688 N   0  0  0  0  0  0  0  0  0  0  0  0
  151.1316  142.3853  158.6071 C   0  0  0  0  0  0  0  0  0  0  0  0
  149.9705  142.7344  158.3889 O   0  0  0  0  0  0  0  0  0  0  0  0
  152.1232  143.3290  159.2972 C   0  0  0  0  0  0  0  0  0  0  0  0
  152.6446  142.7787  160.5372 N   0  0  0  0  0  0  0  0  0  0  0  0
  153.5291  141.8022  160.7502 C   0  0  0  0  0  0  0  0  0  0  0  0
  153.7656  141.5639  162.0328 N   0  0  0  0  0  0  0  0  0  0  0  0
  152.9357  142.4932  162.5938 C   0  0  0  0  0  0  0  0  0  0  0  0
  152.2378  143.2445  161.7418 N   0  0  0  0  0  0  0  0  0  0  0  0
  147.7419  141.3245  154.5152 H   0  0  0  0  0  0  0  0  0  0  0  0
  149.0416  140.3912  153.7664 H   0  0  0  0  0  0  0  0  0  0  0  0
  149.2937  142.0976  154.1745 H   0  0  0  0  0  0  0  0  0  0  0  0
  148.5949  140.7071  156.5522 H   0  0  0  0  0  0  0  0  0  0  0  0
  149.9198  139.9329  158.1113 H   0  0  0  0  0  0  0  0  0  0  0  0
  151.2053  138.0386  157.0568 H   0  0  0  0  0  0  0  0  0  0  0  0
  151.9376  138.5240  158.5771 H   0  0  0  0  0  0  0  0  0  0  0  0
  152.6698  139.0199  157.0551 H   0  0  0  0  0  0  0  0  0  0  0  0
  152.5760  140.9742  158.4806 H   0  0  0  0  0  0  0  0  0  0  0  0
  152.9499  143.5422  158.6179 H   0  0  0  0  0  0  0  0  0  0  0  0
  151.6374  144.2794  159.5237 H   0  0  0  0  0  0  0  0  0  0  0  0
  154.0106  141.2570  159.9513 H   0  0  0  0  0  0  0  0  0  0  0  0
  152.8403  142.6175  163.6626 H   0  0  0  0  0  0  0  0  0  0  0  0
  1  2  1  0  0  0  0
  1 16  1  0  0  0  0
  1 17  1  0  0  0  0
  1 18  1  0  0  0  0
  2  3  1  0  0  0  0
  2 19  1  0  0  0  0
  3  4  2  0  0  0  0
  3  5  1  0  0  0  0
  5  6  1  0  0  0  0
  5  7  1  0  0  0  0
  5 20  1  0  0  0  0
  6 21  1  0  0  0  0
  6 22  1  0  0  0  0
  6 23  1  0  0  0  0
  7  8  1  0  0  0  0
  7 24  1  0  0  0  0
  8  9  2  0  0  0  0
  8 10  1  0  0  0  0
 10 11  1  0  0  0  0
 10 25  1  0  0  0  0
 10 26  1  0  0  0  0
 11 15  1  0  0  0  0
 11 12  1  0  0  0  0
 12 13  2  0  0  0  0
 12 27  1  0  0  0  0
 13 14  1  0  0  0  0
 14 15  2  0  0  0  0
 14 28  1  0  0  0  0
M  END
> <s_m_source_file>
AV-unprocessed.smi

> <i_m_source_file_index>
944

> <i_lp_mmshare_version>
43012

> <i_f3d_flags>
0

> <s_epik_input>
W0NIM11bTkhdQyg9TylbQ0BIXShbQ0gzXSlbTkhdQyg9TylbQ0gyXW4xW2NIXW5bY0hdbjE=

> <s_epik_cmdline>
J2VwaWtfcHl0aG9uJywgJy1waCcsICc3LjAnLCAnLXRuJywgJzgnLCAnLW1hJywgJzIwMCcsICctbWV0YWxfYmluZGluZycsICctaW1hZScsICc8aW5maWxlLm1hZT4nLCAnLW9tYWUnLCAnPG91dGZpbGUubWFlPic=

> <r_lp_tautomer_probability>
1

> <r_epik_Ionization_Penalty>
7.54354e-06

> <r_epik_Ionization_Penalty_Charging>
0

> <r_epik_Ionization_Penalty_Neutral>
7.54354e-06

> <r_epik_State_Penalty>
-0

> <r_epik_Charging_Adjusted_Penalty>
0

> <i_epik_Tot_Q>
0

> <i_epik_Tot_abs_Q>
0

> <r_epik_Metal_State_Penalty>
-0

> <b_epik_Metal_Only>
0

> <s_lp_Force_Field>
OPLS_2005

> <r_lp_Energy>
4.79019

> <b_lp_Chiralities_Consistent>
1

> <s_lp_Variant>
AV-unprocessed.smi:944-2

> <Gold.Version>
5.8.1

> <Gold.Id.Protein>
6NUR|6NUR_protein|mol2

> <Gold.PLP.Fitness>
32.7171

> <Gold.PLP.PLP>
-30.9840

> <Gold.PLP.part.hbond>
-1.3029

> <Gold.PLP.part.metal>
0.0000

> <Gold.PLP.part.buried>
-5.6010

> <Gold.PLP.part.nonpolar>
-24.3588

> <Gold.PLP.part.repulsive>
0.4662

> <Gold.PLP.ligand.clash>
0.0000

> <Gold.PLP.ligand.torsion>
0.4134

> <Gold.PLP.Chemscore.Hbond>
0.8480

> <Gold.PLP.Chemscore.CHOScore>
0.0000

> <Gold.PLP.Chemscore.Metal>
0.0000

> <Gold.Chemscore.Hbonds>
donor molecule, donor type, donor heavy atom, donor atom, acceptor molecule, acceptor atom, score
      P1  H  7989  7998       L1     4  0.80

> <Gold.PLP.Chemscore.Internal.Correction>
0.0160

> <Gold.Rescore>
     Score         DG    S(hbond)    S(metal)    S(lipo)     H(rot)  DE(clash)    DE(int)     intcor
      4.81      -4.96       0.97        0.00      27.89       2.74       0.01       0.14       ----

> <Gold.Chemscore.Fitness>
4.8114

> <Gold.Chemscore.DG>
-4.9599

> <Gold.Chemscore.ZeroCoef>
-5.4800

> <Gold.Chemscore.Hbond>
0.9694

> <Gold.Chemscore.Metal>
0.0000

> <Gold.Chemscore.Lipo>
27.8901

> <Gold.Chemscore.Internal_Hbond>
0.0000

> <Gold.Chemscore.DEClash>
0.0121

> <Gold.Chemscore.DEInternal>
0.1364

> <Gold.Chemscore.Rot>
2.7426

> <Gold.Chemscore.Internal.Correction>
   9.000000E+99

> <Gold.Chemscore.Hbonds>
donor molecule, donor type, donor heavy atom, donor atom, acceptor molecule, acceptor atom, score
      P1  H  7989  7998       L1     4  0.80

> <Gold.Chemscore.Hbond.Weighted>
-3.2377

> <Gold.Chemscore.Metal.Weighted>
-0.0000

> <Gold.Chemscore.Lipo.Weighted>
-3.2631

> <Gold.Chemscore.Internal_Hbond.Weighted>
0.0000

> <Gold.Chemscore.DEClash.Weighted>
0.0121

> <Gold.Chemscore.DEInternal.Weighted>
0.1364

> <Gold.Chemscore.Rot.Weighted>
7.0210

> <Gold.Chemscore.Internal.Correction.Weighted>
   9.000000E+99

> <Gold.Protein.RotatedTorsions>
[ 6907 6896 6895 6894 ] final   48.33 input  -60.11 | X-H torsion
[ 7974 7965 7964 7962 ] final   58.71 input  175.53 | X-H torsion
[ 8008 7997 7996 7995 ] final  138.17 input   59.86 | X-H torsion
[ 10167 10162 10161 10158 ] final   51.98 input  -65.29 | X-H torsion
[ 10718 10713 10712 10709 ] final  -20.07 input   66.30 | X-H torsion
[ 10763 10752 10751 10750 ] final   53.69 input  -60.55 | X-H torsion
[ 11005 11000 10999 10996 ] final    0.41 input  -57.11 | X-H torsion

> <Gold.Protein.ActiveResidues>
 VAL166  LYS551  ARG553  GLY616  TRP617  ASP618  TYR619  PRO620  LYS621  CYS622 
 ASP623  PHE694  ASN695  SER759  ASP760  ASP761  ALA762  ILE779  LEU786  VAL792 
 PHE793  MET794  SER795  GLU796  ALA797  LYS798  CYS799  TRP800  GLU811  SER814 

> <Gold.Protein.RotatedAtoms>
  152.2783  134.7857  160.0401 H   0  0  0  0  0  0  0  0  0  0  0  0  # atno 6907 bound_to 6896
  151.8445  133.3424  159.3662 H   0  0  0  0  0  0  0  0  0  0  0  0  # atno 6908 bound_to 6896
  150.7179  134.5287  159.5734 H   0  0  0  0  0  0  0  0  0  0  0  0  # atno 6909 bound_to 6896
  145.9152  139.3685  143.0511 H   0  0  0  0  0  0  0  0  0  0  0  0  # atno 7974 bound_to 7965
  156.2999  140.2400  156.4030 H   0  0  0  0  0  0  0  0  0  0  0  0  # atno 8008 bound_to 7997
  154.8510  140.0424  157.1624 H   0  0  0  0  0  0  0  0  0  0  0  0  # atno 8009 bound_to 7997
  154.8999  140.2975  155.5327 H   0  0  0  0  0  0  0  0  0  0  0  0  # atno 8010 bound_to 7997
  140.2562  144.3424  150.6332 H   0  0  0  0  0  0  0  0  0  0  0  0  # atno 10167 bound_to 10162
  156.5369  130.4669  149.6518 H   0  0  0  0  0  0  0  0  0  0  0  0  # atno 10718 bound_to 10713
  152.9797  135.5770  154.4783 H   0  0  0  0  0  0  0  0  0  0  0  0  # atno 10763 bound_to 10752
  154.4336  135.2774  155.1898 H   0  0  0  0  0  0  0  0  0  0  0  0  # atno 10764 bound_to 10752
  154.3596  135.6191  153.5737 H   0  0  0  0  0  0  0  0  0  0  0  0  # atno 10765 bound_to 10752
  140.6268  133.9611  155.8253 H   0  0  0  0  0  0  0  0  0  0  0  0  # atno 11005 bound_to 11000
  145.8620  140.9469  143.0695 LP  0  0  0  0  0  0  0  0  0  0  0  0  # atno 17320 bound_to 7965
  144.6747  140.0543  143.7478 LP  0  0  0  0  0  0  0  0  0  0  0  0  # atno 17321 bound_to 7965
  140.6002  143.2167  151.7088 LP  0  0  0  0  0  0  0  0  0  0  0  0  # atno 17342 bound_to 10162
  139.5031  144.3805  152.0380 LP  0  0  0  0  0  0  0  0  0  0  0  0  # atno 17343 bound_to 10162
  156.3007  130.7175  151.2046 LP  0  0  0  0  0  0  0  0  0  0  0  0  # atno 17370 bound_to 10713
  157.7412  131.0507  150.5113 LP  0  0  0  0  0  0  0  0  0  0  0  0  # atno 17371 bound_to 10713
  141.0703  134.0215  157.3535 LP  0  0  0  0  0  0  0  0  0  0  0  0  # atno 17394 bound_to 11000
  139.9131  135.0193  156.7774 LP  0  0  0  0  0  0  0  0  0  0  0  0  # atno 17395 bound_to 11000

$$$$
