AV-unprocessed.smi:2319|AV-procd|sdf|9278|dock1
  -GOLD-   2272012503D 1   1.00000     0.00000
 Structure written by MMmdl.
 46 47  0  0  0  0  0  0  0  0  1 V2000
  153.1586  138.3981  154.7406 C   0  0  0  0  0  0  0  0  0  0  0  0
  151.7394  137.9286  154.4042 C   0  0  0  0  0  0  0  0  0  0  0  0
  150.7248  139.0207  154.4942 C   0  0  0  0  0  0  0  0  0  0  0  0
  151.1423  140.2152  154.9898 O   0  0  0  0  0  0  0  0  0  0  0  0
  150.0617  141.1106  154.9892 N   0  0  0  0  0  0  0  0  0  0  0  0
  149.0224  140.4527  154.4967 C   0  0  0  0  0  0  0  0  0  0  0  0
  147.7189  141.1787  154.3133 C   0  0  0  0  0  0  0  0  0  0  0  0
  149.3975  139.1106  154.1949 C   0  0  0  0  0  0  0  0  0  0  0  0
  148.6256  138.0648  153.6305 N   0  0  0  0  0  0  0  0  0  0  0  0
  147.3655  137.7351  153.9504 C   0  0  0  0  0  0  0  0  0  0  0  0
  146.6855  138.3009  154.8059 O   0  0  0  0  0  0  0  0  0  0  0  0
  146.9417  136.6822  153.2388 N   0  0  0  0  0  0  0  0  0  0  0  0
  145.6387  136.0370  153.3873 C   0  0  1  0  0  0  0  0  0  0  0  0
  144.5357  137.0508  153.6179 C   0  0  0  0  0  0  0  0  0  0  0  0
  143.2774  136.3090  153.1497 C   0  0  0  0  0  0  0  0  0  0  0  0
  142.6095  135.5301  154.2957 C   0  0  0  0  0  0  0  0  0  0  0  0
  142.2720  137.2447  152.4608 C   0  0  0  0  0  0  0  0  0  0  0  0
  143.7325  135.3508  152.1952 O   0  0  0  0  0  0  0  0  0  0  0  0
  145.1564  135.3054  152.1159 C   0  0  0  0  0  0  0  0  0  0  0  0
  145.5448  136.0028  150.7950 C   0  0  0  0  0  0  0  0  0  0  0  0
  145.5804  133.8284  152.0947 C   0  0  0  0  0  0  0  0  0  0  0  0
  153.8684  137.5739  154.6703 H   0  0  0  0  0  0  0  0  0  0  0  0
  153.2102  138.7978  155.7539 H   0  0  0  0  0  0  0  0  0  0  0  0
  153.4878  139.1798  154.0549 H   0  0  0  0  0  0  0  0  0  0  0  0
  151.7259  137.5083  153.3982 H   0  0  0  0  0  0  0  0  0  0  0  0
  151.4619  137.1159  155.0758 H   0  0  0  0  0  0  0  0  0  0  0  0
  147.1876  140.8195  153.4320 H   0  0  0  0  0  0  0  0  0  0  0  0
  147.8732  142.2505  154.1851 H   0  0  0  0  0  0  0  0  0  0  0  0
  147.0696  141.0408  155.1778 H   0  0  0  0  0  0  0  0  0  0  0  0
  149.1125  137.4431  153.0019 H   0  0  0  0  0  0  0  0  0  0  0  0
  147.5719  136.2808  152.5603 H   0  0  0  0  0  0  0  0  0  0  0  0
  145.6482  135.3499  154.2360 H   0  0  0  0  0  0  0  0  0  0  0  0
  144.4769  137.3848  154.6546 H   0  0  0  0  0  0  0  0  0  0  0  0
  144.7064  137.9343  153.0006 H   0  0  0  0  0  0  0  0  0  0  0  0
  142.2472  136.2041  155.0723 H   0  0  0  0  0  0  0  0  0  0  0  0
  143.3034  134.8296  154.7612 H   0  0  0  0  0  0  0  0  0  0  0  0
  141.7577  134.9534  153.9340 H   0  0  0  0  0  0  0  0  0  0  0  0
  141.9102  138.0097  153.1484 H   0  0  0  0  0  0  0  0  0  0  0  0
  141.4073  136.6916  152.0933 H   0  0  0  0  0  0  0  0  0  0  0  0
  142.7235  137.7504  151.6065 H   0  0  0  0  0  0  0  0  0  0  0  0
  146.6222  135.9778  150.6284 H   0  0  0  0  0  0  0  0  0  0  0  0
  145.2297  137.0462  150.7820 H   0  0  0  0  0  0  0  0  0  0  0  0
  145.0742  135.5117  149.9430 H   0  0  0  0  0  0  0  0  0  0  0  0
  146.6641  133.7283  152.0329 H   0  0  0  0  0  0  0  0  0  0  0  0
  145.1513  133.3079  151.2382 H   0  0  0  0  0  0  0  0  0  0  0  0
  145.2488  133.3087  152.9939 H   0  0  0  0  0  0  0  0  0  0  0  0
  1  2  1  0  0  0  0
  1 22  1  0  0  0  0
  1 23  1  0  0  0  0
  1 24  1  0  0  0  0
  2  3  1  0  0  0  0
  2 25  1  0  0  0  0
  2 26  1  0  0  0  0
  3  8  2  0  0  0  0
  3  4  1  0  0  0  0
  4  5  1  0  0  0  0
  5  6  2  0  0  0  0
  6  7  1  0  0  0  0
  6  8  1  0  0  0  0
  7 27  1  0  0  0  0
  7 28  1  0  0  0  0
  7 29  1  0  0  0  0
  8  9  1  0  0  0  0
  9 10  1  0  0  0  0
  9 30  1  0  0  0  0
 10 11  2  0  0  0  0
 10 12  1  0  0  0  0
 12 13  1  0  0  0  0
 12 31  1  0  0  0  0
 13 19  1  0  0  0  0
 13 14  1  0  0  0  0
 13 32  1  0  0  0  0
 14 15  1  0  0  0  0
 14 33  1  0  0  0  0
 14 34  1  0  0  0  0
 15 16  1  0  0  0  0
 15 17  1  0  0  0  0
 15 18  1  0  0  0  0
 16 35  1  0  0  0  0
 16 36  1  0  0  0  0
 16 37  1  0  0  0  0
 17 38  1  0  0  0  0
 17 39  1  0  0  0  0
 17 40  1  0  0  0  0
 18 19  1  0  0  0  0
 19 20  1  0  0  0  0
 19 21  1  0  0  0  0
 20 41  1  0  0  0  0
 20 42  1  0  0  0  0
 20 43  1  0  0  0  0
 21 44  1  0  0  0  0
 21 45  1  0  0  0  0
 21 46  1  0  0  0  0
M  END
> <s_m_source_file>
AV-unprocessed.smi

> <i_m_source_file_index>
2319

> <i_lp_mmshare_version>
43012

> <i_f3d_flags>
0

> <s_epik_input>
W0NIM11bQ0gyXWMxb25jKFtDSDNdKWMxW05IXUMoPU8pW05IXVtDQEBIXShDKE8yKShbQ0gzXSlbQ0gzXSlbQ0gyXUMyKFtDSDNdKVtDSDNd

> <s_epik_cmdline>
J2VwaWtfcHl0aG9uJywgJy1waCcsICc3LjAnLCAnLXRuJywgJzgnLCAnLW1hJywgJzIwMCcsICctbWV0YWxfYmluZGluZycsICctaW1hZScsICc8aW5maWxlLm1hZT4nLCAnLW9tYWUnLCAnPG91dGZpbGUubWFlPic=

> <r_lp_tautomer_probability>
1

> <r_epik_Ionization_Penalty>
3.17207e-05

> <r_epik_Ionization_Penalty_Charging>
0

> <r_epik_Ionization_Penalty_Neutral>
3.17207e-05

> <r_epik_State_Penalty>
-0

> <r_epik_Charging_Adjusted_Penalty>
0

> <i_epik_Tot_Q>
0

> <i_epik_Tot_abs_Q>
0

> <r_epik_Metal_State_Penalty>
-0

> <b_epik_Metal_Only>
0

> <s_lp_Force_Field>
OPLS_2005

> <r_lp_Energy>
19.7342

> <b_lp_Chiralities_Consistent>
1

> <s_lp_Variant>
AV-unprocessed.smi:2319-2

> <Gold.Version>
5.8.1

> <Gold.Id.Protein>
6NUR|6NUR_protein|mol2

> <Gold.PLP.Fitness>
37.4366

> <Gold.PLP.PLP>
-31.4445

> <Gold.PLP.part.hbond>
-3.8948

> <Gold.PLP.part.metal>
0.0000

> <Gold.PLP.part.buried>
-3.9823

> <Gold.PLP.part.nonpolar>
-25.0193

> <Gold.PLP.part.repulsive>
0.4022

> <Gold.PLP.ligand.clash>
0.0000

> <Gold.PLP.ligand.torsion>
0.6987

> <Gold.PLP.Chemscore.Hbond>
2.3690

> <Gold.PLP.Chemscore.CHOScore>
0.0000

> <Gold.PLP.Chemscore.Metal>
0.0000

> <Gold.Chemscore.Hbonds>
donor molecule, donor type, donor heavy atom, donor atom, acceptor molecule, acceptor atom, score
      L1  H     9    30       P1  7948  0.94
      L1  H    12    31       P1  7948  1.00
      P1  H  7989  7998       L1     4  0.38

> <Gold.PLP.Chemscore.Internal.Correction>
0.2826

> <Gold.Rescore>
     Score         DG    S(hbond)    S(metal)    S(lipo)     H(rot)  DE(clash)    DE(int)     intcor
     15.27     -18.05       1.88        0.00      79.15       1.16       0.57       2.21       ----

> <Gold.Chemscore.Fitness>
15.2680

> <Gold.Chemscore.DG>
-18.0509

> <Gold.Chemscore.ZeroCoef>
-5.4800

> <Gold.Chemscore.Hbond>
1.8793

> <Gold.Chemscore.Metal>
0.0000

> <Gold.Chemscore.Lipo>
79.1543

> <Gold.Chemscore.Internal_Hbond>
0.0000

> <Gold.Chemscore.DEClash>
0.5698

> <Gold.Chemscore.DEInternal>
2.2131

> <Gold.Chemscore.Rot>
1.1590

> <Gold.Chemscore.Internal.Correction>
   9.000000E+99

> <Gold.Chemscore.Hbonds>
donor molecule, donor type, donor heavy atom, donor atom, acceptor molecule, acceptor atom, score
      L1  H     9    30       P1  7948  0.90
      L1  H    12    31       P1  7948  0.91

> <Gold.Chemscore.Hbond.Weighted>
-6.2770

> <Gold.Chemscore.Metal.Weighted>
-0.0000

> <Gold.Chemscore.Lipo.Weighted>
-9.2611

> <Gold.Chemscore.Internal_Hbond.Weighted>
0.0000

> <Gold.Chemscore.DEClash.Weighted>
0.5698

> <Gold.Chemscore.DEInternal.Weighted>
2.2131

> <Gold.Chemscore.Rot.Weighted>
2.9671

> <Gold.Chemscore.Internal.Correction.Weighted>
   9.000000E+99

> <Gold.Protein.RotatedTorsions>
[ 6907 6896 6895 6894 ] final   32.13 input  -60.11 | X-H torsion
[ 7974 7965 7964 7962 ] final  -62.83 input  175.53 | X-H torsion
[ 8008 7997 7996 7995 ] final   11.22 input   59.86 | X-H torsion
[ 10167 10162 10161 10158 ] final  106.93 input  -65.29 | X-H torsion
[ 10718 10713 10712 10709 ] final  -62.57 input   66.30 | X-H torsion
[ 10763 10752 10751 10750 ] final  -42.62 input  -60.55 | X-H torsion
[ 11005 11000 10999 10996 ] final   20.19 input  -57.11 | X-H torsion

> <Gold.Protein.ActiveResidues>
 VAL166  LYS551  ARG553  GLY616  TRP617  ASP618  TYR619  PRO620  LYS621  CYS622 
 ASP623  PHE694  ASN695  SER759  ASP760  ASP761  ALA762  ILE779  LEU786  VAL792 
 PHE793  MET794  SER795  GLU796  ALA797  LYS798  CYS799  TRP800  GLU811  SER814 

> <Gold.Protein.RotatedAtoms>
  152.0701  134.9539  160.0574 H   0  0  0  0  0  0  0  0  0  0  0  0  # atno 6907 bound_to 6896
  152.0868  133.4175  159.4534 H   0  0  0  0  0  0  0  0  0  0  0  0  # atno 6908 bound_to 6896
  150.6836  134.2838  159.4681 H   0  0  0  0  0  0  0  0  0  0  0  0  # atno 6909 bound_to 6896
  145.7866  140.8733  143.0303 H   0  0  0  0  0  0  0  0  0  0  0  0  # atno 7974 bound_to 7965
  154.8040  140.2857  155.5901 H   0  0  0  0  0  0  0  0  0  0  0  0  # atno 8008 bound_to 7997
  156.2980  140.2581  156.2843 H   0  0  0  0  0  0  0  0  0  0  0  0  # atno 8009 bound_to 7997
  154.9525  140.0379  157.2140 H   0  0  0  0  0  0  0  0  0  0  0  0  # atno 8010 bound_to 7997
  139.6968  144.7100  151.1253 H   0  0  0  0  0  0  0  0  0  0  0  0  # atno 10167 bound_to 10162
  156.0846  130.4210  150.1154 H   0  0  0  0  0  0  0  0  0  0  0  0  # atno 10718 bound_to 10713
  153.9820  135.6716  153.4750 H   0  0  0  0  0  0  0  0  0  0  0  0  # atno 10763 bound_to 10752
  153.0744  135.4957  154.8369 H   0  0  0  0  0  0  0  0  0  0  0  0  # atno 10764 bound_to 10752
  154.7159  135.3107  154.9086 H   0  0  0  0  0  0  0  0  0  0  0  0  # atno 10765 bound_to 10752
  140.4054  134.1675  155.7665 H   0  0  0  0  0  0  0  0  0  0  0  0  # atno 11005 bound_to 11000
  144.6788  140.0063  143.7484 LP  0  0  0  0  0  0  0  0  0  0  0  0  # atno 17320 bound_to 7965
  146.0020  139.3099  143.0922 LP  0  0  0  0  0  0  0  0  0  0  0  0  # atno 17321 bound_to 7965
  140.7699  143.5480  150.9237 LP  0  0  0  0  0  0  0  0  0  0  0  0  # atno 17342 bound_to 10162
  139.9160  143.6663  152.3106 LP  0  0  0  0  0  0  0  0  0  0  0  0  # atno 17343 bound_to 10162
  156.9178  130.9673  151.3553 LP  0  0  0  0  0  0  0  0  0  0  0  0  # atno 17370 bound_to 10713
  157.5976  130.8489  149.8753 LP  0  0  0  0  0  0  0  0  0  0  0  0  # atno 17371 bound_to 10713
  141.1841  133.8350  157.1151 LP  0  0  0  0  0  0  0  0  0  0  0  0  # atno 17394 bound_to 11000
  140.0306  134.9903  157.0773 LP  0  0  0  0  0  0  0  0  0  0  0  0  # atno 17395 bound_to 11000

$$$$
