#       Name:                AV-unprocessed.smi:2124
#       Creating user name   scv26
#       Creation time:       Fri Mar 27 11:42:09 2020


#       File generated by GOLD software.
#

@<TRIPOS>MOLECULE
AV-unprocessed.smi:2124
    52    54     1
SMALL
NO_CHARGES


@<TRIPOS>ATOM
      1 ****        -4.1118   5.6849  -0.3639 C.3            1 S1                 0.0000
      2 ****        -3.5875   4.2819  -0.5830 C.2            1 S1                 0.0000
      3 ****        -3.4754   3.8371  -1.7764 N.2            1 S1                 0.0000
      4 ****        -2.9949   2.5334  -1.9869 C.2            1 S1                 0.0000
      5 ****        -2.9026   2.0877  -3.4358 C.3            1 S1                 0.0000
      6 ****        -2.6456   1.7333  -0.9391 C.2            1 S1                 0.0000
      7 ****        -2.1213   0.3075  -1.1029 C.3            1 S1                 0.0000
      8 ****        -0.6021   0.1642  -1.2235 C.2            1 S1                 0.0000
      9 ****         0.0627   1.0170  -1.8123 O.2            1 S1                 0.0000
     10 ****        -0.0661  -0.9277  -0.6570 N.am           1 S1                 0.0000
     11 ****         1.3570  -1.2591  -0.6213 C.3            1 S1                 0.0000
     12 ****         1.7391  -1.9768  -1.9295 C.3            1 S1                 0.0000
     13 ****         1.6531  -2.1097   0.6389 C.3            1 S1                 0.0000
     14 ****         1.2333  -1.4246   1.9646 C.3            1 S1                 0.0000
     15 ****         2.5132  -1.4820   2.8162 C.3            1 S1                 0.0000
     16 ****         2.8014  -2.9399   3.2180 C.3            1 S1                 0.0000
     17 ****         3.2750  -3.5671   1.8937 C.3            1 S1                 0.0000
     18 ****         3.1543  -2.3958   0.8996 C.3            1 S1                 0.0000
     19 ****         3.5862  -1.2192   1.7688 C.3            1 S1                 0.0000
     20 ****        -2.7795   2.2872   0.4196 C.2            1 S1                 0.0000
     21 ****        -2.4575   1.6126   1.3972 O.2            1 S1                 0.0000
     22 ****        -3.2615   3.5569   0.5413 N.pl3          1 S1                -1.0000
     23 ****        -4.0982   6.2576  -1.2921 H              1 S1                 0.0000
     24 ****        -3.5005   6.2122   0.3692 H              1 S1                 0.0000
     25 ****        -5.1379   5.6487   0.0024 H              1 S1                 0.0000
     26 ****        -3.6034   1.2757  -3.6299 H              1 S1                 0.0000
     27 ****        -1.8960   1.7417  -3.6699 H              1 S1                 0.0000
     28 ****        -3.1402   2.9060  -4.1163 H              1 S1                 0.0000
     29 ****        -2.4854  -0.3110  -0.2812 H              1 S1                 0.0000
     30 ****        -2.5599  -0.1380  -1.9953 H              1 S1                 0.0000
     31 ****        -0.6921  -1.5698  -0.1928 H              1 S1                 0.0000
     32 ****         1.9303  -0.3330  -0.5555 H              1 S1                 0.0000
     33 ****         2.8087  -2.1733  -1.9876 H              1 S1                 0.0000
     34 ****         1.4828  -1.3716  -2.7997 H              1 S1                 0.0000
     35 ****         1.2188  -2.9302  -2.0257 H              1 S1                 0.0000
     36 ****         1.1172  -3.0549   0.5361 H              1 S1                 0.0000
     37 ****         0.9463  -0.3839   1.8058 H              1 S1                 0.0000
     38 ****         0.3920  -1.9271   2.4432 H              1 S1                 0.0000
     39 ****         2.5096  -0.7879   3.6570 H              1 S1                 0.0000
     40 ****         3.5903  -2.9900   3.9697 H              1 S1                 0.0000
     41 ****         1.9193  -3.4372   3.6230 H              1 S1                 0.0000
     42 ****         4.3114  -3.8967   1.9774 H              1 S1                 0.0000
     43 ****         2.6755  -4.4298   1.6008 H              1 S1                 0.0000
     44 ****         3.7560  -2.5433   0.0039 H              1 S1                 0.0000
     45 ****         3.4843  -0.2506   1.2768 H              1 S1                 0.0000
     46 ****         4.6017  -1.3171   2.1566 H              1 S1                 0.0000
     47 ****        -3.7278   4.4127  -2.5543 LP             1 S1                 0.0000
     48 ****        -0.3894   1.8120  -2.2169 LP             1 S1                 0.0000
     49 ****         1.0547   0.9147  -1.8860 LP             1 S1                 0.0000
     50 ****        -2.1039   0.6859   1.2706 LP             1 S1                 0.0000
     51 ****        -2.5495   1.9912   2.3181 LP             1 S1                 0.0000
     52 ****        -3.3784   3.9620   1.4480 LP             1 S1                 0.0000
@<TRIPOS>BOND
    1    1    2 1     
    2    1   23 1     
    3    1   24 1     
    4    1   25 1     
    5    2   22 1     
    6    2    3 2     
    7    3    4 1     
    8    4    5 1     
    9    4    6 2     
   10    5   26 1     
   11    5   27 1     
   12    5   28 1     
   13    6    7 1     
   14    6   20 1     
   15    7    8 1     
   16    7   29 1     
   17    7   30 1     
   18    8    9 2     
   19    8   10 am    
   20   10   11 1     
   21   10   31 1     
   22   11   12 1     
   23   11   13 1     
   24   11   32 1     
   25   12   33 1     
   26   12   34 1     
   27   12   35 1     
   28   13   18 1     
   29   13   14 1     
   30   13   36 1     
   31   14   15 1     
   32   14   37 1     
   33   14   38 1     
   34   15   19 1     
   35   15   16 1     
   36   15   39 1     
   37   16   17 1     
   38   16   40 1     
   39   16   41 1     
   40   17   18 1     
   41   17   42 1     
   42   17   43 1     
   43   18   19 1     
   44   18   44 1     
   45   19   45 1     
   46   19   46 1     
   47   20   21 2     
   48   20   22 1     
   49    3   47 1     
   50    9   48 1     
   51    9   49 1     
   52   21   50 1     
   53   21   51 1     
   54   22   52 1     
@<TRIPOS>SUBSTRUCTURE
      1 S1             1
@<TRIPOS>SET
LONE_PAIRS      STATIC     ATOMS    <user>   **** ""
6 47 48 49 50 51 52
DONOR_HYDROGENS      STATIC     ATOMS    <user>   **** ""
1 31
ATOM$BLUE        STATIC     ATOMS    COLORGROUP SYSTEM
6 47 48 49 50 51 52
ATOM$RED        STATIC     ATOMS    COLORGROUP SYSTEM
1 31
