AV-unprocessed.smi:2896|AV-procd|sdf|11138|dock10
  -GOLD-   2272016 13D 1   1.00000     0.00000
 Structure written by MMmdl.
 49 50  0  0  0  0  0  0  0  0  1 V2000
  149.9365  135.7792  157.4366 C   0  0  0  0  0  0  0  0  0  0  0  0
  149.8436  136.8708  158.5178 C   0  0  2  0  0  0  0  0  0  0  0  0
  148.3793  137.2017  158.8859 C   0  0  0  0  0  0  0  0  0  0  0  0
  147.7435  136.1317  159.6494 N   0  0  0  0  0  0  0  0  0  0  0  0
  147.3610  136.1999  160.9364 C   0  0  0  0  0  0  0  0  0  0  0  0
  147.5290  137.2115  161.6193 O   0  0  0  0  0  0  0  0  0  0  0  0
  146.7041  134.9466  161.5702 C   0  0  0  0  0  0  0  0  0  0  0  0
  146.7478  133.8053  160.5232 C   0  0  0  0  0  0  0  0  0  0  0  0
  147.4771  134.4418  162.8157 C   0  0  0  0  0  0  0  0  0  0  0  0
  145.2691  135.3323  161.9784 C   0  0  0  0  0  0  0  0  0  0  0  0
  144.4069  134.3711  162.5602 C   0  0  0  0  0  0  0  0  0  0  0  0
  143.0993  134.7397  162.9276 C   0  0  0  0  0  0  0  0  0  0  0  0
  142.6904  136.0665  162.7003 C   0  0  0  0  0  0  0  0  0  0  0  0
  143.4914  137.0000  162.1480 N   0  0  0  0  0  0  0  0  0  0  0  0
  144.7448  136.6375  161.7999 C   0  0  0  0  0  0  0  0  0  0  0  0
  150.6017  138.1323  158.0476 C   0  0  0  0  0  0  0  0  0  0  0  0
  150.1016  138.7642  156.8250 N   0  0  0  0  0  0  0  0  0  0  0  0
  150.4398  140.1836  156.7389 C   0  0  0  0  0  0  0  0  0  0  0  0
  149.9280  140.8173  155.4334 C   0  0  0  0  0  0  0  0  0  0  0  0
  150.4464  140.1024  154.3167 O   0  0  0  0  0  0  0  0  0  0  0  0
  150.0974  138.7225  154.3399 C   0  0  0  0  0  0  0  0  0  0  0  0
  150.6139  138.0835  155.6403 C   0  0  0  0  0  0  0  0  0  0  0  0
  149.4087  136.0753  156.5293 H   0  0  0  0  0  0  0  0  0  0  0  0
  149.5095  134.8361  157.7776 H   0  0  0  0  0  0  0  0  0  0  0  0
  150.9741  135.5800  157.1672 H   0  0  0  0  0  0  0  0  0  0  0  0
  150.3376  136.4707  159.4028 H   0  0  0  0  0  0  0  0  0  0  0  0
  148.3461  138.0945  159.5106 H   0  0  0  0  0  0  0  0  0  0  0  0
  147.8070  137.4435  157.9888 H   0  0  0  0  0  0  0  0  0  0  0  0
  147.5765  135.2654  159.1581 H   0  0  0  0  0  0  0  0  0  0  0  0
  146.2245  134.0625  159.6013 H   0  0  0  0  0  0  0  0  0  0  0  0
  146.2987  132.8905  160.9119 H   0  0  0  0  0  0  0  0  0  0  0  0
  147.7750  133.5620  160.2478 H   0  0  0  0  0  0  0  0  0  0  0  0
  147.5272  135.1840  163.6129 H   0  0  0  0  0  0  0  0  0  0  0  0
  148.5016  134.1627  162.5651 H   0  0  0  0  0  0  0  0  0  0  0  0
  146.9973  133.5577  163.2372 H   0  0  0  0  0  0  0  0  0  0  0  0
  144.7402  133.3581  162.7302 H   0  0  0  0  0  0  0  0  0  0  0  0
  142.4268  134.0227  163.3746 H   0  0  0  0  0  0  0  0  0  0  0  0
  141.6946  136.3861  162.9696 H   0  0  0  0  0  0  0  0  0  0  0  0
  145.3288  137.4329  161.3642 H   0  0  0  0  0  0  0  0  0  0  0  0
  150.6068  138.8698  158.8517 H   0  0  0  0  0  0  0  0  0  0  0  0
  151.6458  137.8532  157.8988 H   0  0  0  0  0  0  0  0  0  0  0  0
  150.0091  140.7294  157.5772 H   0  0  0  0  0  0  0  0  0  0  0  0
  151.5214  140.3116  156.8030 H   0  0  0  0  0  0  0  0  0  0  0  0
  148.8374  140.8104  155.4032 H   0  0  0  0  0  0  0  0  0  0  0  0
  150.2436  141.8585  155.3681 H   0  0  0  0  0  0  0  0  0  0  0  0
  149.0151  138.6116  154.2578 H   0  0  0  0  0  0  0  0  0  0  0  0
  150.5375  138.2286  153.4737 H   0  0  0  0  0  0  0  0  0  0  0  0
  151.7048  138.1069  155.6430 H   0  0  0  0  0  0  0  0  0  0  0  0
  150.3245  137.0323  155.6627 H   0  0  0  0  0  0  0  0  0  0  0  0
  1  2  1  0  0  0  0
  1 23  1  0  0  0  0
  1 24  1  0  0  0  0
  1 25  1  0  0  0  0
  2  3  1  0  0  0  0
  2 16  1  0  0  0  0
  2 26  1  0  0  0  0
  3  4  1  0  0  0  0
  3 27  1  0  0  0  0
  3 28  1  0  0  0  0
  4  5  1  0  0  0  0
  4 29  1  0  0  0  0
  5  6  2  0  0  0  0
  5  7  1  0  0  0  0
  7  8  1  0  0  0  0
  7  9  1  0  0  0  0
  7 10  1  0  0  0  0
  8 30  1  0  0  0  0
  8 31  1  0  0  0  0
  8 32  1  0  0  0  0
  9 33  1  0  0  0  0
  9 34  1  0  0  0  0
  9 35  1  0  0  0  0
 10 15  1  0  0  0  0
 10 11  2  0  0  0  0
 11 12  1  0  0  0  0
 11 36  1  0  0  0  0
 12 13  2  0  0  0  0
 12 37  1  0  0  0  0
 13 14  1  0  0  0  0
 13 38  1  0  0  0  0
 14 15  2  0  0  0  0
 15 39  1  0  0  0  0
 16 17  1  0  0  0  0
 16 40  1  0  0  0  0
 16 41  1  0  0  0  0
 17 22  1  0  0  0  0
 17 18  1  0  0  0  0
 18 19  1  0  0  0  0
 18 42  1  0  0  0  0
 18 43  1  0  0  0  0
 19 20  1  0  0  0  0
 19 44  1  0  0  0  0
 19 45  1  0  0  0  0
 20 21  1  0  0  0  0
 21 22  1  0  0  0  0
 21 46  1  0  0  0  0
 21 47  1  0  0  0  0
 22 48  1  0  0  0  0
 22 49  1  0  0  0  0
M  END
> <s_m_source_file>
AV-unprocessed.smi

> <i_m_source_file_index>
2896

> <i_lp_mmshare_version>
43012

> <i_f3d_flags>
0

> <s_epik_input>
W0NIMl0xW0NIMl1PW0NIMl1bQ0gyXU4xW0NIMl1bQ0BIXShbQ0gzXSlbQ0gyXVtOSF1DKD1PKUMoW0NIM10pKFtDSDNdKWMyW2NIXVtjSF1bY0hdbltjSF0y

> <s_epik_cmdline>
J2VwaWtfcHl0aG9uJywgJy1waCcsICc3LjAnLCAnLXRuJywgJzgnLCAnLW1hJywgJzIwMCcsICctbWV0YWxfYmluZGluZycsICctaW1hZScsICc8aW5maWxlLm1hZT4nLCAnLW9tYWUnLCAnPG91dGZpbGUubWFlPic=

> <r_epik_Ionization_Penalty>
0.458454

> <r_epik_Ionization_Penalty_Charging>
0

> <r_epik_Ionization_Penalty_Neutral>
0.458454

> <r_epik_State_Penalty>
0.453234

> <r_epik_Charging_Adjusted_Penalty>
0.453234

> <i_epik_Tot_Q>
0

> <i_epik_Tot_abs_Q>
0

> <r_epik_Metal_State_Penalty>
0.448418

> <b_epik_Metal_Only>
0

> <s_lp_Force_Field>
OPLS_2005

> <r_lp_Energy>
34.6302

> <b_lp_Chiralities_Consistent>
1

> <s_lp_Variant>
AV-unprocessed.smi:2896-3

> <Gold.Version>
5.8.1

> <Gold.Id.Protein>
6NUR|6NUR_protein|mol2

> <Gold.PLP.Fitness>
41.1202

> <Gold.PLP.PLP>
-36.2405

> <Gold.PLP.part.hbond>
-3.0000

> <Gold.PLP.part.metal>
0.0000

> <Gold.PLP.part.buried>
-6.4416

> <Gold.PLP.part.nonpolar>
-26.6583

> <Gold.PLP.part.repulsive>
0.2743

> <Gold.PLP.ligand.clash>
2.6362

> <Gold.PLP.ligand.torsion>
0.4064

> <Gold.PLP.Chemscore.Hbond>
2.7440

> <Gold.PLP.Chemscore.CHOScore>
0.0000

> <Gold.PLP.Chemscore.Metal>
0.0000

> <Gold.Chemscore.Hbonds>
donor molecule, donor type, donor heavy atom, donor atom, acceptor molecule, acceptor atom, score
      P1  H  6931  6943       L1     6  0.94
      P1  H  6934  6947       L1     6  0.80
      P1  H  7989  7998       L1    20  1.00

> <Gold.PLP.Chemscore.Internal.Correction>
0.0968

> <Gold.Rescore>
     Score         DG    S(hbond)    S(metal)    S(lipo)     H(rot)  DE(clash)    DE(int)     intcor
     16.68     -19.45       2.54        0.00      83.83       1.68       0.02       2.74       ----

> <Gold.Chemscore.Fitness>
16.6830

> <Gold.Chemscore.DG>
-19.4474

> <Gold.Chemscore.ZeroCoef>
-5.4800

> <Gold.Chemscore.Hbond>
2.5354

> <Gold.Chemscore.Metal>
0.0000

> <Gold.Chemscore.Lipo>
83.8294

> <Gold.Chemscore.Internal_Hbond>
0.0000

> <Gold.Chemscore.DEClash>
0.0211

> <Gold.Chemscore.DEInternal>
2.7433

> <Gold.Chemscore.Rot>
1.6832

> <Gold.Chemscore.Internal.Correction>
   9.000000E+99

> <Gold.Chemscore.Hbonds>
donor molecule, donor type, donor heavy atom, donor atom, acceptor molecule, acceptor atom, score
      P1  H  6931  6943       L1     6  0.91
      P1  H  6934  6947       L1     6  0.78
      P1  H  7989  7998       L1    20  0.89

> <Gold.Chemscore.Hbond.Weighted>
-8.4683

> <Gold.Chemscore.Metal.Weighted>
-0.0000

> <Gold.Chemscore.Lipo.Weighted>
-9.8080

> <Gold.Chemscore.Internal_Hbond.Weighted>
0.0000

> <Gold.Chemscore.DEClash.Weighted>
0.0211

> <Gold.Chemscore.DEInternal.Weighted>
2.7433

> <Gold.Chemscore.Rot.Weighted>
4.3090

> <Gold.Chemscore.Internal.Correction.Weighted>
   9.000000E+99

> <Gold.Protein.RotatedTorsions>
[ 6907 6896 6895 6894 ] final -134.95 input  -60.11 | X-H torsion
[ 7974 7965 7964 7962 ] final   10.92 input  175.53 | X-H torsion
[ 8008 7997 7996 7995 ] final   16.81 input   59.86 | X-H torsion
[ 10167 10162 10161 10158 ] final  -92.60 input  -65.29 | X-H torsion
[ 10718 10713 10712 10709 ] final -171.55 input   66.30 | X-H torsion
[ 10763 10752 10751 10750 ] final -174.24 input  -60.55 | X-H torsion
[ 11005 11000 10999 10996 ] final  -71.50 input  -57.11 | X-H torsion

> <Gold.Protein.ActiveResidues>
 VAL166  LYS551  ARG553  GLY616  TRP617  ASP618  TYR619  PRO620  LYS621  CYS622 
 ASP623  PHE694  ASN695  SER759  ASP760  ASP761  ALA762  ILE779  LEU786  VAL792 
 PHE793  MET794  SER795  GLU796  ALA797  LYS798  CYS799  TRP800  GLU811  SER814 

> <Gold.Protein.RotatedAtoms>
  150.9920  133.6140  159.2706 H   0  0  0  0  0  0  0  0  0  0  0  0  # atno 6907 bound_to 6896
  151.3357  135.0851  159.9363 H   0  0  0  0  0  0  0  0  0  0  0  0  # atno 6908 bound_to 6896
  152.5249  133.9541  159.7740 H   0  0  0  0  0  0  0  0  0  0  0  0  # atno 6909 bound_to 6896
  146.2380  139.9563  142.8464 H   0  0  0  0  0  0  0  0  0  0  0  0  # atno 7974 bound_to 7965
  154.8823  140.2975  155.5418 H   0  0  0  0  0  0  0  0  0  0  0  0  # atno 8008 bound_to 7997
  156.3022  140.2440  156.3761 H   0  0  0  0  0  0  0  0  0  0  0  0  # atno 8009 bound_to 7997
  154.8704  140.0401  157.1710 H   0  0  0  0  0  0  0  0  0  0  0  0  # atno 8010 bound_to 7997
  140.3331  143.2983  151.9919 H   0  0  0  0  0  0  0  0  0  0  0  0  # atno 10167 bound_to 10162
  156.7425  130.9348  151.3111 H   0  0  0  0  0  0  0  0  0  0  0  0  # atno 10718 bound_to 10713
  154.5986  135.2852  155.0560 H   0  0  0  0  0  0  0  0  0  0  0  0  # atno 10763 bound_to 10752
  154.1834  135.6453  153.5044 H   0  0  0  0  0  0  0  0  0  0  0  0  # atno 10764 bound_to 10752
  153.0148  135.5429  154.6696 H   0  0  0  0  0  0  0  0  0  0  0  0  # atno 10765 bound_to 10752
  141.1593  133.6819  156.6915 H   0  0  0  0  0  0  0  0  0  0  0  0  # atno 11005 bound_to 11000
  145.1813  140.9768  143.4264 LP  0  0  0  0  0  0  0  0  0  0  0  0  # atno 17320 bound_to 7965
  144.9939  139.3663  143.6201 LP  0  0  0  0  0  0  0  0  0  0  0  0  # atno 17321 bound_to 7965
  139.4853  144.6218  151.7240 LP  0  0  0  0  0  0  0  0  0  0  0  0  # atno 17342 bound_to 10162
  140.5378  144.0627  150.6077 LP  0  0  0  0  0  0  0  0  0  0  0  0  # atno 17343 bound_to 10162
  157.6812  130.9142  150.0272 LP  0  0  0  0  0  0  0  0  0  0  0  0  # atno 17370 bound_to 10713
  156.1455  130.3642  149.9517 LP  0  0  0  0  0  0  0  0  0  0  0  0  # atno 17371 bound_to 10713
  140.3027  134.8151  157.4111 LP  0  0  0  0  0  0  0  0  0  0  0  0  # atno 17394 bound_to 11000
  140.1248  134.5172  155.8154 LP  0  0  0  0  0  0  0  0  0  0  0  0  # atno 17395 bound_to 11000

$$$$
