AV-unprocessed.smi:2062|AV-procd|sdf|8403|dock7
  -GOLD-   2272011 93D 1   1.00000     0.00000
 Structure written by MMmdl.
 42 43  0  0  0  0  0  0  0  0  3 V2000
  150.5896  142.9289  158.9433 C   0  0  0  0  0  0  0  0  0  0  0  0
  151.2445  141.5464  158.8075 C   0  0  0  0  0  0  0  0  0  0  0  0
  152.6604  141.5636  159.4079 C   0  0  0  0  0  0  0  0  0  0  0  0
  151.2478  141.0900  157.3320 C   0  0  0  0  0  0  0  0  0  0  0  0
  151.7704  139.7084  157.1497 N   0  3  2  0  0  0  0  0  0  0  0  0
  152.1546  139.3998  155.7508 C   0  0  0  0  0  0  0  0  0  0  0  0
  150.9173  139.0887  154.8914 C   0  0  0  0  0  0  0  0  0  0  0  0
  150.2025  138.0125  155.4817 O   0  0  0  0  0  0  0  0  0  0  0  0
  149.7050  138.3285  156.7784 C   0  0  1  0  0  0  0  0  0  0  0  0
  148.8762  137.1404  157.2977 C   0  0  0  0  0  0  0  0  0  0  0  0
  148.3356  137.4048  158.6268 N   0  0  0  0  0  0  0  0  0  0  0  0
  148.4028  136.5817  159.6823 C   0  0  0  0  0  0  0  0  0  0  0  0
  148.9888  135.5010  159.5855 O   0  0  0  0  0  0  0  0  0  0  0  0
  147.7822  137.0612  160.7833 N   0  5  0  0  0  0  0  0  0  0  0  0
  146.8974  136.2947  161.4417 C   0  0  0  0  0  0  0  0  0  0  0  0
  145.5816  136.5389  161.4476 N   0  0  0  0  0  0  0  0  0  0  0  0
  144.8499  135.6177  162.1994 C   0  0  0  0  0  0  0  0  0  0  0  0
  145.6276  134.6556  162.7874 C   0  0  0  0  0  0  0  0  0  0  0  0
  147.3123  134.8783  162.4108 S   0  0  0  0  0  0  0  0  0  0  0  0
  150.9062  138.6322  157.7014 C   0  0  0  0  0  0  0  0  0  0  0  0
  151.1456  143.6881  158.3919 H   0  0  0  0  0  0  0  0  0  0  0  0
  150.5454  143.2427  159.9867 H   0  0  0  0  0  0  0  0  0  0  0  0
  149.5683  142.9206  158.5613 H   0  0  0  0  0  0  0  0  0  0  0  0
  150.6403  140.8561  159.3954 H   0  0  0  0  0  0  0  0  0  0  0  0
  153.3156  142.2427  158.8614 H   0  0  0  0  0  0  0  0  0  0  0  0
  153.1161  140.5734  159.3888 H   0  0  0  0  0  0  0  0  0  0  0  0
  152.6403  141.8894  160.4484 H   0  0  0  0  0  0  0  0  0  0  0  0
  150.2475  141.1699  156.9066 H   0  0  0  0  0  0  0  0  0  0  0  0
  151.8678  141.7869  156.7665 H   0  0  0  0  0  0  0  0  0  0  0  0
  152.7346  140.2155  155.3180 H   0  0  0  0  0  0  0  0  0  0  0  0
  152.8120  138.5295  155.7602 H   0  0  0  0  0  0  0  0  0  0  0  0
  150.2726  139.9626  154.7861 H   0  0  0  0  0  0  0  0  0  0  0  0
  151.2228  138.7971  153.8866 H   0  0  0  0  0  0  0  0  0  0  0  0
  149.0527  139.2008  156.7141 H   0  0  0  0  0  0  0  0  0  0  0  0
  148.0816  136.8822  156.5955 H   0  0  0  0  0  0  0  0  0  0  0  0
  149.5116  136.2582  157.3790 H   0  0  0  0  0  0  0  0  0  0  0  0
  147.8531  138.2817  158.7577 H   0  0  0  0  0  0  0  0  0  0  0  0
  143.7773  135.7243  162.2622 H   0  0  0  0  0  0  0  0  0  0  0  0
  145.3157  133.8353  163.4157 H   0  0  0  0  0  0  0  0  0  0  0  0
  151.5161  137.7335  157.8027 H   0  0  0  0  0  0  0  0  0  0  0  0
  150.5655  138.8782  158.7061 H   0  0  0  0  0  0  0  0  0  0  0  0
  152.6303  139.6854  157.6792 H   0  0  0  0  0  0  0  0  0  0  0  0
  1  2  1  0  0  0  0
  1 21  1  0  0  0  0
  1 22  1  0  0  0  0
  1 23  1  0  0  0  0
  2  3  1  0  0  0  0
  2  4  1  0  0  0  0
  2 24  1  0  0  0  0
  3 25  1  0  0  0  0
  3 26  1  0  0  0  0
  3 27  1  0  0  0  0
  4  5  1  0  0  0  0
  4 28  1  0  0  0  0
  4 29  1  0  0  0  0
  5 20  1  0  0  0  0
  5  6  1  0  0  0  0
  5 42  1  0  0  0  0
  6  7  1  0  0  0  0
  6 30  1  0  0  0  0
  6 31  1  0  0  0  0
  7  8  1  0  0  0  0
  7 32  1  0  0  0  0
  7 33  1  0  0  0  0
  8  9  1  0  0  0  0
  9 10  1  0  0  0  0
  9 20  1  0  0  0  0
  9 34  1  0  0  0  0
 10 11  1  0  0  0  0
 10 35  1  0  0  0  0
 10 36  1  0  0  0  0
 11 12  1  0  0  0  0
 11 37  1  0  0  0  0
 12 13  2  0  0  0  0
 12 14  1  0  0  0  0
 14 15  1  0  0  0  0
 15 19  1  0  0  0  0
 15 16  2  0  0  0  0
 16 17  1  0  0  0  0
 17 18  2  0  0  0  0
 17 38  1  0  0  0  0
 18 19  1  0  0  0  0
 18 39  1  0  0  0  0
 20 40  1  0  0  0  0
 20 41  1  0  0  0  0
M  CHG  1   5   1
M  CHG  1  14  -1
M  END
> <s_m_source_file>
AV-unprocessed.smi

> <i_m_source_file_index>
2062

> <i_lp_mmshare_version>
43012

> <i_f3d_flags>
0

> <s_epik_input>
W0NIM11bQ0hdKFtDSDNdKVtDSDJdTjFbQ0gyXVtDSDJdT1tDQEhdKFtDSDJdMSlbQ0gyXVtOSF1DKD1PKVtOSF1jMm5bY0hdW2NIXXMy

> <s_epik_cmdline>
J2VwaWtfcHl0aG9uJywgJy1waCcsICc3LjAnLCAnLXRuJywgJzgnLCAnLW1hJywgJzIwMCcsICctbWV0YWxfYmluZGluZycsICctaW1hZScsICc8aW5maWxlLm1hZT4nLCAnLW9tYWUnLCAnPG91dGZpbGUubWFlPic=

> <r_lp_tautomer_probability>
0.999

> <r_epik_Ionization_Penalty>
6.35835

> <r_epik_Ionization_Penalty_Charging>
5.49938

> <r_epik_Ionization_Penalty_Neutral>
0.858963

> <r_epik_State_Penalty>
5.49328

> <r_epik_Charging_Adjusted_Penalty>
10.9927

> <i_epik_Tot_Q>
0

> <i_epik_Tot_abs_Q>
2

> <r_epik_Metal_State_Penalty>
1.51523

> <b_epik_Metal_Only>
1

> <s_lp_Force_Field>
OPLS_2005

> <r_lp_Energy>
10.4353

> <b_lp_Chiralities_Consistent>
1

> <s_lp_Variant>
AV-unprocessed.smi:2062-8

> <Gold.Version>
5.8.1

> <Gold.Id.Protein>
6NUR|6NUR_protein|mol2

> <Gold.PLP.Fitness>
42.6279

> <Gold.PLP.PLP>
-31.7507

> <Gold.PLP.part.hbond>
-3.0000

> <Gold.PLP.part.metal>
0.0000

> <Gold.PLP.part.buried>
-5.2386

> <Gold.PLP.part.nonpolar>
-24.6233

> <Gold.PLP.part.repulsive>
0.3132

> <Gold.PLP.ligand.clash>
0.0000

> <Gold.PLP.ligand.torsion>
1.2664

> <Gold.PLP.Chemscore.Hbond>
4.4240

> <Gold.PLP.Chemscore.CHOScore>
0.0000

> <Gold.PLP.Chemscore.Metal>
0.0000

> <Gold.Chemscore.Hbonds>
donor molecule, donor type, donor heavy atom, donor atom, acceptor molecule, acceptor atom, score
      P1  H  6896  6909       L1    13  1.00
      P1  H  6931  6943       L1    14  1.69
      P1  H  6934  6947       L1    14  1.69

> <Gold.PLP.Chemscore.Internal.Correction>
0.1380

> <Gold.Rescore>
     Score         DG    S(hbond)    S(metal)    S(lipo)     H(rot)  DE(clash)    DE(int)     intcor
     15.95     -17.16       2.24        0.00      73.51       1.72       0.01       1.21       ----

> <Gold.Chemscore.Fitness>
15.9487

> <Gold.Chemscore.DG>
-17.1647

> <Gold.Chemscore.ZeroCoef>
-5.4800

> <Gold.Chemscore.Hbond>
2.2413

> <Gold.Chemscore.Metal>
0.0000

> <Gold.Chemscore.Lipo>
73.5069

> <Gold.Chemscore.Internal_Hbond>
0.0000

> <Gold.Chemscore.DEClash>
0.0086

> <Gold.Chemscore.DEInternal>
1.2074

> <Gold.Chemscore.Rot>
1.7194

> <Gold.Chemscore.Internal.Correction>
   9.000000E+99

> <Gold.Chemscore.Hbonds>
donor molecule, donor type, donor heavy atom, donor atom, acceptor molecule, acceptor atom, score
      P1  H  6896  6909       L1    13  0.99
      P1  H  6931  6943       L1    14  0.60
      P1  H  6934  6947       L1    14  0.54

> <Gold.Chemscore.Hbond.Weighted>
-7.4861

> <Gold.Chemscore.Metal.Weighted>
-0.0000

> <Gold.Chemscore.Lipo.Weighted>
-8.6003

> <Gold.Chemscore.Internal_Hbond.Weighted>
0.0000

> <Gold.Chemscore.DEClash.Weighted>
0.0086

> <Gold.Chemscore.DEInternal.Weighted>
1.2074

> <Gold.Chemscore.Rot.Weighted>
4.4017

> <Gold.Chemscore.Internal.Correction.Weighted>
   9.000000E+99

> <Gold.Protein.RotatedTorsions>
[ 6907 6896 6895 6894 ] final   49.21 input  -60.11 | X-H torsion
[ 7974 7965 7964 7962 ] final   79.59 input  175.53 | X-H torsion
[ 8008 7997 7996 7995 ] final -169.72 input   59.86 | X-H torsion
[ 10167 10162 10161 10158 ] final -163.71 input  -65.29 | X-H torsion
[ 10718 10713 10712 10709 ] final -172.37 input   66.30 | X-H torsion
[ 10763 10752 10751 10750 ] final  -11.61 input  -60.55 | X-H torsion
[ 11005 11000 10999 10996 ] final   44.86 input  -57.11 | X-H torsion

> <Gold.Protein.ActiveResidues>
 VAL166  LYS551  ARG553  GLY616  TRP617  ASP618  TYR619  PRO620  LYS621  CYS622 
 ASP623  PHE694  ASN695  SER759  ASP760  ASP761  ALA762  ILE779  LEU786  VAL792 
 PHE793  MET794  SER795  GLU796  ALA797  LYS798  CYS799  TRP800  GLU811  SER814 

> <Gold.Protein.RotatedAtoms>
  152.2882  134.7751  160.0382 H   0  0  0  0  0  0  0  0  0  0  0  0  # atno 6907 bound_to 6896
  151.8307  133.3403  159.3620 H   0  0  0  0  0  0  0  0  0  0  0  0  # atno 6908 bound_to 6896
  150.7219  134.5414  159.5793 H   0  0  0  0  0  0  0  0  0  0  0  0  # atno 6909 bound_to 6896
  145.6622  139.2474  143.1916 H   0  0  0  0  0  0  0  0  0  0  0  0  # atno 7974 bound_to 7965
  155.9088  140.1054  157.1295 H   0  0  0  0  0  0  0  0  0  0  0  0  # atno 8008 bound_to 7997
  154.4036  140.1278  156.4595 H   0  0  0  0  0  0  0  0  0  0  0  0  # atno 8009 bound_to 7997
  155.7335  140.3468  155.5073 H   0  0  0  0  0  0  0  0  0  0  0  0  # atno 8010 bound_to 7997
  139.6302  144.0455  152.2009 H   0  0  0  0  0  0  0  0  0  0  0  0  # atno 10167 bound_to 10162
  156.7546  130.9391  151.3116 H   0  0  0  0  0  0  0  0  0  0  0  0  # atno 10718 bound_to 10713
  153.4863  135.7017  153.5909 H   0  0  0  0  0  0  0  0  0  0  0  0  # atno 10763 bound_to 10752
  153.4101  135.3850  155.2045 H   0  0  0  0  0  0  0  0  0  0  0  0  # atno 10764 bound_to 10752
  154.8719  135.3902  154.4318 H   0  0  0  0  0  0  0  0  0  0  0  0  # atno 10765 bound_to 10752
  140.1512  134.4459  155.8380 H   0  0  0  0  0  0  0  0  0  0  0  0  # atno 11005 bound_to 11000
  146.1116  140.7421  142.9500 LP  0  0  0  0  0  0  0  0  0  0  0  0  # atno 17320 bound_to 7965
  144.7085  140.3947  143.7099 LP  0  0  0  0  0  0  0  0  0  0  0  0  # atno 17321 bound_to 7965
  140.0118  144.6218  150.7640 LP  0  0  0  0  0  0  0  0  0  0  0  0  # atno 17342 bound_to 10162
  140.7434  143.2846  151.3500 LP  0  0  0  0  0  0  0  0  0  0  0  0  # atno 17343 bound_to 10162
  157.6762  130.9096  150.0155 LP  0  0  0  0  0  0  0  0  0  0  0  0  # atno 17370 bound_to 10713
  156.1378  130.3642  149.9629 LP  0  0  0  0  0  0  0  0  0  0  0  0  # atno 17371 bound_to 10713
  141.2199  133.6873  156.7425 LP  0  0  0  0  0  0  0  0  0  0  0  0  # atno 17394 bound_to 11000
  140.2602  134.8473  157.3751 LP  0  0  0  0  0  0  0  0  0  0  0  0  # atno 17395 bound_to 11000

$$$$
