AV-unprocessed.smi:3321|AV-procd|sdf|12771|dock4
  -GOLD-   2272019113D 1   1.00000     0.00000
 Structure written by MMmdl.
 40 41  0  0  0  0  0  0  0  0  1 V2000
  152.8105  138.4934  157.3247 C   0  0  0  0  0  0  0  0  0  0  0  0
  151.5883  138.9383  158.1430 C   0  0  2  0  0  0  0  0  0  0  0  0
  150.5320  137.9130  158.0462 N   0  0  0  0  0  0  0  0  0  0  0  0
  150.0729  137.4223  159.3415 C   0  0  0  0  0  0  0  0  0  0  0  0
  148.6765  136.8045  159.1870 C   0  0  0  0  0  0  0  0  0  0  0  0
  148.1867  136.2797  160.4468 N   0  0  0  0  0  0  0  0  0  0  0  0
  147.9760  134.9644  160.8032 C   0  0  0  0  0  0  0  0  0  0  0  0
  147.5005  134.9621  162.0833 C   0  0  0  0  0  0  0  0  0  0  0  0
  147.4532  136.3420  162.4287 C   0  0  0  0  0  0  0  0  0  0  0  0
  147.8637  137.1282  161.4467 N   0  0  0  0  0  0  0  0  0  0  0  0
  151.1280  140.3424  157.6835 C   0  0  0  0  0  0  0  0  0  0  0  0
  150.6658  140.4553  156.5461 O   0  0  0  0  0  0  0  0  0  0  0  0
  151.2311  141.4046  158.5221 N   0  0  0  0  0  0  0  0  0  0  0  0
  151.9399  141.3261  159.8063 C   0  0  0  0  0  0  0  0  0  0  0  0
  153.2623  142.1068  159.6788 C   0  0  0  0  0  0  0  0  0  0  0  0
  153.0094  143.5611  159.2318 C   0  0  0  0  0  0  0  0  0  0  0  0
  152.0768  143.6333  158.0060 C   0  0  0  0  0  0  0  0  0  0  0  0
  150.8144  142.7841  158.2373 C   0  0  0  0  0  0  0  0  0  0  0  0
  153.6291  139.2096  157.4059 H   0  0  0  0  0  0  0  0  0  0  0  0
  152.5663  138.3882  156.2666 H   0  0  0  0  0  0  0  0  0  0  0  0
  153.1856  137.5312  157.6745 H   0  0  0  0  0  0  0  0  0  0  0  0
  151.8741  138.9700  159.1930 H   0  0  0  0  0  0  0  0  0  0  0  0
  149.7470  138.2393  157.5006 H   0  0  0  0  0  0  0  0  0  0  0  0
  150.7720  136.6754  159.7207 H   0  0  0  0  0  0  0  0  0  0  0  0
  150.0318  138.2305  160.0720 H   0  0  0  0  0  0  0  0  0  0  0  0
  147.9671  137.5503  158.8253 H   0  0  0  0  0  0  0  0  0  0  0  0
  148.6903  135.9971  158.4529 H   0  0  0  0  0  0  0  0  0  0  0  0
  148.1780  134.1494  160.1236 H   0  0  0  0  0  0  0  0  0  0  0  0
  147.2270  134.1056  162.6815 H   0  0  0  0  0  0  0  0  0  0  0  0
  147.1341  136.7926  163.3572 H   0  0  0  0  0  0  0  0  0  0  0  0
  151.3210  141.7580  160.5941 H   0  0  0  0  0  0  0  0  0  0  0  0
  152.1436  140.3018  160.1208 H   0  0  0  0  0  0  0  0  0  0  0  0
  153.7993  142.0953  160.6276 H   0  0  0  0  0  0  0  0  0  0  0  0
  153.9069  141.6095  158.9524 H   0  0  0  0  0  0  0  0  0  0  0  0
  152.5526  144.1097  160.0565 H   0  0  0  0  0  0  0  0  0  0  0  0
  153.9547  144.0601  159.0171 H   0  0  0  0  0  0  0  0  0  0  0  0
  151.8032  144.6696  157.8057 H   0  0  0  0  0  0  0  0  0  0  0  0
  152.6026  143.2733  157.1205 H   0  0  0  0  0  0  0  0  0  0  0  0
  150.1234  142.8764  157.4021 H   0  0  0  0  0  0  0  0  0  0  0  0
  150.2626  143.1744  159.0937 H   0  0  0  0  0  0  0  0  0  0  0  0
  1  2  1  0  0  0  0
  1 19  1  0  0  0  0
  1 20  1  0  0  0  0
  1 21  1  0  0  0  0
  2  3  1  0  0  0  0
  2 11  1  0  0  0  0
  2 22  1  0  0  0  0
  3  4  1  0  0  0  0
  3 23  1  0  0  0  0
  4  5  1  0  0  0  0
  4 24  1  0  0  0  0
  4 25  1  0  0  0  0
  5  6  1  0  0  0  0
  5 26  1  0  0  0  0
  5 27  1  0  0  0  0
  6 10  1  0  0  0  0
  6  7  1  0  0  0  0
  7  8  2  0  0  0  0
  7 28  1  0  0  0  0
  8  9  1  0  0  0  0
  8 29  1  0  0  0  0
  9 10  2  0  0  0  0
  9 30  1  0  0  0  0
 11 12  2  0  0  0  0
 11 13  1  0  0  0  0
 13 18  1  0  0  0  0
 13 14  1  0  0  0  0
 14 15  1  0  0  0  0
 14 31  1  0  0  0  0
 14 32  1  0  0  0  0
 15 16  1  0  0  0  0
 15 33  1  0  0  0  0
 15 34  1  0  0  0  0
 16 17  1  0  0  0  0
 16 35  1  0  0  0  0
 16 36  1  0  0  0  0
 17 18  1  0  0  0  0
 17 37  1  0  0  0  0
 17 38  1  0  0  0  0
 18 39  1  0  0  0  0
 18 40  1  0  0  0  0
M  END
> <s_m_source_file>
AV-unprocessed.smi

> <i_m_source_file_index>
3321

> <i_lp_mmshare_version>
43012

> <i_f3d_flags>
0

> <s_epik_input>
W0NIMl0xW0NIMl1bQ0gyXVtDSDJdW0NIMl1OMUMoPU8pW0NASF0oW0NIM10pW05IXVtDSDJdW0NIMl1uMltjSF1bY0hdW2NIXW4y

> <s_epik_cmdline>
J2VwaWtfcHl0aG9uJywgJy1waCcsICc3LjAnLCAnLXRuJywgJzgnLCAnLW1hJywgJzIwMCcsICctbWV0YWxfYmluZGluZycsICctaW1hZScsICc8aW5maWxlLm1hZT4nLCAnLW9tYWUnLCAnPG91dGZpbGUubWFlPic=

> <r_lp_tautomer_probability>
1

> <r_epik_Ionization_Penalty>
0.736446

> <r_epik_Ionization_Penalty_Charging>
0

> <r_epik_Ionization_Penalty_Neutral>
0.736446

> <r_epik_State_Penalty>
0.761204

> <r_epik_Charging_Adjusted_Penalty>
0.761204

> <i_epik_Tot_Q>
0

> <i_epik_Tot_abs_Q>
0

> <r_epik_Metal_State_Penalty>
0.760551

> <b_epik_Metal_Only>
0

> <s_lp_Force_Field>
OPLS_2005

> <r_lp_Energy>
27.234

> <b_lp_Chiralities_Consistent>
1

> <s_lp_Variant>
AV-unprocessed.smi:3321-3

> <Gold.Version>
5.8.1

> <Gold.Id.Protein>
6NUR|6NUR_protein|mol2

> <Gold.PLP.Fitness>
40.5411

> <Gold.PLP.PLP>
-37.1914

> <Gold.PLP.part.hbond>
-2.0000

> <Gold.PLP.part.metal>
0.0000

> <Gold.PLP.part.buried>
-3.6588

> <Gold.PLP.part.nonpolar>
-31.8284

> <Gold.PLP.part.repulsive>
0.0131

> <Gold.PLP.ligand.clash>
0.0000

> <Gold.PLP.ligand.torsion>
0.9792

> <Gold.PLP.Chemscore.Hbond>
1.7360

> <Gold.PLP.Chemscore.CHOScore>
0.0000

> <Gold.PLP.Chemscore.Metal>
0.0000

> <Gold.Chemscore.Hbonds>
donor molecule, donor type, donor heavy atom, donor atom, acceptor molecule, acceptor atom, score
      P1  H  6931  6943       L1    10  1.00
      P1  H  6934  6947       L1    10  0.64

> <Gold.PLP.Chemscore.Internal.Correction>
0.1001

> <Gold.Rescore>
     Score         DG    S(hbond)    S(metal)    S(lipo)     H(rot)  DE(clash)    DE(int)     intcor
     16.32     -17.28       1.60        0.00      93.08       1.73       0.02       0.94       ----

> <Gold.Chemscore.Fitness>
16.3178

> <Gold.Chemscore.DG>
-17.2797

> <Gold.Chemscore.ZeroCoef>
-5.4800

> <Gold.Chemscore.Hbond>
1.5963

> <Gold.Chemscore.Metal>
0.0000

> <Gold.Chemscore.Lipo>
93.0828

> <Gold.Chemscore.Internal_Hbond>
0.0000

> <Gold.Chemscore.DEClash>
0.0243

> <Gold.Chemscore.DEInternal>
0.9375

> <Gold.Chemscore.Rot>
1.7277

> <Gold.Chemscore.Internal.Correction>
   9.000000E+99

> <Gold.Chemscore.Hbonds>
donor molecule, donor type, donor heavy atom, donor atom, acceptor molecule, acceptor atom, score
      P1  H  6931  6943       L1    10  0.81
      P1  H  6934  6947       L1    10  0.60

> <Gold.Chemscore.Hbond.Weighted>
-5.3318

> <Gold.Chemscore.Metal.Weighted>
-0.0000

> <Gold.Chemscore.Lipo.Weighted>
-10.8907

> <Gold.Chemscore.Internal_Hbond.Weighted>
0.0000

> <Gold.Chemscore.DEClash.Weighted>
0.0243

> <Gold.Chemscore.DEInternal.Weighted>
0.9375

> <Gold.Chemscore.Rot.Weighted>
4.4228

> <Gold.Chemscore.Internal.Correction.Weighted>
   9.000000E+99

> <Gold.Protein.RotatedTorsions>
[ 6907 6896 6895 6894 ] final   17.71 input  -60.11 | X-H torsion
[ 7974 7965 7964 7962 ] final  135.00 input  175.53 | X-H torsion
[ 8008 7997 7996 7995 ] final  173.17 input   59.86 | X-H torsion
[ 10167 10162 10161 10158 ] final -180.00 input  -65.29 | X-H torsion
[ 10718 10713 10712 10709 ] final   20.28 input   66.30 | X-H torsion
[ 10763 10752 10751 10750 ] final  168.53 input  -60.55 | X-H torsion
[ 11005 11000 10999 10996 ] final -170.24 input  -57.11 | X-H torsion

> <Gold.Protein.ActiveResidues>
 VAL166  LYS551  ARG553  GLY616  TRP617  ASP618  TYR619  PRO620  LYS621  CYS622 
 ASP623  PHE694  ASN695  SER759  ASP760  ASP761  ALA762  ILE779  LEU786  VAL792 
 PHE793  MET794  SER795  GLU796  ALA797  LYS798  CYS799  TRP800  GLU811  SER814 

> <Gold.Protein.RotatedAtoms>
  151.8539  135.0548  160.0461 H   0  0  0  0  0  0  0  0  0  0  0  0  # atno 6907 bound_to 6896
  152.2715  133.5382  159.5450 H   0  0  0  0  0  0  0  0  0  0  0  0  # atno 6908 bound_to 6896
  150.7153  134.0607  159.3872 H   0  0  0  0  0  0  0  0  0  0  0  0  # atno 6909 bound_to 6896
  144.9707  139.4609  143.5434 H   0  0  0  0  0  0  0  0  0  0  0  0  # atno 7974 bound_to 7965
  156.1102  140.1467  156.9349 H   0  0  0  0  0  0  0  0  0  0  0  0  # atno 8008 bound_to 7997
  154.4762  140.0894  156.7310 H   0  0  0  0  0  0  0  0  0  0  0  0  # atno 8009 bound_to 7997
  155.4609  140.3438  155.4315 H   0  0  0  0  0  0  0  0  0  0  0  0  # atno 8010 bound_to 7997
  139.5361  144.2493  152.0797 H   0  0  0  0  0  0  0  0  0  0  0  0  # atno 10167 bound_to 10162
  157.1223  130.6555  149.5927 H   0  0  0  0  0  0  0  0  0  0  0  0  # atno 10718 bound_to 10713
  154.3699  135.2753  155.2272 H   0  0  0  0  0  0  0  0  0  0  0  0  # atno 10763 bound_to 10752
  154.4424  135.5951  153.6141 H   0  0  0  0  0  0  0  0  0  0  0  0  # atno 10764 bound_to 10752
  152.9839  135.6022  154.3929 H   0  0  0  0  0  0  0  0  0  0  0  0  # atno 10765 bound_to 10752
  140.5217  134.5703  157.5050 H   0  0  0  0  0  0  0  0  0  0  0  0  # atno 11005 bound_to 11000
  146.3381  139.8917  142.8808 LP  0  0  0  0  0  0  0  0  0  0  0  0  # atno 17320 bound_to 7965
  145.2564  141.0062  143.3852 LP  0  0  0  0  0  0  0  0  0  0  0  0  # atno 17321 bound_to 7965
  140.1964  144.4701  150.6453 LP  0  0  0  0  0  0  0  0  0  0  0  0  # atno 17342 bound_to 10162
  140.6568  143.2240  151.5950 LP  0  0  0  0  0  0  0  0  0  0  0  0  # atno 17343 bound_to 10162
  155.9826  130.4840  150.6888 LP  0  0  0  0  0  0  0  0  0  0  0  0  # atno 17370 bound_to 10713
  157.4466  131.0867  151.0889 LP  0  0  0  0  0  0  0  0  0  0  0  0  # atno 17371 bound_to 10713
  139.9602  134.7465  156.0253 LP  0  0  0  0  0  0  0  0  0  0  0  0  # atno 17394 bound_to 11000
  141.1330  133.6582  156.3517 LP  0  0  0  0  0  0  0  0  0  0  0  0  # atno 17395 bound_to 11000

$$$$
