AV-unprocessed.smi:1432|AV-procd|sdf|5832|dock5
  -GOLD-   22720 5493D 1   1.00000     0.00000
 Structure written by MMmdl.
 47 48  0  0  0  0  0  0  0  0  2 V2000
  152.3419  138.8179  154.7885 C   0  0  0  0  0  0  0  0  0  0  0  0
  151.4150  138.9298  156.0188 C   0  0  1  0  0  0  0  0  0  0  0  0
  151.7426  140.1595  156.8920 C   0  0  0  0  0  0  0  0  0  0  0  0
  151.2923  141.4721  156.2341 C   0  0  0  0  0  0  0  0  0  0  0  0
  149.8046  141.3941  155.8707 C   0  0  0  0  0  0  0  0  0  0  0  0
  149.5081  140.1609  155.0015 C   0  0  0  0  0  0  0  0  0  0  0  0
  149.9623  138.9114  155.6708 N   0  3  1  0  0  0  0  0  0  0  0  0
  149.5308  137.6728  154.9738 C   0  0  0  0  0  0  0  0  0  0  0  0
  149.3417  136.4939  155.9477 C   0  0  0  0  0  0  0  0  0  0  0  0
  148.4312  136.8367  157.0341 N   0  0  0  0  0  0  0  0  0  0  0  0
  148.6971  136.6726  158.3390 C   0  0  0  0  0  0  0  0  0  0  0  0
  149.7596  136.2053  158.7518 O   0  0  0  0  0  0  0  0  0  0  0  0
  147.5834  137.0949  159.3084 C   0  0  0  0  0  0  0  0  0  0  0  0
  147.2709  136.0753  160.3240 N   0  0  0  0  0  0  0  0  0  0  0  0
  146.8418  134.8185  159.8545 C   0  0  0  0  0  0  0  0  0  0  0  0
  146.5463  133.7914  160.6736 C   0  0  0  0  0  0  0  0  0  0  0  0
  146.0473  132.4618  160.1301 C   0  0  0  0  0  0  0  0  0  0  0  0
  144.8039  132.2377  160.5529 F   0  0  0  0  0  0  0  0  0  0  0  0
  146.0432  132.4531  158.7971 F   0  0  0  0  0  0  0  0  0  0  0  0
  146.8152  131.4573  160.5536 F   0  0  0  0  0  0  0  0  0  0  0  0
  146.6594  134.0473  162.0962 C   0  0  0  0  0  0  0  0  0  0  0  0
  147.0639  135.2452  162.5623 C   0  0  0  0  0  0  0  0  0  0  0  0
  147.4073  136.3446  161.6570 C   0  0  0  0  0  0  0  0  0  0  0  0
  147.7951  137.4376  162.0702 O   0  0  0  0  0  0  0  0  0  0  0  0
  153.3878  138.8128  155.0960 H   0  0  0  0  0  0  0  0  0  0  0  0
  152.2137  139.6475  154.0942 H   0  0  0  0  0  0  0  0  0  0  0  0
  152.1711  137.8946  154.2352 H   0  0  0  0  0  0  0  0  0  0  0  0
  151.6040  138.0513  156.6377 H   0  0  0  0  0  0  0  0  0  0  0  0
  151.2419  140.0571  157.8558 H   0  0  0  0  0  0  0  0  0  0  0  0
  152.8105  140.1965  157.1104 H   0  0  0  0  0  0  0  0  0  0  0  0
  151.4698  142.3095  156.9097 H   0  0  0  0  0  0  0  0  0  0  0  0
  151.8841  141.6671  155.3393 H   0  0  0  0  0  0  0  0  0  0  0  0
  149.2077  141.3493  156.7827 H   0  0  0  0  0  0  0  0  0  0  0  0
  149.5009  142.3013  155.3474 H   0  0  0  0  0  0  0  0  0  0  0  0
  148.4360  140.1172  154.8139 H   0  0  0  0  0  0  0  0  0  0  0  0
  149.9863  140.2602  154.0267 H   0  0  0  0  0  0  0  0  0  0  0  0
  148.6152  137.8601  154.4107 H   0  0  0  0  0  0  0  0  0  0  0  0
  150.2912  137.3961  154.2423 H   0  0  0  0  0  0  0  0  0  0  0  0
  148.9703  135.6152  155.4170 H   0  0  0  0  0  0  0  0  0  0  0  0
  150.2911  136.2060  156.3976 H   0  0  0  0  0  0  0  0  0  0  0  0
  147.5370  137.2303  156.7771 H   0  0  0  0  0  0  0  0  0  0  0  0
  147.8678  138.0362  159.7825 H   0  0  0  0  0  0  0  0  0  0  0  0
  146.6900  137.3293  158.7275 H   0  0  0  0  0  0  0  0  0  0  0  0
  146.7740  134.7388  158.7791 H   0  0  0  0  0  0  0  0  0  0  0  0
  146.4209  133.2653  162.8019 H   0  0  0  0  0  0  0  0  0  0  0  0
  147.1395  135.3998  163.6286 H   0  0  0  0  0  0  0  0  0  0  0  0
  149.4873  138.8906  156.5620 H   0  0  0  0  0  0  0  0  0  0  0  0
  1  2  1  0  0  0  0
  1 25  1  0  0  0  0
  1 26  1  0  0  0  0
  1 27  1  0  0  0  0
  2  7  1  0  0  0  0
  2  3  1  0  0  0  0
  2 28  1  0  0  0  0
  3  4  1  0  0  0  0
  3 29  1  0  0  0  0
  3 30  1  0  0  0  0
  4  5  1  0  0  0  0
  4 31  1  0  0  0  0
  4 32  1  0  0  0  0
  5  6  1  0  0  0  0
  5 33  1  0  0  0  0
  5 34  1  0  0  0  0
  6  7  1  0  0  0  0
  6 35  1  0  0  0  0
  6 36  1  0  0  0  0
  7  8  1  0  0  0  0
  7 47  1  0  0  0  0
  8  9  1  0  0  0  0
  8 37  1  0  0  0  0
  8 38  1  0  0  0  0
  9 10  1  0  0  0  0
  9 39  1  0  0  0  0
  9 40  1  0  0  0  0
 10 11  1  0  0  0  0
 10 41  1  0  0  0  0
 11 12  2  0  0  0  0
 11 13  1  0  0  0  0
 13 14  1  0  0  0  0
 13 42  1  0  0  0  0
 13 43  1  0  0  0  0
 14 23  1  0  0  0  0
 14 15  1  0  0  0  0
 15 16  2  0  0  0  0
 15 44  1  0  0  0  0
 16 17  1  0  0  0  0
 16 21  1  0  0  0  0
 17 18  1  0  0  0  0
 17 19  1  0  0  0  0
 17 20  1  0  0  0  0
 21 22  2  0  0  0  0
 21 45  1  0  0  0  0
 22 23  1  0  0  0  0
 22 46  1  0  0  0  0
 23 24  2  0  0  0  0
M  CHG  1   7   1
M  END
> <s_m_source_file>
AV-unprocessed.smi

> <i_m_source_file_index>
1432

> <i_lp_mmshare_version>
43012

> <i_f3d_flags>
0

> <s_epik_input>
W0NIM11bQ0BASF0xW0NIMl1bQ0gyXVtDSDJdW0NIMl1OMVtDSDJdW0NIMl1bTkhdQyg9TylbQ0gyXW4yW2NIXWMoQyhGKShGKUYpW2NIXVtjSF1jMj1P

> <s_epik_cmdline>
J2VwaWtfcHl0aG9uJywgJy1waCcsICc3LjAnLCAnLXRuJywgJzgnLCAnLW1hJywgJzIwMCcsICctbWV0YWxfYmluZGluZycsICctaW1hZScsICc8aW5maWxlLm1hZT4nLCAnLW9tYWUnLCAnPG91dGZpbGUubWFlPic=

> <r_lp_tautomer_probability>
1

> <r_epik_Ionization_Penalty>
0.00237222

> <r_epik_Ionization_Penalty_Charging>
0.00237213

> <r_epik_Ionization_Penalty_Neutral>
8.2065e-08

> <r_epik_State_Penalty>
0.00163922

> <r_epik_Charging_Adjusted_Penalty>
0.00401135

> <i_epik_Tot_Q>
1

> <i_epik_Tot_abs_Q>
1

> <r_epik_Metal_State_Penalty>
-0

> <b_epik_Metal_Only>
0

> <s_lp_Force_Field>
OPLS_2005

> <r_lp_Energy>
30.8691

> <b_lp_Chiralities_Consistent>
1

> <s_lp_Variant>
AV-unprocessed.smi:1432-2

> <Gold.Version>
5.8.1

> <Gold.Id.Protein>
6NUR|6NUR_protein|mol2

> <Gold.PLP.Fitness>
49.6549

> <Gold.PLP.PLP>
-44.1187

> <Gold.PLP.part.hbond>
-3.0000

> <Gold.PLP.part.metal>
0.0000

> <Gold.PLP.part.buried>
-4.2076

> <Gold.PLP.part.nonpolar>
-36.7147

> <Gold.PLP.part.repulsive>
0.0661

> <Gold.PLP.ligand.clash>
1.4007

> <Gold.PLP.ligand.torsion>
0.4500

> <Gold.PLP.Chemscore.Hbond>
2.5840

> <Gold.PLP.Chemscore.CHOScore>
0.0000

> <Gold.PLP.Chemscore.Metal>
0.0000

> <Gold.Chemscore.Hbonds>
donor molecule, donor type, donor heavy atom, donor atom, acceptor molecule, acceptor atom, score
      P1  H  6896  6907       L1    12  1.00
      P1  H  6931  6943       L1    24  0.79
      P1  H  6934  6947       L1    24  0.50

> <Gold.PLP.Chemscore.Internal.Correction>
0.0849

> <Gold.Rescore>
     Score         DG    S(hbond)    S(metal)    S(lipo)     H(rot)  DE(clash)    DE(int)     intcor
     18.72     -19.18       2.65        0.00      86.95       2.08       0.01       0.46       ----

> <Gold.Chemscore.Fitness>
18.7189

> <Gold.Chemscore.DG>
-19.1823

> <Gold.Chemscore.ZeroCoef>
-5.4800

> <Gold.Chemscore.Hbond>
2.6480

> <Gold.Chemscore.Metal>
0.0000

> <Gold.Chemscore.Lipo>
86.9476

> <Gold.Chemscore.Internal_Hbond>
0.0000

> <Gold.Chemscore.DEClash>
0.0076

> <Gold.Chemscore.DEInternal>
0.4558

> <Gold.Chemscore.Rot>
2.0762

> <Gold.Chemscore.Internal.Correction>
   9.000000E+99

> <Gold.Chemscore.Hbonds>
donor molecule, donor type, donor heavy atom, donor atom, acceptor molecule, acceptor atom, score
      P1  H  6896  6907       L1    12  0.95
      P1  H  6931  6943       L1    24  0.75
      P1  H  6934  6947       L1    24  0.42

> <Gold.Chemscore.Hbond.Weighted>
-8.8445

> <Gold.Chemscore.Metal.Weighted>
-0.0000

> <Gold.Chemscore.Lipo.Weighted>
-10.1729

> <Gold.Chemscore.Internal_Hbond.Weighted>
0.0000

> <Gold.Chemscore.DEClash.Weighted>
0.0076

> <Gold.Chemscore.DEInternal.Weighted>
0.4558

> <Gold.Chemscore.Rot.Weighted>
5.3150

> <Gold.Chemscore.Internal.Correction.Weighted>
   9.000000E+99

> <Gold.Protein.RotatedTorsions>
[ 6907 6896 6895 6894 ] final  -37.50 input  -60.11 | X-H torsion
[ 7974 7965 7964 7962 ] final  -82.21 input  175.53 | X-H torsion
[ 8008 7997 7996 7995 ] final -119.70 input   59.86 | X-H torsion
[ 10167 10162 10161 10158 ] final  153.22 input  -65.29 | X-H torsion
[ 10718 10713 10712 10709 ] final  -12.63 input   66.30 | X-H torsion
[ 10763 10752 10751 10750 ] final  -83.30 input  -60.55 | X-H torsion
[ 11005 11000 10999 10996 ] final   42.28 input  -57.11 | X-H torsion

> <Gold.Protein.ActiveResidues>
 VAL166  LYS551  ARG553  GLY616  TRP617  ASP618  TYR619  PRO620  LYS621  CYS622 
 ASP623  PHE694  ASN695  SER759  ASP760  ASP761  ALA762  ILE779  LEU786  VAL792 
 PHE793  MET794  SER795  GLU796  ALA797  LYS798  CYS799  TRP800  GLU811  SER814 

> <Gold.Protein.RotatedAtoms>
  151.0139  134.9418  159.8022 H   0  0  0  0  0  0  0  0  0  0  0  0  # atno 6907 bound_to 6896
  152.5309  134.2992  159.9082 H   0  0  0  0  0  0  0  0  0  0  0  0  # atno 6908 bound_to 6896
  151.2998  133.4085  159.2673 H   0  0  0  0  0  0  0  0  0  0  0  0  # atno 6909 bound_to 6896
  145.5363  140.9515  143.1575 H   0  0  0  0  0  0  0  0  0  0  0  0  # atno 7974 bound_to 7965
  155.1200  140.0398  157.2747 H   0  0  0  0  0  0  0  0  0  0  0  0  # atno 8008 bound_to 7997
  154.6621  140.2593  155.7072 H   0  0  0  0  0  0  0  0  0  0  0  0  # atno 8009 bound_to 7997
  156.2623  140.2815  156.1097 H   0  0  0  0  0  0  0  0  0  0  0  0  # atno 8010 bound_to 7997
  139.4828  144.5291  151.7751 H   0  0  0  0  0  0  0  0  0  0  0  0  # atno 10167 bound_to 10162
  156.6419  130.4930  149.6092 H   0  0  0  0  0  0  0  0  0  0  0  0  # atno 10718 bound_to 10713
  154.5860  135.5561  153.7232 H   0  0  0  0  0  0  0  0  0  0  0  0  # atno 10763 bound_to 10752
  153.0099  135.6331  154.1915 H   0  0  0  0  0  0  0  0  0  0  0  0  # atno 10764 bound_to 10752
  154.1856  135.2885  155.3018 H   0  0  0  0  0  0  0  0  0  0  0  0  # atno 10765 bound_to 10752
  140.1754  134.4170  155.8232 H   0  0  0  0  0  0  0  0  0  0  0  0  # atno 11005 bound_to 11000
  144.7600  139.6980  143.7238 LP  0  0  0  0  0  0  0  0  0  0  0  0  # atno 17320 bound_to 7965
  146.2011  139.5306  142.9743 LP  0  0  0  0  0  0  0  0  0  0  0  0  # atno 17321 bound_to 7965
  140.4815  144.1442  150.5933 LP  0  0  0  0  0  0  0  0  0  0  0  0  # atno 17342 bound_to 10162
  140.4272  143.2584  151.9641 LP  0  0  0  0  0  0  0  0  0  0  0  0  # atno 17343 bound_to 10162
  156.2152  130.6703  151.1311 LP  0  0  0  0  0  0  0  0  0  0  0  0  # atno 17370 bound_to 10713
  157.7168  131.0705  150.6294 LP  0  0  0  0  0  0  0  0  0  0  0  0  # atno 17371 bound_to 10713
  141.2220  133.6975  156.7837 LP  0  0  0  0  0  0  0  0  0  0  0  0  # atno 17394 bound_to 11000
  140.2329  134.8672  157.3495 LP  0  0  0  0  0  0  0  0  0  0  0  0  # atno 17395 bound_to 11000

$$$$
