AV-unprocessed.smi:248|AV-procd|sdf|1897|dock2
  -GOLD-   2262020563D 1   1.00000     0.00000
 Structure written by MMmdl.
 62 65  0  0  0  0  0  0  0  0  1 V2000
  152.3055  144.4652  159.1394 C   0  0  0  0  0  0  0  0  0  0  0  0
  151.8559  143.0305  159.4547 C   0  0  0  0  0  0  0  0  0  0  0  0
  152.4419  142.5704  160.8009 C   0  0  0  0  0  0  0  0  0  0  0  0
  152.1949  142.0878  158.2758 C   0  0  0  0  0  0  0  0  0  0  0  0
  151.5089  140.7877  158.3545 N   0  0  0  0  0  0  0  0  0  0  0  0
  150.0623  140.8415  158.1009 C   0  0  0  0  0  0  0  0  0  0  0  0
  149.4842  139.4942  157.6578 C   0  0  0  0  0  0  0  0  0  0  0  0
  149.9396  138.4506  158.5649 N   0  0  0  0  0  0  0  0  0  0  0  0
  149.2548  137.2918  158.4241 C   0  0  0  0  0  0  0  0  0  0  0  0
  149.3900  136.5567  157.2889 N   0  0  0  0  0  0  0  0  0  0  0  0
  148.7215  135.4070  157.1564 C   0  0  0  0  0  0  0  0  0  0  0  0
  147.8905  134.8197  158.0206 N   0  0  0  0  0  0  0  0  0  0  0  0
  147.7603  135.5551  159.1628 C   0  0  0  0  0  0  0  0  0  0  0  0
  148.3947  136.7974  159.4390 C   0  0  0  0  0  0  0  0  0  0  0  0
  148.0158  137.2606  160.6917 N   0  0  0  0  0  0  0  0  0  0  0  0
  147.2044  136.3392  161.1347 C   0  0  0  0  0  0  0  0  0  0  0  0
  147.0125  135.2660  160.2918 N   0  0  0  0  0  0  0  0  0  0  0  0
  146.1641  134.1053  160.5292 C   0  0  0  0  0  0  0  0  0  0  0  0
  144.6344  134.3812  160.6913 C   0  0  0  0  0  0  0  0  0  0  0  0
  143.9995  132.9603  160.7746 C   0  0  0  0  0  0  0  0  0  0  0  0
  142.5907  132.9089  160.7297 O   0  0  0  0  0  0  0  0  0  0  0  0
  144.3641  135.2176  161.9728 C   0  0  0  0  0  0  0  0  0  0  0  0
  142.9486  135.8201  162.0416 C   0  0  0  0  0  0  0  0  0  0  0  0
  142.6884  136.5830  160.8706 O   0  0  0  0  0  0  0  0  0  0  0  0
  142.7050  135.7978  159.6858 C   0  0  0  0  0  0  0  0  0  0  0  0
  144.1040  135.1882  159.4740 C   0  0  0  0  0  0  0  0  0  0  0  0
  151.3967  138.2960  158.6789 C   0  0  2  0  0  0  0  0  0  0  0  0
  151.7645  137.4967  159.9501 C   0  0  0  0  0  0  0  0  0  0  0  0
  152.1731  139.6346  158.6251 C   0  0  0  0  0  0  0  0  0  0  0  0
  153.3906  139.6082  158.8121 O   0  0  0  0  0  0  0  0  0  0  0  0
  153.3887  144.5248  159.0285 H   0  0  0  0  0  0  0  0  0  0  0  0
  152.0137  145.1532  159.9333 H   0  0  0  0  0  0  0  0  0  0  0  0
  151.8559  144.8249  158.2133 H   0  0  0  0  0  0  0  0  0  0  0  0
  150.7708  143.0523  159.5627 H   0  0  0  0  0  0  0  0  0  0  0  0
  153.5261  142.4675  160.7455 H   0  0  0  0  0  0  0  0  0  0  0  0
  152.0287  141.6115  161.1131 H   0  0  0  0  0  0  0  0  0  0  0  0
  152.2164  143.2864  161.5918 H   0  0  0  0  0  0  0  0  0  0  0  0
  151.9287  142.5755  157.3372 H   0  0  0  0  0  0  0  0  0  0  0  0
  153.2762  141.9544  158.2143 H   0  0  0  0  0  0  0  0  0  0  0  0
  149.5742  141.1570  159.0240 H   0  0  0  0  0  0  0  0  0  0  0  0
  149.8227  141.5949  157.3498 H   0  0  0  0  0  0  0  0  0  0  0  0
  148.3941  139.5459  157.6419 H   0  0  0  0  0  0  0  0  0  0  0  0
  149.8109  139.2691  156.6407 H   0  0  0  0  0  0  0  0  0  0  0  0
  148.8773  134.8812  156.2259 H   0  0  0  0  0  0  0  0  0  0  0  0
  146.7272  136.4137  162.1011 H   0  0  0  0  0  0  0  0  0  0  0  0
  146.3289  133.4082  159.7063 H   0  0  0  0  0  0  0  0  0  0  0  0
  146.5455  133.6024  161.4191 H   0  0  0  0  0  0  0  0  0  0  0  0
  144.3685  132.3384  159.9583 H   0  0  0  0  0  0  0  0  0  0  0  0
  144.3084  132.4673  161.6972 H   0  0  0  0  0  0  0  0  0  0  0  0
  142.2957  133.3955  159.9752 H   0  0  0  0  0  0  0  0  0  0  0  0
  144.5663  134.6248  162.8654 H   0  0  0  0  0  0  0  0  0  0  0  0
  145.0453  136.0654  162.0139 H   0  0  0  0  0  0  0  0  0  0  0  0
  142.1805  135.0610  162.1819 H   0  0  0  0  0  0  0  0  0  0  0  0
  142.8776  136.4837  162.9038 H   0  0  0  0  0  0  0  0  0  0  0  0
  141.9232  135.0407  159.7195 H   0  0  0  0  0  0  0  0  0  0  0  0
  142.4600  136.4457  158.8442 H   0  0  0  0  0  0  0  0  0  0  0  0
  144.7655  136.0277  159.2696 H   0  0  0  0  0  0  0  0  0  0  0  0
  144.1137  134.5720  158.5743 H   0  0  0  0  0  0  0  0  0  0  0  0
  151.7406  137.7258  157.8142 H   0  0  0  0  0  0  0  0  0  0  0  0
  152.8435  137.3837  160.0600 H   0  0  0  0  0  0  0  0  0  0  0  0
  151.3523  136.4878  159.9291 H   0  0  0  0  0  0  0  0  0  0  0  0
  151.3905  137.9905  160.8480 H   0  0  0  0  0  0  0  0  0  0  0  0
  1  2  1  0  0  0  0
  1 31  1  0  0  0  0
  1 32  1  0  0  0  0
  1 33  1  0  0  0  0
  2  3  1  0  0  0  0
  2  4  1  0  0  0  0
  2 34  1  0  0  0  0
  3 35  1  0  0  0  0
  3 36  1  0  0  0  0
  3 37  1  0  0  0  0
  4  5  1  0  0  0  0
  4 38  1  0  0  0  0
  4 39  1  0  0  0  0
  5 29  1  0  0  0  0
  5  6  1  0  0  0  0
  6  7  1  0  0  0  0
  6 40  1  0  0  0  0
  6 41  1  0  0  0  0
  7  8  1  0  0  0  0
  7 42  1  0  0  0  0
  7 43  1  0  0  0  0
  8  9  1  0  0  0  0
  8 27  1  0  0  0  0
  9 14  1  0  0  0  0
  9 10  2  0  0  0  0
 10 11  1  0  0  0  0
 11 12  2  0  0  0  0
 11 44  1  0  0  0  0
 12 13  1  0  0  0  0
 13 17  1  0  0  0  0
 13 14  2  0  0  0  0
 14 15  1  0  0  0  0
 15 16  2  0  0  0  0
 16 17  1  0  0  0  0
 16 45  1  0  0  0  0
 17 18  1  0  0  0  0
 18 19  1  0  0  0  0
 18 46  1  0  0  0  0
 18 47  1  0  0  0  0
 19 26  1  0  0  0  0
 19 20  1  0  0  0  0
 19 22  1  0  0  0  0
 20 21  1  0  0  0  0
 20 48  1  0  0  0  0
 20 49  1  0  0  0  0
 21 50  1  0  0  0  0
 22 23  1  0  0  0  0
 22 51  1  0  0  0  0
 22 52  1  0  0  0  0
 23 24  1  0  0  0  0
 23 53  1  0  0  0  0
 23 54  1  0  0  0  0
 24 25  1  0  0  0  0
 25 26  1  0  0  0  0
 25 55  1  0  0  0  0
 25 56  1  0  0  0  0
 26 57  1  0  0  0  0
 26 58  1  0  0  0  0
 27 28  1  0  0  0  0
 27 29  1  0  0  0  0
 27 59  1  0  0  0  0
 28 60  1  0  0  0  0
 28 61  1  0  0  0  0
 28 62  1  0  0  0  0
 29 30  2  0  0  0  0
M  END
> <s_m_source_file>
AV-unprocessed.smi

> <i_m_source_file_index>
248

> <i_lp_mmshare_version>
43012

> <i_f3d_flags>
0

> <s_epik_input>
W0NIM11bQ0hdKFtDSDNdKVtDSDJdTjFbQ0gyXVtDSDJdTihbQ0BASF0oW0NIM10pQzE9TyljKG5bY0hdbjIpYyhjMjMpbltjSF1uM1tDSDJdQzQoW0NIMl1bT0hdKVtDSDJdW0NIMl1PW0NIMl1bQ0gyXTQ=

> <s_epik_cmdline>
J2VwaWtfcHl0aG9uJywgJy1waCcsICc3LjAnLCAnLXRuJywgJzgnLCAnLW1hJywgJzIwMCcsICctbWV0YWxfYmluZGluZycsICctaW1hZScsICc8aW5maWxlLm1hZT4nLCAnLW9tYWUnLCAnPG91dGZpbGUubWFlPic=

> <r_lp_tautomer_probability>
1

> <r_epik_Ionization_Penalty>
0.000593973

> <r_epik_Ionization_Penalty_Charging>
0

> <r_epik_Ionization_Penalty_Neutral>
0.000593973

> <r_epik_State_Penalty>
0.000283267

> <r_epik_Charging_Adjusted_Penalty>
0.000283267

> <i_epik_Tot_Q>
0

> <i_epik_Tot_abs_Q>
0

> <r_epik_Metal_State_Penalty>
-0

> <b_epik_Metal_Only>
0

> <s_lp_Force_Field>
OPLS_2005

> <r_lp_Energy>
47.3368

> <b_lp_Chiralities_Consistent>
1

> <s_lp_Variant>
AV-unprocessed.smi:248-2

> <Gold.Version>
5.8.1

> <Gold.Id.Protein>
6NUR|6NUR_protein|mol2

> <Gold.PLP.Fitness>
51.6088

> <Gold.PLP.PLP>
-45.4889

> <Gold.PLP.part.hbond>
-3.7187

> <Gold.PLP.part.metal>
0.0000

> <Gold.PLP.part.buried>
-6.6003

> <Gold.PLP.part.nonpolar>
-34.9966

> <Gold.PLP.part.repulsive>
0.0207

> <Gold.PLP.ligand.clash>
0.0000

> <Gold.PLP.ligand.torsion>
0.3966

> <Gold.PLP.Chemscore.Hbond>
2.1769

> <Gold.PLP.Chemscore.CHOScore>
0.0000

> <Gold.PLP.Chemscore.Metal>
0.0000

> <Gold.Chemscore.Hbonds>
donor molecule, donor type, donor heavy atom, donor atom, acceptor molecule, acceptor atom, score
      P1  H  6931  6943       L1    15  0.80
      P1  H  6934  6947       L1    15  0.74
      P1  H  7997  8009       L1    30  0.60

> <Gold.PLP.Chemscore.Internal.Correction>
0.3823

> <Gold.Rescore>
     Score         DG    S(hbond)    S(metal)    S(lipo)     H(rot)  DE(clash)    DE(int)     intcor
     15.70     -16.00       1.90        0.00      95.80       2.75       0.08       0.22       ----

> <Gold.Chemscore.Fitness>
15.6998

> <Gold.Chemscore.DG>
-16.0033

> <Gold.Chemscore.ZeroCoef>
-5.4800

> <Gold.Chemscore.Hbond>
1.9042

> <Gold.Chemscore.Metal>
0.0000

> <Gold.Chemscore.Lipo>
95.8042

> <Gold.Chemscore.Internal_Hbond>
0.0000

> <Gold.Chemscore.DEClash>
0.0811

> <Gold.Chemscore.DEInternal>
0.2224

> <Gold.Chemscore.Rot>
2.7523

> <Gold.Chemscore.Internal.Correction>
   9.000000E+99

> <Gold.Chemscore.Hbonds>
donor molecule, donor type, donor heavy atom, donor atom, acceptor molecule, acceptor atom, score
      P1  H  6931  6943       L1    15  0.78
      P1  H  6934  6947       L1    15  0.53
      P1  H  7997  8009       L1    30  0.59

> <Gold.Chemscore.Hbond.Weighted>
-6.3602

> <Gold.Chemscore.Metal.Weighted>
-0.0000

> <Gold.Chemscore.Lipo.Weighted>
-11.2091

> <Gold.Chemscore.Internal_Hbond.Weighted>
0.0000

> <Gold.Chemscore.DEClash.Weighted>
0.0811

> <Gold.Chemscore.DEInternal.Weighted>
0.2224

> <Gold.Chemscore.Rot.Weighted>
7.0459

> <Gold.Chemscore.Internal.Correction.Weighted>
   9.000000E+99

> <Gold.Protein.RotatedTorsions>
[ 6907 6896 6895 6894 ] final  -52.20 input  -60.11 | X-H torsion
[ 7974 7965 7964 7962 ] final -176.63 input  175.53 | X-H torsion
[ 8008 7997 7996 7995 ] final  134.04 input   59.86 | X-H torsion
[ 10167 10162 10161 10158 ] final -132.36 input  -65.29 | X-H torsion
[ 10718 10713 10712 10709 ] final  -79.27 input   66.30 | X-H torsion
[ 10763 10752 10751 10750 ] final  -94.22 input  -60.55 | X-H torsion
[ 11005 11000 10999 10996 ] final   81.18 input  -57.11 | X-H torsion

> <Gold.Protein.ActiveResidues>
 VAL166  LYS551  ARG553  GLY616  TRP617  ASP618  TYR619  PRO620  LYS621  CYS622 
 ASP623  PHE694  ASN695  SER759  ASP760  ASP761  ALA762  ILE779  LEU786  VAL792 
 PHE793  MET794  SER795  GLU796  ALA797  LYS798  CYS799  TRP800  GLU811  SER814 

> <Gold.Protein.RotatedAtoms>
  150.8540  134.7874  159.7030 H   0  0  0  0  0  0  0  0  0  0  0  0  # atno 6907 bound_to 6896
  152.4597  134.5209  159.9792 H   0  0  0  0  0  0  0  0  0  0  0  0  # atno 6908 bound_to 6896
  151.5324  133.3408  159.2956 H   0  0  0  0  0  0  0  0  0  0  0  0  # atno 6909 bound_to 6896
  144.7127  140.1142  143.6409 H   0  0  0  0  0  0  0  0  0  0  0  0  # atno 7974 bound_to 7965
  156.2996  140.2506  156.3353 H   0  0  0  0  0  0  0  0  0  0  0  0  # atno 8008 bound_to 7997
  154.9106  140.0403  157.1963 H   0  0  0  0  0  0  0  0  0  0  0  0  # atno 8009 bound_to 7997
  154.8409  140.2890  155.5664 H   0  0  0  0  0  0  0  0  0  0  0  0  # atno 8010 bound_to 7997
  139.9094  143.6512  152.2578 H   0  0  0  0  0  0  0  0  0  0  0  0  # atno 10167 bound_to 10162
  156.0096  130.4541  150.3623 H   0  0  0  0  0  0  0  0  0  0  0  0  # atno 10718 bound_to 10713
  154.7034  135.5166  153.8559 H   0  0  0  0  0  0  0  0  0  0  0  0  # atno 10763 bound_to 10752
  153.0722  135.6605  154.0232 H   0  0  0  0  0  0  0  0  0  0  0  0  # atno 10764 bound_to 10752
  154.0087  135.3004  155.3374 H   0  0  0  0  0  0  0  0  0  0  0  0  # atno 10765 bound_to 10752
  139.9107  134.7977  156.2007 H   0  0  0  0  0  0  0  0  0  0  0  0  # atno 11005 bound_to 11000
  145.9428  139.2680  143.1258 LP  0  0  0  0  0  0  0  0  0  0  0  0  # atno 17320 bound_to 7965
  145.9405  140.8983  143.0310 LP  0  0  0  0  0  0  0  0  0  0  0  0  # atno 17321 bound_to 7965
  139.6956  144.7642  151.1362 LP  0  0  0  0  0  0  0  0  0  0  0  0  # atno 17342 bound_to 10162
  140.7689  143.5529  150.9185 LP  0  0  0  0  0  0  0  0  0  0  0  0  # atno 17343 bound_to 10162
  157.1711  131.0369  151.2795 LP  0  0  0  0  0  0  0  0  0  0  0  0  # atno 17370 bound_to 10713
  157.4228  130.7447  149.6927 LP  0  0  0  0  0  0  0  0  0  0  0  0  # atno 17371 bound_to 10713
  141.0526  133.6881  156.1801 LP  0  0  0  0  0  0  0  0  0  0  0  0  # atno 17394 bound_to 11000
  140.6786  134.4791  157.5588 LP  0  0  0  0  0  0  0  0  0  0  0  0  # atno 17395 bound_to 11000

$$$$
