AV-unprocessed.smi:3068|AV-procd|sdf|11707|dock2
  -GOLD-   2272017113D 1   1.00000     0.00000
 Structure written by MMmdl.
 39 41  0  0  0  0  0  0  0  0  1 V2000
  149.5090  141.3728  154.0341 N   0  0  0  0  0  0  0  0  0  0  0  0
  148.7743  141.1573  154.9018 C   0  0  0  0  0  0  0  0  0  0  0  0
  147.8486  140.8862  155.9945 C   0  0  0  0  0  0  0  0  0  0  0  0
  147.0256  139.8227  155.8429 N   0  0  0  0  0  0  0  0  0  0  0  0
  146.1625  139.5605  156.8473 C   0  0  0  0  0  0  0  0  0  0  0  0
  146.1168  140.3578  158.0071 C   0  0  0  0  0  0  0  0  0  0  0  0
  146.9349  141.4193  158.1673 N   0  0  0  0  0  0  0  0  0  0  0  0
  147.8061  141.6959  157.1647 C   0  0  0  0  0  0  0  0  0  0  0  0
  148.6681  142.7979  157.3179 N   0  0  0  0  0  0  0  0  0  0  0  0
  149.3073  143.1013  158.5931 C   0  0  0  0  0  0  0  0  0  0  0  0
  150.6446  143.8530  158.4186 C   0  0  1  0  0  0  0  0  0  0  0  0
  151.2761  144.2662  159.7616 C   0  0  0  0  0  0  0  0  0  0  0  0
  151.8245  143.1352  160.5004 N   0  0  0  0  0  0  0  0  0  0  0  0
  152.4305  143.5729  161.7574 C   0  0  0  0  0  0  0  0  0  0  0  0
  152.9916  142.4017  162.5783 C   0  0  0  0  0  0  0  0  0  0  0  0
  154.0113  141.6111  161.7466 C   0  0  0  0  0  0  0  0  0  0  0  0
  153.3867  141.1961  160.4058 C   0  0  0  0  0  0  0  0  0  0  0  0
  152.7932  142.4153  159.6689 C   0  0  1  0  0  0  0  0  0  0  0  0
  152.1570  141.9782  158.3347 C   0  0  0  0  0  0  0  0  0  0  0  0
  151.5915  143.0989  157.6591 O   0  0  0  0  0  0  0  0  0  0  0  0
  145.5063  138.7115  156.7255 H   0  0  0  0  0  0  0  0  0  0  0  0
  145.4239  140.1437  158.8073 H   0  0  0  0  0  0  0  0  0  0  0  0
  148.6884  143.5065  156.5984 H   0  0  0  0  0  0  0  0  0  0  0  0
  148.6265  143.6872  159.2112 H   0  0  0  0  0  0  0  0  0  0  0  0
  149.4567  142.1669  159.1327 H   0  0  0  0  0  0  0  0  0  0  0  0
  150.4499  144.7671  157.8574 H   0  0  0  0  0  0  0  0  0  0  0  0
  152.0701  144.9886  159.5662 H   0  0  0  0  0  0  0  0  0  0  0  0
  150.5344  144.7844  160.3705 H   0  0  0  0  0  0  0  0  0  0  0  0
  153.2294  144.2877  161.5541 H   0  0  0  0  0  0  0  0  0  0  0  0
  151.6888  144.1025  162.3563 H   0  0  0  0  0  0  0  0  0  0  0  0
  153.4566  142.7709  163.4926 H   0  0  0  0  0  0  0  0  0  0  0  0
  152.1761  141.7452  162.8846 H   0  0  0  0  0  0  0  0  0  0  0  0
  154.8927  142.2274  161.5648 H   0  0  0  0  0  0  0  0  0  0  0  0
  154.3504  140.7325  162.2962 H   0  0  0  0  0  0  0  0  0  0  0  0
  154.1388  140.7089  159.7845 H   0  0  0  0  0  0  0  0  0  0  0  0
  152.6049  140.4564  160.5843 H   0  0  0  0  0  0  0  0  0  0  0  0
  153.6157  143.0930  159.4328 H   0  0  0  0  0  0  0  0  0  0  0  0
  152.9110  141.5317  157.6860 H   0  0  0  0  0  0  0  0  0  0  0  0
  151.3968  141.2136  158.4964 H   0  0  0  0  0  0  0  0  0  0  0  0
  1  2  3  0  0  0  0
  2  3  1  0  0  0  0
  3  8  1  0  0  0  0
  3  4  2  0  0  0  0
  4  5  1  0  0  0  0
  5  6  2  0  0  0  0
  5 21  1  0  0  0  0
  6  7  1  0  0  0  0
  6 22  1  0  0  0  0
  7  8  2  0  0  0  0
  8  9  1  0  0  0  0
  9 10  1  0  0  0  0
  9 23  1  0  0  0  0
 10 11  1  0  0  0  0
 10 24  1  0  0  0  0
 10 25  1  0  0  0  0
 11 20  1  0  0  0  0
 11 12  1  0  0  0  0
 11 26  1  0  0  0  0
 12 13  1  0  0  0  0
 12 27  1  0  0  0  0
 12 28  1  0  0  0  0
 13 18  1  0  0  0  0
 13 14  1  0  0  0  0
 14 15  1  0  0  0  0
 14 29  1  0  0  0  0
 14 30  1  0  0  0  0
 15 16  1  0  0  0  0
 15 31  1  0  0  0  0
 15 32  1  0  0  0  0
 16 17  1  0  0  0  0
 16 33  1  0  0  0  0
 16 34  1  0  0  0  0
 17 18  1  0  0  0  0
 17 35  1  0  0  0  0
 17 36  1  0  0  0  0
 18 19  1  0  0  0  0
 18 37  1  0  0  0  0
 19 20  1  0  0  0  0
 19 38  1  0  0  0  0
 19 39  1  0  0  0  0
M  END
> <s_m_source_file>
AV-unprocessed.smi

> <i_m_source_file_index>
3068

> <i_lp_mmshare_version>
43012

> <i_f3d_flags>
0

> <s_epik_input>
TiNDYzFuW2NIXVtjSF1uYzFbTkhdW0NIMl1bQ0BIXShbQ0gyXTIpT1tDSDJdW0NAQEhdKE4yMylbQ0gyXVtDSDJdW0NIMl1bQ0gyXTM=

> <s_epik_cmdline>
J2VwaWtfcHl0aG9uJywgJy1waCcsICc3LjAnLCAnLXRuJywgJzgnLCAnLW1hJywgJzIwMCcsICctbWV0YWxfYmluZGluZycsICctaW1hZScsICc8aW5maWxlLm1hZT4nLCAnLW9tYWUnLCAnPG91dGZpbGUubWFlPic=

> <r_epik_Ionization_Penalty>
1.22359

> <r_epik_Ionization_Penalty_Charging>
0

> <r_epik_Ionization_Penalty_Neutral>
1.22359

> <r_epik_State_Penalty>
1.29103

> <r_epik_Charging_Adjusted_Penalty>
1.29103

> <i_epik_Tot_Q>
0

> <i_epik_Tot_abs_Q>
0

> <r_epik_Metal_State_Penalty>
1.29103

> <b_epik_Metal_Only>
0

> <s_lp_Force_Field>
OPLS_2005

> <r_lp_Energy>
49.2936

> <b_lp_Chiralities_Consistent>
1

> <s_lp_Variant>
AV-unprocessed.smi:3068-10

> <Gold.Version>
5.8.1

> <Gold.Id.Protein>
6NUR|6NUR_protein|mol2

> <Gold.PLP.Fitness>
40.1331

> <Gold.PLP.PLP>
-35.5245

> <Gold.PLP.part.hbond>
-3.8556

> <Gold.PLP.part.metal>
0.0000

> <Gold.PLP.part.buried>
-2.5865

> <Gold.PLP.part.nonpolar>
-28.3893

> <Gold.PLP.part.repulsive>
0.4123

> <Gold.PLP.ligand.clash>
0.0000

> <Gold.PLP.ligand.torsion>
0.5048

> <Gold.PLP.Chemscore.Hbond>
1.8698

> <Gold.PLP.Chemscore.CHOScore>
0.0000

> <Gold.PLP.Chemscore.Metal>
0.0000

> <Gold.Chemscore.Hbonds>
donor molecule, donor type, donor heavy atom, donor atom, acceptor molecule, acceptor atom, score
      L1  H     9    23       P1  8028  1.00
      P1  H  7989  7998       L1     1  0.16
      P1  H  8011  8017       L1     1  0.72

> <Gold.PLP.Chemscore.Internal.Correction>
0.0090

> <Gold.Rescore>
     Score         DG    S(hbond)    S(metal)    S(lipo)     H(rot)  DE(clash)    DE(int)     intcor
     18.65     -19.67       2.09        0.00      90.17       1.30       0.57       0.45       ----

> <Gold.Chemscore.Fitness>
18.6477

> <Gold.Chemscore.DG>
-19.6701

> <Gold.Chemscore.ZeroCoef>
-5.4800

> <Gold.Chemscore.Hbond>
2.0876

> <Gold.Chemscore.Metal>
0.0000

> <Gold.Chemscore.Lipo>
90.1745

> <Gold.Chemscore.Internal_Hbond>
0.0000

> <Gold.Chemscore.DEClash>
0.5686

> <Gold.Chemscore.DEInternal>
0.4538

> <Gold.Chemscore.Rot>
1.3019

> <Gold.Chemscore.Internal.Correction>
   9.000000E+99

> <Gold.Chemscore.Hbonds>
donor molecule, donor type, donor heavy atom, donor atom, acceptor molecule, acceptor atom, score
      L1  H     9    23       P1  8028  0.61
      P1  H  7989  7998       L1     1  0.15
      P1  H  8011  8017       L1     1  0.69

> <Gold.Chemscore.Hbond.Weighted>
-6.9724

> <Gold.Chemscore.Metal.Weighted>
-0.0000

> <Gold.Chemscore.Lipo.Weighted>
-10.5504

> <Gold.Chemscore.Internal_Hbond.Weighted>
0.0000

> <Gold.Chemscore.DEClash.Weighted>
0.5686

> <Gold.Chemscore.DEInternal.Weighted>
0.4538

> <Gold.Chemscore.Rot.Weighted>
3.3327

> <Gold.Chemscore.Internal.Correction.Weighted>
   9.000000E+99

> <Gold.Protein.RotatedTorsions>
[ 6907 6896 6895 6894 ] final -179.78 input  -60.11 | X-H torsion
[ 7974 7965 7964 7962 ] final   60.49 input  175.53 | X-H torsion
[ 8008 7997 7996 7995 ] final  -95.80 input   59.86 | X-H torsion
[ 10167 10162 10161 10158 ] final  118.64 input  -65.29 | X-H torsion
[ 10718 10713 10712 10709 ] final -155.79 input   66.30 | X-H torsion
[ 10763 10752 10751 10750 ] final   87.07 input  -60.55 | X-H torsion
[ 11005 11000 10999 10996 ] final  -60.17 input  -57.11 | X-H torsion

> <Gold.Protein.ActiveResidues>
 VAL166  LYS551  ARG553  GLY616  TRP617  ASP618  TYR619  PRO620  LYS621  CYS622 
 ASP623  PHE694  ASN695  SER759  ASP760  ASP761  ALA762  ILE779  LEU786  VAL792 
 PHE793  MET794  SER795  GLU796  ALA797  LYS798  CYS799  TRP800  GLU811  SER814 

> <Gold.Protein.RotatedAtoms>
  151.6590  133.3317  159.3169 H   0  0  0  0  0  0  0  0  0  0  0  0  # atno 6907 bound_to 6896
  150.7923  134.6959  159.6532 H   0  0  0  0  0  0  0  0  0  0  0  0  # atno 6908 bound_to 6896
  152.4004  134.6299  160.0124 H   0  0  0  0  0  0  0  0  0  0  0  0  # atno 6909 bound_to 6896
  145.8955  139.3542  143.0624 H   0  0  0  0  0  0  0  0  0  0  0  0  # atno 7974 bound_to 7965
  154.7661  140.0477  157.1013 H   0  0  0  0  0  0  0  0  0  0  0  0  # atno 8008 bound_to 7997
  154.9878  140.3109  155.4900 H   0  0  0  0  0  0  0  0  0  0  0  0  # atno 8009 bound_to 7997
  156.2913  140.2224  156.4980 H   0  0  0  0  0  0  0  0  0  0  0  0  # atno 8010 bound_to 7997
  139.6098  144.7079  151.2870 H   0  0  0  0  0  0  0  0  0  0  0  0  # atno 10167 bound_to 10162
  156.5177  130.8464  151.2670 H   0  0  0  0  0  0  0  0  0  0  0  0  # atno 10718 bound_to 10713
  153.1632  135.4557  154.9800 H   0  0  0  0  0  0  0  0  0  0  0  0  # atno 10763 bound_to 10752
  154.7912  135.3221  154.7774 H   0  0  0  0  0  0  0  0  0  0  0  0  # atno 10764 bound_to 10752
  153.8261  135.6942  153.4875 H   0  0  0  0  0  0  0  0  0  0  0  0  # atno 10765 bound_to 10752
  141.1277  133.6620  156.5182 H   0  0  0  0  0  0  0  0  0  0  0  0  # atno 11005 bound_to 11000
  145.8856  140.9336  143.0578 LP  0  0  0  0  0  0  0  0  0  0  0  0  # atno 17320 bound_to 7965
  144.6732  140.0838  143.7468 LP  0  0  0  0  0  0  0  0  0  0  0  0  # atno 17321 bound_to 7965
  140.7311  143.6861  150.7960 LP  0  0  0  0  0  0  0  0  0  0  0  0  # atno 17342 bound_to 10162
  140.0454  143.5304  152.2699 LP  0  0  0  0  0  0  0  0  0  0  0  0  # atno 17343 bound_to 10162
  157.7441  130.9928  150.2649 LP  0  0  0  0  0  0  0  0  0  0  0  0  # atno 17370 bound_to 10713
  156.3179  130.3781  149.7601 LP  0  0  0  0  0  0  0  0  0  0  0  0  # atno 17371 bound_to 10713
  140.4313  134.7099  157.4943 LP  0  0  0  0  0  0  0  0  0  0  0  0  # atno 17394 bound_to 11000
  140.0291  134.6432  155.9131 LP  0  0  0  0  0  0  0  0  0  0  0  0  # atno 17395 bound_to 11000

$$$$
