AV-unprocessed.smi:372|AV-procd|sdf|2448|dock5
  -GOLD-   2262022383D 1   1.00000     0.00000
 Structure written by MMmdl.
 22 23  0  0  0  0  0  0  0  0  2 V2000
  151.0522  141.2814  156.2060 C   0  0  0  0  0  0  0  0  0  0  0  0
  151.6491  140.2985  157.2344 C   0  0  2  0  0  0  0  0  0  0  0  0
  152.2659  141.0613  158.4269 C   0  0  0  0  0  0  0  0  0  0  0  0
  152.1991  142.4740  158.5360 C   0  0  0  0  0  0  0  0  0  0  0  0
  152.7704  143.1017  159.6592 C   0  0  0  0  0  0  0  0  0  0  0  0
  153.3865  142.3075  160.6430 C   0  0  0  0  0  0  0  0  0  0  0  0
  153.4011  140.9127  160.4577 C   0  0  0  0  0  0  0  0  0  0  0  0
  152.8556  140.3025  159.3850 N   0  0  0  0  0  0  0  0  0  0  0  0
  152.5928  139.4198  156.5500 N   0  5  0  0  0  0  0  0  0  0  0  0
  152.1819  138.1371  156.6771 C   0  0  0  0  0  0  0  0  0  0  0  0
  152.7340  137.1246  156.2529 O   0  0  0  0  0  0  0  0  0  0  0  0
  151.0308  138.0775  157.3505 N   0  0  0  0  0  0  0  0  0  0  0  0
  150.6033  139.2856  157.7028 C   0  0  0  0  0  0  0  0  0  0  0  0
  149.5487  139.5514  158.2799 O   0  0  0  0  0  0  0  0  0  0  0  0
  150.2848  141.9140  156.6534 H   0  0  0  0  0  0  0  0  0  0  0  0
  150.5925  140.7592  155.3655 H   0  0  0  0  0  0  0  0  0  0  0  0
  151.8222  141.9393  155.8014 H   0  0  0  0  0  0  0  0  0  0  0  0
  151.7201  143.0807  157.7823 H   0  0  0  0  0  0  0  0  0  0  0  0
  152.7343  144.1759  159.7641 H   0  0  0  0  0  0  0  0  0  0  0  0
  153.8345  142.7553  161.5174 H   0  0  0  0  0  0  0  0  0  0  0  0
  153.8627  140.2686  161.1915 H   0  0  0  0  0  0  0  0  0  0  0  0
  150.5337  137.2212  157.5445 H   0  0  0  0  0  0  0  0  0  0  0  0
  1  2  1  0  0  0  0
  1 15  1  0  0  0  0
  1 16  1  0  0  0  0
  1 17  1  0  0  0  0
  2 13  1  0  0  0  0
  2  3  1  0  0  0  0
  2  9  1  0  0  0  0
  3  8  1  0  0  0  0
  3  4  2  0  0  0  0
  4  5  1  0  0  0  0
  4 18  1  0  0  0  0
  5  6  2  0  0  0  0
  5 19  1  0  0  0  0
  6  7  1  0  0  0  0
  6 20  1  0  0  0  0
  7  8  2  0  0  0  0
  7 21  1  0  0  0  0
  9 10  1  0  0  0  0
 10 11  2  0  0  0  0
 10 12  1  0  0  0  0
 12 13  1  0  0  0  0
 12 22  1  0  0  0  0
 13 14  2  0  0  0  0
M  CHG  1   9  -1
M  END
> <s_m_source_file>
AV-unprocessed.smi

> <i_m_source_file_index>
372

> <i_lp_mmshare_version>
43012

> <i_f3d_flags>
0

> <s_epik_input>
Tz1DMVtOSF1DKD1PKVtOSF1bQ0BAXTEoW0NIM10pYzJbY0hdW2NIXVtjSF1bY0hdbjI=

> <s_epik_cmdline>
J2VwaWtfcHl0aG9uJywgJy1waCcsICc3LjAnLCAnLXRuJywgJzgnLCAnLW1hJywgJzIwMCcsICctbWV0YWxfYmluZGluZycsICctaW1hZScsICc8aW5maWxlLm1hZT4nLCAnLW9tYWUnLCAnPG91dGZpbGUubWFlPic=

> <r_lp_tautomer_probability>
1

> <r_epik_Ionization_Penalty>
4.88994

> <r_epik_Ionization_Penalty_Charging>
4.8337

> <r_epik_Ionization_Penalty_Neutral>
0.0562367

> <r_epik_State_Penalty>
4.86848

> <r_epik_Charging_Adjusted_Penalty>
9.70218

> <i_epik_Tot_Q>
-1

> <i_epik_Tot_abs_Q>
1

> <r_epik_Metal_State_Penalty>
1.42536

> <b_epik_Metal_Only>
1

> <s_lp_Force_Field>
OPLS_2005

> <r_lp_Energy>
15.0122

> <b_lp_Chiralities_Consistent>
1

> <s_lp_Variant>
AV-unprocessed.smi:372-6

> <Gold.Version>
5.8.1

> <Gold.Id.Protein>
6NUR|6NUR_protein|mol2

> <Gold.PLP.Fitness>
32.9327

> <Gold.PLP.PLP>
-24.8092

> <Gold.PLP.part.hbond>
-2.0000

> <Gold.PLP.part.metal>
0.0000

> <Gold.PLP.part.buried>
-3.8357

> <Gold.PLP.part.nonpolar>
-19.1047

> <Gold.PLP.part.repulsive>
0.0105

> <Gold.PLP.ligand.clash>
0.0000

> <Gold.PLP.ligand.torsion>
0.0356

> <Gold.PLP.Chemscore.Hbond>
2.7137

> <Gold.PLP.Chemscore.CHOScore>
0.0000

> <Gold.PLP.Chemscore.Metal>
0.0000

> <Gold.Chemscore.Hbonds>
donor molecule, donor type, donor heavy atom, donor atom, acceptor molecule, acceptor atom, score
      P1  H  7997  8009       L1     9  2.00
      P1  H 10752 10763       L1    11  0.74

> <Gold.PLP.Chemscore.Internal.Correction>
0.0536

> <Gold.Rescore>
     Score         DG    S(hbond)    S(metal)    S(lipo)     H(rot)  DE(clash)    DE(int)     intcor
     15.77     -15.80       1.68        0.00      61.98       1.00       0.00       0.03       ----

> <Gold.Chemscore.Fitness>
15.7710

> <Gold.Chemscore.DG>
-15.7978

> <Gold.Chemscore.ZeroCoef>
-5.4800

> <Gold.Chemscore.Hbond>
1.6844

> <Gold.Chemscore.Metal>
0.0000

> <Gold.Chemscore.Lipo>
61.9819

> <Gold.Chemscore.Internal_Hbond>
0.0000

> <Gold.Chemscore.DEClash>
0.0000

> <Gold.Chemscore.DEInternal>
0.0268

> <Gold.Chemscore.Rot>
1.0000

> <Gold.Chemscore.Internal.Correction>
   9.000000E+99

> <Gold.Chemscore.Hbonds>
donor molecule, donor type, donor heavy atom, donor atom, acceptor molecule, acceptor atom, score
      P1  H  7997  8009       L1     9  0.88
      P1  H 10752 10763       L1    11  0.70

> <Gold.Chemscore.Hbond.Weighted>
-5.6259

> <Gold.Chemscore.Metal.Weighted>
-0.0000

> <Gold.Chemscore.Lipo.Weighted>
-7.2519

> <Gold.Chemscore.Internal_Hbond.Weighted>
0.0000

> <Gold.Chemscore.DEClash.Weighted>
0.0000

> <Gold.Chemscore.DEInternal.Weighted>
0.0268

> <Gold.Chemscore.Rot.Weighted>
2.5600

> <Gold.Chemscore.Internal.Correction.Weighted>
   9.000000E+99

> <Gold.Protein.RotatedTorsions>
[ 6907 6896 6895 6894 ] final  -25.99 input  -60.11 | X-H torsion
[ 7974 7965 7964 7962 ] final -168.93 input  175.53 | X-H torsion
[ 8008 7997 7996 7995 ] final -166.34 input   59.86 | X-H torsion
[ 10167 10162 10161 10158 ] final  116.35 input  -65.29 | X-H torsion
[ 10718 10713 10712 10709 ] final -100.44 input   66.30 | X-H torsion
[ 10763 10752 10751 10750 ] final  100.51 input  -60.55 | X-H torsion
[ 11005 11000 10999 10996 ] final   63.52 input  -57.11 | X-H torsion

> <Gold.Protein.ActiveResidues>
 VAL166  LYS551  ARG553  GLY616  TRP617  ASP618  TYR619  PRO620  LYS621  CYS622 
 ASP623  PHE694  ASN695  SER759  ASP760  ASP761  ALA762  ILE779  LEU786  VAL792 
 PHE793  MET794  SER795  GLU796  ALA797  LYS798  CYS799  TRP800  GLU811  SER814 

> <Gold.Protein.RotatedAtoms>
  151.1673  135.0301  159.8735 H   0  0  0  0  0  0  0  0  0  0  0  0  # atno 6907 bound_to 6896
  152.5450  134.1211  159.8409 H   0  0  0  0  0  0  0  0  0  0  0  0  # atno 6908 bound_to 6896
  151.1313  133.4988  159.2631 H   0  0  0  0  0  0  0  0  0  0  0  0  # atno 6909 bound_to 6896
  144.7194  140.2296  143.6306 H   0  0  0  0  0  0  0  0  0  0  0  0  # atno 7974 bound_to 7965
  155.8625  140.0980  157.1604 H   0  0  0  0  0  0  0  0  0  0  0  0  # atno 8008 bound_to 7997
  154.3991  140.1362  156.4040 H   0  0  0  0  0  0  0  0  0  0  0  0  # atno 8009 bound_to 7997
  155.7841  140.3457  155.5316 H   0  0  0  0  0  0  0  0  0  0  0  0  # atno 8010 bound_to 7997
  139.6253  144.7107  151.2547 H   0  0  0  0  0  0  0  0  0  0  0  0  # atno 10167 bound_to 10162
  156.0163  130.5328  150.6817 H   0  0  0  0  0  0  0  0  0  0  0  0  # atno 10718 bound_to 10713
  153.3148  135.4076  155.1367 H   0  0  0  0  0  0  0  0  0  0  0  0  # atno 10763 bound_to 10752
  154.8585  135.3573  154.5675 H   0  0  0  0  0  0  0  0  0  0  0  0  # atno 10764 bound_to 10752
  153.6105  135.7068  153.5407 H   0  0  0  0  0  0  0  0  0  0  0  0  # atno 10765 bound_to 10752
  140.0019  134.6428  155.9916 H   0  0  0  0  0  0  0  0  0  0  0  0  # atno 11005 bound_to 11000
  145.8423  139.2136  143.1820 LP  0  0  0  0  0  0  0  0  0  0  0  0  # atno 17320 bound_to 7965
  146.0335  140.8235  142.9864 LP  0  0  0  0  0  0  0  0  0  0  0  0  # atno 17321 bound_to 7965
  140.7407  143.6579  150.8190 LP  0  0  0  0  0  0  0  0  0  0  0  0  # atno 17342 bound_to 10162
  140.0196  143.5556  152.2806 LP  0  0  0  0  0  0  0  0  0  0  0  0  # atno 17343 bound_to 10162
  157.4518  131.0873  151.0838 LP  0  0  0  0  0  0  0  0  0  0  0  0  # atno 17370 bound_to 10713
  157.1351  130.6119  149.5540 LP  0  0  0  0  0  0  0  0  0  0  0  0  # atno 17371 bound_to 10713
  141.1648  133.6537  156.4443 LP  0  0  0  0  0  0  0  0  0  0  0  0  # atno 17394 bound_to 11000
  140.4711  134.6752  157.5130 LP  0  0  0  0  0  0  0  0  0  0  0  0  # atno 17395 bound_to 11000

$$$$
