AV-unprocessed.smi:2135|AV-procd|sdf|8701|dock6
  -GOLD-   2272011463D 1   1.00000     0.00000
 Structure written by MMmdl.
 43 44  0  0  0  0  0  0  0  0  2 V2000
  152.8478  137.8047  156.5504 C   0  0  0  0  0  0  0  0  0  0  0  0
  152.0760  138.4888  155.0273 S   0  0  0  0  0  0  0  0  0  0  0  0
  152.9043  139.6103  154.5581 O   0  0  0  0  0  0  0  0  0  0  0  0
  151.7835  137.3687  154.1200 O   0  0  0  0  0  0  0  0  0  0  0  0
  150.5571  139.1399  155.5732 N   0  0  0  0  0  0  0  0  0  0  0  0
  150.3192  140.5970  155.5294 C   0  0  0  0  0  0  0  0  0  0  0  0
  149.4388  140.9931  154.3310 C   0  0  0  0  0  0  0  0  0  0  0  0
  148.1351  140.1868  154.3089 C   0  0  0  0  0  0  0  0  0  0  0  0
  148.4552  138.6812  154.2970 C   0  0  2  0  0  0  0  0  0  0  0  0
  147.1724  137.8394  154.2851 C   0  0  0  0  0  0  0  0  0  0  0  0
  146.3981  137.8711  155.2423 O   0  0  0  0  0  0  0  0  0  0  0  0
  146.9608  137.0844  153.1957 N   0  0  0  0  0  0  0  0  0  0  0  0
  145.8136  136.2071  152.9978 C   0  0  0  0  0  0  0  0  0  0  0  0
  146.2257  134.7257  153.0074 C   0  0  0  0  0  0  0  0  0  0  0  0
  145.4244  133.9052  152.0163 C   0  0  0  0  0  0  0  0  0  0  0  0
  145.8007  132.5797  151.7061 C   0  0  0  0  0  0  0  0  0  0  0  0
  145.0369  131.8442  150.7757 C   0  0  0  0  0  0  0  0  0  0  0  0
  143.9148  132.4516  150.1758 C   0  0  0  0  0  0  0  0  0  0  0  0
  143.5855  133.7220  150.4974 N   0  3  0  0  0  0  0  0  0  0  0  0
  144.2904  134.4591  151.3837 C   0  0  0  0  0  0  0  0  0  0  0  0
  149.3339  138.3138  155.5132 C   0  0  0  0  0  0  0  0  0  0  0  0
  153.8059  137.3548  156.2911 H   0  0  0  0  0  0  0  0  0  0  0  0
  152.2039  137.0398  156.9808 H   0  0  0  0  0  0  0  0  0  0  0  0
  153.0170  138.6016  157.2720 H   0  0  0  0  0  0  0  0  0  0  0  0
  149.8258  140.8919  156.4563 H   0  0  0  0  0  0  0  0  0  0  0  0
  151.2654  141.1364  155.5001 H   0  0  0  0  0  0  0  0  0  0  0  0
  149.2130  142.0587  154.3786 H   0  0  0  0  0  0  0  0  0  0  0  0
  149.9803  140.8396  153.3985 H   0  0  0  0  0  0  0  0  0  0  0  0
  147.5340  140.4447  155.1824 H   0  0  0  0  0  0  0  0  0  0  0  0
  147.5473  140.4592  153.4315 H   0  0  0  0  0  0  0  0  0  0  0  0
  149.0091  138.4624  153.3842 H   0  0  0  0  0  0  0  0  0  0  0  0
  147.6455  137.1177  152.4542 H   0  0  0  0  0  0  0  0  0  0  0  0
  145.0614  136.4012  153.7644 H   0  0  0  0  0  0  0  0  0  0  0  0
  145.3543  136.4593  152.0416 H   0  0  0  0  0  0  0  0  0  0  0  0
  147.2883  134.6307  152.7787 H   0  0  0  0  0  0  0  0  0  0  0  0
  146.0875  134.2993  154.0019 H   0  0  0  0  0  0  0  0  0  0  0  0
  146.6646  132.1301  152.1739 H   0  0  0  0  0  0  0  0  0  0  0  0
  145.3085  130.8290  150.5255 H   0  0  0  0  0  0  0  0  0  0  0  0
  143.2756  131.9636  149.4541 H   0  0  0  0  0  0  0  0  0  0  0  0
  143.9298  135.4628  151.5571 H   0  0  0  0  0  0  0  0  0  0  0  0
  149.5975  137.2563  155.4895 H   0  0  0  0  0  0  0  0  0  0  0  0
  148.7769  138.4676  156.4385 H   0  0  0  0  0  0  0  0  0  0  0  0
  142.7698  134.1432  150.0519 H   0  0  0  0  0  0  0  0  0  0  0  0
  1  2  1  0  0  0  0
  1 22  1  0  0  0  0
  1 23  1  0  0  0  0
  1 24  1  0  0  0  0
  2  3  2  0  0  0  0
  2  4  2  0  0  0  0
  2  5  1  0  0  0  0
  5 21  1  0  0  0  0
  5  6  1  0  0  0  0
  6  7  1  0  0  0  0
  6 25  1  0  0  0  0
  6 26  1  0  0  0  0
  7  8  1  0  0  0  0
  7 27  1  0  0  0  0
  7 28  1  0  0  0  0
  8  9  1  0  0  0  0
  8 29  1  0  0  0  0
  8 30  1  0  0  0  0
  9 10  1  0  0  0  0
  9 21  1  0  0  0  0
  9 31  1  0  0  0  0
 10 11  2  0  0  0  0
 10 12  1  0  0  0  0
 12 13  1  0  0  0  0
 12 32  1  0  0  0  0
 13 14  1  0  0  0  0
 13 33  1  0  0  0  0
 13 34  1  0  0  0  0
 14 15  1  0  0  0  0
 14 35  1  0  0  0  0
 14 36  1  0  0  0  0
 15 20  1  0  0  0  0
 15 16  2  0  0  0  0
 16 17  1  0  0  0  0
 16 37  1  0  0  0  0
 17 18  2  0  0  0  0
 17 38  1  0  0  0  0
 18 19  1  0  0  0  0
 18 39  1  0  0  0  0
 19 20  2  0  0  0  0
 19 43  1  0  0  0  0
 20 40  1  0  0  0  0
 21 41  1  0  0  0  0
 21 42  1  0  0  0  0
M  CHG  1  19   1
M  END
> <s_m_source_file>
AV-unprocessed.smi

> <i_m_source_file_index>
2135

> <i_lp_mmshare_version>
43012

> <i_f3d_flags>
0

> <s_epik_input>
W0NIM11TKD1PKSg9TylOMVtDSDJdW0NIMl1bQ0gyXVtDQEhdKFtDSDJdMSlDKD1PKVtOSF1bQ0gyXVtDSDJdYzJbY0hdW2NIXVtjSF1uW2NIXTI=

> <s_epik_cmdline>
J2VwaWtfcHl0aG9uJywgJy1waCcsICc3LjAnLCAnLXRuJywgJzgnLCAnLW1hJywgJzIwMCcsICctbWV0YWxfYmluZGluZycsICctaW1hZScsICc8aW5maWxlLm1hZT4nLCAnLW9tYWUnLCAnPG91dGZpbGUubWFlPic=

> <r_epik_Ionization_Penalty>
2.24912

> <r_epik_Ionization_Penalty_Charging>
2.24912

> <r_epik_Ionization_Penalty_Neutral>
2.62834e-08

> <r_epik_State_Penalty>
2.39611

> <r_epik_Charging_Adjusted_Penalty>
4.64523

> <i_epik_Tot_Q>
1

> <i_epik_Tot_abs_Q>
1

> <r_epik_Metal_State_Penalty>
2.40934

> <b_epik_Metal_Only>
0

> <s_lp_Force_Field>
OPLS_2005

> <r_lp_Energy>
6.9467

> <b_lp_Chiralities_Consistent>
1

> <s_lp_Variant>
AV-unprocessed.smi:2135-4

> <Gold.Version>
5.8.1

> <Gold.Id.Protein>
6NUR|6NUR_protein|mol2

> <Gold.PLP.Fitness>
48.9026

> <Gold.PLP.PLP>
-34.5668

> <Gold.PLP.part.hbond>
-4.6925

> <Gold.PLP.part.metal>
0.0000

> <Gold.PLP.part.buried>
-4.1708

> <Gold.PLP.part.nonpolar>
-26.3868

> <Gold.PLP.part.repulsive>
0.5294

> <Gold.PLP.ligand.clash>
0.0000

> <Gold.PLP.ligand.torsion>
1.4422

> <Gold.PLP.Chemscore.Hbond>
5.0494

> <Gold.PLP.Chemscore.CHOScore>
0.0000

> <Gold.PLP.Chemscore.Metal>
0.0000

> <Gold.Chemscore.Hbonds>
donor molecule, donor type, donor heavy atom, donor atom, acceptor molecule, acceptor atom, score
      L1  H    12    32       P1  7948  0.82
      L1  H    19    43       P1 10186  2.00
      P1  H  7989  7998       L1     3  0.39
      P1  H  7997  8010       L1     3  0.80
      P1  H 10752 10765       L1     4  0.94

> <Gold.PLP.Chemscore.Internal.Correction>
2.0719

> <Gold.Rescore>
     Score         DG    S(hbond)    S(metal)    S(lipo)     H(rot)  DE(clash)    DE(int)     intcor
     21.36     -22.77       3.89        0.00      72.90       1.65       0.08       1.34       ----

> <Gold.Chemscore.Fitness>
21.3598

> <Gold.Chemscore.DG>
-22.7737

> <Gold.Chemscore.ZeroCoef>
-5.4800

> <Gold.Chemscore.Hbond>
3.8917

> <Gold.Chemscore.Metal>
0.0000

> <Gold.Chemscore.Lipo>
72.8994

> <Gold.Chemscore.Internal_Hbond>
0.0000

> <Gold.Chemscore.DEClash>
0.0774

> <Gold.Chemscore.DEInternal>
1.3364

> <Gold.Chemscore.Rot>
1.6538

> <Gold.Chemscore.Internal.Correction>
   9.000000E+99

> <Gold.Chemscore.Hbonds>
donor molecule, donor type, donor heavy atom, donor atom, acceptor molecule, acceptor atom, score
      L1  H    12    32       P1  7948  0.81
      L1  H    19    43       P1 10186  0.97
      P1  H  7989  7998       L1     3  0.24
      P1  H  7997  8010       L1     3  0.74
      P1  H 10752 10765       L1     4  0.84

> <Gold.Chemscore.Hbond.Weighted>
-12.9981

> <Gold.Chemscore.Metal.Weighted>
-0.0000

> <Gold.Chemscore.Lipo.Weighted>
-8.5292

> <Gold.Chemscore.Internal_Hbond.Weighted>
0.0000

> <Gold.Chemscore.DEClash.Weighted>
0.0774

> <Gold.Chemscore.DEInternal.Weighted>
1.3364

> <Gold.Chemscore.Rot.Weighted>
4.2337

> <Gold.Chemscore.Internal.Correction.Weighted>
   9.000000E+99

> <Gold.Protein.RotatedTorsions>
[ 6907 6896 6895 6894 ] final  -29.20 input  -60.11 | X-H torsion
[ 7974 7965 7964 7962 ] final -127.91 input  175.53 | X-H torsion
[ 8008 7997 7996 7995 ] final  109.11 input   59.86 | X-H torsion
[ 10167 10162 10161 10158 ] final  -29.62 input  -65.29 | X-H torsion
[ 10718 10713 10712 10709 ] final   72.74 input   66.30 | X-H torsion
[ 10763 10752 10751 10750 ] final  157.77 input  -60.55 | X-H torsion
[ 11005 11000 10999 10996 ] final    6.34 input  -57.11 | X-H torsion

> <Gold.Protein.ActiveResidues>
 VAL166  LYS551  ARG553  GLY616  TRP617  ASP618  TYR619  PRO620  LYS621  CYS622 
 ASP623  PHE694  ASN695  SER759  ASP760  ASP761  ALA762  ILE779  LEU786  VAL792 
 PHE793  MET794  SER795  GLU796  ALA797  LYS798  CYS799  TRP800  GLU811  SER814 

> <Gold.Protein.RotatedAtoms>
  151.1224  135.0086  159.8544 H   0  0  0  0  0  0  0  0  0  0  0  0  # atno 6907 bound_to 6896
  152.5448  134.1707  159.8605 H   0  0  0  0  0  0  0  0  0  0  0  0  # atno 6908 bound_to 6896
  151.1766  133.4706  159.2627 H   0  0  0  0  0  0  0  0  0  0  0  0  # atno 6909 bound_to 6896
  144.9723  140.7558  143.4663 H   0  0  0  0  0  0  0  0  0  0  0  0  # atno 7974 bound_to 7965
  156.1954  140.3064  155.9417 H   0  0  0  0  0  0  0  0  0  0  0  0  # atno 8008 bound_to 7997
  155.3077  140.0449  157.3050 H   0  0  0  0  0  0  0  0  0  0  0  0  # atno 8009 bound_to 7997
  154.5504  140.2289  155.8504 H   0  0  0  0  0  0  0  0  0  0  0  0  # atno 8010 bound_to 7997
  140.7258  143.3914  151.1423 H   0  0  0  0  0  0  0  0  0  0  0  0  # atno 10167 bound_to 10162
  157.6515  130.9594  150.0971 H   0  0  0  0  0  0  0  0  0  0  0  0  # atno 10718 bound_to 10713
  154.2056  135.2788  155.2976 H   0  0  0  0  0  0  0  0  0  0  0  0  # atno 10763 bound_to 10752
  154.5820  135.5586  153.7197 H   0  0  0  0  0  0  0  0  0  0  0  0  # atno 10764 bound_to 10752
  153.0077  135.6347  154.2194 H   0  0  0  0  0  0  0  0  0  0  0  0  # atno 10765 bound_to 10752
  140.5606  134.0196  155.7970 H   0  0  0  0  0  0  0  0  0  0  0  0  # atno 11005 bound_to 11000
  145.2540  139.2019  143.4927 LP  0  0  0  0  0  0  0  0  0  0  0  0  # atno 17320 bound_to 7965
  146.3385  140.2459  142.8597 LP  0  0  0  0  0  0  0  0  0  0  0  0  # atno 17321 bound_to 7965
  139.7519  143.8765  152.3079 LP  0  0  0  0  0  0  0  0  0  0  0  0  # atno 17342 bound_to 10162
  139.8622  144.7111  150.9086 LP  0  0  0  0  0  0  0  0  0  0  0  0  # atno 17343 bound_to 10162
  156.1904  130.3654  149.8917 LP  0  0  0  0  0  0  0  0  0  0  0  0  # atno 17370 bound_to 10713
  156.6847  130.8872  151.3580 LP  0  0  0  0  0  0  0  0  0  0  0  0  # atno 17371 bound_to 10713
  141.1117  133.9606  157.2898 LP  0  0  0  0  0  0  0  0  0  0  0  0  # atno 17394 bound_to 11000
  139.9410  135.0191  156.8707 LP  0  0  0  0  0  0  0  0  0  0  0  0  # atno 17395 bound_to 11000

$$$$
