AV-unprocessed.smi:102|AV-procd|sdf|957|dock7
  -GOLD-   2262017493D 1   1.00000     0.00000
 Structure written by MMmdl.
 44 45  0  0  0  0  0  0  0  0  1 V2000
  145.3937  133.0530  155.1617 C   0  0  0  0  0  0  0  0  0  0  0  0
  145.2343  133.4443  156.6254 C   0  0  0  0  0  0  0  0  0  0  0  0
  144.9568  132.6081  157.4854 O   0  0  0  0  0  0  0  0  0  0  0  0
  145.4260  134.7559  156.8336 O   0  0  0  0  0  0  0  0  0  0  0  0
  145.3257  135.2772  158.1479 C   0  0  0  0  0  0  0  0  0  0  0  0
  145.7290  136.7645  158.1375 C   0  0  2  0  0  0  0  0  0  0  0  0
  146.9940  136.9038  157.4990 O   0  0  0  0  0  0  0  0  0  0  0  0
  148.0092  136.6792  158.4296 C   0  0  1  0  0  0  0  0  0  0  0  0
  149.1860  137.5655  158.0929 N   0  0  0  0  0  0  0  0  0  0  0  0
  149.1000  138.4718  157.0447 C   0  0  0  0  0  0  0  0  0  0  0  0
  150.1058  139.3158  156.7136 C   0  0  0  0  0  0  0  0  0  0  0  0
  149.9499  140.1617  155.6810 F   0  0  0  0  0  0  0  0  0  0  0  0
  151.3542  139.3193  157.4704 C   0  0  0  0  0  0  0  0  0  0  0  0
  152.3228  140.0422  157.2454 O   0  0  0  0  0  0  0  0  0  0  0  0
  151.3883  138.4076  158.5295 N   0  0  0  0  0  0  0  0  0  0  0  0
  150.3574  137.5355  158.8839 C   0  0  0  0  0  0  0  0  0  0  0  0
  150.4939  136.7900  159.8520 O   0  0  0  0  0  0  0  0  0  0  0  0
  147.4340  136.9514  159.8359 C   0  0  2  0  0  0  0  0  0  0  0  0
  147.4809  135.7620  160.6186 O   0  0  0  0  0  0  0  0  0  0  0  0
  147.6302  135.8378  161.9524 C   0  0  0  0  0  0  0  0  0  0  0  0
  147.3328  134.5166  162.6493 C   0  0  0  0  0  0  0  0  0  0  0  0
  147.9770  136.8344  162.5861 O   0  0  0  0  0  0  0  0  0  0  0  0
  145.9940  137.3598  159.5243 C   0  0  2  0  0  0  0  0  0  0  0  0
  145.0420  136.9451  160.4994 O   0  0  0  0  0  0  0  0  0  0  0  0
  145.0712  137.4624  161.7399 C   0  0  0  0  0  0  0  0  0  0  0  0
  143.9674  136.9032  162.6275 C   0  0  0  0  0  0  0  0  0  0  0  0
  145.8782  138.2910  162.1607 O   0  0  0  0  0  0  0  0  0  0  0  0
  152.2275  138.3829  159.0901 H   0  0  0  0  0  0  0  0  0  0  0  0
  145.6730  133.9145  154.5545 H   0  0  0  0  0  0  0  0  0  0  0  0
  144.4570  132.6498  154.7768 H   0  0  0  0  0  0  0  0  0  0  0  0
  146.1666  132.2917  155.0566 H   0  0  0  0  0  0  0  0  0  0  0  0
  144.2916  135.1717  158.4784 H   0  0  0  0  0  0  0  0  0  0  0  0
  145.9474  134.7039  158.8367 H   0  0  0  0  0  0  0  0  0  0  0  0
  144.9706  137.3477  157.6139 H   0  0  0  0  0  0  0  0  0  0  0  0
  148.3602  135.6524  158.3119 H   0  0  0  0  0  0  0  0  0  0  0  0
  148.1972  138.5133  156.4521 H   0  0  0  0  0  0  0  0  0  0  0  0
  147.9632  137.7646  160.3349 H   0  0  0  0  0  0  0  0  0  0  0  0
  148.2615  133.9896  162.8680 H   0  0  0  0  0  0  0  0  0  0  0  0
  146.7111  133.8778  162.0214 H   0  0  0  0  0  0  0  0  0  0  0  0
  146.8064  134.6933  163.5873 H   0  0  0  0  0  0  0  0  0  0  0  0
  145.9539  138.4448  159.4207 H   0  0  0  0  0  0  0  0  0  0  0  0
  143.8895  135.8228  162.5038 H   0  0  0  0  0  0  0  0  0  0  0  0
  143.0091  137.3525  162.3665 H   0  0  0  0  0  0  0  0  0  0  0  0
  144.1752  137.1159  163.6762 H   0  0  0  0  0  0  0  0  0  0  0  0
  1  2  1  0  0  0  0
  1 29  1  0  0  0  0
  1 30  1  0  0  0  0
  1 31  1  0  0  0  0
  2  3  2  0  0  0  0
  2  4  1  0  0  0  0
  4  5  1  0  0  0  0
  5  6  1  0  0  0  0
  5 32  1  0  0  0  0
  5 33  1  0  0  0  0
  6 23  1  0  0  0  0
  6  7  1  0  0  0  0
  6 34  1  0  0  0  0
  7  8  1  0  0  0  0
  8  9  1  0  0  0  0
  8 18  1  0  0  0  0
  8 35  1  0  0  0  0
  9 16  1  0  0  0  0
  9 10  1  0  0  0  0
 10 11  2  0  0  0  0
 10 36  1  0  0  0  0
 11 12  1  0  0  0  0
 11 13  1  0  0  0  0
 13 14  2  0  0  0  0
 13 15  1  0  0  0  0
 15 28  1  0  0  0  0
 15 16  1  0  0  0  0
 16 17  2  0  0  0  0
 18 19  1  0  0  0  0
 18 23  1  0  0  0  0
 18 37  1  0  0  0  0
 19 20  1  0  0  0  0
 20 21  1  0  0  0  0
 20 22  2  0  0  0  0
 21 38  1  0  0  0  0
 21 39  1  0  0  0  0
 21 40  1  0  0  0  0
 23 24  1  0  0  0  0
 23 41  1  0  0  0  0
 24 25  1  0  0  0  0
 25 26  1  0  0  0  0
 25 27  2  0  0  0  0
 26 42  1  0  0  0  0
 26 43  1  0  0  0  0
 26 44  1  0  0  0  0
M  END
> <s_m_source_file>
AV-unprocessed.smi

> <i_m_source_file_index>
102

> <i_lp_mmshare_version>
43012

> <i_f3d_flags>
0

> <s_epik_input>
W0NIM11DKD1PKU9bQ0gyXVtDQEBIXTFPW0NASF0oW0NAQEhdKE9DKD1PKVtDSDNdKVtDQEhdMU9DKD1PKVtDSDNdKW4yW2NIXWMoRiljKD1PKVtuSF1jMj1P

> <s_epik_cmdline>
J2VwaWtfcHl0aG9uJywgJy1waCcsICc3LjAnLCAnLXRuJywgJzgnLCAnLW1hJywgJzIwMCcsICctbWV0YWxfYmluZGluZycsICctaW1hZScsICc8aW5maWxlLm1hZT4nLCAnLW9tYWUnLCAnPG91dGZpbGUubWFlPic=

> <r_lp_tautomer_probability>
0.999537

> <r_epik_Ionization_Penalty>
0.058267

> <r_epik_Ionization_Penalty_Charging>
0.058267

> <r_epik_Ionization_Penalty_Neutral>
6.57791e-16

> <r_epik_State_Penalty>
0.0503774

> <r_epik_Charging_Adjusted_Penalty>
0.108644

> <i_epik_Tot_Q>
0

> <i_epik_Tot_abs_Q>
0

> <r_epik_Metal_State_Penalty>
2.6644

> <b_epik_Metal_Only>
0

> <s_epik_Chemistry_Notes>
This compound has an ester and may undergo hydrolysis at high or low pH. This compound contains an acetal/aminal-like group ( X-CH(R)-Y where X, Y are N, S, or O) that may be acid/base labile, releasing an aldehyde.

> <s_lp_Force_Field>
OPLS_2005

> <r_lp_Energy>
12.818

> <b_lp_Chiralities_Consistent>
1

> <s_lp_Variant>
AV-unprocessed.smi:102-13

> <Gold.Version>
5.8.1

> <Gold.Id.Protein>
6NUR|6NUR_protein|mol2

> <Gold.PLP.Fitness>
36.2542

> <Gold.PLP.PLP>
-27.2284

> <Gold.PLP.part.hbond>
-4.1230

> <Gold.PLP.part.metal>
0.0000

> <Gold.PLP.part.buried>
-3.7669

> <Gold.PLP.part.nonpolar>
-19.2045

> <Gold.PLP.part.repulsive>
0.1893

> <Gold.PLP.ligand.clash>
0.0000

> <Gold.PLP.ligand.torsion>
0.7233

> <Gold.PLP.Chemscore.Hbond>
3.4640

> <Gold.PLP.Chemscore.CHOScore>
0.0000

> <Gold.PLP.Chemscore.Metal>
0.0000

> <Gold.Chemscore.Hbonds>
donor molecule, donor type, donor heavy atom, donor atom, acceptor molecule, acceptor atom, score
      P1  H  6896  6909       L1    17  1.00
      P1  H  6931  6943       L1    22  1.00
      P1  H  6934  6947       L1    27  0.42
      P1  H  7997  8009       L1    14  0.70

> <Gold.PLP.Chemscore.Internal.Correction>
0.0804

> <Gold.Rescore>
     Score         DG    S(hbond)    S(metal)    S(lipo)     H(rot)  DE(clash)    DE(int)     intcor
      8.83      -9.76       3.57        0.00      23.42       4.05       0.02       0.91       ----

> <Gold.Chemscore.Fitness>
8.8282

> <Gold.Chemscore.DG>
-9.7600

> <Gold.Chemscore.ZeroCoef>
-5.4800

> <Gold.Chemscore.Hbond>
3.5669

> <Gold.Chemscore.Metal>
0.0000

> <Gold.Chemscore.Lipo>
23.4175

> <Gold.Chemscore.Internal_Hbond>
0.0000

> <Gold.Chemscore.DEClash>
0.0174

> <Gold.Chemscore.DEInternal>
0.9143

> <Gold.Chemscore.Rot>
4.0520

> <Gold.Chemscore.Internal.Correction>
   9.000000E+99

> <Gold.Chemscore.Hbonds>
donor molecule, donor type, donor heavy atom, donor atom, acceptor molecule, acceptor atom, score
      P1  H  6896  6909       L1    17  1.00
      P1  H  6931  6943       L1    22  0.95
      P1  H  6934  6947       L1    27  0.41
      P1  H  7997  8009       L1    14  0.67

> <Gold.Chemscore.Hbond.Weighted>
-11.9133

> <Gold.Chemscore.Metal.Weighted>
-0.0000

> <Gold.Chemscore.Lipo.Weighted>
-2.7399

> <Gold.Chemscore.Internal_Hbond.Weighted>
0.0000

> <Gold.Chemscore.DEClash.Weighted>
0.0174

> <Gold.Chemscore.DEInternal.Weighted>
0.9143

> <Gold.Chemscore.Rot.Weighted>
10.3732

> <Gold.Chemscore.Internal.Correction.Weighted>
   9.000000E+99

> <Gold.Protein.RotatedTorsions>
[ 6907 6896 6895 6894 ] final   90.57 input  -60.11 | X-H torsion
[ 7974 7965 7964 7962 ] final   41.78 input  175.53 | X-H torsion
[ 8008 7997 7996 7995 ] final  171.50 input   59.86 | X-H torsion
[ 10167 10162 10161 10158 ] final  175.28 input  -65.29 | X-H torsion
[ 10718 10713 10712 10709 ] final  147.34 input   66.30 | X-H torsion
[ 10763 10752 10751 10750 ] final   30.96 input  -60.55 | X-H torsion
[ 11005 11000 10999 10996 ] final  -33.66 input  -57.11 | X-H torsion

> <Gold.Protein.ActiveResidues>
 VAL166  LYS551  ARG553  GLY616  TRP617  ASP618  TYR619  PRO620  LYS621  CYS622 
 ASP623  PHE694  ASN695  SER759  ASP760  ASP761  ALA762  ILE779  LEU786  VAL792 
 PHE793  MET794  SER795  GLU796  ALA797  LYS798  CYS799  TRP800  GLU811  SER814 

> <Gold.Protein.RotatedAtoms>
  152.5445  134.1790  159.8627 H   0  0  0  0  0  0  0  0  0  0  0  0  # atno 6907 bound_to 6896
  151.1794  133.4727  159.2601 H   0  0  0  0  0  0  0  0  0  0  0  0  # atno 6908 bound_to 6896
  151.1193  135.0082  159.8586 H   0  0  0  0  0  0  0  0  0  0  0  0  # atno 6909 bound_to 6896
  146.0795  139.5376  142.9546 H   0  0  0  0  0  0  0  0  0  0  0  0  # atno 7974 bound_to 7965
  156.1265  140.1510  156.9129 H   0  0  0  0  0  0  0  0  0  0  0  0  # atno 8008 bound_to 7997
  154.4875  140.0861  156.7561 H   0  0  0  0  0  0  0  0  0  0  0  0  # atno 8009 bound_to 7997
  155.4335  140.3428  155.4284 H   0  0  0  0  0  0  0  0  0  0  0  0  # atno 8010 bound_to 7997
  139.5172  144.3049  152.0344 H   0  0  0  0  0  0  0  0  0  0  0  0  # atno 10167 bound_to 10162
  157.3222  131.0906  151.1231 H   0  0  0  0  0  0  0  0  0  0  0  0  # atno 10718 bound_to 10713
  153.0342  135.6451  154.1126 H   0  0  0  0  0  0  0  0  0  0  0  0  # atno 10763 bound_to 10752
  154.0843  135.2871  155.3285 H   0  0  0  0  0  0  0  0  0  0  0  0  # atno 10764 bound_to 10752
  154.6508  135.5426  153.7963 H   0  0  0  0  0  0  0  0  0  0  0  0  # atno 10765 bound_to 10752
  140.9653  133.7141  156.1435 H   0  0  0  0  0  0  0  0  0  0  0  0  # atno 11005 bound_to 11000
  145.6244  141.0316  143.1897 LP  0  0  0  0  0  0  0  0  0  0  0  0  # atno 17320 bound_to 7965
  144.7284  139.7804  143.7356 LP  0  0  0  0  0  0  0  0  0  0  0  0  # atno 17321 bound_to 7965
  140.2496  144.4183  150.6227 LP  0  0  0  0  0  0  0  0  0  0  0  0  # atno 17342 bound_to 10162
  140.6234  143.2178  151.6647 LP  0  0  0  0  0  0  0  0  0  0  0  0  # atno 17343 bound_to 10162
  157.2512  130.6614  149.5932 LP  0  0  0  0  0  0  0  0  0  0  0  0  # atno 17370 bound_to 10713
  155.9687  130.4538  150.5825 LP  0  0  0  0  0  0  0  0  0  0  0  0  # atno 17371 bound_to 10713
  140.7408  134.4152  157.5555 LP  0  0  0  0  0  0  0  0  0  0  0  0  # atno 17394 bound_to 11000
  139.8892  134.8836  156.2432 LP  0  0  0  0  0  0  0  0  0  0  0  0  # atno 17395 bound_to 11000

$$$$
