#       Name:                AV-unprocessed.smi:258
#       Creating user name   scv26
#       Creation time:       Thu Mar 26 21:11:53 2020


#       File generated by GOLD software.
#

@<TRIPOS>MOLECULE
AV-unprocessed.smi:258
    69    72     1
SMALL
NO_CHARGES


@<TRIPOS>ATOM
      1 ****        -7.3024   3.8159  -1.6454 O.3            1 S1                 0.0000
      2 ****        -6.5444   3.6444  -0.4667 C.3            1 S1                 0.0000
      3 ****        -6.1066   2.1816  -0.3250 C.3            1 S1                 0.0000
      4 ****        -4.9243   1.9756  -1.0851 O.3            1 S1                 0.0000
      5 ****        -4.4066   0.6534  -1.0203 C.3            1 S1                 0.0000
      6 ****        -5.1743  -0.2879  -1.9702 C.3            1 S1                 0.0000
      7 ****        -4.5080  -1.6716  -1.9990 C.3            1 S1                 0.0000
      8 ****        -3.0195  -1.5601  -2.3657 C.3            1 S1                 0.0000
      9 ****        -2.3336  -0.6204  -1.4770 N.3            1 S1                 0.0000
     10 ****        -0.9764  -0.6470  -1.4535 C.ar           1 S1                 0.0000
     11 ****        -0.2885  -1.1662  -2.5063 N.ar           1 S1                 0.0000
     12 ****         1.0476  -1.1856  -2.4979 C.ar           1 S1                 0.0000
     13 ****         1.8831  -0.7476  -1.5542 N.ar           1 S1                 0.0000
     14 ****         1.2002  -0.2347  -0.4915 C.ar           1 S1                 0.0000
     15 ****        -0.2147  -0.1480  -0.3586 C.ar           1 S1                 0.0000
     16 ****        -0.5390   0.4186   0.8692 N.2            1 S1                 0.0000
     17 ****         0.6167   0.6655   1.4229 C.2            1 S1                 0.0000
     18 ****         1.7137   0.3029   0.6747 N.pl3          1 S1                 0.0000
     19 ****         3.1097   0.4618   1.0424 C.3            1 S1                 0.0000
     20 ****         3.7936  -0.8651   1.4571 C.3            1 S1                 0.0000
     21 ****         2.9771  -1.6594   2.5053 C.3            1 S1                 0.0000
     22 ****         2.8272  -0.9285   3.7053 O.3            1 S1                 0.0000
     23 ****         5.2576  -0.6316   1.9083 C.3            1 S1                 0.0000
     24 ****         6.1538   0.0054   0.8608 C.3            1 S1                 0.0000
     25 ****         7.5472  -0.3143   1.3916 C.3            1 S1                 0.0000
     26 ****         7.4261  -1.5623   2.0655 O.3            1 S1                 0.0000
     27 ****         6.0517  -1.9072   2.2079 C.3            1 S1                 0.0000
     28 ****        -2.9223   0.7178  -1.4208 C.3            1 S1                 0.0000
     29 ****        -7.5662   4.7214  -1.7036 H              1 S1                 0.0000
     30 ****        -5.6874   4.3185  -0.4616 H              1 S1                 0.0000
     31 ****        -7.1789   3.9224   0.3751 H              1 S1                 0.0000
     32 ****        -5.8820   1.9801   0.7234 H              1 S1                 0.0000
     33 ****        -6.9104   1.5056  -0.6183 H              1 S1                 0.0000
     34 ****        -4.4666   0.2776   0.0030 H              1 S1                 0.0000
     35 ****        -6.2141  -0.3916  -1.6619 H              1 S1                 0.0000
     36 ****        -5.1867   0.1335  -2.9762 H              1 S1                 0.0000
     37 ****        -4.6069  -2.1426  -1.0202 H              1 S1                 0.0000
     38 ****        -5.0202  -2.3210  -2.7092 H              1 S1                 0.0000
     39 ****        -2.5568  -2.5460  -2.3001 H              1 S1                 0.0000
     40 ****        -2.9147  -1.2212  -3.3973 H              1 S1                 0.0000
     41 ****         1.5134  -1.6123  -3.3739 H              1 S1                 0.0000
     42 ****         0.7017   1.1146   2.4019 H              1 S1                 0.0000
     43 ****         3.6252   0.9100   0.1928 H              1 S1                 0.0000
     44 ****         3.1699   1.1864   1.8553 H              1 S1                 0.0000
     45 ****         3.8300  -1.4912   0.5643 H              1 S1                 0.0000
     46 ****         1.9875  -1.9097   2.1229 H              1 S1                 0.0000
     47 ****         3.4563  -2.6113   2.7326 H              1 S1                 0.0000
     48 ****         3.6847  -0.7690   4.0689 H              1 S1                 0.0000
     49 ****         5.2698   0.0012   2.7973 H              1 S1                 0.0000
     50 ****         6.0050  -0.4708  -0.1095 H              1 S1                 0.0000
     51 ****         5.9889   1.0768   0.7445 H              1 S1                 0.0000
     52 ****         8.2956  -0.3580   0.6001 H              1 S1                 0.0000
     53 ****         7.8607   0.4406   2.1136 H              1 S1                 0.0000
     54 ****         5.8499  -2.3013   3.2041 H              1 S1                 0.0000
     55 ****         5.8189  -2.6878   1.4823 H              1 S1                 0.0000
     56 ****        -2.8223   1.1814  -2.4034 H              1 S1                 0.0000
     57 ****        -2.3901   1.3603  -0.7204 H              1 S1                 0.0000
     58 ****        -8.1122   3.2301  -1.6138 LP             1 S1                 0.0000
     59 ****        -6.7473   3.5745  -2.4414 LP             1 S1                 0.0000
     60 ****        -4.2225   2.6030  -0.7478 LP             1 S1                 0.0000
     61 ****        -5.1270   2.1854  -2.0416 LP             1 S1                 0.0000
     62 ****        -2.5412  -1.0287  -0.5881 LP             1 S1                 0.0000
     63 ****        -0.7859  -1.5356  -3.2913 LP             1 S1                 0.0000
     64 ****         2.8802  -0.7901  -1.6181 LP             1 S1                 0.0000
     65 ****        -1.4495   0.5962   1.2425 LP             1 S1                 0.0000
     66 ****         2.2783  -1.4551   4.3545 LP             1 S1                 0.0000
     67 ****         2.3742  -0.0575   3.5152 LP             1 S1                 0.0000
     68 ****         7.8455  -1.4921   2.9706 LP             1 S1                 0.0000
     69 ****         7.8924  -2.2712   1.5362 LP             1 S1                 0.0000
@<TRIPOS>BOND
    1    1    2 1     
    2    1   29 1     
    3    2    3 1     
    4    2   30 1     
    5    2   31 1     
    6    3    4 1     
    7    3   32 1     
    8    3   33 1     
    9    4    5 1     
   10    5   28 1     
   11    5    6 1     
   12    5   34 1     
   13    6    7 1     
   14    6   35 1     
   15    6   36 1     
   16    7    8 1     
   17    7   37 1     
   18    7   38 1     
   19    8    9 1     
   20    8   39 1     
   21    8   40 1     
   22    9   10 1     
   23    9   28 1     
   24   10   15 ar    
   25   10   11 ar    
   26   11   12 ar    
   27   12   13 ar    
   28   12   41 1     
   29   13   14 ar    
   30   14   18 1     
   31   14   15 ar    
   32   15   16 1     
   33   16   17 2     
   34   17   18 1     
   35   17   42 1     
   36   18   19 1     
   37   19   20 1     
   38   19   43 1     
   39   19   44 1     
   40   20   21 1     
   41   20   23 1     
   42   20   45 1     
   43   21   22 1     
   44   21   46 1     
   45   21   47 1     
   46   22   48 1     
   47   23   27 1     
   48   23   24 1     
   49   23   49 1     
   50   24   25 1     
   51   24   50 1     
   52   24   51 1     
   53   25   26 1     
   54   25   52 1     
   55   25   53 1     
   56   26   27 1     
   57   27   54 1     
   58   27   55 1     
   59   28   56 1     
   60   28   57 1     
   61    1   58 1     
   62    1   59 1     
   63    4   60 1     
   64    4   61 1     
   65    9   62 1     
   66   11   63 1     
   67   13   64 1     
   68   16   65 1     
   69   22   66 1     
   70   22   67 1     
   71   26   68 1     
   72   26   69 1     
@<TRIPOS>SUBSTRUCTURE
      1 S1             1
@<TRIPOS>SET
LONE_PAIRS      STATIC     ATOMS    <user>   **** ""
12 58 59 60 61 62 63 64 65 66 67 68 69
DONOR_HYDROGENS      STATIC     ATOMS    <user>   **** ""
2 29 48
ATOM$BLUE        STATIC     ATOMS    COLORGROUP SYSTEM
12 58 59 60 61 62 63 64 65 66 67 68 69
ATOM$RED        STATIC     ATOMS    COLORGROUP SYSTEM
2 29 48
