AV-unprocessed.smi:2224|AV-procd|sdf|8995|dock6
  -GOLD-   2272012203D 1   1.00000     0.00000
 Structure written by MMmdl.
 44 46  0  0  0  0  0  0  0  0  1 V2000
  153.8966  141.1570  159.8271 C   0  0  0  0  0  0  0  0  0  0  0  0
  152.9616  142.2988  159.4879 C   0  0  0  0  0  0  0  0  0  0  0  0
  153.0556  143.5348  160.1559 C   0  0  0  0  0  0  0  0  0  0  0  0
  152.1528  144.5548  159.7966 C   0  0  0  0  0  0  0  0  0  0  0  0
  152.1991  145.9093  160.4719 C   0  0  0  0  0  0  0  0  0  0  0  0
  151.2066  144.4004  158.8458 N   0  0  0  0  0  0  0  0  0  0  0  0
  151.1071  143.2144  158.1960 C   0  0  0  0  0  0  0  0  0  0  0  0
  150.1529  142.9519  157.1778 N   0  0  0  0  0  0  0  0  0  0  0  0
  149.4682  141.8167  156.9534 C   0  0  0  0  0  0  0  0  0  0  0  0
  149.5937  140.7695  157.5890 O   0  0  0  0  0  0  0  0  0  0  0  0
  148.6161  141.9600  155.9291 N   0  0  0  0  0  0  0  0  0  0  0  0
  147.7462  140.9037  155.4205 C   0  0  2  0  0  0  0  0  0  0  0  0
  148.2931  140.2675  154.1329 C   0  0  1  0  0  0  0  0  0  0  0  0
  148.7221  138.8251  154.1312 C   0  0  0  0  0  0  0  0  0  0  0  0
  147.4811  138.1006  153.6024 C   0  0  0  0  0  0  0  0  0  0  0  0
  146.4033  138.9955  153.8663 O   0  0  0  0  0  0  0  0  0  0  0  0
  146.8684  140.3173  153.6034 C   0  0  1  0  0  0  0  0  0  0  0  0
  146.5014  141.4003  154.6399 C   0  0  0  0  0  0  0  0  0  0  0  0
  145.1517  141.2258  155.3387 C   0  0  0  0  0  0  0  0  0  0  0  0
  146.5322  142.8336  154.0895 C   0  0  0  0  0  0  0  0  0  0  0  0
  151.9756  142.1403  158.4934 C   0  0  0  0  0  0  0  0  0  0  0  0
  154.5610  141.4193  160.6510 H   0  0  0  0  0  0  0  0  0  0  0  0
  154.5086  140.9006  158.9621 H   0  0  0  0  0  0  0  0  0  0  0  0
  153.3255  140.2752  160.1182 H   0  0  0  0  0  0  0  0  0  0  0  0
  153.7993  143.6973  160.9224 H   0  0  0  0  0  0  0  0  0  0  0  0
  152.9243  145.9205  161.2861 H   0  0  0  0  0  0  0  0  0  0  0  0
  151.2220  146.1628  160.8842 H   0  0  0  0  0  0  0  0  0  0  0  0
  152.4800  146.6802  159.7541 H   0  0  0  0  0  0  0  0  0  0  0  0
  149.9672  143.7192  156.5495 H   0  0  0  0  0  0  0  0  0  0  0  0
  148.5732  142.8532  155.4612 H   0  0  0  0  0  0  0  0  0  0  0  0
  147.4902  140.1494  156.1681 H   0  0  0  0  0  0  0  0  0  0  0  0
  148.9491  140.9391  153.5761 H   0  0  0  0  0  0  0  0  0  0  0  0
  149.5913  138.6459  153.4982 H   0  0  0  0  0  0  0  0  0  0  0  0
  148.9667  138.4903  155.1398 H   0  0  0  0  0  0  0  0  0  0  0  0
  147.5578  137.9458  152.5252 H   0  0  0  0  0  0  0  0  0  0  0  0
  147.3235  137.1317  154.0767 H   0  0  0  0  0  0  0  0  0  0  0  0
  146.7925  140.6072  152.5542 H   0  0  0  0  0  0  0  0  0  0  0  0
  144.3215  141.3492  154.6426 H   0  0  0  0  0  0  0  0  0  0  0  0
  145.0202  141.9507  156.1427 H   0  0  0  0  0  0  0  0  0  0  0  0
  145.0543  140.2354  155.7842 H   0  0  0  0  0  0  0  0  0  0  0  0
  145.7344  142.9977  153.3645 H   0  0  0  0  0  0  0  0  0  0  0  0
  147.4727  143.0540  153.5839 H   0  0  0  0  0  0  0  0  0  0  0  0
  146.4088  143.5729  154.8817 H   0  0  0  0  0  0  0  0  0  0  0  0
  151.8869  141.2005  157.9676 H   0  0  0  0  0  0  0  0  0  0  0  0
  1  2  1  0  0  0  0
  1 22  1  0  0  0  0
  1 23  1  0  0  0  0
  1 24  1  0  0  0  0
  2 21  1  0  0  0  0
  2  3  2  0  0  0  0
  3  4  1  0  0  0  0
  3 25  1  0  0  0  0
  4  5  1  0  0  0  0
  4  6  2  0  0  0  0
  5 26  1  0  0  0  0
  5 27  1  0  0  0  0
  5 28  1  0  0  0  0
  6  7  1  0  0  0  0
  7  8  1  0  0  0  0
  7 21  2  0  0  0  0
  8  9  1  0  0  0  0
  8 29  1  0  0  0  0
  9 10  2  0  0  0  0
  9 11  1  0  0  0  0
 11 12  1  0  0  0  0
 11 30  1  0  0  0  0
 12 18  1  0  0  0  0
 12 13  1  0  0  0  0
 12 31  1  0  0  0  0
 13 17  1  0  0  0  0
 13 14  1  0  0  0  0
 13 32  1  0  0  0  0
 14 15  1  0  0  0  0
 14 33  1  0  0  0  0
 14 34  1  0  0  0  0
 15 16  1  0  0  0  0
 15 35  1  0  0  0  0
 15 36  1  0  0  0  0
 16 17  1  0  0  0  0
 17 18  1  0  0  0  0
 17 37  1  0  0  0  0
 18 19  1  0  0  0  0
 18 20  1  0  0  0  0
 19 38  1  0  0  0  0
 19 39  1  0  0  0  0
 19 40  1  0  0  0  0
 20 41  1  0  0  0  0
 20 42  1  0  0  0  0
 20 43  1  0  0  0  0
 21 44  1  0  0  0  0
M  END
> <s_m_source_file>
AV-unprocessed.smi

> <i_m_source_file_index>
2224

> <i_lp_mmshare_version>
43012

> <i_f3d_flags>
0

> <s_epik_input>
W0NIM11jMVtjSF1jKFtDSDNdKW5jKFtjSF0xKVtOSF1DKD1PKVtOSF1bQ0BIXTJDKFtDSDNdKShbQ0gzXSlbQ0BIXShbQ0BASF0yMylPW0NIMl1bQ0gyXTM=

> <s_epik_cmdline>
J2VwaWtfcHl0aG9uJywgJy1waCcsICc3LjAnLCAnLXRuJywgJzgnLCAnLW1hJywgJzIwMCcsICctbWV0YWxfYmluZGluZycsICctaW1hZScsICc8aW5maWxlLm1hZT4nLCAnLW9tYWUnLCAnPG91dGZpbGUubWFlPic=

> <r_lp_tautomer_probability>
1

> <r_epik_Ionization_Penalty>
0.000276544

> <r_epik_Ionization_Penalty_Charging>
0

> <r_epik_Ionization_Penalty_Neutral>
0.000276544

> <r_epik_State_Penalty>
-0

> <r_epik_Charging_Adjusted_Penalty>
0

> <i_epik_Tot_Q>
0

> <i_epik_Tot_abs_Q>
0

> <r_epik_Metal_State_Penalty>
-0

> <b_epik_Metal_Only>
0

> <s_lp_Force_Field>
OPLS_2005

> <r_lp_Energy>
38.5894

> <b_lp_Chiralities_Consistent>
1

> <s_lp_Variant>
AV-unprocessed.smi:2224-5

> <Gold.Version>
5.8.1

> <Gold.Id.Protein>
6NUR|6NUR_protein|mol2

> <Gold.PLP.Fitness>
40.8293

> <Gold.PLP.PLP>
-36.0715

> <Gold.PLP.part.hbond>
-2.0000

> <Gold.PLP.part.metal>
0.0000

> <Gold.PLP.part.buried>
-3.5233

> <Gold.PLP.part.nonpolar>
-31.1838

> <Gold.PLP.part.repulsive>
0.3839

> <Gold.PLP.ligand.clash>
0.0000

> <Gold.PLP.ligand.torsion>
0.5766

> <Gold.PLP.Chemscore.Hbond>
1.9120

> <Gold.PLP.Chemscore.CHOScore>
0.0000

> <Gold.PLP.Chemscore.Metal>
0.0000

> <Gold.Chemscore.Hbonds>
donor molecule, donor type, donor heavy atom, donor atom, acceptor molecule, acceptor atom, score
      L1  H     8    29       P1  8028  1.00
      L1  H    11    30       P1  8028  0.91

> <Gold.PLP.Chemscore.Internal.Correction>
0.1749

> <Gold.Rescore>
     Score         DG    S(hbond)    S(metal)    S(lipo)     H(rot)  DE(clash)    DE(int)     intcor
     18.46     -22.18       1.93        0.00     109.63       1.00       1.88       1.84       ----

> <Gold.Chemscore.Fitness>
18.4602

> <Gold.Chemscore.DG>
-22.1763

> <Gold.Chemscore.ZeroCoef>
-5.4800

> <Gold.Chemscore.Hbond>
1.9251

> <Gold.Chemscore.Metal>
0.0000

> <Gold.Chemscore.Lipo>
109.6273

> <Gold.Chemscore.Internal_Hbond>
0.0000

> <Gold.Chemscore.DEClash>
1.8753

> <Gold.Chemscore.DEInternal>
1.8407

> <Gold.Chemscore.Rot>
1.0000

> <Gold.Chemscore.Internal.Correction>
   9.000000E+99

> <Gold.Chemscore.Hbonds>
donor molecule, donor type, donor heavy atom, donor atom, acceptor molecule, acceptor atom, score
      L1  H     8    29       P1  8028  0.96
      L1  H    11    30       P1  8028  0.88

> <Gold.Chemscore.Hbond.Weighted>
-6.4299

> <Gold.Chemscore.Metal.Weighted>
-0.0000

> <Gold.Chemscore.Lipo.Weighted>
-12.8264

> <Gold.Chemscore.Internal_Hbond.Weighted>
0.0000

> <Gold.Chemscore.DEClash.Weighted>
1.8753

> <Gold.Chemscore.DEInternal.Weighted>
1.8407

> <Gold.Chemscore.Rot.Weighted>
2.5600

> <Gold.Chemscore.Internal.Correction.Weighted>
   9.000000E+99

> <Gold.Protein.RotatedTorsions>
[ 6907 6896 6895 6894 ] final  132.40 input  -60.11 | X-H torsion
[ 7974 7965 7964 7962 ] final  119.25 input  175.53 | X-H torsion
[ 8008 7997 7996 7995 ] final  -52.52 input   59.86 | X-H torsion
[ 10167 10162 10161 10158 ] final  -11.98 input  -65.29 | X-H torsion
[ 10718 10713 10712 10709 ] final  -76.65 input   66.30 | X-H torsion
[ 10763 10752 10751 10750 ] final  -75.32 input  -60.55 | X-H torsion
[ 11005 11000 10999 10996 ] final -170.62 input  -57.11 | X-H torsion

> <Gold.Protein.ActiveResidues>
 VAL166  LYS551  ARG553  GLY616  TRP617  ASP618  TYR619  PRO620  LYS621  CYS622 
 ASP623  PHE694  ASN695  SER759  ASP760  ASP761  ALA762  ILE779  LEU786  VAL792 
 PHE793  MET794  SER795  GLU796  ALA797  LYS798  CYS799  TRP800  GLU811  SER814 

> <Gold.Protein.RotatedAtoms>
  152.3328  133.5977  159.5821 H   0  0  0  0  0  0  0  0  0  0  0  0  # atno 6907 bound_to 6896
  150.7433  133.9842  159.3595 H   0  0  0  0  0  0  0  0  0  0  0  0  # atno 6908 bound_to 6896
  151.7715  135.0786  160.0411 H   0  0  0  0  0  0  0  0  0  0  0  0  # atno 6909 bound_to 6896
  145.1454  139.3243  143.4594 H   0  0  0  0  0  0  0  0  0  0  0  0  # atno 7974 bound_to 7965
  154.4109  140.1222  156.5005 H   0  0  0  0  0  0  0  0  0  0  0  0  # atno 8008 bound_to 7997
  155.6900  140.3495  155.4870 H   0  0  0  0  0  0  0  0  0  0  0  0  # atno 8009 bound_to 7997
  155.9477  140.1099  157.0993 H   0  0  0  0  0  0  0  0  0  0  0  0  # atno 8010 bound_to 7997
  140.7151  143.5581  150.9225 H   0  0  0  0  0  0  0  0  0  0  0  0  # atno 10167 bound_to 10162
  156.0168  130.4471  150.3226 H   0  0  0  0  0  0  0  0  0  0  0  0  # atno 10718 bound_to 10713
  154.4849  135.5835  153.6416 H   0  0  0  0  0  0  0  0  0  0  0  0  # atno 10763 bound_to 10752
  152.9853  135.6099  154.3199 H   0  0  0  0  0  0  0  0  0  0  0  0  # atno 10764 bound_to 10752
  154.3093  135.2845  155.2553 H   0  0  0  0  0  0  0  0  0  0  0  0  # atno 10765 bound_to 10752
  140.5174  134.5743  157.5037 H   0  0  0  0  0  0  0  0  0  0  0  0  # atno 11005 bound_to 11000
  146.3500  140.1507  142.8592 LP  0  0  0  0  0  0  0  0  0  0  0  0  # atno 17320 bound_to 7965
  145.0488  140.9002  143.5008 LP  0  0  0  0  0  0  0  0  0  0  0  0  # atno 17321 bound_to 7965
  139.9307  143.6497  152.3077 LP  0  0  0  0  0  0  0  0  0  0  0  0  # atno 17342 bound_to 10162
  139.6947  144.7643  151.1378 LP  0  0  0  0  0  0  0  0  0  0  0  0  # atno 17343 bound_to 10162
  157.1325  131.0275  151.2963 LP  0  0  0  0  0  0  0  0  0  0  0  0  # atno 17370 bound_to 10713
  157.4538  130.7614  149.7175 LP  0  0  0  0  0  0  0  0  0  0  0  0  # atno 17371 bound_to 10713
  139.9625  134.7429  156.0207 LP  0  0  0  0  0  0  0  0  0  0  0  0  # atno 17394 bound_to 11000
  141.1353  133.6576  156.3576 LP  0  0  0  0  0  0  0  0  0  0  0  0  # atno 17395 bound_to 11000

$$$$
