AV-unprocessed.smi:674|AV-procd|sdf|3301|dock8
  -GOLD-   22720 0263D 1   1.00000     0.00000
 Structure written by MMmdl.
 47 48  0  0  0  0  0  0  0  0  1 V2000
  143.6983  132.7095  148.2914 C   0  0  0  0  0  0  0  0  0  0  0  0
  143.9104  132.2388  149.7349 C   0  0  0  0  0  0  0  0  0  0  0  0
  144.3066  133.3694  150.6419 C   0  0  0  0  0  0  0  0  0  0  0  0
  145.4175  134.2515  150.5063 C   0  0  0  0  0  0  0  0  0  0  0  0
  145.2984  135.0593  151.6041 C   0  0  0  0  0  0  0  0  0  0  0  0
  146.1017  136.0828  151.9988 N   0  0  0  0  0  0  0  0  0  0  0  0
  145.7527  137.2766  152.5094 C   0  0  0  0  0  0  0  0  0  0  0  0
  144.6024  137.6430  152.7512 O   0  0  0  0  0  0  0  0  0  0  0  0
  146.8308  138.0385  152.7373 N   0  0  0  0  0  0  0  0  0  0  0  0
  146.7823  139.3872  153.2914 C   0  0  2  0  0  0  0  0  0  0  0  0
  147.6347  140.3797  152.5045 C   0  0  0  0  0  0  0  0  0  0  0  0
  147.9678  141.0302  153.8599 C   0  0  2  0  0  0  0  0  0  0  0  0
  147.1096  142.2204  154.3169 C   0  0  0  0  0  0  0  0  0  0  0  0
  149.3539  141.3555  153.9745 O   0  0  0  0  0  0  0  0  0  0  0  0
  149.8589  141.5026  155.2958 C   0  0  0  0  0  0  0  0  0  0  0  0
  147.7184  139.6265  154.5029 C   0  0  0  0  0  0  0  0  0  0  0  0
  147.0463  139.6049  155.8795 C   0  0  0  0  0  0  0  0  0  0  0  0
  148.9487  138.7043  154.6218 C   0  0  0  0  0  0  0  0  0  0  0  0
  144.1908  134.6678  152.3259 N   0  0  0  0  0  0  0  0  0  0  0  0
  143.6412  135.1953  153.5599 C   0  0  0  0  0  0  0  0  0  0  0  0
  143.5809  133.6239  151.7253 N   0  0  0  0  0  0  0  0  0  0  0  0
  143.4107  131.8769  147.6494 H   0  0  0  0  0  0  0  0  0  0  0  0
  144.6093  133.1463  147.8808 H   0  0  0  0  0  0  0  0  0  0  0  0
  142.9110  133.4620  148.2347 H   0  0  0  0  0  0  0  0  0  0  0  0
  142.9942  131.7744  150.1008 H   0  0  0  0  0  0  0  0  0  0  0  0
  144.6725  131.4588  149.7544 H   0  0  0  0  0  0  0  0  0  0  0  0
  146.1674  134.2656  149.7299 H   0  0  0  0  0  0  0  0  0  0  0  0
  147.0914  135.9201  151.8862 H   0  0  0  0  0  0  0  0  0  0  0  0
  147.7423  137.6642  152.5180 H   0  0  0  0  0  0  0  0  0  0  0  0
  145.7694  139.7642  153.4523 H   0  0  0  0  0  0  0  0  0  0  0  0
  148.4964  139.9254  152.0116 H   0  0  0  0  0  0  0  0  0  0  0  0
  147.0719  141.0138  151.8191 H   0  0  0  0  0  0  0  0  0  0  0  0
  146.0528  141.9606  154.3763 H   0  0  0  0  0  0  0  0  0  0  0  0
  147.1785  143.0606  153.6266 H   0  0  0  0  0  0  0  0  0  0  0  0
  147.4143  142.5742  155.3019 H   0  0  0  0  0  0  0  0  0  0  0  0
  150.8919  141.8459  155.2458 H   0  0  0  0  0  0  0  0  0  0  0  0
  149.8583  140.5583  155.8396 H   0  0  0  0  0  0  0  0  0  0  0  0
  149.2953  142.2386  155.8696 H   0  0  0  0  0  0  0  0  0  0  0  0
  147.6767  140.0698  156.6379 H   0  0  0  0  0  0  0  0  0  0  0  0
  146.8345  138.5860  156.2056 H   0  0  0  0  0  0  0  0  0  0  0  0
  146.0940  140.1346  155.8782 H   0  0  0  0  0  0  0  0  0  0  0  0
  149.6416  139.0615  155.3844 H   0  0  0  0  0  0  0  0  0  0  0  0
  149.5092  138.6380  153.6892 H   0  0  0  0  0  0  0  0  0  0  0  0
  148.6650  137.6876  154.8956 H   0  0  0  0  0  0  0  0  0  0  0  0
  144.1851  136.0854  153.8760 H   0  0  0  0  0  0  0  0  0  0  0  0
  143.7121  134.4408  154.3439 H   0  0  0  0  0  0  0  0  0  0  0  0
  142.5936  135.4588  153.4127 H   0  0  0  0  0  0  0  0  0  0  0  0
  1  2  1  0  0  0  0
  1 22  1  0  0  0  0
  1 23  1  0  0  0  0
  1 24  1  0  0  0  0
  2  3  1  0  0  0  0
  2 25  1  0  0  0  0
  2 26  1  0  0  0  0
  3 21  2  0  0  0  0
  3  4  1  0  0  0  0
  4  5  2  0  0  0  0
  4 27  1  0  0  0  0
  5  6  1  0  0  0  0
  5 19  1  0  0  0  0
  6  7  1  0  0  0  0
  6 28  1  0  0  0  0
  7  8  2  0  0  0  0
  7  9  1  0  0  0  0
  9 10  1  0  0  0  0
  9 29  1  0  0  0  0
 10 16  1  0  0  0  0
 10 11  1  0  0  0  0
 10 30  1  0  0  0  0
 11 12  1  0  0  0  0
 11 31  1  0  0  0  0
 11 32  1  0  0  0  0
 12 13  1  0  0  0  0
 12 14  1  0  0  0  0
 12 16  1  0  0  0  0
 13 33  1  0  0  0  0
 13 34  1  0  0  0  0
 13 35  1  0  0  0  0
 14 15  1  0  0  0  0
 15 36  1  0  0  0  0
 15 37  1  0  0  0  0
 15 38  1  0  0  0  0
 16 17  1  0  0  0  0
 16 18  1  0  0  0  0
 17 39  1  0  0  0  0
 17 40  1  0  0  0  0
 17 41  1  0  0  0  0
 18 42  1  0  0  0  0
 18 43  1  0  0  0  0
 18 44  1  0  0  0  0
 19 20  1  0  0  0  0
 19 21  1  0  0  0  0
 20 45  1  0  0  0  0
 20 46  1  0  0  0  0
 20 47  1  0  0  0  0
M  END
> <s_m_source_file>
AV-unprocessed.smi

> <i_m_source_file_index>
674

> <i_lp_mmshare_version>
43012

> <i_f3d_flags>
0

> <s_epik_input>
W0NIM11bQ0gyXWMxW2NIXWMobihuMSlbQ0gzXSlbTkhdQyg9TylbTkhdW0NAQEhdKEMyKFtDSDNdKVtDSDNdKVtDSDJdW0NAQF0yKFtDSDNdKU9bQ0gzXQ==

> <s_epik_cmdline>
J2VwaWtfcHl0aG9uJywgJy1waCcsICc3LjAnLCAnLXRuJywgJzgnLCAnLW1hJywgJzIwMCcsICctbWV0YWxfYmluZGluZycsICctaW1hZScsICc8aW5maWxlLm1hZT4nLCAnLW9tYWUnLCAnPG91dGZpbGUubWFlPic=

> <r_lp_tautomer_probability>
1

> <r_epik_Ionization_Penalty>
0.000101626

> <r_epik_Ionization_Penalty_Charging>
0

> <r_epik_Ionization_Penalty_Neutral>
0.000101626

> <r_epik_State_Penalty>
-0

> <r_epik_Charging_Adjusted_Penalty>
0

> <i_epik_Tot_Q>
0

> <i_epik_Tot_abs_Q>
0

> <r_epik_Metal_State_Penalty>
-0

> <b_epik_Metal_Only>
0

> <s_lp_Force_Field>
OPLS_2005

> <r_lp_Energy>
22.7641

> <b_lp_Chiralities_Consistent>
1

> <s_lp_Variant>
AV-unprocessed.smi:674-3

> <Gold.Version>
5.8.1

> <Gold.Id.Protein>
6NUR|6NUR_protein|mol2

> <Gold.PLP.Fitness>
42.3620

> <Gold.PLP.PLP>
-34.8118

> <Gold.PLP.part.hbond>
-4.0000

> <Gold.PLP.part.metal>
0.0000

> <Gold.PLP.part.buried>
-0.2327

> <Gold.PLP.part.nonpolar>
-32.9405

> <Gold.PLP.part.repulsive>
1.7817

> <Gold.PLP.ligand.clash>
0.0000

> <Gold.PLP.ligand.torsion>
0.5759

> <Gold.PLP.Chemscore.Hbond>
2.7766

> <Gold.PLP.Chemscore.CHOScore>
0.0000

> <Gold.PLP.Chemscore.Metal>
0.0000

> <Gold.Chemscore.Hbonds>
donor molecule, donor type, donor heavy atom, donor atom, acceptor molecule, acceptor atom, score
      L1  H     6    28       P1  7948  1.00
      L1  H     9    29       P1  7948  1.00
      P1  H  7989  7998       L1    14  0.01
      P1  H  8011  8017       L1    14  0.75

> <Gold.PLP.Chemscore.Internal.Correction>
0.3721

> <Gold.Rescore>
     Score         DG    S(hbond)    S(metal)    S(lipo)     H(rot)  DE(clash)    DE(int)     intcor
     15.57     -20.03       2.21        0.00      91.11       1.37       2.66       1.81       ----

> <Gold.Chemscore.Fitness>
15.5693

> <Gold.Chemscore.DG>
-20.0311

> <Gold.Chemscore.ZeroCoef>
-5.4800

> <Gold.Chemscore.Hbond>
2.2118

> <Gold.Chemscore.Metal>
0.0000

> <Gold.Chemscore.Lipo>
91.1101

> <Gold.Chemscore.Internal_Hbond>
0.0000

> <Gold.Chemscore.DEClash>
2.6567

> <Gold.Chemscore.DEInternal>
1.8051

> <Gold.Chemscore.Rot>
1.3658

> <Gold.Chemscore.Internal.Correction>
   9.000000E+99

> <Gold.Chemscore.Hbonds>
donor molecule, donor type, donor heavy atom, donor atom, acceptor molecule, acceptor atom, score
      L1  H     6    28       P1  7948  1.00
      L1  H     9    29       P1  7948  0.95
      P1  H  8011  8017       L1    14  0.40

> <Gold.Chemscore.Hbond.Weighted>
-7.3875

> <Gold.Chemscore.Metal.Weighted>
-0.0000

> <Gold.Chemscore.Lipo.Weighted>
-10.6599

> <Gold.Chemscore.Internal_Hbond.Weighted>
0.0000

> <Gold.Chemscore.DEClash.Weighted>
2.6567

> <Gold.Chemscore.DEInternal.Weighted>
1.8051

> <Gold.Chemscore.Rot.Weighted>
3.4963

> <Gold.Chemscore.Internal.Correction.Weighted>
   9.000000E+99

> <Gold.Protein.RotatedTorsions>
[ 6907 6896 6895 6894 ] final   47.64 input  -60.11 | X-H torsion
[ 7974 7965 7964 7962 ] final  -71.90 input  175.53 | X-H torsion
[ 8008 7997 7996 7995 ] final  -41.35 input   59.86 | X-H torsion
[ 10167 10162 10161 10158 ] final  -86.71 input  -65.29 | X-H torsion
[ 10718 10713 10712 10709 ] final   56.95 input   66.30 | X-H torsion
[ 10763 10752 10751 10750 ] final  -67.87 input  -60.55 | X-H torsion
[ 11005 11000 10999 10996 ] final  162.65 input  -57.11 | X-H torsion

> <Gold.Protein.ActiveResidues>
 VAL166  LYS551  ARG553  GLY616  TRP617  ASP618  TYR619  PRO620  LYS621  CYS622 
 ASP623  PHE694  ASN695  SER759  ASP760  ASP761  ALA762  ILE779  LEU786  VAL792 
 PHE793  MET794  SER795  GLU796  ALA797  LYS798  CYS799  TRP800  GLU811  SER814 

> <Gold.Protein.RotatedAtoms>
  152.2703  134.7939  160.0415 H   0  0  0  0  0  0  0  0  0  0  0  0  # atno 6907 bound_to 6896
  151.8554  133.3442  159.3695 H   0  0  0  0  0  0  0  0  0  0  0  0  # atno 6908 bound_to 6896
  150.7149  134.5186  159.5686 H   0  0  0  0  0  0  0  0  0  0  0  0  # atno 6909 bound_to 6896
  145.6721  140.9217  143.0877 H   0  0  0  0  0  0  0  0  0  0  0  0  # atno 7974 bound_to 7965
  154.4005  140.1502  156.3176 H   0  0  0  0  0  0  0  0  0  0  0  0  # atno 8008 bound_to 7997
  155.8559  140.3455  155.5702 H   0  0  0  0  0  0  0  0  0  0  0  0  # atno 8009 bound_to 7997
  155.7933  140.0860  157.1987 H   0  0  0  0  0  0  0  0  0  0  0  0  # atno 8010 bound_to 7997
  140.3915  143.2702  151.9258 H   0  0  0  0  0  0  0  0  0  0  0  0  # atno 10167 bound_to 10162
  157.5473  130.8740  149.8911 H   0  0  0  0  0  0  0  0  0  0  0  0  # atno 10718 bound_to 10713
  154.3808  135.6074  153.5790 H   0  0  0  0  0  0  0  0  0  0  0  0  # atno 10763 bound_to 10752
  152.9788  135.5860  154.4412 H   0  0  0  0  0  0  0  0  0  0  0  0  # atno 10764 bound_to 10752
  154.4181  135.2845  155.1971 H   0  0  0  0  0  0  0  0  0  0  0  0  # atno 10765 bound_to 10752
  140.2279  134.8146  157.3287 H   0  0  0  0  0  0  0  0  0  0  0  0  # atno 11005 bound_to 11000
  144.7053  139.8586  143.7432 LP  0  0  0  0  0  0  0  0  0  0  0  0  # atno 17320 bound_to 7965
  146.1036  139.4034  143.0331 LP  0  0  0  0  0  0  0  0  0  0  0  0  # atno 17321 bound_to 7965
  139.4789  144.5722  151.8069 LP  0  0  0  0  0  0  0  0  0  0  0  0  # atno 17342 bound_to 10162
  140.4834  144.1416  150.5936 LP  0  0  0  0  0  0  0  0  0  0  0  0  # atno 17343 bound_to 10162
  156.0547  130.3711  150.1119 LP  0  0  0  0  0  0  0  0  0  0  0  0  # atno 17370 bound_to 10713
  156.9295  130.9709  151.3535 LP  0  0  0  0  0  0  0  0  0  0  0  0  # atno 17371 bound_to 10713
  140.1781  134.4524  155.7789 LP  0  0  0  0  0  0  0  0  0  0  0  0  # atno 17394 bound_to 11000
  141.2219  133.6971  156.7822 LP  0  0  0  0  0  0  0  0  0  0  0  0  # atno 17395 bound_to 11000

$$$$
