AV-unprocessed.smi:2253|AV-procd|sdf|9118|dock6
  -GOLD-   2272012323D 1   1.00000     0.00000
 Structure written by MMmdl.
 52 54  0  0  0  0  0  0  0  0  3 V2000
  147.5997  133.2546  152.7949 C   0  0  0  0  0  0  0  0  0  0  0  0
  148.1752  133.9976  153.9370 N   0  3  2  0  0  0  0  0  0  0  0  0
  147.5205  135.3139  154.1432 C   0  0  0  0  0  0  0  0  0  0  0  0
  148.0866  136.0284  155.3852 C   0  0  0  0  0  0  0  0  0  0  0  0
  149.6188  136.2285  155.2895 C   0  0  2  0  0  0  0  0  0  0  0  0
  150.0066  137.2225  154.2285 N   0  3  2  0  0  0  0  0  0  0  0  0
  151.4689  137.4613  154.0553 C   0  0  0  0  0  0  0  0  0  0  0  0
  152.0592  138.2753  155.2218 C   0  0  0  0  0  0  0  0  0  0  0  0
  151.3406  139.6287  155.3551 C   0  0  2  0  0  0  0  0  0  0  0  0
  151.8552  140.3600  156.5098 N   0  0  0  0  0  0  0  0  0  0  0  0
  151.2545  141.4153  157.0804 C   0  0  0  0  0  0  0  0  0  0  0  0
  150.1749  141.8619  156.6951 O   0  0  0  0  0  0  0  0  0  0  0  0
  151.9847  141.8942  158.1028 N   0  0  0  0  0  0  0  0  0  0  0  0
  151.7379  143.0050  158.9587 C   0  0  0  0  0  0  0  0  0  0  0  0
  151.0343  144.1772  158.5858 C   0  0  0  0  0  0  0  0  0  0  0  0
  150.8691  145.1994  159.5419 C   0  0  0  0  0  0  0  0  0  0  0  0
  151.3457  145.1251  160.8022 N   0  0  0  0  0  0  0  0  0  0  0  0
  152.0144  144.0074  161.1555 C   0  0  0  0  0  0  0  0  0  0  0  0
  152.2358  142.9279  160.2770 C   0  0  0  0  0  0  0  0  0  0  0  0
  152.9177  141.8349  160.6974 F   0  0  0  0  0  0  0  0  0  0  0  0
  149.8190  139.4102  155.4657 C   0  0  0  0  0  0  0  0  0  0  0  0
  149.2975  138.5332  154.3095 C   0  0  0  0  0  0  0  0  0  0  0  0
  150.2266  134.8177  155.0932 C   0  0  0  0  0  0  0  0  0  0  0  0
  149.6528  134.1095  153.8515 C   0  0  0  0  0  0  0  0  0  0  0  0
  147.7712  133.7837  151.8564 H   0  0  0  0  0  0  0  0  0  0  0  0
  146.5245  133.1242  152.9226 H   0  0  0  0  0  0  0  0  0  0  0  0
  148.0473  132.2634  152.7156 H   0  0  0  0  0  0  0  0  0  0  0  0
  147.6522  135.9346  153.2555 H   0  0  0  0  0  0  0  0  0  0  0  0
  146.4470  135.1660  154.2678 H   0  0  0  0  0  0  0  0  0  0  0  0
  147.5544  136.9612  155.5594 H   0  0  0  0  0  0  0  0  0  0  0  0
  147.8660  135.4200  156.2638 H   0  0  0  0  0  0  0  0  0  0  0  0
  149.9757  136.6031  156.2486 H   0  0  0  0  0  0  0  0  0  0  0  0
  152.0241  136.5394  153.8954 H   0  0  0  0  0  0  0  0  0  0  0  0
  151.6090  138.0233  153.1306 H   0  0  0  0  0  0  0  0  0  0  0  0
  151.9802  137.7094  156.1509 H   0  0  0  0  0  0  0  0  0  0  0  0
  153.1241  138.4381  155.0515 H   0  0  0  0  0  0  0  0  0  0  0  0
  151.5469  140.2082  154.4527 H   0  0  0  0  0  0  0  0  0  0  0  0
  152.7406  140.0557  156.8882 H   0  0  0  0  0  0  0  0  0  0  0  0
  152.8467  141.4036  158.2914 H   0  0  0  0  0  0  0  0  0  0  0  0
  150.6196  144.3234  157.6017 H   0  0  0  0  0  0  0  0  0  0  0  0
  150.3383  146.1041  159.2846 H   0  0  0  0  0  0  0  0  0  0  0  0
  152.3856  143.9725  162.1690 H   0  0  0  0  0  0  0  0  0  0  0  0
  149.5729  138.9548  156.4253 H   0  0  0  0  0  0  0  0  0  0  0  0
  149.3029  140.3709  155.4490 H   0  0  0  0  0  0  0  0  0  0  0  0
  149.4600  139.0610  153.3685 H   0  0  0  0  0  0  0  0  0  0  0  0
  148.2188  138.4155  154.3792 H   0  0  0  0  0  0  0  0  0  0  0  0
  151.3149  134.8356  155.0667 H   0  0  0  0  0  0  0  0  0  0  0  0
  149.9913  134.2127  155.9704 H   0  0  0  0  0  0  0  0  0  0  0  0
  150.0854  133.1115  153.7701 H   0  0  0  0  0  0  0  0  0  0  0  0
  149.9290  134.6481  152.9439 H   0  0  0  0  0  0  0  0  0  0  0  0
  149.7055  136.8043  153.3599 H   0  0  0  0  0  0  0  0  0  0  0  0
  147.9769  133.4473  154.7611 H   0  0  0  0  0  0  0  0  0  0  0  0
  1  2  1  0  0  0  0
  1 25  1  0  0  0  0
  1 26  1  0  0  0  0
  1 27  1  0  0  0  0
  2 24  1  0  0  0  0
  2  3  1  0  0  0  0
  2 52  1  0  0  0  0
  3  4  1  0  0  0  0
  3 28  1  0  0  0  0
  3 29  1  0  0  0  0
  4  5  1  0  0  0  0
  4 30  1  0  0  0  0
  4 31  1  0  0  0  0
  5  6  1  0  0  0  0
  5 23  1  0  0  0  0
  5 32  1  0  0  0  0
  6 22  1  0  0  0  0
  6  7  1  0  0  0  0
  6 51  1  0  0  0  0
  7  8  1  0  0  0  0
  7 33  1  0  0  0  0
  7 34  1  0  0  0  0
  8  9  1  0  0  0  0
  8 35  1  0  0  0  0
  8 36  1  0  0  0  0
  9 10  1  0  0  0  0
  9 21  1  0  0  0  0
  9 37  1  0  0  0  0
 10 11  1  0  0  0  0
 10 38  1  0  0  0  0
 11 12  2  0  0  0  0
 11 13  1  0  0  0  0
 13 14  1  0  0  0  0
 13 39  1  0  0  0  0
 14 19  1  0  0  0  0
 14 15  2  0  0  0  0
 15 16  1  0  0  0  0
 15 40  1  0  0  0  0
 16 17  2  0  0  0  0
 16 41  1  0  0  0  0
 17 18  1  0  0  0  0
 18 19  2  0  0  0  0
 18 42  1  0  0  0  0
 19 20  1  0  0  0  0
 21 22  1  0  0  0  0
 21 43  1  0  0  0  0
 21 44  1  0  0  0  0
 22 45  1  0  0  0  0
 22 46  1  0  0  0  0
 23 24  1  0  0  0  0
 23 47  1  0  0  0  0
 23 48  1  0  0  0  0
 24 49  1  0  0  0  0
 24 50  1  0  0  0  0
M  CHG  1   2   1
M  CHG  1   6   1
M  END
> <s_m_source_file>
AV-unprocessed.smi

> <i_m_source_file_index>
2253

> <i_lp_mmshare_version>
43012

> <i_f3d_flags>
0

> <s_epik_input>
W0NIM11OMVtDSDJdW0NIMl1bQ0hdKFtDSDJdW0NIMl0xKU4yW0NIMl1bQ0gyXVtDSF0oW0NIMl1bQ0gyXTIpW05IXUMoPU8pW05IXWMzW2NIXVtjSF1uW2NIXWMzRg==

> <s_epik_cmdline>
J2VwaWtfcHl0aG9uJywgJy1waCcsICc3LjAnLCAnLXRuJywgJzgnLCAnLW1hJywgJzIwMCcsICctbWV0YWxfYmluZGluZycsICctaW1hZScsICc8aW5maWxlLm1hZT4nLCAnLW9tYWUnLCAnPG91dGZpbGUubWFlPic=

> <r_epik_Ionization_Penalty>
0.183544

> <r_epik_Ionization_Penalty_Charging>
0.180787

> <r_epik_Ionization_Penalty_Neutral>
0.00275649

> <r_epik_State_Penalty>
0.153592

> <r_epik_Charging_Adjusted_Penalty>
0.334379

> <i_epik_Tot_Q>
2

> <i_epik_Tot_abs_Q>
2

> <r_epik_Metal_State_Penalty>
0.153693

> <b_epik_Metal_Only>
0

> <s_lp_Force_Field>
OPLS_2005

> <r_lp_Energy>
53.0851

> <b_lp_Chiralities_Consistent>
1

> <s_lp_Variant>
AV-unprocessed.smi:2253-4

> <Gold.Version>
5.8.1

> <Gold.Id.Protein>
6NUR|6NUR_protein|mol2

> <Gold.PLP.Fitness>
47.7287

> <Gold.PLP.PLP>
-42.5766

> <Gold.PLP.part.hbond>
-1.0991

> <Gold.PLP.part.metal>
0.0000

> <Gold.PLP.part.buried>
-2.0358

> <Gold.PLP.part.nonpolar>
-39.3617

> <Gold.PLP.part.repulsive>
0.8703

> <Gold.PLP.ligand.clash>
0.0000

> <Gold.PLP.ligand.torsion>
0.4486

> <Gold.PLP.Chemscore.Hbond>
2.0000

> <Gold.PLP.Chemscore.CHOScore>
0.0000

> <Gold.PLP.Chemscore.Metal>
0.0000

> <Gold.Chemscore.Hbonds>
donor molecule, donor type, donor heavy atom, donor atom, acceptor molecule, acceptor atom, score
      L1  H     6    51       P1  7948  2.00

> <Gold.PLP.Chemscore.Internal.Correction>
0.0494

> <Gold.Rescore>
     Score         DG    S(hbond)    S(metal)    S(lipo)     H(rot)  DE(clash)    DE(int)     intcor
     15.38     -17.88       0.91        0.00     107.37       1.26       0.36       2.14       ----

> <Gold.Chemscore.Fitness>
15.3848

> <Gold.Chemscore.DG>
-17.8761

> <Gold.Chemscore.ZeroCoef>
-5.4800

> <Gold.Chemscore.Hbond>
0.9128

> <Gold.Chemscore.Metal>
0.0000

> <Gold.Chemscore.Lipo>
107.3723

> <Gold.Chemscore.Internal_Hbond>
0.0000

> <Gold.Chemscore.DEClash>
0.3559

> <Gold.Chemscore.DEInternal>
2.1354

> <Gold.Chemscore.Rot>
1.2559

> <Gold.Chemscore.Internal.Correction>
   9.000000E+99

> <Gold.Chemscore.Hbonds>
donor molecule, donor type, donor heavy atom, donor atom, acceptor molecule, acceptor atom, score
      L1  H     6    51       P1  7948  0.50

> <Gold.Chemscore.Hbond.Weighted>
-3.0486

> <Gold.Chemscore.Metal.Weighted>
-0.0000

> <Gold.Chemscore.Lipo.Weighted>
-12.5626

> <Gold.Chemscore.Internal_Hbond.Weighted>
0.0000

> <Gold.Chemscore.DEClash.Weighted>
0.3559

> <Gold.Chemscore.DEInternal.Weighted>
2.1354

> <Gold.Chemscore.Rot.Weighted>
3.2151

> <Gold.Chemscore.Internal.Correction.Weighted>
   9.000000E+99

> <Gold.Protein.RotatedTorsions>
[ 6907 6896 6895 6894 ] final -102.96 input  -60.11 | X-H torsion
[ 7974 7965 7964 7962 ] final  149.56 input  175.53 | X-H torsion
[ 8008 7997 7996 7995 ] final  -76.03 input   59.86 | X-H torsion
[ 10167 10162 10161 10158 ] final   51.27 input  -65.29 | X-H torsion
[ 10718 10713 10712 10709 ] final  168.37 input   66.30 | X-H torsion
[ 10763 10752 10751 10750 ] final   33.58 input  -60.55 | X-H torsion
[ 11005 11000 10999 10996 ] final  134.97 input  -57.11 | X-H torsion

> <Gold.Protein.ActiveResidues>
 VAL166  LYS551  ARG553  GLY616  TRP617  ASP618  TYR619  PRO620  LYS621  CYS622 
 ASP623  PHE694  ASN695  SER759  ASP760  ASP761  ALA762  ILE779  LEU786  VAL792 
 PHE793  MET794  SER795  GLU796  ALA797  LYS798  CYS799  TRP800  GLU811  SER814 

> <Gold.Protein.RotatedAtoms>
  150.7219  134.0502  159.3795 H   0  0  0  0  0  0  0  0  0  0  0  0  # atno 6907 bound_to 6896
  151.8479  135.0565  160.0465 H   0  0  0  0  0  0  0  0  0  0  0  0  # atno 6908 bound_to 6896
  152.2813  133.5437  159.5536 H   0  0  0  0  0  0  0  0  0  0  0  0  # atno 6909 bound_to 6896
  144.8428  139.6297  143.6008 H   0  0  0  0  0  0  0  0  0  0  0  0  # atno 7974 bound_to 7965
  154.5469  140.0734  156.8603 H   0  0  0  0  0  0  0  0  0  0  0  0  # atno 8008 bound_to 7997
  155.3070  140.3388  155.4227 H   0  0  0  0  0  0  0  0  0  0  0  0  # atno 8009 bound_to 7997
  156.1926  140.1692  156.8048 H   0  0  0  0  0  0  0  0  0  0  0  0  # atno 8010 bound_to 7997
  140.2637  144.3344  150.6310 H   0  0  0  0  0  0  0  0  0  0  0  0  # atno 10167 bound_to 10162
  157.0380  131.0278  151.2723 H   0  0  0  0  0  0  0  0  0  0  0  0  # atno 10718 bound_to 10713
  153.0205  135.6383  154.1533 H   0  0  0  0  0  0  0  0  0  0  0  0  # atno 10763 bound_to 10752
  154.1268  135.2843  155.3196 H   0  0  0  0  0  0  0  0  0  0  0  0  # atno 10764 bound_to 10752
  154.6223  135.5520  153.7651 H   0  0  0  0  0  0  0  0  0  0  0  0  # atno 10765 bound_to 10752
  139.9949  134.9501  156.9941 H   0  0  0  0  0  0  0  0  0  0  0  0  # atno 11005 bound_to 11000
  146.2718  139.6654  142.9290 LP  0  0  0  0  0  0  0  0  0  0  0  0  # atno 17320 bound_to 7965
  145.4658  141.0434  143.2726 LP  0  0  0  0  0  0  0  0  0  0  0  0  # atno 17321 bound_to 7965
  140.5946  143.2167  151.7189 LP  0  0  0  0  0  0  0  0  0  0  0  0  # atno 17342 bound_to 10162
  139.5009  144.3888  152.0301 LP  0  0  0  0  0  0  0  0  0  0  0  0  # atno 17343 bound_to 10162
  157.5126  130.7948  149.7722 LP  0  0  0  0  0  0  0  0  0  0  0  0  # atno 17370 bound_to 10713
  156.0047  130.3861  150.2474 LP  0  0  0  0  0  0  0  0  0  0  0  0  # atno 17371 bound_to 10713
  140.4837  134.1263  155.7221 LP  0  0  0  0  0  0  0  0  0  0  0  0  # atno 17394 bound_to 11000
  141.1596  133.8818  157.1884 LP  0  0  0  0  0  0  0  0  0  0  0  0  # atno 17395 bound_to 11000

$$$$
