AV-unprocessed.smi:3031|AV-procd|sdf|11555|dock1
  -GOLD-   2272016523D 1   1.00000     0.00000
 Structure written by MMmdl.
 46 47  0  0  0  0  0  0  0  0  1 V2000
  152.7440  143.5471  162.2012 C   0  0  0  0  0  0  0  0  0  0  0  0
  152.3240  143.7854  160.7795 C   0  0  0  0  0  0  0  0  0  0  0  0
  151.8039  144.9835  160.2127 C   0  0  0  0  0  0  0  0  0  0  0  0
  151.5304  144.8660  158.9241 N   0  0  0  0  0  0  0  0  0  0  0  0
  151.8727  143.5957  158.6191 N   0  0  0  0  0  0  0  0  0  0  0  0
  151.7072  143.1078  157.2585 C   0  0  0  0  0  0  0  0  0  0  0  0
  150.8490  141.8208  157.1555 C   0  0  2  0  0  0  0  0  0  0  0  0
  151.6172  140.5700  157.6108 C   0  0  0  0  0  0  0  0  0  0  0  0
  150.3144  141.5976  155.8079 N   0  0  0  0  0  0  0  0  0  0  0  0
  148.9836  140.9935  155.7442 C   0  0  0  0  0  0  0  0  0  0  0  0
  148.7362  140.3457  154.3726 C   0  0  1  0  0  0  0  0  0  0  0  0
  149.6736  140.8987  153.4719 O   0  0  0  0  0  0  0  0  0  0  0  0
  148.9523  138.8161  154.4079 C   0  0  0  0  0  0  0  0  0  0  0  0
  150.0516  138.3520  155.2557 N   0  0  0  0  0  0  0  0  0  0  0  0
  151.3630  138.7444  154.7416 C   0  0  0  0  0  0  0  0  0  0  0  0
  152.5078  138.2202  155.6263 C   0  0  0  0  0  0  0  0  0  0  0  0
  152.4117  136.8049  155.7484 O   0  0  0  0  0  0  0  0  0  0  0  0
  151.1636  136.3851  156.2895 C   0  0  0  0  0  0  0  0  0  0  0  0
  150.0189  136.9004  155.4006 C   0  0  0  0  0  0  0  0  0  0  0  0
  152.3466  142.9189  159.7233 C   0  0  0  0  0  0  0  0  0  0  0  0
  153.6485  144.1021  162.4502 H   0  0  0  0  0  0  0  0  0  0  0  0
  152.9499  142.4939  162.3935 H   0  0  0  0  0  0  0  0  0  0  0  0
  151.9719  143.8567  162.9057 H   0  0  0  0  0  0  0  0  0  0  0  0
  151.6168  145.9301  160.6979 H   0  0  0  0  0  0  0  0  0  0  0  0
  151.2377  143.9012  156.6759 H   0  0  0  0  0  0  0  0  0  0  0  0
  152.6912  142.9674  156.8110 H   0  0  0  0  0  0  0  0  0  0  0  0
  150.0092  141.9385  157.8416 H   0  0  0  0  0  0  0  0  0  0  0  0
  152.0269  140.7041  158.6123 H   0  0  0  0  0  0  0  0  0  0  0  0
  152.4442  140.3354  156.9399 H   0  0  0  0  0  0  0  0  0  0  0  0
  150.9619  139.6989  157.6404 H   0  0  0  0  0  0  0  0  0  0  0  0
  150.9673  141.0373  155.2694 H   0  0  0  0  0  0  0  0  0  0  0  0
  148.8971  140.2366  156.5250 H   0  0  0  0  0  0  0  0  0  0  0  0
  148.2057  141.7320  155.9362 H   0  0  0  0  0  0  0  0  0  0  0  0
  147.7361  140.6096  154.0310 H   0  0  0  0  0  0  0  0  0  0  0  0
  149.7667  140.3097  152.7388 H   0  0  0  0  0  0  0  0  0  0  0  0
  148.0207  138.3514  154.7357 H   0  0  0  0  0  0  0  0  0  0  0  0
  149.1155  138.4497  153.3932 H   0  0  0  0  0  0  0  0  0  0  0  0
  151.4909  138.3651  153.7266 H   0  0  0  0  0  0  0  0  0  0  0  0
  151.4423  139.8288  154.6819 H   0  0  0  0  0  0  0  0  0  0  0  0
  153.4728  138.4750  155.1876 H   0  0  0  0  0  0  0  0  0  0  0  0
  152.4739  138.6807  156.6150 H   0  0  0  0  0  0  0  0  0  0  0  0
  151.1448  135.2964  156.3404 H   0  0  0  0  0  0  0  0  0  0  0  0
  151.0574  136.7561  157.3102 H   0  0  0  0  0  0  0  0  0  0  0  0
  149.0651  136.5929  155.8314 H   0  0  0  0  0  0  0  0  0  0  0  0
  150.0838  136.4280  154.4189 H   0  0  0  0  0  0  0  0  0  0  0  0
  152.6636  141.8879  159.6646 H   0  0  0  0  0  0  0  0  0  0  0  0
  1  2  1  0  0  0  0
  1 21  1  0  0  0  0
  1 22  1  0  0  0  0
  1 23  1  0  0  0  0
  2 20  2  0  0  0  0
  2  3  1  0  0  0  0
  3  4  2  0  0  0  0
  3 24  1  0  0  0  0
  4  5  1  0  0  0  0
  5  6  1  0  0  0  0
  5 20  1  0  0  0  0
  6  7  1  0  0  0  0
  6 25  1  0  0  0  0
  6 26  1  0  0  0  0
  7  8  1  0  0  0  0
  7  9  1  0  0  0  0
  7 27  1  0  0  0  0
  8 28  1  0  0  0  0
  8 29  1  0  0  0  0
  8 30  1  0  0  0  0
  9 10  1  0  0  0  0
  9 31  1  0  0  0  0
 10 11  1  0  0  0  0
 10 32  1  0  0  0  0
 10 33  1  0  0  0  0
 11 12  1  0  0  0  0
 11 13  1  0  0  0  0
 11 34  1  0  0  0  0
 12 35  1  0  0  0  0
 13 14  1  0  0  0  0
 13 36  1  0  0  0  0
 13 37  1  0  0  0  0
 14 19  1  0  0  0  0
 14 15  1  0  0  0  0
 15 16  1  0  0  0  0
 15 38  1  0  0  0  0
 15 39  1  0  0  0  0
 16 17  1  0  0  0  0
 16 40  1  0  0  0  0
 16 41  1  0  0  0  0
 17 18  1  0  0  0  0
 18 19  1  0  0  0  0
 18 42  1  0  0  0  0
 18 43  1  0  0  0  0
 19 44  1  0  0  0  0
 19 45  1  0  0  0  0
 20 46  1  0  0  0  0
M  END
> <s_m_source_file>
AV-unprocessed.smi

> <i_m_source_file_index>
3031

> <i_lp_mmshare_version>
43012

> <i_f3d_flags>
0

> <s_epik_input>
W0NIM11jMVtjSF1ubihbY0hdMSlbQ0gyXVtDQEhdKFtDSDNdKVtOSF1bQ0gyXVtDQEhdKFtPSF0pW0NIMl1OMltDSDJdW0NIMl1PW0NIMl1bQ0gyXTI=

> <s_epik_cmdline>
J2VwaWtfcHl0aG9uJywgJy1waCcsICc3LjAnLCAnLXRuJywgJzgnLCAnLW1hJywgJzIwMCcsICctbWV0YWxfYmluZGluZycsICctaW1hZScsICc8aW5maWxlLm1hZT4nLCAnLW9tYWUnLCAnPG91dGZpbGUubWFlPic=

> <r_lp_tautomer_probability>
1

> <r_epik_Ionization_Penalty>
2.8101

> <r_epik_Ionization_Penalty_Charging>
0

> <r_epik_Ionization_Penalty_Neutral>
2.8101

> <r_epik_State_Penalty>
2.12351

> <r_epik_Charging_Adjusted_Penalty>
2.12351

> <i_epik_Tot_Q>
0

> <i_epik_Tot_abs_Q>
0

> <r_epik_Metal_State_Penalty>
2.12345

> <b_epik_Metal_Only>
0

> <s_lp_Force_Field>
OPLS_2005

> <r_lp_Energy>
32.0321

> <b_lp_Chiralities_Consistent>
1

> <s_lp_Variant>
AV-unprocessed.smi:3031-15

> <Gold.Version>
5.8.1

> <Gold.Id.Protein>
6NUR|6NUR_protein|mol2

> <Gold.PLP.Fitness>
47.8388

> <Gold.PLP.PLP>
-43.3598

> <Gold.PLP.part.hbond>
-3.6437

> <Gold.PLP.part.metal>
0.0000

> <Gold.PLP.part.buried>
-7.7410

> <Gold.PLP.part.nonpolar>
-32.7716

> <Gold.PLP.part.repulsive>
0.2190

> <Gold.PLP.ligand.clash>
0.0000

> <Gold.PLP.ligand.torsion>
1.5179

> <Gold.PLP.Chemscore.Hbond>
2.4216

> <Gold.PLP.Chemscore.CHOScore>
0.0000

> <Gold.PLP.Chemscore.Metal>
0.0000

> <Gold.Chemscore.Hbonds>
donor molecule, donor type, donor heavy atom, donor atom, acceptor molecule, acceptor atom, score
      L1  H    12    35       P1  7957  0.98
      P1  H  7989  7998       L1    12  0.06
      P1  H  8011  8017       L1    12  0.55
      P1  H 10752 10763       L1    17  0.91

> <Gold.PLP.Chemscore.Internal.Correction>
0.2499

> <Gold.Rescore>
     Score         DG    S(hbond)    S(metal)    S(lipo)     H(rot)  DE(clash)    DE(int)     intcor
     16.26     -18.42       1.96        0.00     110.06       2.53       0.40       1.77       ----

> <Gold.Chemscore.Fitness>
16.2606

> <Gold.Chemscore.DG>
-18.4236

> <Gold.Chemscore.ZeroCoef>
-5.4800

> <Gold.Chemscore.Hbond>
1.9616

> <Gold.Chemscore.Metal>
0.0000

> <Gold.Chemscore.Lipo>
110.0591

> <Gold.Chemscore.Internal_Hbond>
0.0000

> <Gold.Chemscore.DEClash>
0.3958

> <Gold.Chemscore.DEInternal>
1.7672

> <Gold.Chemscore.Rot>
2.5333

> <Gold.Chemscore.Internal.Correction>
   9.000000E+99

> <Gold.Chemscore.Hbonds>
donor molecule, donor type, donor heavy atom, donor atom, acceptor molecule, acceptor atom, score
      L1  H    12    35       P1  7957  0.92
      P1  H  8011  8017       L1    12  0.03
      P1  H 10752 10763       L1    17  0.58

> <Gold.Chemscore.Hbond.Weighted>
-6.5518

> <Gold.Chemscore.Metal.Weighted>
-0.0000

> <Gold.Chemscore.Lipo.Weighted>
-12.8769

> <Gold.Chemscore.Internal_Hbond.Weighted>
0.0000

> <Gold.Chemscore.DEClash.Weighted>
0.3958

> <Gold.Chemscore.DEInternal.Weighted>
1.7672

> <Gold.Chemscore.Rot.Weighted>
6.4852

> <Gold.Chemscore.Internal.Correction.Weighted>
   9.000000E+99

> <Gold.Protein.RotatedTorsions>
[ 6907 6896 6895 6894 ] final -155.81 input  -60.11 | X-H torsion
[ 7974 7965 7964 7962 ] final -159.77 input  175.53 | X-H torsion
[ 8008 7997 7996 7995 ] final  134.44 input   59.86 | X-H torsion
[ 10167 10162 10161 10158 ] final  -80.70 input  -65.29 | X-H torsion
[ 10718 10713 10712 10709 ] final  -93.61 input   66.30 | X-H torsion
[ 10763 10752 10751 10750 ] final   82.89 input  -60.55 | X-H torsion
[ 11005 11000 10999 10996 ] final  -59.67 input  -57.11 | X-H torsion

> <Gold.Protein.ActiveResidues>
 VAL166  LYS551  ARG553  GLY616  TRP617  ASP618  TYR619  PRO620  LYS621  CYS622 
 ASP623  PHE694  ASN695  SER759  ASP760  ASP761  ALA762  ILE779  LEU786  VAL792 
 PHE793  MET794  SER795  GLU796  ALA797  LYS798  CYS799  TRP800  GLU811  SER814 

> <Gold.Protein.RotatedAtoms>
  151.2781  133.4223  159.2624 H   0  0  0  0  0  0  0  0  0  0  0  0  # atno 6907 bound_to 6896
  151.0385  134.9591  159.8159 H   0  0  0  0  0  0  0  0  0  0  0  0  # atno 6908 bound_to 6896
  152.5360  134.2740  159.9034 H   0  0  0  0  0  0  0  0  0  0  0  0  # atno 6909 bound_to 6896
  144.7452  140.3637  143.6090 H   0  0  0  0  0  0  0  0  0  0  0  0  # atno 7974 bound_to 7965
  156.2999  140.2496  156.3418 H   0  0  0  0  0  0  0  0  0  0  0  0  # atno 8008 bound_to 7997
  154.9048  140.0405  157.1932 H   0  0  0  0  0  0  0  0  0  0  0  0  # atno 8009 bound_to 7997
  154.8465  140.2899  155.5630 H   0  0  0  0  0  0  0  0  0  0  0  0  # atno 8010 bound_to 7997
  140.4479  143.2492  151.8531 H   0  0  0  0  0  0  0  0  0  0  0  0  # atno 10167 bound_to 10162
  156.0015  130.5034  150.5801 H   0  0  0  0  0  0  0  0  0  0  0  0  # atno 10718 bound_to 10713
  153.1243  135.4711  154.9246 H   0  0  0  0  0  0  0  0  0  0  0  0  # atno 10763 bound_to 10752
  154.7605  135.3130  154.8390 H   0  0  0  0  0  0  0  0  0  0  0  0  # atno 10764 bound_to 10752
  153.8947  135.6881  153.4812 H   0  0  0  0  0  0  0  0  0  0  0  0  # atno 10765 bound_to 10752
  141.1257  133.6617  156.5107 H   0  0  0  0  0  0  0  0  0  0  0  0  # atno 11005 bound_to 11000
  145.7150  139.1694  143.2517 LP  0  0  0  0  0  0  0  0  0  0  0  0  # atno 17320 bound_to 7965
  146.1319  140.7174  142.9408 LP  0  0  0  0  0  0  0  0  0  0  0  0  # atno 17321 bound_to 7965
  139.4794  144.5154  151.8876 LP  0  0  0  0  0  0  0  0  0  0  0  0  # atno 17342 bound_to 10162
  140.4241  144.2203  150.5887 LP  0  0  0  0  0  0  0  0  0  0  0  0  # atno 17343 bound_to 10162
  157.3683  131.0761  151.1579 LP  0  0  0  0  0  0  0  0  0  0  0  0  # atno 17370 bound_to 10713
  157.2341  130.6539  149.5862 LP  0  0  0  0  0  0  0  0  0  0  0  0  # atno 17371 bound_to 10713
  140.4371  134.7049  157.4972 LP  0  0  0  0  0  0  0  0  0  0  0  0  # atno 17394 bound_to 11000
  140.0254  134.6485  155.9180 LP  0  0  0  0  0  0  0  0  0  0  0  0  # atno 17395 bound_to 11000

$$$$
