#       Name:                AV-unprocessed.smi:1592
#       Creating user name   scv26
#       Creation time:       Fri Mar 27 07:04:08 2020


#       File generated by GOLD software.
#

@<TRIPOS>MOLECULE
AV-unprocessed.smi:1592
    31    32     1
SMALL
NO_CHARGES


@<TRIPOS>ATOM
      1 ****        -1.3828   0.4398  -0.9954 O.2            1 S1                 0.0000
      2 ****        -0.4731  -0.3313  -0.6759 C.2            1 S1                 0.0000
      3 ****         0.8545  -0.0487  -0.3634 N.2            1 S1                 0.0000
      4 ****         1.3425   1.1608  -0.3085 C.2            1 S1                 0.0000
      5 ****         0.5769   2.3147  -0.5508 N.pl3          1 S1                 0.0000
      6 ****         1.0957   3.5903  -0.4815 C.2            1 S1                 0.0000
      7 ****         2.3769   3.8068  -0.1802 C.2            1 S1                 0.0000
      8 ****         3.2363   2.6701   0.0790 C.2            1 S1                 0.0000
      9 ****         2.7653   1.3529   0.0260 C.2            1 S1                 0.0000
     10 ****         3.5444   0.4000   0.2599 O.co2          1 S1                -1.0000
     11 ****        -0.7597  -1.8410  -0.5997 C.3            1 S1                 0.0000
     12 ****        -0.7443  -2.3861   0.8429 C.3            1 S1                 0.0000
     13 ****        -2.1243  -2.9914   1.0322 C.3            1 S1                 0.0000
     14 ****        -2.9625  -2.2440   0.0062 C.3            1 S1                 0.0000
     15 ****        -2.0723  -2.1176  -1.0922 O.3            1 S1                 0.0000
     16 ****         0.3883   4.3798  -0.6871 H              1 S1                 0.0000
     17 ****         2.7671   4.8126  -0.1289 H              1 S1                 0.0000
     18 ****         4.2725   2.8576   0.3212 H              1 S1                 0.0000
     19 ****        -0.4021   2.2431  -0.7857 H              1 S1                 0.0000
     20 ****        -0.0413  -2.3728  -1.2251 H              1 S1                 0.0000
     21 ****         0.0413  -3.1276   0.9908 H              1 S1                 0.0000
     22 ****        -0.5850  -1.5930   1.5755 H              1 S1                 0.0000
     23 ****        -2.1004  -4.0536   0.7865 H              1 S1                 0.0000
     24 ****        -2.5021  -2.8851   2.0492 H              1 S1                 0.0000
     25 ****        -3.8705  -2.7803  -0.2699 H              1 S1                 0.0000
     26 ****        -3.2424  -1.2554   0.3738 H              1 S1                 0.0000
     27 ****        -1.2068   1.4222  -1.0572 LP             1 S1                 0.0000
     28 ****        -2.2955   0.0819  -1.1923 LP             1 S1                 0.0000
     29 ****         1.4678  -0.8147  -0.1704 LP             1 S1                 0.0000
     30 ****        -2.0613  -2.9704  -1.6144 LP             1 S1                 0.0000
     31 ****        -2.3731  -1.3689  -1.6828 LP             1 S1                 0.0000
@<TRIPOS>BOND
    1    1    2 2     
    2    2    3 1     
    3    2   11 1     
    4    3    4 2     
    5    4    9 1     
    6    4    5 1     
    7    5   19 1     
    8    5    6 1     
    9    6   16 1     
   10    6    7 2     
   11    7   17 1     
   12    7    8 1     
   13    8    9 2     
   14    8   18 1     
   15    9   10 ar    
   16   11   15 1     
   17   11   12 1     
   18   11   20 1     
   19   12   13 1     
   20   12   21 1     
   21   12   22 1     
   22   13   14 1     
   23   13   23 1     
   24   13   24 1     
   25   14   15 1     
   26   14   25 1     
   27   14   26 1     
   28    1   27 1     
   29    1   28 1     
   30    3   29 1     
   31   15   30 1     
   32   15   31 1     
@<TRIPOS>SUBSTRUCTURE
      1 S1             1
@<TRIPOS>SET
LONE_PAIRS      STATIC     ATOMS    <user>   **** ""
6 27 28 29 10 30 31
DONOR_HYDROGENS      STATIC     ATOMS    <user>   **** ""
1 19
ATOM$BLUE        STATIC     ATOMS    COLORGROUP SYSTEM
6 27 28 29 10 30 31
ATOM$RED        STATIC     ATOMS    COLORGROUP SYSTEM
1 19
