#       Name:                AV-unprocessed.smi:2212
#       Creating user name   scv26
#       Creation time:       Fri Mar 27 12:17:07 2020


#       File generated by GOLD software.
#

@<TRIPOS>MOLECULE
AV-unprocessed.smi:2212
    38    39     1
SMALL
NO_CHARGES


@<TRIPOS>ATOM
      1 ****        -2.0503   1.9415  -2.1580 C.3            1 S1                 0.0000
      2 ****        -2.3429   1.0872  -1.0601 O.3            1 S1                 0.0000
      3 ****        -1.8618  -0.2534  -1.1640 C.3            1 S1                 0.0000
      4 ****        -0.3281  -0.3144  -1.1812 C.3            1 S1                 0.0000
      5 ****         0.2283   0.3529  -0.0116 N.am           1 S1                 0.0000
      6 ****         1.5194   0.3278   0.3455 C.2            1 S1                 0.0000
      7 ****         2.3583  -0.3046  -0.3041 O.2            1 S1                 0.0000
      8 ****         1.7100   1.0625   1.5062 N.2            1 S1                 0.0000
      9 ****         2.7477   0.8282   2.2497 C.2            1 S1                 0.0000
     10 ****         3.7923  -0.0880   2.1575 N.pl3          1 S1                 0.0000
     11 ****         4.6191   0.0997   3.2297 C.2            1 S1                 0.0000
     12 ****         4.1200   1.0876   3.9665 C.2            1 S1                 0.0000
     13 ****         2.9749   1.5524   3.3926 O.3            1 S1                 0.0000
     14 ****        -2.5987  -1.1051  -0.1130 C.3            1 S1                 0.0000
     15 ****        -2.8323  -2.1647  -1.1914 C.3            1 S1                 0.0000
     16 ****        -2.6473  -1.0515  -2.2239 C.3            1 S1                 0.0000
     17 ****        -2.5508   2.8981  -2.0091 H              1 S1                 0.0000
     18 ****        -2.4027   1.5268  -3.1026 H              1 S1                 0.0000
     19 ****        -0.9828   2.1446  -2.2396 H              1 S1                 0.0000
     20 ****         0.0039  -1.3538  -1.1900 H              1 S1                 0.0000
     21 ****         0.0784   0.1383  -2.0858 H              1 S1                 0.0000
     22 ****        -0.4150   0.8799   0.5619 H              1 S1                 0.0000
     23 ****         3.9507  -0.7852   1.4441 H              1 S1                 0.0000
     24 ****         5.5011  -0.5111   3.3541 H              1 S1                 0.0000
     25 ****         4.4463   1.5556   4.8836 H              1 S1                 0.0000
     26 ****        -1.9831  -1.4401   0.7223 H              1 S1                 0.0000
     27 ****        -3.5287  -0.6513   0.2345 H              1 S1                 0.0000
     28 ****        -2.0408  -2.9150  -1.2284 H              1 S1                 0.0000
     29 ****        -3.8234  -2.6187  -1.1799 H              1 S1                 0.0000
     30 ****        -3.5936  -0.5852  -2.5045 H              1 S1                 0.0000
     31 ****        -2.0683  -1.3409  -3.1013 H              1 S1                 0.0000
     32 ****        -3.3370   1.0485  -0.9591 LP             1 S1                 0.0000
     33 ****        -1.9402   1.4940  -0.2401 LP             1 S1                 0.0000
     34 ****         2.0799  -0.8143  -1.1182 LP             1 S1                 0.0000
     35 ****         3.3159  -0.3069  -0.0159 LP             1 S1                 0.0000
     36 ****         1.0520   1.7683   1.7686 LP             1 S1                 0.0000
     37 ****         2.2083   1.4382   4.0245 LP             1 S1                 0.0000
     38 ****         3.0782   2.5208   3.1656 LP             1 S1                 0.0000
@<TRIPOS>BOND
    1    1    2 1     
    2    1   17 1     
    3    1   18 1     
    4    1   19 1     
    5    2    3 1     
    6    3   16 1     
    7    3    4 1     
    8    3   14 1     
    9    4    5 1     
   10    4   20 1     
   11    4   21 1     
   12    5   22 1     
   13    5    6 am    
   14    6    8 1     
   15    6    7 2     
   16    8    9 2     
   17    9   13 1     
   18    9   10 1     
   19   10   23 1     
   20   10   11 1     
   21   11   24 1     
   22   11   12 2     
   23   12   25 1     
   24   12   13 1     
   25   14   15 1     
   26   14   26 1     
   27   14   27 1     
   28   15   16 1     
   29   15   28 1     
   30   15   29 1     
   31   16   30 1     
   32   16   31 1     
   33    2   32 1     
   34    2   33 1     
   35    7   34 1     
   36    7   35 1     
   37    8   36 1     
   38   13   37 1     
   39   13   38 1     
@<TRIPOS>SUBSTRUCTURE
      1 S1             1
@<TRIPOS>SET
LONE_PAIRS      STATIC     ATOMS    <user>   **** ""
7 32 33 34 35 36 37 38
DONOR_HYDROGENS      STATIC     ATOMS    <user>   **** ""
2 22 23
ATOM$BLUE        STATIC     ATOMS    COLORGROUP SYSTEM
7 32 33 34 35 36 37 38
ATOM$RED        STATIC     ATOMS    COLORGROUP SYSTEM
2 22 23
