AV-unprocessed.smi:1855|AV-procd|sdf|7532|dock9
  -GOLD-   22720 9243D 1   1.00000     0.00000
 Structure written by MMmdl.
 44 46  0  0  0  0  0  0  0  0  2 V2000
  155.8583  138.6776  159.6831 C   0  0  0  0  0  0  0  0  0  0  0  0
  154.6564  139.1345  159.0818 O   0  0  0  0  0  0  0  0  0  0  0  0
  153.9967  140.1989  159.6620 C   0  0  0  0  0  0  0  0  0  0  0  0
  154.4201  140.8309  160.8584 C   0  0  0  0  0  0  0  0  0  0  0  0
  153.6907  141.9093  161.3920 C   0  0  0  0  0  0  0  0  0  0  0  0
  152.5346  142.3690  160.7382 C   0  0  0  0  0  0  0  0  0  0  0  0
  152.1056  141.7493  159.5505 C   0  0  0  0  0  0  0  0  0  0  0  0
  152.8323  140.6610  159.0073 C   0  0  0  0  0  0  0  0  0  0  0  0
  152.4751  140.0064  157.8496 O   0  0  0  0  0  0  0  0  0  0  0  0
  151.1266  140.0730  157.4092 C   0  0  0  0  0  0  0  0  0  0  0  0
  151.1073  140.5912  155.9636 C   0  0  0  0  0  0  0  0  0  0  0  0
  150.2285  139.7845  155.1005 N   0  0  0  0  0  0  0  0  0  0  0  0
  150.3120  138.4728  154.7327 C   0  0  0  0  0  0  0  0  0  0  0  0
  151.3538  137.4796  155.1439 C   0  0  0  0  0  0  0  0  0  0  0  0
  150.9110  136.0985  154.9955 N   0  0  0  0  0  0  0  0  0  0  0  0
  150.7621  135.2276  156.0038 C   0  0  0  0  0  0  0  0  0  0  0  0
  150.9696  135.4918  157.1867 O   0  0  0  0  0  0  0  0  0  0  0  0
  149.2609  138.2192  153.9024 N   0  3  0  0  0  0  0  0  0  0  0  0
  148.5029  139.3773  153.7302 C   0  0  0  0  0  0  0  0  0  0  0  0
  147.3577  139.6121  152.9753 C   0  0  0  0  0  0  0  0  0  0  0  0
  146.8362  140.9220  153.0072 C   0  0  0  0  0  0  0  0  0  0  0  0
  147.4476  141.9369  153.7714 C   0  0  0  0  0  0  0  0  0  0  0  0
  148.6041  141.6844  154.5375 C   0  0  0  0  0  0  0  0  0  0  0  0
  149.1168  140.3875  154.4979 C   0  0  0  0  0  0  0  0  0  0  0  0
  156.2457  137.8336  159.1124 H   0  0  0  0  0  0  0  0  0  0  0  0
  155.6882  138.3344  160.7043 H   0  0  0  0  0  0  0  0  0  0  0  0
  156.6239  139.4544  159.6845 H   0  0  0  0  0  0  0  0  0  0  0  0
  155.3031  140.5066  161.3875 H   0  0  0  0  0  0  0  0  0  0  0  0
  154.0203  142.3852  162.3038 H   0  0  0  0  0  0  0  0  0  0  0  0
  151.9768  143.1988  161.1466 H   0  0  0  0  0  0  0  0  0  0  0  0
  151.2172  142.1298  159.0699 H   0  0  0  0  0  0  0  0  0  0  0  0
  150.6654  139.0847  157.4449 H   0  0  0  0  0  0  0  0  0  0  0  0
  150.5506  140.7402  158.0517 H   0  0  0  0  0  0  0  0  0  0  0  0
  150.7557  141.6221  155.9378 H   0  0  0  0  0  0  0  0  0  0  0  0
  152.1111  140.6038  155.5392 H   0  0  0  0  0  0  0  0  0  0  0  0
  152.2374  137.6252  154.5223 H   0  0  0  0  0  0  0  0  0  0  0  0
  151.6690  137.6632  156.1715 H   0  0  0  0  0  0  0  0  0  0  0  0
  150.7152  135.7775  154.0584 H   0  0  0  0  0  0  0  0  0  0  0  0
  150.4293  134.2471  155.6301 H   0  0  0  0  0  0  0  0  0  0  0  0
  146.8889  138.8370  152.3873 H   0  0  0  0  0  0  0  0  0  0  0  0
  145.9511  141.1538  152.4330 H   0  0  0  0  0  0  0  0  0  0  0  0
  147.0226  142.9301  153.7687 H   0  0  0  0  0  0  0  0  0  0  0  0
  149.0684  142.4723  155.1117 H   0  0  0  0  0  0  0  0  0  0  0  0
  149.0810  137.3174  153.4804 H   0  0  0  0  0  0  0  0  0  0  0  0
  1  2  1  0  0  0  0
  1 25  1  0  0  0  0
  1 26  1  0  0  0  0
  1 27  1  0  0  0  0
  2  3  1  0  0  0  0
  3  8  1  0  0  0  0
  3  4  2  0  0  0  0
  4  5  1  0  0  0  0
  4 28  1  0  0  0  0
  5  6  2  0  0  0  0
  5 29  1  0  0  0  0
  6  7  1  0  0  0  0
  6 30  1  0  0  0  0
  7  8  2  0  0  0  0
  7 31  1  0  0  0  0
  8  9  1  0  0  0  0
  9 10  1  0  0  0  0
 10 11  1  0  0  0  0
 10 32  1  0  0  0  0
 10 33  1  0  0  0  0
 11 12  1  0  0  0  0
 11 34  1  0  0  0  0
 11 35  1  0  0  0  0
 12 24  1  0  0  0  0
 12 13  1  0  0  0  0
 13 14  1  0  0  0  0
 13 18  2  0  0  0  0
 14 15  1  0  0  0  0
 14 36  1  0  0  0  0
 14 37  1  0  0  0  0
 15 16  1  0  0  0  0
 15 38  1  0  0  0  0
 16 17  2  0  0  0  0
 16 39  1  0  0  0  0
 18 19  1  0  0  0  0
 18 44  1  0  0  0  0
 19 24  2  0  0  0  0
 19 20  1  0  0  0  0
 20 21  2  0  0  0  0
 20 40  1  0  0  0  0
 21 22  1  0  0  0  0
 21 41  1  0  0  0  0
 22 23  2  0  0  0  0
 22 42  1  0  0  0  0
 23 24  1  0  0  0  0
 23 43  1  0  0  0  0
M  CHG  1  18   1
M  END
> <s_m_source_file>
AV-unprocessed.smi

> <i_m_source_file_index>
1855

> <i_lp_mmshare_version>
43012

> <i_f3d_flags>
0

> <s_epik_input>
W0NIM11PYzFbY0hdW2NIXVtjSF1bY0hdYzFPW0NIMl1bQ0gyXW4oYyhuMilbQ0gyXVtOSF1bQ0hdPU8pYyhjMjMpW2NIXVtjSF1bY0hdW2NIXTM=

> <s_epik_cmdline>
J2VwaWtfcHl0aG9uJywgJy1waCcsICc3LjAnLCAnLXRuJywgJzgnLCAnLW1hJywgJzIwMCcsICctbWV0YWxfYmluZGluZycsICctaW1hZScsICc8aW5maWxlLm1hZT4nLCAnLW9tYWUnLCAnPG91dGZpbGUubWFlPic=

> <r_lp_tautomer_probability>
1

> <r_epik_Ionization_Penalty>
1.39865

> <r_epik_Ionization_Penalty_Charging>
1.39865

> <r_epik_Ionization_Penalty_Neutral>
7.38905e-08

> <r_epik_State_Penalty>
1.48061

> <r_epik_Charging_Adjusted_Penalty>
2.87925

> <i_epik_Tot_Q>
1

> <i_epik_Tot_abs_Q>
1

> <r_epik_Metal_State_Penalty>
1.53473

> <b_epik_Metal_Only>
0

> <s_lp_Force_Field>
OPLS_2005

> <r_lp_Energy>
17.0983

> <b_lp_Chiralities_Consistent>
1

> <s_lp_Variant>
AV-unprocessed.smi:1855-2

> <Gold.Version>
5.8.1

> <Gold.Id.Protein>
6NUR|6NUR_protein|mol2

> <Gold.PLP.Fitness>
53.1645

> <Gold.PLP.PLP>
-46.6733

> <Gold.PLP.part.hbond>
-3.7230

> <Gold.PLP.part.metal>
0.0000

> <Gold.PLP.part.buried>
0.7772

> <Gold.PLP.part.nonpolar>
-43.1812

> <Gold.PLP.part.repulsive>
1.1339

> <Gold.PLP.ligand.clash>
0.0000

> <Gold.PLP.ligand.torsion>
1.3399

> <Gold.PLP.Chemscore.Hbond>
3.0000

> <Gold.PLP.Chemscore.CHOScore>
0.0000

> <Gold.PLP.Chemscore.Metal>
0.0000

> <Gold.Chemscore.Hbonds>
donor molecule, donor type, donor heavy atom, donor atom, acceptor molecule, acceptor atom, score
      L1  H    18    44       P1  7948  1.92
      P1  H  7997  8008       L1     2  0.77

> <Gold.PLP.Chemscore.Internal.Correction>
0.1711

> <Gold.Rescore>
     Score         DG    S(hbond)    S(metal)    S(lipo)     H(rot)  DE(clash)    DE(int)     intcor
     15.62     -17.62       1.49        0.00     122.66       2.81       0.69       1.30       ----

> <Gold.Chemscore.Fitness>
15.6241

> <Gold.Chemscore.DG>
-17.6207

> <Gold.Chemscore.ZeroCoef>
-5.4800

> <Gold.Chemscore.Hbond>
1.4926

> <Gold.Chemscore.Metal>
0.0000

> <Gold.Chemscore.Lipo>
122.6587

> <Gold.Chemscore.Internal_Hbond>
0.0000

> <Gold.Chemscore.DEClash>
0.6944

> <Gold.Chemscore.DEInternal>
1.3022

> <Gold.Chemscore.Rot>
2.8108

> <Gold.Chemscore.Internal.Correction>
   9.000000E+99

> <Gold.Chemscore.Hbonds>
donor molecule, donor type, donor heavy atom, donor atom, acceptor molecule, acceptor atom, score
      L1  H    18    44       P1  7948  0.92
      P1  H  7997  8008       L1     2  0.10

> <Gold.Chemscore.Hbond.Weighted>
-4.9852

> <Gold.Chemscore.Metal.Weighted>
-0.0000

> <Gold.Chemscore.Lipo.Weighted>
-14.3511

> <Gold.Chemscore.Internal_Hbond.Weighted>
0.0000

> <Gold.Chemscore.DEClash.Weighted>
0.6944

> <Gold.Chemscore.DEInternal.Weighted>
1.3022

> <Gold.Chemscore.Rot.Weighted>
7.1955

> <Gold.Chemscore.Internal.Correction.Weighted>
   9.000000E+99

> <Gold.Protein.RotatedTorsions>
[ 6907 6896 6895 6894 ] final   42.72 input  -60.11 | X-H torsion
[ 7974 7965 7964 7962 ] final  114.43 input  175.53 | X-H torsion
[ 8008 7997 7996 7995 ] final -104.55 input   59.86 | X-H torsion
[ 10167 10162 10161 10158 ] final  178.36 input  -65.29 | X-H torsion
[ 10718 10713 10712 10709 ] final   27.53 input   66.30 | X-H torsion
[ 10763 10752 10751 10750 ] final   88.39 input  -60.55 | X-H torsion
[ 11005 11000 10999 10996 ] final -140.04 input  -57.11 | X-H torsion

> <Gold.Protein.ActiveResidues>
 VAL166  LYS551  ARG553  GLY616  TRP617  ASP618  TYR619  PRO620  LYS621  CYS622 
 ASP623  PHE694  ASN695  SER759  ASP760  ASP761  ALA762  ILE779  LEU786  VAL792 
 PHE793  MET794  SER795  GLU796  ALA797  LYS798  CYS799  TRP800  GLU811  SER814 

> <Gold.Protein.RotatedAtoms>
  152.2114  134.8498  160.0496 H   0  0  0  0  0  0  0  0  0  0  0  0  # atno 6907 bound_to 6896
  151.9314  133.3607  159.3940 H   0  0  0  0  0  0  0  0  0  0  0  0  # atno 6908 bound_to 6896
  150.6977  134.4458  159.5357 H   0  0  0  0  0  0  0  0  0  0  0  0  # atno 6909 bound_to 6896
  145.2046  139.2936  143.4300 H   0  0  0  0  0  0  0  0  0  0  0  0  # atno 7974 bound_to 7965
  154.8869  140.0417  157.1815 H   0  0  0  0  0  0  0  0  0  0  0  0  # atno 8008 bound_to 7997
  154.8581  140.2939  155.5535 H   0  0  0  0  0  0  0  0  0  0  0  0  # atno 8009 bound_to 7997
  156.2998  140.2452  156.3551 H   0  0  0  0  0  0  0  0  0  0  0  0  # atno 8010 bound_to 7997
  139.5290  144.2690  152.0644 H   0  0  0  0  0  0  0  0  0  0  0  0  # atno 10167 bound_to 10162
  157.2214  130.6981  149.6272 H   0  0  0  0  0  0  0  0  0  0  0  0  # atno 10718 bound_to 10713
  153.1764  135.4509  154.9970 H   0  0  0  0  0  0  0  0  0  0  0  0  # atno 10763 bound_to 10752
  154.8000  135.3252  154.7575 H   0  0  0  0  0  0  0  0  0  0  0  0  # atno 10764 bound_to 10752
  153.8044  135.6960  153.4905 H   0  0  0  0  0  0  0  0  0  0  0  0  # atno 10765 bound_to 10752
  140.8461  134.2342  157.4785 H   0  0  0  0  0  0  0  0  0  0  0  0  # atno 11005 bound_to 11000
  146.3410  140.2301  142.8593 LP  0  0  0  0  0  0  0  0  0  0  0  0  # atno 17320 bound_to 7965
  144.9915  140.8551  143.5337 LP  0  0  0  0  0  0  0  0  0  0  0  0  # atno 17321 bound_to 7965
  140.2150  144.4524  150.6368 LP  0  0  0  0  0  0  0  0  0  0  0  0  # atno 17342 bound_to 10162
  140.6456  143.2212  151.6194 LP  0  0  0  0  0  0  0  0  0  0  0  0  # atno 17343 bound_to 10162
  155.9682  130.4518  150.5751 LP  0  0  0  0  0  0  0  0  0  0  0  0  # atno 17370 bound_to 10713
  157.3572  131.0743  151.1666 LP  0  0  0  0  0  0  0  0  0  0  0  0  # atno 17371 bound_to 10713
  139.8703  134.9660  156.4548 LP  0  0  0  0  0  0  0  0  0  0  0  0  # atno 17394 bound_to 11000
  140.8841  133.7896  155.9499 LP  0  0  0  0  0  0  0  0  0  0  0  0  # atno 17395 bound_to 11000

$$$$
