AV-unprocessed.smi:1475|AV-procd|sdf|5978|dock2
  -GOLD-   22720 6 73D 1   1.00000     0.00000
 Structure written by MMmdl.
 50 51  0  0  0  0  0  0  0  0  2 V2000
  147.3082  137.6159  163.6629 C   0  0  0  0  0  0  0  0  0  0  0  0
  147.2808  136.7767  162.4196 C   0  0  0  0  0  0  0  0  0  0  0  0
  146.9446  135.3998  162.2937 C   0  0  0  0  0  0  0  0  0  0  0  0
  147.0830  135.1391  160.9596 C   0  0  0  0  0  0  0  0  0  0  0  0
  146.8745  133.8694  160.2011 C   0  0  0  0  0  0  0  0  0  0  0  0
  147.4783  136.3211  160.3584 N   0  0  0  0  0  0  0  0  0  0  0  0
  147.7512  136.5917  158.9559 C   0  0  0  0  0  0  0  0  0  0  0  0
  149.1865  137.0822  158.7617 C   0  0  0  0  0  0  0  0  0  0  0  0
  150.1331  136.3725  159.1013 O   0  0  0  0  0  0  0  0  0  0  0  0
  149.3352  138.2970  158.2107 N   0  0  0  0  0  0  0  0  0  0  0  0
  150.6134  138.9303  157.9103 C   0  0  0  0  0  0  0  0  0  0  0  0
  150.4700  140.4564  157.7408 C   0  0  0  0  0  0  0  0  0  0  0  0
  151.5913  141.2077  158.3592 N   0  3  1  0  0  0  0  0  0  0  0  0
  151.4650  142.6732  158.1478 C   0  0  0  0  0  0  0  0  0  0  0  0
  152.7147  143.4263  158.6442 C   0  0  1  0  0  0  0  0  0  0  0  0
  152.5772  144.9410  158.4336 C   0  0  0  0  0  0  0  0  0  0  0  0
  152.9895  143.0913  160.1211 C   0  0  0  0  0  0  0  0  0  0  0  0
  153.0568  141.5715  160.3582 C   0  0  2  0  0  0  0  0  0  0  0  0
  154.3544  140.9383  159.8254 C   0  0  0  0  0  0  0  0  0  0  0  0
  151.7978  140.8820  159.7963 C   0  0  0  0  0  0  0  0  0  0  0  0
  147.5978  137.3233  161.2572 N   0  0  0  0  0  0  0  0  0  0  0  0
  147.0553  137.0245  164.5429 H   0  0  0  0  0  0  0  0  0  0  0  0
  146.5938  138.4369  163.5982 H   0  0  0  0  0  0  0  0  0  0  0  0
  148.2970  138.0451  163.8252 H   0  0  0  0  0  0  0  0  0  0  0  0
  146.6471  134.7072  163.0670 H   0  0  0  0  0  0  0  0  0  0  0  0
  146.5285  133.0741  160.8613 H   0  0  0  0  0  0  0  0  0  0  0  0
  147.8030  133.5378  159.7362 H   0  0  0  0  0  0  0  0  0  0  0  0
  146.1284  134.0005  159.4176 H   0  0  0  0  0  0  0  0  0  0  0  0
  147.5760  135.6868  158.3714 H   0  0  0  0  0  0  0  0  0  0  0  0
  147.0493  137.3422  158.5912 H   0  0  0  0  0  0  0  0  0  0  0  0
  148.4998  138.8041  157.9543 H   0  0  0  0  0  0  0  0  0  0  0  0
  151.3213  138.6768  158.6995 H   0  0  0  0  0  0  0  0  0  0  0  0
  151.0008  138.4892  156.9916 H   0  0  0  0  0  0  0  0  0  0  0  0
  150.4396  140.6731  156.6719 H   0  0  0  0  0  0  0  0  0  0  0  0
  149.5254  140.8138  158.1537 H   0  0  0  0  0  0  0  0  0  0  0  0
  151.3256  142.8774  157.0853 H   0  0  0  0  0  0  0  0  0  0  0  0
  150.5720  143.0372  158.6593 H   0  0  0  0  0  0  0  0  0  0  0  0
  153.5676  143.0947  158.0507 H   0  0  0  0  0  0  0  0  0  0  0  0
  151.7354  145.3454  158.9969 H   0  0  0  0  0  0  0  0  0  0  0  0
  152.4192  145.1801  157.3817 H   0  0  0  0  0  0  0  0  0  0  0  0
  153.4765  145.4652  158.7585 H   0  0  0  0  0  0  0  0  0  0  0  0
  153.9135  143.5659  160.4540 H   0  0  0  0  0  0  0  0  0  0  0  0
  152.1934  143.5108  160.7382 H   0  0  0  0  0  0  0  0  0  0  0  0
  153.0610  141.4134  161.4374 H   0  0  0  0  0  0  0  0  0  0  0  0
  154.4312  141.0128  158.7407 H   0  0  0  0  0  0  0  0  0  0  0  0
  154.4076  139.8807  160.0855 H   0  0  0  0  0  0  0  0  0  0  0  0
  155.2318  141.4240  160.2536 H   0  0  0  0  0  0  0  0  0  0  0  0
  150.9200  141.1983  160.3622 H   0  0  0  0  0  0  0  0  0  0  0  0
  151.8864  139.8065  159.9433 H   0  0  0  0  0  0  0  0  0  0  0  0
  152.4281  140.9237  157.8702 H   0  0  0  0  0  0  0  0  0  0  0  0
  1  2  1  0  0  0  0
  1 22  1  0  0  0  0
  1 23  1  0  0  0  0
  1 24  1  0  0  0  0
  2 21  2  0  0  0  0
  2  3  1  0  0  0  0
  3  4  2  0  0  0  0
  3 25  1  0  0  0  0
  4  5  1  0  0  0  0
  4  6  1  0  0  0  0
  5 26  1  0  0  0  0
  5 27  1  0  0  0  0
  5 28  1  0  0  0  0
  6  7  1  0  0  0  0
  6 21  1  0  0  0  0
  7  8  1  0  0  0  0
  7 29  1  0  0  0  0
  7 30  1  0  0  0  0
  8  9  2  0  0  0  0
  8 10  1  0  0  0  0
 10 11  1  0  0  0  0
 10 31  1  0  0  0  0
 11 12  1  0  0  0  0
 11 32  1  0  0  0  0
 11 33  1  0  0  0  0
 12 13  1  0  0  0  0
 12 34  1  0  0  0  0
 12 35  1  0  0  0  0
 13 20  1  0  0  0  0
 13 14  1  0  0  0  0
 13 50  1  0  0  0  0
 14 15  1  0  0  0  0
 14 36  1  0  0  0  0
 14 37  1  0  0  0  0
 15 16  1  0  0  0  0
 15 17  1  0  0  0  0
 15 38  1  0  0  0  0
 16 39  1  0  0  0  0
 16 40  1  0  0  0  0
 16 41  1  0  0  0  0
 17 18  1  0  0  0  0
 17 42  1  0  0  0  0
 17 43  1  0  0  0  0
 18 19  1  0  0  0  0
 18 20  1  0  0  0  0
 18 44  1  0  0  0  0
 19 45  1  0  0  0  0
 19 46  1  0  0  0  0
 19 47  1  0  0  0  0
 20 48  1  0  0  0  0
 20 49  1  0  0  0  0
M  CHG  1  13   1
M  END
> <s_m_source_file>
AV-unprocessed.smi

> <i_m_source_file_index>
1475

> <i_lp_mmshare_version>
43012

> <i_f3d_flags>
0

> <s_epik_input>
W0NIM11jMVtjSF1jKFtDSDNdKW4objEpW0NIMl1DKD1PKVtOSF1bQ0gyXVtDSDJdTjJbQ0gyXVtDQEBIXShbQ0gzXSlbQ0gyXVtDQEBIXShbQ0gzXSlbQ0gyXTI=

> <s_epik_cmdline>
J2VwaWtfcHl0aG9uJywgJy1waCcsICc3LjAnLCAnLXRuJywgJzgnLCAnLW1hJywgJzIwMCcsICctbWV0YWxfYmluZGluZycsICctaW1hZScsICc8aW5maWxlLm1hZT4nLCAnLW9tYWUnLCAnPG91dGZpbGUubWFlPic=

> <r_lp_tautomer_probability>
1

> <r_epik_Ionization_Penalty>
0.00206431

> <r_epik_Ionization_Penalty_Charging>
0.00187095

> <r_epik_Ionization_Penalty_Neutral>
0.000193364

> <r_epik_State_Penalty>
-0

> <r_epik_Charging_Adjusted_Penalty>
0.00187095

> <i_epik_Tot_Q>
1

> <i_epik_Tot_abs_Q>
1

> <r_epik_Metal_State_Penalty>
-0

> <b_epik_Metal_Only>
0

> <s_lp_Force_Field>
OPLS_2005

> <r_lp_Energy>
16.2356

> <b_lp_Chiralities_Consistent>
1

> <s_lp_Variant>
AV-unprocessed.smi:1475-3

> <Gold.Version>
5.8.1

> <Gold.Id.Protein>
6NUR|6NUR_protein|mol2

> <Gold.PLP.Fitness>
53.3484

> <Gold.PLP.PLP>
-46.3025

> <Gold.PLP.part.hbond>
-3.0000

> <Gold.PLP.part.metal>
0.0000

> <Gold.PLP.part.buried>
-2.8762

> <Gold.PLP.part.nonpolar>
-40.6325

> <Gold.PLP.part.repulsive>
0.2459

> <Gold.PLP.ligand.clash>
0.0000

> <Gold.PLP.ligand.torsion>
0.4281

> <Gold.PLP.Chemscore.Hbond>
2.6250

> <Gold.PLP.Chemscore.CHOScore>
0.0000

> <Gold.PLP.Chemscore.Metal>
0.0000

> <Gold.Chemscore.Hbonds>
donor molecule, donor type, donor heavy atom, donor atom, acceptor molecule, acceptor atom, score
      P1  H  6896  6907       L1     9  1.00
      P1  H  6931  6943       L1    21  0.65
      P1  H  6934  6947       L1    21  0.86

> <Gold.PLP.Chemscore.Internal.Correction>
0.0273

> <Gold.Rescore>
     Score         DG    S(hbond)    S(metal)    S(lipo)     H(rot)  DE(clash)    DE(int)     intcor
     21.82     -22.65       1.84        0.00     130.16       1.64       0.37       0.46       ----

> <Gold.Chemscore.Fitness>
21.8229

> <Gold.Chemscore.DG>
-22.6542

> <Gold.Chemscore.ZeroCoef>
-5.4800

> <Gold.Chemscore.Hbond>
1.8394

> <Gold.Chemscore.Metal>
0.0000

> <Gold.Chemscore.Lipo>
130.1607

> <Gold.Chemscore.Internal_Hbond>
0.0000

> <Gold.Chemscore.DEClash>
0.3750

> <Gold.Chemscore.DEInternal>
0.4564

> <Gold.Chemscore.Rot>
1.6399

> <Gold.Chemscore.Internal.Correction>
   9.000000E+99

> <Gold.Chemscore.Hbonds>
donor molecule, donor type, donor heavy atom, donor atom, acceptor molecule, acceptor atom, score
      P1  H  6896  6907       L1     9  1.00
      P1  H  6931  6943       L1    21  0.08
      P1  H  6934  6947       L1    21  0.83

> <Gold.Chemscore.Hbond.Weighted>
-6.1436

> <Gold.Chemscore.Metal.Weighted>
-0.0000

> <Gold.Chemscore.Lipo.Weighted>
-15.2288

> <Gold.Chemscore.Internal_Hbond.Weighted>
0.0000

> <Gold.Chemscore.DEClash.Weighted>
0.3750

> <Gold.Chemscore.DEInternal.Weighted>
0.4564

> <Gold.Chemscore.Rot.Weighted>
4.1982

> <Gold.Chemscore.Internal.Correction.Weighted>
   9.000000E+99

> <Gold.Protein.RotatedTorsions>
[ 6907 6896 6895 6894 ] final  -35.62 input  -60.11 | X-H torsion
[ 7974 7965 7964 7962 ] final   33.13 input  175.53 | X-H torsion
[ 8008 7997 7996 7995 ] final -169.77 input   59.86 | X-H torsion
[ 10167 10162 10161 10158 ] final   96.52 input  -65.29 | X-H torsion
[ 10718 10713 10712 10709 ] final   41.80 input   66.30 | X-H torsion
[ 10763 10752 10751 10750 ] final -171.79 input  -60.55 | X-H torsion
[ 11005 11000 10999 10996 ] final  -23.55 input  -57.11 | X-H torsion

> <Gold.Protein.ActiveResidues>
 VAL166  LYS551  ARG553  GLY616  TRP617  ASP618  TYR619  PRO620  LYS621  CYS622 
 ASP623  PHE694  ASN695  SER759  ASP760  ASP761  ALA762  ILE779  LEU786  VAL792 
 PHE793  MET794  SER795  GLU796  ALA797  LYS798  CYS799  TRP800  GLU811  SER814 

> <Gold.Protein.RotatedAtoms>
  151.0376  134.9584  159.8143 H   0  0  0  0  0  0  0  0  0  0  0  0  # atno 6907 bound_to 6896
  152.5358  134.2700  159.8978 H   0  0  0  0  0  0  0  0  0  0  0  0  # atno 6908 bound_to 6896
  151.2711  133.4212  159.2655 H   0  0  0  0  0  0  0  0  0  0  0  0  # atno 6909 bound_to 6896
  146.1441  139.6436  142.9143 H   0  0  0  0  0  0  0  0  0  0  0  0  # atno 7974 bound_to 7965
  155.9094  140.1055  157.1291 H   0  0  0  0  0  0  0  0  0  0  0  0  # atno 8008 bound_to 7997
  154.4037  140.1277  156.4602 H   0  0  0  0  0  0  0  0  0  0  0  0  # atno 8009 bound_to 7997
  155.7328  140.3468  155.5070 H   0  0  0  0  0  0  0  0  0  0  0  0  # atno 8010 bound_to 7997
  139.7886  144.6861  150.9923 H   0  0  0  0  0  0  0  0  0  0  0  0  # atno 10167 bound_to 10162
  157.3977  130.7842  149.7322 H   0  0  0  0  0  0  0  0  0  0  0  0  # atno 10718 bound_to 10713
  154.6266  135.2881  155.0265 H   0  0  0  0  0  0  0  0  0  0  0  0  # atno 10763 bound_to 10752
  154.1441  135.6514  153.4952 H   0  0  0  0  0  0  0  0  0  0  0  0  # atno 10764 bound_to 10752
  153.0260  135.5340  154.7077 H   0  0  0  0  0  0  0  0  0  0  0  0  # atno 10765 bound_to 10752
  140.8762  133.7686  156.0246 H   0  0  0  0  0  0  0  0  0  0  0  0  # atno 11005 bound_to 11000
  145.4979  141.0438  143.2557 LP  0  0  0  0  0  0  0  0  0  0  0  0  # atno 17320 bound_to 7965
  144.7826  139.6494  143.7148 LP  0  0  0  0  0  0  0  0  0  0  0  0  # atno 17321 bound_to 7965
  140.7820  143.4405  151.0559 LP  0  0  0  0  0  0  0  0  0  0  0  0  # atno 17342 bound_to 10162
  139.8082  143.7988  152.3169 LP  0  0  0  0  0  0  0  0  0  0  0  0  # atno 17343 bound_to 10162
  155.9815  130.4019  150.3470 LP  0  0  0  0  0  0  0  0  0  0  0  0  # atno 17370 bound_to 10713
  157.1594  131.0341  151.2848 LP  0  0  0  0  0  0  0  0  0  0  0  0  # atno 17371 bound_to 10713
  140.8515  134.2948  157.5273 LP  0  0  0  0  0  0  0  0  0  0  0  0  # atno 17394 bound_to 11000
  139.8716  134.9470  156.3955 LP  0  0  0  0  0  0  0  0  0  0  0  0  # atno 17395 bound_to 11000

$$$$
