AV-unprocessed.smi:1056|AV-procd|sdf|4641|dock1
  -GOLD-   22720 3143D 1   1.00000     0.00000
 Structure written by MMmdl.
 45 47  0  0  0  0  0  0  0  0  2 V2000
  152.2310  144.0800  160.0686 C   0  0  0  0  0  0  0  0  0  0  0  0
  151.9876  142.9819  159.0473 C   0  0  0  0  0  0  0  0  0  0  0  0
  151.0965  143.2378  157.9808 C   0  0  0  0  0  0  0  0  0  0  0  0
  150.8967  142.2147  157.0615 C   0  0  0  0  0  0  0  0  0  0  0  0
  150.0979  142.1572  155.9176 N   0  3  0  0  0  0  0  0  0  0  0  0
  150.2308  140.9354  155.3317 C   0  0  0  0  0  0  0  0  0  0  0  0
  151.1013  140.2105  156.0850 N   0  0  0  0  0  0  0  0  0  0  0  0
  151.5849  138.8353  155.8945 C   0  0  0  0  0  0  0  0  0  0  0  0
  150.8594  138.0963  154.7526 C   0  0  1  0  0  0  0  0  0  0  0  0
  151.7789  137.2687  154.0673 O   0  0  0  0  0  0  0  0  0  0  0  0
  149.7100  137.2167  155.2877 C   0  0  0  0  0  0  0  0  0  0  0  0
  150.0535  135.8124  155.5731 N   0  0  0  0  0  0  0  0  0  0  0  0
  149.1035  134.8428  155.0155 C   0  0  0  0  0  0  0  0  0  0  0  0
  147.7098  134.9010  155.6730 C   0  0  0  0  0  0  0  0  0  0  0  0
  147.7861  135.0646  157.1241 N   0  0  0  0  0  0  0  0  0  0  0  0
  148.8935  135.4161  157.8004 C   0  0  0  0  0  0  0  0  0  0  0  0
  148.8828  135.5928  159.0161 O   0  0  0  0  0  0  0  0  0  0  0  0
  150.2121  135.5670  157.0150 C   0  0  0  0  0  0  0  0  0  0  0  0
  151.5447  140.9692  157.1753 C   0  0  0  0  0  0  0  0  0  0  0  0
  152.4261  140.7015  158.2203 C   0  0  0  0  0  0  0  0  0  0  0  0
  152.6441  141.7296  159.1651 C   0  0  0  0  0  0  0  0  0  0  0  0
  153.6037  141.4662  160.3130 C   0  0  0  0  0  0  0  0  0  0  0  0
  151.6721  144.9838  159.8239 H   0  0  0  0  0  0  0  0  0  0  0  0
  153.2886  144.3425  160.1054 H   0  0  0  0  0  0  0  0  0  0  0  0
  151.9197  143.7548  161.0616 H   0  0  0  0  0  0  0  0  0  0  0  0
  150.5937  144.1891  157.8844 H   0  0  0  0  0  0  0  0  0  0  0  0
  149.7344  140.6015  154.4319 H   0  0  0  0  0  0  0  0  0  0  0  0
  152.6639  138.8499  155.7384 H   0  0  0  0  0  0  0  0  0  0  0  0
  151.4219  138.3091  156.8359 H   0  0  0  0  0  0  0  0  0  0  0  0
  150.4826  138.8436  154.0559 H   0  0  0  0  0  0  0  0  0  0  0  0
  151.4227  137.0727  153.2137 H   0  0  0  0  0  0  0  0  0  0  0  0
  149.3392  137.6852  156.2010 H   0  0  0  0  0  0  0  0  0  0  0  0
  148.8746  137.2615  154.5885 H   0  0  0  0  0  0  0  0  0  0  0  0
  149.0185  134.9430  153.9349 H   0  0  0  0  0  0  0  0  0  0  0  0
  149.5092  133.8409  155.1667 H   0  0  0  0  0  0  0  0  0  0  0  0
  147.1377  135.7362  155.2679 H   0  0  0  0  0  0  0  0  0  0  0  0
  147.1451  133.9977  155.4419 H   0  0  0  0  0  0  0  0  0  0  0  0
  146.9305  134.9431  157.6468 H   0  0  0  0  0  0  0  0  0  0  0  0
  150.7683  134.6392  157.1544 H   0  0  0  0  0  0  0  0  0  0  0  0
  150.8242  136.3451  157.4733 H   0  0  0  0  0  0  0  0  0  0  0  0
  152.9323  139.7514  158.3070 H   0  0  0  0  0  0  0  0  0  0  0  0
  153.9865  140.4455  160.2869 H   0  0  0  0  0  0  0  0  0  0  0  0
  153.1054  141.6087  161.2719 H   0  0  0  0  0  0  0  0  0  0  0  0
  154.4565  142.1434  160.2606 H   0  0  0  0  0  0  0  0  0  0  0  0
  149.5058  142.8962  155.5605 H   0  0  0  0  0  0  0  0  0  0  0  0
  1  2  1  0  0  0  0
  1 23  1  0  0  0  0
  1 24  1  0  0  0  0
  1 25  1  0  0  0  0
  2 21  1  0  0  0  0
  2  3  2  0  0  0  0
  3  4  1  0  0  0  0
  3 26  1  0  0  0  0
  4 19  2  0  0  0  0
  4  5  1  0  0  0  0
  5  6  2  0  0  0  0
  5 45  1  0  0  0  0
  6  7  1  0  0  0  0
  6 27  1  0  0  0  0
  7  8  1  0  0  0  0
  7 19  1  0  0  0  0
  8  9  1  0  0  0  0
  8 28  1  0  0  0  0
  8 29  1  0  0  0  0
  9 10  1  0  0  0  0
  9 11  1  0  0  0  0
  9 30  1  0  0  0  0
 10 31  1  0  0  0  0
 11 12  1  0  0  0  0
 11 32  1  0  0  0  0
 11 33  1  0  0  0  0
 12 18  1  0  0  0  0
 12 13  1  0  0  0  0
 13 14  1  0  0  0  0
 13 34  1  0  0  0  0
 13 35  1  0  0  0  0
 14 15  1  0  0  0  0
 14 36  1  0  0  0  0
 14 37  1  0  0  0  0
 15 16  1  0  0  0  0
 15 38  1  0  0  0  0
 16 17  2  0  0  0  0
 16 18  1  0  0  0  0
 18 39  1  0  0  0  0
 18 40  1  0  0  0  0
 19 20  1  0  0  0  0
 20 21  2  0  0  0  0
 20 41  1  0  0  0  0
 21 22  1  0  0  0  0
 22 42  1  0  0  0  0
 22 43  1  0  0  0  0
 22 44  1  0  0  0  0
M  CHG  1   5   1
M  END
> <s_m_source_file>
AV-unprocessed.smi

> <i_m_source_file_index>
1056

> <i_lp_mmshare_version>
43012

> <i_f3d_flags>
0

> <s_epik_input>
W0NIM11jKFtjSF0xKWMoW0NIM10pW2NIXWMoYzEyKW4oW2NIXW4yKVtDSDJdW0NASF0oW09IXSlbQ0gyXU4zW0NIMl1bQ0gyXVtOSF1DKD1PKVtDSDJdMw==

> <s_epik_cmdline>
J2VwaWtfcHl0aG9uJywgJy1waCcsICc3LjAnLCAnLXRuJywgJzgnLCAnLW1hJywgJzIwMCcsICctbWV0YWxfYmluZGluZycsICctaW1hZScsICc8aW5maWxlLm1hZT4nLCAnLW9tYWUnLCAnPG91dGZpbGUubWFlPic=

> <r_epik_Ionization_Penalty>
2.47196

> <r_epik_Ionization_Penalty_Charging>
1.21809

> <r_epik_Ionization_Penalty_Neutral>
1.25387

> <r_epik_State_Penalty>
2.6255

> <r_epik_Charging_Adjusted_Penalty>
3.84359

> <i_epik_Tot_Q>
1

> <i_epik_Tot_abs_Q>
1

> <r_epik_Metal_State_Penalty>
2.76698

> <b_epik_Metal_Only>
0

> <s_lp_Force_Field>
OPLS_2005

> <r_lp_Energy>
37.879

> <b_lp_Chiralities_Consistent>
1

> <s_lp_Variant>
AV-unprocessed.smi:1056-12

> <Gold.Version>
5.8.1

> <Gold.Id.Protein>
6NUR|6NUR_protein|mol2

> <Gold.PLP.Fitness>
51.9060

> <Gold.PLP.PLP>
-40.0678

> <Gold.PLP.part.hbond>
-4.0000

> <Gold.PLP.part.metal>
0.0000

> <Gold.PLP.part.buried>
-4.9663

> <Gold.PLP.part.nonpolar>
-32.1705

> <Gold.PLP.part.repulsive>
0.2533

> <Gold.PLP.ligand.clash>
0.0000

> <Gold.PLP.ligand.torsion>
1.6311

> <Gold.PLP.Chemscore.Hbond>
4.9833

> <Gold.PLP.Chemscore.CHOScore>
0.0000

> <Gold.PLP.Chemscore.Metal>
0.0000

> <Gold.Chemscore.Hbonds>
donor molecule, donor type, donor heavy atom, donor atom, acceptor molecule, acceptor atom, score
      L1  H     5    45       P1  8028  1.98
      L1  H    10    31       P1  7949  0.94
      P1  H  6896  6907       L1    17  0.71
      P1  H 10752 10763       L1    10  0.95

> <Gold.PLP.Chemscore.Internal.Correction>
0.1507

> <Gold.Rescore>
     Score         DG    S(hbond)    S(metal)    S(lipo)     H(rot)  DE(clash)    DE(int)     intcor
     20.27     -22.00       3.21        0.00     101.56       2.37       0.03       1.70       ----

> <Gold.Chemscore.Fitness>
20.2744

> <Gold.Chemscore.DG>
-21.9989

> <Gold.Chemscore.ZeroCoef>
-5.4800

> <Gold.Chemscore.Hbond>
3.2065

> <Gold.Chemscore.Metal>
0.0000

> <Gold.Chemscore.Lipo>
101.5603

> <Gold.Chemscore.Internal_Hbond>
0.0000

> <Gold.Chemscore.DEClash>
0.0251

> <Gold.Chemscore.DEInternal>
1.6993

> <Gold.Chemscore.Rot>
2.3724

> <Gold.Chemscore.Internal.Correction>
   9.000000E+99

> <Gold.Chemscore.Hbonds>
donor molecule, donor type, donor heavy atom, donor atom, acceptor molecule, acceptor atom, score
      L1  H     5    45       P1  8028  0.94
      L1  H    10    31       P1  7949  0.73
      P1  H  6896  6907       L1    17  0.28
      P1  H 10752 10763       L1    10  0.20

> <Gold.Chemscore.Hbond.Weighted>
-10.7097

> <Gold.Chemscore.Metal.Weighted>
-0.0000

> <Gold.Chemscore.Lipo.Weighted>
-11.8826

> <Gold.Chemscore.Internal_Hbond.Weighted>
0.0000

> <Gold.Chemscore.DEClash.Weighted>
0.0251

> <Gold.Chemscore.DEInternal.Weighted>
1.6993

> <Gold.Chemscore.Rot.Weighted>
6.0734

> <Gold.Chemscore.Internal.Correction.Weighted>
   9.000000E+99

> <Gold.Protein.RotatedTorsions>
[ 6907 6896 6895 6894 ] final  -57.26 input  -60.11 | X-H torsion
[ 7974 7965 7964 7962 ] final  106.63 input  175.53 | X-H torsion
[ 8008 7997 7996 7995 ] final  102.50 input   59.86 | X-H torsion
[ 10167 10162 10161 10158 ] final   69.41 input  -65.29 | X-H torsion
[ 10718 10713 10712 10709 ] final   74.79 input   66.30 | X-H torsion
[ 10763 10752 10751 10750 ] final   43.41 input  -60.55 | X-H torsion
[ 11005 11000 10999 10996 ] final  126.70 input  -57.11 | X-H torsion

> <Gold.Protein.ActiveResidues>
 VAL166  LYS551  ARG553  GLY616  TRP617  ASP618  TYR619  PRO620  LYS621  CYS622 
 ASP623  PHE694  ASN695  SER759  ASP760  ASP761  ALA762  ILE779  LEU786  VAL792 
 PHE793  MET794  SER795  GLU796  ALA797  LYS798  CYS799  TRP800  GLU811  SER814 

> <Gold.Protein.RotatedAtoms>
  150.8100  134.7249  159.6678 H   0  0  0  0  0  0  0  0  0  0  0  0  # atno 6907 bound_to 6896
  152.4220  134.5935  159.9990 H   0  0  0  0  0  0  0  0  0  0  0  0  # atno 6908 bound_to 6896
  151.6147  133.3307  159.3111 H   0  0  0  0  0  0  0  0  0  0  0  0  # atno 6909 bound_to 6896
  145.3042  139.2560  143.3798 H   0  0  0  0  0  0  0  0  0  0  0  0  # atno 7974 bound_to 7965
  156.1398  140.3180  155.8478 H   0  0  0  0  0  0  0  0  0  0  0  0  # atno 8008 bound_to 7997
  155.4175  140.0510  157.3045 H   0  0  0  0  0  0  0  0  0  0  0  0  # atno 8009 bound_to 7997
  154.4967  140.2113  155.9445 H   0  0  0  0  0  0  0  0  0  0  0  0  # atno 8010 bound_to 7997
  140.0681  144.5176  150.7246 H   0  0  0  0  0  0  0  0  0  0  0  0  # atno 10167 bound_to 10162
  157.6607  130.9695  150.1261 H   0  0  0  0  0  0  0  0  0  0  0  0  # atno 10718 bound_to 10713
  152.9861  135.6102  154.3108 H   0  0  0  0  0  0  0  0  0  0  0  0  # atno 10763 bound_to 10752
  154.2823  135.2777  155.2693 H   0  0  0  0  0  0  0  0  0  0  0  0  # atno 10764 bound_to 10752
  154.5027  135.5862  153.6600 H   0  0  0  0  0  0  0  0  0  0  0  0  # atno 10765 bound_to 10752
  139.9469  134.9628  156.8746 H   0  0  0  0  0  0  0  0  0  0  0  0  # atno 11005 bound_to 11000
  146.3141  140.3563  142.8660 LP  0  0  0  0  0  0  0  0  0  0  0  0  # atno 17320 bound_to 7965
  144.9069  140.7710  143.5832 LP  0  0  0  0  0  0  0  0  0  0  0  0  # atno 17321 bound_to 7965
  140.7139  143.2528  151.4495 LP  0  0  0  0  0  0  0  0  0  0  0  0  # atno 17342 bound_to 10162
  139.5852  144.1619  152.2020 LP  0  0  0  0  0  0  0  0  0  0  0  0  # atno 17343 bound_to 10162
  156.2120  130.3667  149.8659 LP  0  0  0  0  0  0  0  0  0  0  0  0  # atno 17370 bound_to 10713
  156.6535  130.8753  151.3535 LP  0  0  0  0  0  0  0  0  0  0  0  0  # atno 17371 bound_to 10713
  140.5812  134.0350  155.7465 LP  0  0  0  0  0  0  0  0  0  0  0  0  # atno 17394 bound_to 11000
  141.1122  133.9597  157.2888 LP  0  0  0  0  0  0  0  0  0  0  0  0  # atno 17395 bound_to 11000

$$$$
