#       Name:                AV-unprocessed.smi:581
#       Creating user name   scv26
#       Creation time:       Thu Mar 26 23:50:01 2020


#       File generated by GOLD software.
#

@<TRIPOS>MOLECULE
AV-unprocessed.smi:581
    44    45     1
SMALL
NO_CHARGES


@<TRIPOS>ATOM
      1 ****         1.9530   2.0812   0.8669 C.3            1 S1                 0.0000
      2 ****         1.2138   0.7992   0.5267 C.2            1 S1                 0.0000
      3 ****        -0.1843   0.8977   0.4614 N.2            1 S1                 0.0000
      4 ****        -0.9004  -0.1470   0.1719 C.2            1 S1                 0.0000
      5 ****        -2.2949  -0.0910   0.0932 N.pl3          1 S1                 0.0000
      6 ****        -3.0159  -0.7075  -1.0232 C.3            1 S1                 0.0000
      7 ****        -4.4693  -1.0309  -0.6395 C.3            1 S1                 0.0000
      8 ****        -5.1178   0.1478  -0.1811 O.3            1 S1                 0.0000
      9 ****        -4.4818   0.6690   0.9780 C.3            1 S1                 0.0000
     10 ****        -3.0283   1.0473   0.6479 C.3            1 S1                 0.0000
     11 ****        -0.3371  -1.3900  -0.0694 N.pl3          1 S1                -1.0000
     12 ****         1.0155  -1.5582  -0.0301 C.2            1 S1                 0.0000
     13 ****         1.5423  -2.6477  -0.2525 O.2            1 S1                 0.0000
     14 ****         1.8468  -0.3839   0.2880 C.2            1 S1                 0.0000
     15 ****         3.3642  -0.5510   0.3562 C.3            1 S1                 0.0000
     16 ****         4.0241  -0.4456  -1.0306 C.3            1 S1                 0.0000
     17 ****         5.5440  -0.5628  -0.9156 C.2            1 S1                 0.0000
     18 ****         6.0331  -1.7137  -0.9329 O.co2          1 S1                 0.0000
     19 ****         6.1927   0.5015  -0.8108 O.co2          1 S1                -1.0000
     20 ****         2.7432   2.2746   0.1409 H              1 S1                 0.0000
     21 ****         2.4008   2.0089   1.8583 H              1 S1                 0.0000
     22 ****         1.2789   2.9385   0.8624 H              1 S1                 0.0000
     23 ****        -3.0006  -0.0180  -1.8681 H              1 S1                 0.0000
     24 ****        -2.5295  -1.6228  -1.3613 H              1 S1                 0.0000
     25 ****        -5.0079  -1.4172  -1.5049 H              1 S1                 0.0000
     26 ****        -4.5050  -1.8047   0.1291 H              1 S1                 0.0000
     27 ****        -5.0296   1.5480   1.3175 H              1 S1                 0.0000
     28 ****        -4.5182  -0.0615   1.7879 H              1 S1                 0.0000
     29 ****        -2.5419   1.4095   1.5548 H              1 S1                 0.0000
     30 ****        -3.0090   1.8657  -0.0730 H              1 S1                 0.0000
     31 ****         3.7897   0.1987   1.0233 H              1 S1                 0.0000
     32 ****         3.6055  -1.5092   0.8191 H              1 S1                 0.0000
     33 ****         3.6520  -1.2301  -1.6907 H              1 S1                 0.0000
     34 ****         3.7709   0.5058  -1.5003 H              1 S1                 0.0000
     35 ****        -0.6309   1.7747   0.6383 LP             1 S1                 0.0000
     36 ****        -6.0692  -0.0682   0.0385 LP             1 S1                 0.0000
     37 ****        -5.0910   0.8370  -0.9052 LP             1 S1                 0.0000
     38 ****        -0.9278  -2.1705  -0.2741 LP             1 S1                 0.0000
     39 ****         0.9753  -3.4422  -0.4698 LP             1 S1                 0.0000
     40 ****         2.5375  -2.7387  -0.2160 LP             1 S1                 0.0000
     41 ****         7.0227  -1.8376  -0.8592 LP             1 S1                 0.0000
     42 ****         5.4347  -2.5101  -1.0204 LP             1 S1                 0.0000
     43 ****         7.1892   0.4740  -0.7318 LP             1 S1                 0.0000
     44 ****         5.7149   1.3799  -0.8060 LP             1 S1                 0.0000
@<TRIPOS>BOND
    1    1    2 1     
    2    1   20 1     
    3    1   21 1     
    4    1   22 1     
    5    2   14 2     
    6    2    3 1     
    7    3    4 2     
    8    4    5 1     
    9    4   11 1     
   10    5   10 1     
   11    5    6 1     
   12    6    7 1     
   13    6   23 1     
   14    6   24 1     
   15    7    8 1     
   16    7   25 1     
   17    7   26 1     
   18    8    9 1     
   19    9   10 1     
   20    9   27 1     
   21    9   28 1     
   22   10   29 1     
   23   10   30 1     
   24   11   12 1     
   25   12   13 2     
   26   12   14 1     
   27   14   15 1     
   28   15   16 1     
   29   15   31 1     
   30   15   32 1     
   31   16   17 1     
   32   16   33 1     
   33   16   34 1     
   34   17   18 ar    
   35   17   19 ar    
   36    3   35 1     
   37    8   36 1     
   38    8   37 1     
   39   11   38 1     
   40   13   39 1     
   41   13   40 1     
   42   18   41 1     
   43   18   42 1     
   44   19   43 1     
   45   19   44 1     
@<TRIPOS>SUBSTRUCTURE
      1 S1             1
@<TRIPOS>SET
LONE_PAIRS      STATIC     ATOMS    <user>   **** ""
10 35 36 37 38 39 40 41 42 43 44
ATOM$BLUE        STATIC     ATOMS    COLORGROUP SYSTEM
10 35 36 37 38 39 40 41 42 43 44
