AV-unprocessed.smi:1120|AV-procd|sdf|4821|dock1
  -GOLD-   22720 3373D 1   1.00000     0.00000
 Structure written by MMmdl.
 49 50  0  0  0  0  0  0  0  0  2 V2000
  153.4099  132.0212  165.0250 C   0  0  0  0  0  0  0  0  0  0  0  0
  154.4376  132.8489  164.2407 C   0  0  2  0  0  0  0  0  0  0  0  0
  154.1055  134.3510  164.2907 C   0  0  0  0  0  0  0  0  0  0  0  0
  155.1418  135.1923  163.5266 C   0  0  0  0  0  0  0  0  0  0  0  0
  155.3494  134.7054  162.0791 C   0  0  2  0  0  0  0  0  0  0  0  0
  154.2238  135.1029  161.2272 N   0  0  0  0  0  0  0  0  0  0  0  0
  153.6617  136.7332  161.1774 S   0  0  0  0  0  0  0  0  0  0  0  0
  152.5647  136.8026  160.1996 O   0  0  0  0  0  0  0  0  0  0  0  0
  153.4347  137.1586  162.5671 O   0  0  0  0  0  0  0  0  0  0  0  0
  155.1153  137.6571  160.5119 C   0  0  0  0  0  0  0  0  0  0  0  0
  154.6723  139.0304  160.0123 C   0  0  0  0  0  0  0  0  0  0  0  0
  154.3595  139.1834  158.8323 O   0  0  0  0  0  0  0  0  0  0  0  0
  154.6466  140.0211  160.9169 N   0  0  0  0  0  0  0  0  0  0  0  0
  154.2536  141.4003  160.6437 C   0  0  0  0  0  0  0  0  0  0  0  0
  152.7518  141.5647  160.3295 C   0  0  0  0  0  0  0  0  0  0  0  0
  152.3337  142.9981  160.0495 C   0  0  0  0  0  0  0  0  0  0  0  0
  151.9101  143.4178  158.7700 C   0  0  0  0  0  0  0  0  0  0  0  0
  151.5532  144.7679  158.5706 C   0  0  0  0  0  0  0  0  0  0  0  0
  151.6271  145.6693  159.6529 C   0  0  0  0  0  0  0  0  0  0  0  0
  152.0552  145.1963  160.9097 C   0  0  0  0  0  0  0  0  0  0  0  0
  152.3898  143.8961  161.0601 N   0  3  0  0  0  0  0  0  0  0  0  0
  155.5854  133.1858  161.9899 C   0  0  0  0  0  0  0  0  0  0  0  0
  154.5418  132.3775  162.7792 C   0  0  0  0  0  0  0  0  0  0  0  0
  152.4105  132.1247  164.6017 H   0  0  0  0  0  0  0  0  0  0  0  0
  153.3641  132.3371  166.0674 H   0  0  0  0  0  0  0  0  0  0  0  0
  153.6683  130.9618  165.0136 H   0  0  0  0  0  0  0  0  0  0  0  0
  155.4092  132.7008  164.7145 H   0  0  0  0  0  0  0  0  0  0  0  0
  153.1144  134.5233  163.8687 H   0  0  0  0  0  0  0  0  0  0  0  0
  154.0596  134.6880  165.3269 H   0  0  0  0  0  0  0  0  0  0  0  0
  154.8549  136.2441  163.5427 H   0  0  0  0  0  0  0  0  0  0  0  0
  156.0941  135.1328  164.0548 H   0  0  0  0  0  0  0  0  0  0  0  0
  156.2422  135.1949  161.6884 H   0  0  0  0  0  0  0  0  0  0  0  0
  153.5013  134.3955  161.0936 H   0  0  0  0  0  0  0  0  0  0  0  0
  155.8678  137.7514  161.2951 H   0  0  0  0  0  0  0  0  0  0  0  0
  155.5478  137.0855  159.6907 H   0  0  0  0  0  0  0  0  0  0  0  0
  154.9203  139.8054  161.8653 H   0  0  0  0  0  0  0  0  0  0  0  0
  154.5010  141.9865  161.5292 H   0  0  0  0  0  0  0  0  0  0  0  0
  154.8568  141.8059  159.8299 H   0  0  0  0  0  0  0  0  0  0  0  0
  152.4899  140.9466  159.4698 H   0  0  0  0  0  0  0  0  0  0  0  0
  152.1580  141.1827  161.1609 H   0  0  0  0  0  0  0  0  0  0  0  0
  151.8624  142.7159  157.9502 H   0  0  0  0  0  0  0  0  0  0  0  0
  151.2287  145.1088  157.5983 H   0  0  0  0  0  0  0  0  0  0  0  0
  151.3608  146.7078  159.5209 H   0  0  0  0  0  0  0  0  0  0  0  0
  152.1461  145.8139  161.7913 H   0  0  0  0  0  0  0  0  0  0  0  0
  155.6039  132.8637  160.9479 H   0  0  0  0  0  0  0  0  0  0  0  0
  156.5741  132.9607  162.3914 H   0  0  0  0  0  0  0  0  0  0  0  0
  154.8040  131.3194  162.7465 H   0  0  0  0  0  0  0  0  0  0  0  0
  153.5693  132.4670  162.2932 H   0  0  0  0  0  0  0  0  0  0  0  0
  152.7035  143.5780  161.9778 H   0  0  0  0  0  0  0  0  0  0  0  0
  1  2  1  0  0  0  0
  1 24  1  0  0  0  0
  1 25  1  0  0  0  0
  1 26  1  0  0  0  0
  2 23  1  0  0  0  0
  2  3  1  0  0  0  0
  2 27  1  0  0  0  0
  3  4  1  0  0  0  0
  3 28  1  0  0  0  0
  3 29  1  0  0  0  0
  4  5  1  0  0  0  0
  4 30  1  0  0  0  0
  4 31  1  0  0  0  0
  5  6  1  0  0  0  0
  5 22  1  0  0  0  0
  5 32  1  0  0  0  0
  6  7  1  0  0  0  0
  6 33  1  0  0  0  0
  7  8  2  0  0  0  0
  7  9  2  0  0  0  0
  7 10  1  0  0  0  0
 10 11  1  0  0  0  0
 10 34  1  0  0  0  0
 10 35  1  0  0  0  0
 11 12  2  0  0  0  0
 11 13  1  0  0  0  0
 13 14  1  0  0  0  0
 13 36  1  0  0  0  0
 14 15  1  0  0  0  0
 14 37  1  0  0  0  0
 14 38  1  0  0  0  0
 15 16  1  0  0  0  0
 15 39  1  0  0  0  0
 15 40  1  0  0  0  0
 16 21  1  0  0  0  0
 16 17  2  0  0  0  0
 17 18  1  0  0  0  0
 17 41  1  0  0  0  0
 18 19  2  0  0  0  0
 18 42  1  0  0  0  0
 19 20  1  0  0  0  0
 19 43  1  0  0  0  0
 20 21  2  0  0  0  0
 20 44  1  0  0  0  0
 21 49  1  0  0  0  0
 22 23  1  0  0  0  0
 22 45  1  0  0  0  0
 22 46  1  0  0  0  0
 23 47  1  0  0  0  0
 23 48  1  0  0  0  0
M  CHG  1  21   1
M  END
> <s_m_source_file>
AV-unprocessed.smi

> <i_m_source_file_index>
1120

> <i_lp_mmshare_version>
43012

> <i_f3d_flags>
0

> <s_epik_input>
W0NIM11bQ0BASF0xW0NIMl1bQ0gyXVtDQEhdKFtDSDJdW0NIMl0xKVtOSF1TKD1PKSg9TylbQ0gyXUMoPU8pW05IXVtDSDJdW0NIMl1jMltjSF1bY0hdW2NIXVtjSF1uMg==

> <s_epik_cmdline>
J2VwaWtfcHl0aG9uJywgJy1waCcsICc3LjAnLCAnLXRuJywgJzgnLCAnLW1hJywgJzIwMCcsICctbWV0YWxfYmluZGluZycsICctaW1hZScsICc8aW5maWxlLm1hZT4nLCAnLW9tYWUnLCAnPG91dGZpbGUubWFlPic=

> <r_epik_Ionization_Penalty>
1.97387

> <r_epik_Ionization_Penalty_Charging>
1.97382

> <r_epik_Ionization_Penalty_Neutral>
4.57635e-05

> <r_epik_State_Penalty>
2.10057

> <r_epik_Charging_Adjusted_Penalty>
4.07439

> <i_epik_Tot_Q>
1

> <i_epik_Tot_abs_Q>
1

> <r_epik_Metal_State_Penalty>
2.15877

> <b_epik_Metal_Only>
0

> <s_lp_Force_Field>
OPLS_2005

> <r_lp_Energy>
8.31708

> <b_lp_Chiralities_Consistent>
1

> <s_lp_Variant>
AV-unprocessed.smi:1120-4

> <Gold.Version>
5.8.1

> <Gold.Id.Protein>
6NUR|6NUR_protein|mol2

> <Gold.PLP.Fitness>
50.3562

> <Gold.PLP.PLP>
-45.8967

> <Gold.PLP.part.hbond>
-2.0000

> <Gold.PLP.part.metal>
0.0000

> <Gold.PLP.part.buried>
-5.2679

> <Gold.PLP.part.nonpolar>
-39.2817

> <Gold.PLP.part.repulsive>
0.1448

> <Gold.PLP.ligand.clash>
0.0000

> <Gold.PLP.ligand.torsion>
1.3621

> <Gold.PLP.Chemscore.Hbond>
2.0000

> <Gold.PLP.Chemscore.CHOScore>
0.0000

> <Gold.PLP.Chemscore.Metal>
0.0000

> <Gold.Chemscore.Hbonds>
donor molecule, donor type, donor heavy atom, donor atom, acceptor molecule, acceptor atom, score
      P1  H  6896  6907       L1     8  1.00
      P1  H  7997  8010       L1    12  1.00

> <Gold.PLP.Chemscore.Internal.Correction>
1.1837

> <Gold.Rescore>
     Score         DG    S(hbond)    S(metal)    S(lipo)     H(rot)  DE(clash)    DE(int)     intcor
     19.32     -22.05       1.94        0.00     130.91       2.05       0.04       2.70       ----

> <Gold.Chemscore.Fitness>
19.3169

> <Gold.Chemscore.DG>
-22.0518

> <Gold.Chemscore.ZeroCoef>
-5.4800

> <Gold.Chemscore.Hbond>
1.9442

> <Gold.Chemscore.Metal>
0.0000

> <Gold.Chemscore.Lipo>
130.9117

> <Gold.Chemscore.Internal_Hbond>
0.0000

> <Gold.Chemscore.DEClash>
0.0388

> <Gold.Chemscore.DEInternal>
2.6961

> <Gold.Chemscore.Rot>
2.0463

> <Gold.Chemscore.Internal.Correction>
   9.000000E+99

> <Gold.Chemscore.Hbonds>
donor molecule, donor type, donor heavy atom, donor atom, acceptor molecule, acceptor atom, score
      P1  H  6896  6907       L1     8  0.45
      P1  H  7997  8010       L1    12  0.99

> <Gold.Chemscore.Hbond.Weighted>
-6.4937

> <Gold.Chemscore.Metal.Weighted>
-0.0000

> <Gold.Chemscore.Lipo.Weighted>
-15.3167

> <Gold.Chemscore.Internal_Hbond.Weighted>
0.0000

> <Gold.Chemscore.DEClash.Weighted>
0.0388

> <Gold.Chemscore.DEInternal.Weighted>
2.6961

> <Gold.Chemscore.Rot.Weighted>
5.2386

> <Gold.Chemscore.Internal.Correction.Weighted>
   9.000000E+99

> <Gold.Protein.RotatedTorsions>
[ 6907 6896 6895 6894 ] final   23.87 input  -60.11 | X-H torsion
[ 7974 7965 7964 7962 ] final   95.34 input  175.53 | X-H torsion
[ 8008 7997 7996 7995 ] final   -7.53 input   59.86 | X-H torsion
[ 10167 10162 10161 10158 ] final  179.24 input  -65.29 | X-H torsion
[ 10718 10713 10712 10709 ] final   75.91 input   66.30 | X-H torsion
[ 10763 10752 10751 10750 ] final -148.56 input  -60.55 | X-H torsion
[ 11005 11000 10999 10996 ] final  152.23 input  -57.11 | X-H torsion

> <Gold.Protein.ActiveResidues>
 VAL166  LYS551  ARG553  GLY616  TRP617  ASP618  TYR619  PRO620  LYS621  CYS622 
 ASP623  PHE694  ASN695  SER759  ASP760  ASP761  ALA762  ILE779  LEU786  VAL792 
 PHE793  MET794  SER795  GLU796  ALA797  LYS798  CYS799  TRP800  GLU811  SER814 

> <Gold.Protein.RotatedAtoms>
  151.9489  135.0178  160.0540 H   0  0  0  0  0  0  0  0  0  0  0  0  # atno 6907 bound_to 6896
  152.1970  133.4809  159.5046 H   0  0  0  0  0  0  0  0  0  0  0  0  # atno 6908 bound_to 6896
  150.6946  134.1556  159.4199 H   0  0  0  0  0  0  0  0  0  0  0  0  # atno 6909 bound_to 6896
  145.4535  139.2291  143.3027 H   0  0  0  0  0  0  0  0  0  0  0  0  # atno 7974 bound_to 7965
  154.5829  140.2404  155.8028 H   0  0  0  0  0  0  0  0  0  0  0  0  # atno 8008 bound_to 7997
  156.2192  140.3003  155.9868 H   0  0  0  0  0  0  0  0  0  0  0  0  # atno 8009 bound_to 7997
  155.2508  140.0410  157.2977 H   0  0  0  0  0  0  0  0  0  0  0  0  # atno 8010 bound_to 7997
  139.5328  144.2585  152.0727 H   0  0  0  0  0  0  0  0  0  0  0  0  # atno 10167 bound_to 10162
  157.6653  130.9749  150.1421 H   0  0  0  0  0  0  0  0  0  0  0  0  # atno 10718 bound_to 10713
  154.8226  135.3331  154.6993 H   0  0  0  0  0  0  0  0  0  0  0  0  # atno 10763 bound_to 10752
  153.7624  135.6931  153.4927 H   0  0  0  0  0  0  0  0  0  0  0  0  # atno 10764 bound_to 10752
  153.2101  135.4485  155.0318 H   0  0  0  0  0  0  0  0  0  0  0  0  # atno 10765 bound_to 10752
  140.1289  134.8815  157.2176 H   0  0  0  0  0  0  0  0  0  0  0  0  # atno 11005 bound_to 11000
  146.2491  140.5296  142.8901 LP  0  0  0  0  0  0  0  0  0  0  0  0  # atno 17320 bound_to 7965
  144.8047  140.6277  143.6455 LP  0  0  0  0  0  0  0  0  0  0  0  0  # atno 17321 bound_to 7965
  140.2051  144.4619  150.6413 LP  0  0  0  0  0  0  0  0  0  0  0  0  # atno 17342 bound_to 10162
  140.6516  143.2226  151.6063 LP  0  0  0  0  0  0  0  0  0  0  0  0  # atno 17343 bound_to 10162
  156.2241  130.3676  149.8521 LP  0  0  0  0  0  0  0  0  0  0  0  0  # atno 17370 bound_to 10713
  156.6365  130.8687  151.3506 LP  0  0  0  0  0  0  0  0  0  0  0  0  # atno 17371 bound_to 10713
  140.2867  134.3287  155.7327 LP  0  0  0  0  0  0  0  0  0  0  0  0  # atno 17394 bound_to 11000
  141.2166  133.7510  156.9444 LP  0  0  0  0  0  0  0  0  0  0  0  0  # atno 17395 bound_to 11000

$$$$
