AV-unprocessed.smi:497|AV-procd|sdf|2725|dock1
  -GOLD-   2262023173D 1   1.00000     0.00000
 Structure written by MMmdl.
 40 42  0  0  0  0  0  0  0  0  2 V2000
  148.0132  127.4910  151.1557 C   0  0  0  0  0  0  0  0  0  0  0  0
  147.6026  128.2297  152.2925 O   0  0  0  0  0  0  0  0  0  0  0  0
  146.8308  129.3699  151.9508 C   0  0  0  0  0  0  0  0  0  0  0  0
  146.8646  130.3791  153.1070 C   0  0  0  0  0  0  0  0  0  0  0  0
  146.8284  131.7705  152.6319 N   0  0  0  0  0  0  0  0  0  0  0  0
  147.6081  132.8429  152.9582 C   0  0  0  0  0  0  0  0  0  0  0  0
  148.7517  132.8755  153.9242 C   0  0  0  0  0  0  0  0  0  0  0  0
  149.2504  134.2236  154.1661 N   0  0  0  0  0  0  0  0  0  0  0  0
  150.1297  134.5618  155.1222 C   0  0  0  0  0  0  0  0  0  0  0  0
  150.6223  133.7519  155.9071 O   0  0  0  0  0  0  0  0  0  0  0  0
  150.4799  135.9929  155.1960 C   0  0  0  0  0  0  0  0  0  0  0  0
  149.8896  137.1007  154.6457 C   0  0  0  0  0  0  0  0  0  0  0  0
  150.6686  138.2203  155.0495 C   0  0  0  0  0  0  0  0  0  0  0  0
  151.6803  137.7171  155.8159 C   0  0  0  0  0  0  0  0  0  0  0  0
  151.5815  136.3633  155.9120 O   0  0  0  0  0  0  0  0  0  0  0  0
  147.1530  133.9055  152.2354 N   0  3  0  0  0  0  0  0  0  0  0  0
  146.0707  133.5137  151.4473 C   0  0  0  0  0  0  0  0  0  0  0  0
  145.2826  134.2364  150.5569 C   0  0  0  0  0  0  0  0  0  0  0  0
  144.2446  133.5304  149.9139 C   0  0  0  0  0  0  0  0  0  0  0  0
  144.0224  132.1609  150.1658 C   0  0  0  0  0  0  0  0  0  0  0  0
  144.8293  131.4386  151.0698 C   0  0  0  0  0  0  0  0  0  0  0  0
  145.8543  132.1438  151.6997 C   0  0  0  0  0  0  0  0  0  0  0  0
  148.5963  126.6261  151.4722 H   0  0  0  0  0  0  0  0  0  0  0  0
  148.6381  128.0958  150.4972 H   0  0  0  0  0  0  0  0  0  0  0  0
  147.1543  127.1288  150.5890 H   0  0  0  0  0  0  0  0  0  0  0  0
  147.2256  129.8334  151.0454 H   0  0  0  0  0  0  0  0  0  0  0  0
  145.8016  129.0732  151.7427 H   0  0  0  0  0  0  0  0  0  0  0  0
  146.0092  130.2240  153.7637 H   0  0  0  0  0  0  0  0  0  0  0  0
  147.7503  130.2370  153.7266 H   0  0  0  0  0  0  0  0  0  0  0  0
  148.4165  132.4583  154.8738 H   0  0  0  0  0  0  0  0  0  0  0  0
  149.5620  132.2332  153.5783 H   0  0  0  0  0  0  0  0  0  0  0  0
  148.8922  134.9577  153.5724 H   0  0  0  0  0  0  0  0  0  0  0  0
  149.0043  137.1085  154.0268 H   0  0  0  0  0  0  0  0  0  0  0  0
  150.5091  139.2612  154.8097 H   0  0  0  0  0  0  0  0  0  0  0  0
  152.5147  138.1577  156.3417 H   0  0  0  0  0  0  0  0  0  0  0  0
  145.4501  135.2859  150.3635 H   0  0  0  0  0  0  0  0  0  0  0  0
  143.6053  134.0498  149.2146 H   0  0  0  0  0  0  0  0  0  0  0  0
  143.2163  131.6536  149.6556 H   0  0  0  0  0  0  0  0  0  0  0  0
  144.6496  130.3904  151.2569 H   0  0  0  0  0  0  0  0  0  0  0  0
  147.5555  134.8325  152.2822 H   0  0  0  0  0  0  0  0  0  0  0  0
  1  2  1  0  0  0  0
  1 23  1  0  0  0  0
  1 24  1  0  0  0  0
  1 25  1  0  0  0  0
  2  3  1  0  0  0  0
  3  4  1  0  0  0  0
  3 26  1  0  0  0  0
  3 27  1  0  0  0  0
  4  5  1  0  0  0  0
  4 28  1  0  0  0  0
  4 29  1  0  0  0  0
  5 22  1  0  0  0  0
  5  6  1  0  0  0  0
  6  7  1  0  0  0  0
  6 16  2  0  0  0  0
  7  8  1  0  0  0  0
  7 30  1  0  0  0  0
  7 31  1  0  0  0  0
  8  9  1  0  0  0  0
  8 32  1  0  0  0  0
  9 10  2  0  0  0  0
  9 11  1  0  0  0  0
 11 15  1  0  0  0  0
 11 12  2  0  0  0  0
 12 13  1  0  0  0  0
 12 33  1  0  0  0  0
 13 14  2  0  0  0  0
 13 34  1  0  0  0  0
 14 15  1  0  0  0  0
 14 35  1  0  0  0  0
 16 17  1  0  0  0  0
 16 40  1  0  0  0  0
 17 22  2  0  0  0  0
 17 18  1  0  0  0  0
 18 19  2  0  0  0  0
 18 36  1  0  0  0  0
 19 20  1  0  0  0  0
 19 37  1  0  0  0  0
 20 21  2  0  0  0  0
 20 38  1  0  0  0  0
 21 22  1  0  0  0  0
 21 39  1  0  0  0  0
M  CHG  1  16   1
M  END
> <s_m_source_file>
AV-unprocessed.smi

> <i_m_source_file_index>
497

> <i_lp_mmshare_version>
43012

> <i_f3d_flags>
0

> <s_epik_input>
W2NIXTFbY0hdW2NIXVtjSF1jKGMxMiluKFtDSDJdW0NIMl1PW0NIM10pYyhuMilbQ0gyXVtOSF1DKD1PKWMzW2NIXVtjSF1bY0hdbzM=

> <s_epik_cmdline>
J2VwaWtfcHl0aG9uJywgJy1waCcsICc3LjAnLCAnLXRuJywgJzgnLCAnLW1hJywgJzIwMCcsICctbWV0YWxfYmluZGluZycsICctaW1hZScsICc8aW5maWxlLm1hZT4nLCAnLW9tYWUnLCAnPG91dGZpbGUubWFlPic=

> <r_epik_Ionization_Penalty>
1.26486

> <r_epik_Ionization_Penalty_Charging>
1.26483

> <r_epik_Ionization_Penalty_Neutral>
2.77772e-05

> <r_epik_State_Penalty>
1.33577

> <r_epik_Charging_Adjusted_Penalty>
2.6006

> <i_epik_Tot_Q>
1

> <i_epik_Tot_abs_Q>
1

> <r_epik_Metal_State_Penalty>
1.44158

> <b_epik_Metal_Only>
0

> <s_lp_Force_Field>
OPLS_2005

> <r_lp_Energy>
9.51778

> <b_lp_Chiralities_Consistent>
1

> <s_lp_Variant>
AV-unprocessed.smi:497-2

> <Gold.Version>
5.8.1

> <Gold.Id.Protein>
6NUR|6NUR_protein|mol2

> <Gold.PLP.Fitness>
52.9912

> <Gold.PLP.PLP>
-42.2301

> <Gold.PLP.part.hbond>
-3.0000

> <Gold.PLP.part.metal>
0.0000

> <Gold.PLP.part.buried>
-3.2523

> <Gold.PLP.part.nonpolar>
-36.8446

> <Gold.PLP.part.repulsive>
0.1910

> <Gold.PLP.ligand.clash>
0.0000

> <Gold.PLP.ligand.torsion>
0.6405

> <Gold.PLP.Chemscore.Hbond>
4.0000

> <Gold.PLP.Chemscore.CHOScore>
0.0000

> <Gold.PLP.Chemscore.Metal>
0.0000

> <Gold.Chemscore.Hbonds>
donor molecule, donor type, donor heavy atom, donor atom, acceptor molecule, acceptor atom, score
      L1  H     8    32       P1  7948  0.83
      L1  H    16    40       P1  7948  2.00
      P1  H 10752 10765       L1    15  1.00

> <Gold.PLP.Chemscore.Internal.Correction>
0.0420

> <Gold.Rescore>
     Score         DG    S(hbond)    S(metal)    S(lipo)     H(rot)  DE(clash)    DE(int)     intcor
     18.28     -18.81       2.18        0.00      94.50       1.96       0.11       0.43       ----

> <Gold.Chemscore.Fitness>
18.2753

> <Gold.Chemscore.DG>
-18.8115

> <Gold.Chemscore.ZeroCoef>
-5.4800

> <Gold.Chemscore.Hbond>
2.1815

> <Gold.Chemscore.Metal>
0.0000

> <Gold.Chemscore.Lipo>
94.4959

> <Gold.Chemscore.Internal_Hbond>
0.0000

> <Gold.Chemscore.DEClash>
0.1080

> <Gold.Chemscore.DEInternal>
0.4282

> <Gold.Chemscore.Rot>
1.9573

> <Gold.Chemscore.Internal.Correction>
   9.000000E+99

> <Gold.Chemscore.Hbonds>
donor molecule, donor type, donor heavy atom, donor atom, acceptor molecule, acceptor atom, score
      L1  H     8    32       P1  7948  0.35
      L1  H    16    40       P1  7948  0.85
      P1  H 10752 10765       L1    15  0.46

> <Gold.Chemscore.Hbond.Weighted>
-7.2861

> <Gold.Chemscore.Metal.Weighted>
-0.0000

> <Gold.Chemscore.Lipo.Weighted>
-11.0560

> <Gold.Chemscore.Internal_Hbond.Weighted>
0.0000

> <Gold.Chemscore.DEClash.Weighted>
0.1080

> <Gold.Chemscore.DEInternal.Weighted>
0.4282

> <Gold.Chemscore.Rot.Weighted>
5.0107

> <Gold.Chemscore.Internal.Correction.Weighted>
   9.000000E+99

> <Gold.Protein.RotatedTorsions>
[ 6907 6896 6895 6894 ] final  167.33 input  -60.11 | X-H torsion
[ 7974 7965 7964 7962 ] final  152.59 input  175.53 | X-H torsion
[ 8008 7997 7996 7995 ] final -101.15 input   59.86 | X-H torsion
[ 10167 10162 10161 10158 ] final   16.09 input  -65.29 | X-H torsion
[ 10718 10713 10712 10709 ] final -126.06 input   66.30 | X-H torsion
[ 10763 10752 10751 10750 ] final -148.55 input  -60.55 | X-H torsion
[ 11005 11000 10999 10996 ] final  154.32 input  -57.11 | X-H torsion

> <Gold.Protein.ActiveResidues>
 VAL166  LYS551  ARG553  GLY616  TRP617  ASP618  TYR619  PRO620  LYS621  CYS622 
 ASP623  PHE694  ASN695  SER759  ASP760  ASP761  ALA762  ILE779  LEU786  VAL792 
 PHE793  MET794  SER795  GLU796  ALA797  LYS798  CYS799  TRP800  GLU811  SER814 

> <Gold.Protein.RotatedAtoms>
  151.8649  133.3464  159.3715 H   0  0  0  0  0  0  0  0  0  0  0  0  # atno 6907 bound_to 6896
  150.7169  134.5170  159.5644 H   0  0  0  0  0  0  0  0  0  0  0  0  # atno 6908 bound_to 6896
  152.2691  134.7953  160.0468 H   0  0  0  0  0  0  0  0  0  0  0  0  # atno 6909 bound_to 6896
  144.8212  139.6688  143.6099 H   0  0  0  0  0  0  0  0  0  0  0  0  # atno 7974 bound_to 7965
  154.8385  140.0436  157.1525 H   0  0  0  0  0  0  0  0  0  0  0  0  # atno 8008 bound_to 7997
  154.9073  140.3008  155.5265 H   0  0  0  0  0  0  0  0  0  0  0  0  # atno 8009 bound_to 7997
  156.2991  140.2365  156.4108 H   0  0  0  0  0  0  0  0  0  0  0  0  # atno 8010 bound_to 7997
  140.5822  143.8959  150.6799 H   0  0  0  0  0  0  0  0  0  0  0  0  # atno 10167 bound_to 10162
  156.1731  130.6681  151.0206 H   0  0  0  0  0  0  0  0  0  0  0  0  # atno 10718 bound_to 10713
  154.8226  135.3331  154.6992 H   0  0  0  0  0  0  0  0  0  0  0  0  # atno 10763 bound_to 10752
  153.7622  135.6931  153.4927 H   0  0  0  0  0  0  0  0  0  0  0  0  # atno 10764 bound_to 10752
  153.2102  135.4485  155.0320 H   0  0  0  0  0  0  0  0  0  0  0  0  # atno 10765 bound_to 10752
  140.1478  134.8695  157.2416 H   0  0  0  0  0  0  0  0  0  0  0  0  # atno 11005 bound_to 11000
  146.2517  139.6214  142.9422 LP  0  0  0  0  0  0  0  0  0  0  0  0  # atno 17320 bound_to 7965
  145.5101  141.0435  143.2492 LP  0  0  0  0  0  0  0  0  0  0  0  0  # atno 17321 bound_to 7965
  140.2461  143.3628  152.1445 LP  0  0  0  0  0  0  0  0  0  0  0  0  # atno 17342 bound_to 10162
  139.5176  144.6994  151.5536 LP  0  0  0  0  0  0  0  0  0  0  0  0  # atno 17343 bound_to 10162
  157.6816  131.0836  150.7353 LP  0  0  0  0  0  0  0  0  0  0  0  0  # atno 17370 bound_to 10713
  156.7412  130.4739  149.5477 LP  0  0  0  0  0  0  0  0  0  0  0  0  # atno 17371 bound_to 10713
  140.2642  134.3536  155.7396 LP  0  0  0  0  0  0  0  0  0  0  0  0  # atno 17394 bound_to 11000
  141.2195  133.7386  156.9125 LP  0  0  0  0  0  0  0  0  0  0  0  0  # atno 17395 bound_to 11000

$$$$
