AV-unprocessed.smi:233|AV-procd|sdf|1784|dock5
  -GOLD-   2262020333D 1   1.00000     0.00000
 Structure written by MMmdl.
 59 62  0  0  0  0  0  0  0  0  1 V2000
  151.6152  141.0845  158.7482 C   0  0  0  0  0  0  0  0  0  0  0  0
  151.5708  140.5858  157.3080 C   0  0  0  0  0  0  0  0  0  0  0  0
  152.4334  139.8106  156.8965 O   0  0  0  0  0  0  0  0  0  0  0  0
  150.5578  141.0399  156.5546 N   0  0  0  0  0  0  0  0  0  0  0  0
  150.3203  140.6971  155.1530 C   0  0  2  0  0  0  0  0  0  0  0  0
  149.2028  141.5618  154.5386 C   0  0  0  0  0  0  0  0  0  0  0  0
  147.8192  141.2281  155.1221 C   0  0  0  0  0  0  0  0  0  0  0  0
  147.4631  139.7308  154.9624 C   0  0  2  0  0  0  0  0  0  0  0  0
  146.1374  139.4333  155.5276 N   0  0  0  0  0  0  0  0  0  0  0  0
  145.0875  140.4311  155.3445 C   0  0  0  0  0  0  0  0  0  0  0  0
  145.6548  138.1973  155.2678 C   0  0  0  0  0  0  0  0  0  0  0  0
  145.2528  137.4508  156.3257 N   0  0  0  0  0  0  0  0  0  0  0  0
  144.7662  136.2218  156.1276 C   0  0  0  0  0  0  0  0  0  0  0  0
  144.6010  135.5638  154.9775 N   0  0  0  0  0  0  0  0  0  0  0  0
  145.0013  136.3165  153.9124 C   0  0  0  0  0  0  0  0  0  0  0  0
  145.5288  137.6367  153.9658 C   0  0  0  0  0  0  0  0  0  0  0  0
  145.8029  138.0912  152.6819 N   0  0  0  0  0  0  0  0  0  0  0  0
  145.4563  137.0956  151.9126 C   0  0  0  0  0  0  0  0  0  0  0  0
  144.9916  135.9788  152.5710 N   0  0  0  0  0  0  0  0  0  0  0  0
  144.5165  134.7624  151.9806 C   0  0  0  0  0  0  0  0  0  0  0  0
  145.2930  133.4550  152.1494 C   0  0  0  0  0  0  0  0  0  0  0  0
  144.8197  133.0013  150.7498 C   0  0  0  0  0  0  0  0  0  0  0  0
  145.8842  132.3122  149.8802 C   0  0  0  0  0  0  0  0  0  0  0  0
  146.4244  131.1819  150.5340 O   0  0  0  0  0  0  0  0  0  0  0  0
  143.5287  132.1582  150.7343 C   0  0  0  0  0  0  0  0  0  0  0  0
  143.0186  132.0182  149.4236 O   0  0  0  0  0  0  0  0  0  0  0  0
  144.6238  134.5087  150.4749 C   0  0  0  0  0  0  0  0  0  0  0  0
  148.5872  138.8697  155.5969 C   0  0  0  0  0  0  0  0  0  0  0  0
  149.9739  139.2041  155.0197 C   0  0  0  0  0  0  0  0  0  0  0  0
  151.4257  142.1577  158.7917 H   0  0  0  0  0  0  0  0  0  0  0  0
  152.5923  140.8936  159.1933 H   0  0  0  0  0  0  0  0  0  0  0  0
  150.8598  140.5754  159.3476 H   0  0  0  0  0  0  0  0  0  0  0  0
  149.8992  141.6743  156.9826 H   0  0  0  0  0  0  0  0  0  0  0  0
  151.2445  140.8767  154.6009 H   0  0  0  0  0  0  0  0  0  0  0  0
  149.4188  142.6217  154.6769 H   0  0  0  0  0  0  0  0  0  0  0  0
  149.1798  141.3996  153.4603 H   0  0  0  0  0  0  0  0  0  0  0  0
  147.7884  141.5053  156.1767 H   0  0  0  0  0  0  0  0  0  0  0  0
  147.0819  141.8538  154.6193 H   0  0  0  0  0  0  0  0  0  0  0  0
  147.4275  139.5126  153.8946 H   0  0  0  0  0  0  0  0  0  0  0  0
  144.0938  140.0216  155.5348 H   0  0  0  0  0  0  0  0  0  0  0  0
  145.1024  140.8259  154.3279 H   0  0  0  0  0  0  0  0  0  0  0  0
  145.2324  141.2603  156.0369 H   0  0  0  0  0  0  0  0  0  0  0  0
  144.4675  135.6886  157.0180 H   0  0  0  0  0  0  0  0  0  0  0  0
  145.5380  137.1494  150.8368 H   0  0  0  0  0  0  0  0  0  0  0  0
  143.4857  134.6456  152.3194 H   0  0  0  0  0  0  0  0  0  0  0  0
  146.3711  133.6175  152.2051 H   0  0  0  0  0  0  0  0  0  0  0  0
  144.9517  132.8346  152.9787 H   0  0  0  0  0  0  0  0  0  0  0  0
  145.4540  131.9753  148.9366 H   0  0  0  0  0  0  0  0  0  0  0  0
  146.6944  132.9932  149.6192 H   0  0  0  0  0  0  0  0  0  0  0  0
  147.3664  131.2190  150.4677 H   0  0  0  0  0  0  0  0  0  0  0  0
  143.7069  131.1576  151.1285 H   0  0  0  0  0  0  0  0  0  0  0  0
  142.7571  132.5981  151.3664 H   0  0  0  0  0  0  0  0  0  0  0  0
  142.3530  132.6753  149.2892 H   0  0  0  0  0  0  0  0  0  0  0  0
  143.7257  134.7582  149.9092 H   0  0  0  0  0  0  0  0  0  0  0  0
  145.5063  134.9748  150.0322 H   0  0  0  0  0  0  0  0  0  0  0  0
  148.5942  139.0138  156.6782 H   0  0  0  0  0  0  0  0  0  0  0  0
  148.4038  137.8077  155.4330 H   0  0  0  0  0  0  0  0  0  0  0  0
  149.9933  138.9257  153.9653 H   0  0  0  0  0  0  0  0  0  0  0  0
  150.7371  138.5955  155.5065 H   0  0  0  0  0  0  0  0  0  0  0  0
  1  2  1  0  0  0  0
  1 30  1  0  0  0  0
  1 31  1  0  0  0  0
  1 32  1  0  0  0  0
  2  3  2  0  0  0  0
  2  4  1  0  0  0  0
  4  5  1  0  0  0  0
  4 33  1  0  0  0  0
  5 29  1  0  0  0  0
  5  6  1  0  0  0  0
  5 34  1  0  0  0  0
  6  7  1  0  0  0  0
  6 35  1  0  0  0  0
  6 36  1  0  0  0  0
  7  8  1  0  0  0  0
  7 37  1  0  0  0  0
  7 38  1  0  0  0  0
  8  9  1  0  0  0  0
  8 28  1  0  0  0  0
  8 39  1  0  0  0  0
  9 10  1  0  0  0  0
  9 11  1  0  0  0  0
 10 40  1  0  0  0  0
 10 41  1  0  0  0  0
 10 42  1  0  0  0  0
 11 16  1  0  0  0  0
 11 12  2  0  0  0  0
 12 13  1  0  0  0  0
 13 14  2  0  0  0  0
 13 43  1  0  0  0  0
 14 15  1  0  0  0  0
 15 19  1  0  0  0  0
 15 16  2  0  0  0  0
 16 17  1  0  0  0  0
 17 18  2  0  0  0  0
 18 19  1  0  0  0  0
 18 44  1  0  0  0  0
 19 20  1  0  0  0  0
 20 27  1  0  0  0  0
 20 21  1  0  0  0  0
 20 45  1  0  0  0  0
 21 22  1  0  0  0  0
 21 46  1  0  0  0  0
 21 47  1  0  0  0  0
 22 23  1  0  0  0  0
 22 25  1  0  0  0  0
 22 27  1  0  0  0  0
 23 24  1  0  0  0  0
 23 48  1  0  0  0  0
 23 49  1  0  0  0  0
 24 50  1  0  0  0  0
 25 26  1  0  0  0  0
 25 51  1  0  0  0  0
 25 52  1  0  0  0  0
 26 53  1  0  0  0  0
 27 54  1  0  0  0  0
 27 55  1  0  0  0  0
 28 29  1  0  0  0  0
 28 56  1  0  0  0  0
 28 57  1  0  0  0  0
 29 58  1  0  0  0  0
 29 59  1  0  0  0  0
M  END
> <s_m_source_file>
AV-unprocessed.smi

> <i_m_source_file_index>
233

> <i_lp_mmshare_version>
43012

> <i_f3d_flags>
0

> <s_epik_input>
W0NIM11DKD1PKVtOSF1bQ0BASF0xW0NIMl1bQ0gyXVtDQEhdKFtDSDJdW0NIMl0xKU4oW0NIM10pYyhuW2NIXW4yKWMoYzIzKW5bY0hdbjNbQ0hdKFtDSDJdNClbQ0gyXUM0KFtDSDJdW09IXSlbQ0gyXVtPSF0=

> <s_epik_cmdline>
J2VwaWtfcHl0aG9uJywgJy1waCcsICc3LjAnLCAnLXRuJywgJzgnLCAnLW1hJywgJzIwMCcsICctbWV0YWxfYmluZGluZycsICctaW1hZScsICc8aW5maWxlLm1hZT4nLCAnLW9tYWUnLCAnPG91dGZpbGUubWFlPic=

> <r_lp_tautomer_probability>
1

> <r_epik_Ionization_Penalty>
0.0029036

> <r_epik_Ionization_Penalty_Charging>
0

> <r_epik_Ionization_Penalty_Neutral>
0.0029036

> <r_epik_State_Penalty>
0.00183591

> <r_epik_Charging_Adjusted_Penalty>
0.00183591

> <i_epik_Tot_Q>
0

> <i_epik_Tot_abs_Q>
0

> <r_epik_Metal_State_Penalty>
-0

> <b_epik_Metal_Only>
0

> <s_lp_Force_Field>
OPLS_2005

> <r_lp_Energy>
38.4195

> <b_lp_Chiralities_Consistent>
1

> <s_lp_Variant>
AV-unprocessed.smi:233-2

> <Gold.Version>
5.8.1

> <Gold.Id.Protein>
6NUR|6NUR_protein|mol2

> <Gold.PLP.Fitness>
50.1993

> <Gold.PLP.PLP>
-37.5771

> <Gold.PLP.part.hbond>
-4.9039

> <Gold.PLP.part.metal>
0.0000

> <Gold.PLP.part.buried>
-5.9906

> <Gold.PLP.part.nonpolar>
-27.8297

> <Gold.PLP.part.repulsive>
0.3991

> <Gold.PLP.ligand.clash>
0.0000

> <Gold.PLP.ligand.torsion>
1.0332

> <Gold.PLP.Chemscore.Hbond>
3.7875

> <Gold.PLP.Chemscore.CHOScore>
0.7912

> <Gold.PLP.Chemscore.Metal>
0.0000

> <Gold.Chemscore.Hbonds>
donor molecule, donor type, donor heavy atom, donor atom, acceptor molecule, acceptor atom, score
      L1  H    24    50       P1 10747  1.00
      L1  H    26    53       P1 10186  0.55
      P1  H  7997  8009       L1     3  1.00
      P1  H 10785 10796       L1    26  1.00
      L1  C    18    44       P1 10171  0.68

> <Gold.PLP.Chemscore.Internal.Correction>
0.9526

> <Gold.Rescore>
     Score         DG    S(hbond)    S(metal)    S(lipo)     H(rot)  DE(clash)    DE(int)     intcor
     15.65     -17.22       3.64        0.00      81.91       3.91       0.43       1.14       ----

> <Gold.Chemscore.Fitness>
15.6521

> <Gold.Chemscore.DG>
-17.2223

> <Gold.Chemscore.ZeroCoef>
-5.4800

> <Gold.Chemscore.Hbond>
3.6395

> <Gold.Chemscore.Metal>
0.0000

> <Gold.Chemscore.Lipo>
81.9073

> <Gold.Chemscore.Internal_Hbond>
0.0000

> <Gold.Chemscore.DEClash>
0.4254

> <Gold.Chemscore.DEInternal>
1.1448

> <Gold.Chemscore.Rot>
3.9050

> <Gold.Chemscore.Internal.Correction>
   9.000000E+99

> <Gold.Chemscore.Hbonds>
donor molecule, donor type, donor heavy atom, donor atom, acceptor molecule, acceptor atom, score
      L1  H    24    50       P1 10747  1.00
      L1  H    26    53       P1 10186  0.56
      P1  H  7997  8009       L1     3  0.98
      P1  H 10785 10796       L1    26  0.79

> <Gold.Chemscore.Hbond.Weighted>
-12.1561

> <Gold.Chemscore.Metal.Weighted>
-0.0000

> <Gold.Chemscore.Lipo.Weighted>
-9.5832

> <Gold.Chemscore.Internal_Hbond.Weighted>
0.0000

> <Gold.Chemscore.DEClash.Weighted>
0.4254

> <Gold.Chemscore.DEInternal.Weighted>
1.1448

> <Gold.Chemscore.Rot.Weighted>
9.9969

> <Gold.Chemscore.Internal.Correction.Weighted>
   9.000000E+99

> <Gold.Protein.RotatedTorsions>
[ 6907 6896 6895 6894 ] final  111.89 input  -60.11 | X-H torsion
[ 7974 7965 7964 7962 ] final  -34.28 input  175.53 | X-H torsion
[ 8008 7997 7996 7995 ] final -169.21 input   59.86 | X-H torsion
[ 10167 10162 10161 10158 ] final  177.50 input  -65.29 | X-H torsion
[ 10718 10713 10712 10709 ] final  -88.89 input   66.30 | X-H torsion
[ 10763 10752 10751 10750 ] final -122.70 input  -60.55 | X-H torsion
[ 11005 11000 10999 10996 ] final -119.33 input  -57.11 | X-H torsion

> <Gold.Protein.ActiveResidues>
 VAL166  LYS551  ARG553  GLY616  TRP617  ASP618  TYR619  PRO620  LYS621  CYS622 
 ASP623  PHE694  ASN695  SER759  ASP760  ASP761  ALA762  ILE779  LEU786  VAL792 
 PHE793  MET794  SER795  GLU796  ALA797  LYS798  CYS799  TRP800  GLU811  SER814 

> <Gold.Protein.RotatedAtoms>
  152.4945  133.8593  159.7241 H   0  0  0  0  0  0  0  0  0  0  0  0  # atno 6907 bound_to 6896
  150.9109  133.6990  159.2862 H   0  0  0  0  0  0  0  0  0  0  0  0  # atno 6908 bound_to 6896
  151.4400  135.1023  159.9720 H   0  0  0  0  0  0  0  0  0  0  0  0  # atno 6909 bound_to 6896
  146.0842  140.6019  142.8894 H   0  0  0  0  0  0  0  0  0  0  0  0  # atno 7974 bound_to 7965
  155.9019  140.1042  157.1344 H   0  0  0  0  0  0  0  0  0  0  0  0  # atno 8008 bound_to 7997
  154.4027  140.1291  156.4511 H   0  0  0  0  0  0  0  0  0  0  0  0  # atno 8009 bound_to 7997
  155.7413  140.3467  155.5108 H   0  0  0  0  0  0  0  0  0  0  0  0  # atno 8010 bound_to 7997
  139.5256  144.2790  152.0563 H   0  0  0  0  0  0  0  0  0  0  0  0  # atno 10167 bound_to 10162
  155.9984  130.4852  150.5087 H   0  0  0  0  0  0  0  0  0  0  0  0  # atno 10718 bound_to 10713
  154.8694  135.4124  154.2824 H   0  0  0  0  0  0  0  0  0  0  0  0  # atno 10763 bound_to 10752
  153.3714  135.7008  153.6640 H   0  0  0  0  0  0  0  0  0  0  0  0  # atno 10764 bound_to 10752
  153.5500  135.3631  155.2727 H   0  0  0  0  0  0  0  0  0  0  0  0  # atno 10765 bound_to 10752
  141.0223  134.0106  157.3265 H   0  0  0  0  0  0  0  0  0  0  0  0  # atno 11005 bound_to 11000
  144.7314  140.4683  143.6935 LP  0  0  0  0  0  0  0  0  0  0  0  0  # atno 17320 bound_to 7965
  145.6161  139.1518  143.3049 LP  0  0  0  0  0  0  0  0  0  0  0  0  # atno 17321 bound_to 7965
  140.2246  144.4431  150.6326 LP  0  0  0  0  0  0  0  0  0  0  0  0  # atno 17342 bound_to 10162
  140.6396  143.2201  151.6320 LP  0  0  0  0  0  0  0  0  0  0  0  0  # atno 17343 bound_to 10162
  157.3063  131.0655  151.2033 LP  0  0  0  0  0  0  0  0  0  0  0  0  # atno 17370 bound_to 10713
  157.2994  130.6835  149.6156 LP  0  0  0  0  0  0  0  0  0  0  0  0  # atno 17371 bound_to 10713
  139.9153  135.0196  156.7858 LP  0  0  0  0  0  0  0  0  0  0  0  0  # atno 17394 bound_to 11000
  140.6552  133.9695  155.7776 LP  0  0  0  0  0  0  0  0  0  0  0  0  # atno 17395 bound_to 11000

$$$$
