AV-unprocessed.smi:2302|AV-procd|sdf|9239|dock2
  -GOLD-   2272012453D 1   1.00000     0.00000
 Structure written by MMmdl.
 40 41  0  0  0  0  0  0  0  0  2 V2000
  153.1285  140.5893  160.3590 C   0  0  0  0  0  0  0  0  0  0  0  0
  152.5906  141.8947  159.8118 C   0  0  0  0  0  0  0  0  0  0  0  0
  152.8809  143.1201  160.4430 C   0  0  0  0  0  0  0  0  0  0  0  0
  152.3538  144.2965  159.8808 C   0  0  0  0  0  0  0  0  0  0  0  0
  151.5637  144.2002  158.7191 C   0  0  0  0  0  0  0  0  0  0  0  0
  151.3182  142.9307  158.1492 C   0  0  0  0  0  0  0  0  0  0  0  0
  150.5134  142.9414  156.9792 N   0  0  0  0  0  0  0  0  0  0  0  0
  150.0163  141.8903  156.3042 C   0  0  0  0  0  0  0  0  0  0  0  0
  150.1518  140.7092  156.6236 O   0  0  0  0  0  0  0  0  0  0  0  0
  149.3390  142.2882  155.2176 N   0  0  0  0  0  0  0  0  0  0  0  0
  148.6813  141.4001  154.2628 C   0  0  0  0  0  0  0  0  0  0  0  0
  147.1963  141.7484  154.0284 C   0  0  1  0  0  0  0  0  0  0  0  0
  146.2469  141.2031  155.1180 C   0  0  0  0  0  0  0  0  0  0  0  0
  144.8499  141.5998  154.8290 N   0  3  1  0  0  0  0  0  0  0  0  0
  143.8882  141.0651  155.8165 C   0  0  0  0  0  0  0  0  0  0  0  0
  144.7428  143.0673  154.6659 C   0  0  0  0  0  0  0  0  0  0  0  0
  145.7305  143.5589  153.5952 C   0  0  0  0  0  0  0  0  0  0  0  0
  147.0512  143.1628  153.9430 O   0  0  0  0  0  0  0  0  0  0  0  0
  151.8329  141.8020  158.6977 N   0  0  0  0  0  0  0  0  0  0  0  0
  153.6270  140.7377  161.3172 H   0  0  0  0  0  0  0  0  0  0  0  0
  153.8480  140.1571  159.6631 H   0  0  0  0  0  0  0  0  0  0  0  0
  152.3182  139.8743  160.5051 H   0  0  0  0  0  0  0  0  0  0  0  0
  153.4909  143.1606  161.3335 H   0  0  0  0  0  0  0  0  0  0  0  0
  152.5521  145.2574  160.3322 H   0  0  0  0  0  0  0  0  0  0  0  0
  151.1512  145.0945  158.2753 H   0  0  0  0  0  0  0  0  0  0  0  0
  150.2977  143.8557  156.6107 H   0  0  0  0  0  0  0  0  0  0  0  0
  149.2710  143.2792  155.0376 H   0  0  0  0  0  0  0  0  0  0  0  0
  149.2235  141.3904  153.3159 H   0  0  0  0  0  0  0  0  0  0  0  0
  148.7532  140.3880  154.6619 H   0  0  0  0  0  0  0  0  0  0  0  0
  146.9112  141.3218  153.0650 H   0  0  0  0  0  0  0  0  0  0  0  0
  146.3170  140.1156  155.1622 H   0  0  0  0  0  0  0  0  0  0  0  0
  146.5268  141.5843  156.1014 H   0  0  0  0  0  0  0  0  0  0  0  0
  144.0796  141.4720  156.8104 H   0  0  0  0  0  0  0  0  0  0  0  0
  143.9576  139.9783  155.8724 H   0  0  0  0  0  0  0  0  0  0  0  0
  142.8665  141.3198  155.5332 H   0  0  0  0  0  0  0  0  0  0  0  0
  143.7241  143.3340  154.3815 H   0  0  0  0  0  0  0  0  0  0  0  0
  144.9504  143.5592  155.6176 H   0  0  0  0  0  0  0  0  0  0  0  0
  145.4675  143.1671  152.6116 H   0  0  0  0  0  0  0  0  0  0  0  0
  145.6960  144.6462  153.5240 H   0  0  0  0  0  0  0  0  0  0  0  0
  144.6099  141.1897  153.9376 H   0  0  0  0  0  0  0  0  0  0  0  0
  1  2  1  0  0  0  0
  1 20  1  0  0  0  0
  1 21  1  0  0  0  0
  1 22  1  0  0  0  0
  2 19  1  0  0  0  0
  2  3  2  0  0  0  0
  3  4  1  0  0  0  0
  3 23  1  0  0  0  0
  4  5  2  0  0  0  0
  4 24  1  0  0  0  0
  5  6  1  0  0  0  0
  5 25  1  0  0  0  0
  6  7  1  0  0  0  0
  6 19  2  0  0  0  0
  7  8  1  0  0  0  0
  7 26  1  0  0  0  0
  8  9  2  0  0  0  0
  8 10  1  0  0  0  0
 10 11  1  0  0  0  0
 10 27  1  0  0  0  0
 11 12  1  0  0  0  0
 11 28  1  0  0  0  0
 11 29  1  0  0  0  0
 12 18  1  0  0  0  0
 12 13  1  0  0  0  0
 12 30  1  0  0  0  0
 13 14  1  0  0  0  0
 13 31  1  0  0  0  0
 13 32  1  0  0  0  0
 14 15  1  0  0  0  0
 14 16  1  0  0  0  0
 14 40  1  0  0  0  0
 15 33  1  0  0  0  0
 15 34  1  0  0  0  0
 15 35  1  0  0  0  0
 16 17  1  0  0  0  0
 16 36  1  0  0  0  0
 16 37  1  0  0  0  0
 17 18  1  0  0  0  0
 17 38  1  0  0  0  0
 17 39  1  0  0  0  0
M  CHG  1  14   1
M  END
> <s_m_source_file>
AV-unprocessed.smi

> <i_m_source_file_index>
2302

> <i_lp_mmshare_version>
43012

> <i_f3d_flags>
0

> <s_epik_input>
W0NIM11jMVtjSF1bY0hdW2NIXWMobjEpW05IXUMoPU8pW05IXVtDSDJdW0NAQEhdMltDSDJdTihbQ0gzXSlbQ0gyXVtDSDJdTzI=

> <s_epik_cmdline>
J2VwaWtfcHl0aG9uJywgJy1waCcsICc3LjAnLCAnLXRuJywgJzgnLCAnLW1hJywgJzIwMCcsICctbWV0YWxfYmluZGluZycsICctaW1hZScsICc8aW5maWxlLm1hZT4nLCAnLW9tYWUnLCAnPG91dGZpbGUubWFlPic=

> <r_epik_Ionization_Penalty>
0.204647

> <r_epik_Ionization_Penalty_Charging>
0.204578

> <r_epik_Ionization_Penalty_Neutral>
6.91954e-05

> <r_epik_State_Penalty>
0.194513

> <r_epik_Charging_Adjusted_Penalty>
0.399091

> <i_epik_Tot_Q>
1

> <i_epik_Tot_abs_Q>
1

> <r_epik_Metal_State_Penalty>
0.194515

> <b_epik_Metal_Only>
0

> <s_lp_Force_Field>
OPLS_2005

> <r_lp_Energy>
15.833

> <b_lp_Chiralities_Consistent>
1

> <s_lp_Variant>
AV-unprocessed.smi:2302-4

> <Gold.Version>
5.8.1

> <Gold.Id.Protein>
6NUR|6NUR_protein|mol2

> <Gold.PLP.Fitness>
51.2759

> <Gold.PLP.PLP>
-39.8604

> <Gold.PLP.part.hbond>
-3.9269

> <Gold.PLP.part.metal>
0.0000

> <Gold.PLP.part.buried>
-5.3828

> <Gold.PLP.part.nonpolar>
-32.9247

> <Gold.PLP.part.repulsive>
1.8496

> <Gold.PLP.ligand.clash>
0.0000

> <Gold.PLP.ligand.torsion>
0.2191

> <Gold.PLP.Chemscore.Hbond>
3.9488

> <Gold.PLP.Chemscore.CHOScore>
0.0000

> <Gold.PLP.Chemscore.Metal>
0.0000

> <Gold.Chemscore.Hbonds>
donor molecule, donor type, donor heavy atom, donor atom, acceptor molecule, acceptor atom, score
      L1  H     7    26       P1  8028  0.80
      L1  H    10    27       P1  8028  0.93
      L1  H    14    40       P1 10175  2.00
      P1  H  8022  8030       L1    18  0.23

> <Gold.PLP.Chemscore.Internal.Correction>
0.0073

> <Gold.Rescore>
     Score         DG    S(hbond)    S(metal)    S(lipo)     H(rot)  DE(clash)    DE(int)     intcor
     20.09     -21.73       2.82        0.00      86.32       1.27       0.03       1.61       ----

> <Gold.Chemscore.Fitness>
20.0911

> <Gold.Chemscore.DG>
-21.7297

> <Gold.Chemscore.ZeroCoef>
-5.4800

> <Gold.Chemscore.Hbond>
2.8176

> <Gold.Chemscore.Metal>
0.0000

> <Gold.Chemscore.Lipo>
86.3172

> <Gold.Chemscore.Internal_Hbond>
0.0000

> <Gold.Chemscore.DEClash>
0.0275

> <Gold.Chemscore.DEInternal>
1.6111

> <Gold.Chemscore.Rot>
1.2736

> <Gold.Chemscore.Internal.Correction>
   9.000000E+99

> <Gold.Chemscore.Hbonds>
donor molecule, donor type, donor heavy atom, donor atom, acceptor molecule, acceptor atom, score
      L1  H     7    26       P1  8028  0.79
      L1  H    10    27       P1  8028  0.90
      L1  H    14    40       P1 10175  0.60
      P1  H  8022  8030       L1    18  0.20

> <Gold.Chemscore.Hbond.Weighted>
-9.4109

> <Gold.Chemscore.Metal.Weighted>
-0.0000

> <Gold.Chemscore.Lipo.Weighted>
-10.0991

> <Gold.Chemscore.Internal_Hbond.Weighted>
0.0000

> <Gold.Chemscore.DEClash.Weighted>
0.0275

> <Gold.Chemscore.DEInternal.Weighted>
1.6111

> <Gold.Chemscore.Rot.Weighted>
3.2603

> <Gold.Chemscore.Internal.Correction.Weighted>
   9.000000E+99

> <Gold.Protein.RotatedTorsions>
[ 6907 6896 6895 6894 ] final  164.74 input  -60.11 | X-H torsion
[ 7974 7965 7964 7962 ] final  -46.70 input  175.53 | X-H torsion
[ 8008 7997 7996 7995 ] final -177.64 input   59.86 | X-H torsion
[ 10167 10162 10161 10158 ] final   41.22 input  -65.29 | X-H torsion
[ 10718 10713 10712 10709 ] final   15.47 input   66.30 | X-H torsion
[ 10763 10752 10751 10750 ] final  113.59 input  -60.55 | X-H torsion
[ 11005 11000 10999 10996 ] final  -53.13 input  -57.11 | X-H torsion

> <Gold.Protein.ActiveResidues>
 VAL166  LYS551  ARG553  GLY616  TRP617  ASP618  TYR619  PRO620  LYS621  CYS622 
 ASP623  PHE694  ASN695  SER759  ASP760  ASP761  ALA762  ILE779  LEU786  VAL792 
 PHE793  MET794  SER795  GLU796  ALA797  LYS798  CYS799  TRP800  GLU811  SER814 

> <Gold.Protein.RotatedAtoms>
  151.9052  133.3547  159.3844 H   0  0  0  0  0  0  0  0  0  0  0  0  # atno 6907 bound_to 6896
  150.7071  134.4788  159.5470 H   0  0  0  0  0  0  0  0  0  0  0  0  # atno 6908 bound_to 6896
  152.2384  134.8253  160.0515 H   0  0  0  0  0  0  0  0  0  0  0  0  # atno 6909 bound_to 6896
  145.9692  140.7401  142.9419 H   0  0  0  0  0  0  0  0  0  0  0  0  # atno 7974 bound_to 7965
  156.0093  140.1237  157.0469 H   0  0  0  0  0  0  0  0  0  0  0  0  # atno 8008 bound_to 7997
  154.4270  140.1091  156.5876 H   0  0  0  0  0  0  0  0  0  0  0  0  # atno 8009 bound_to 7997
  155.6102  140.3471  155.4622 H   0  0  0  0  0  0  0  0  0  0  0  0  # atno 8010 bound_to 7997
  140.3665  144.2160  150.6135 H   0  0  0  0  0  0  0  0  0  0  0  0  # atno 10167 bound_to 10162
  157.0540  130.6281  149.5773 H   0  0  0  0  0  0  0  0  0  0  0  0  # atno 10718 bound_to 10713
  153.4948  135.3651  155.2510 H   0  0  0  0  0  0  0  0  0  0  0  0  # atno 10763 bound_to 10752
  154.8750  135.3985  154.3547 H   0  0  0  0  0  0  0  0  0  0  0  0  # atno 10764 bound_to 10752
  153.4173  135.7079  153.6384 H   0  0  0  0  0  0  0  0  0  0  0  0  # atno 10765 bound_to 10752
  141.0960  133.6624  156.4126 H   0  0  0  0  0  0  0  0  0  0  0  0  # atno 11005 bound_to 11000
  144.6833  140.2720  143.7304 LP  0  0  0  0  0  0  0  0  0  0  0  0  # atno 17320 bound_to 7965
  145.7931  139.1934  143.2091 LP  0  0  0  0  0  0  0  0  0  0  0  0  # atno 17321 bound_to 7965
  140.5075  143.2300  151.8585 LP  0  0  0  0  0  0  0  0  0  0  0  0  # atno 17342 bound_to 10162
  139.4808  144.4988  151.9088 LP  0  0  0  0  0  0  0  0  0  0  0  0  # atno 17343 bound_to 10162
  155.9999  130.5076  150.7623 LP  0  0  0  0  0  0  0  0  0  0  0  0  # atno 17370 bound_to 10713
  157.5008  131.0918  151.0317 LP  0  0  0  0  0  0  0  0  0  0  0  0  # atno 17371 bound_to 10713
  140.5139  134.6369  157.5294 LP  0  0  0  0  0  0  0  0  0  0  0  0  # atno 17394 bound_to 11000
  139.9797  134.7158  155.9883 LP  0  0  0  0  0  0  0  0  0  0  0  0  # atno 17395 bound_to 11000

$$$$
