AV-unprocessed.smi:1047|AV-procd|sdf|4566|dock1
  -GOLD-   22720 3 13D 1   1.00000     0.00000
 Structure written by MMmdl.
 57 59  0  0  0  0  0  0  0  0  3 V2000
  144.9987  134.5140  149.6684 C   0  0  0  0  0  0  0  0  0  0  0  0
  145.8604  135.6546  150.2278 C   0  0  0  0  0  0  0  0  0  0  0  0
  145.0837  136.9058  150.4350 N   0  3  1  0  0  0  0  0  0  0  0  0
  143.9200  136.7362  151.3388 C   0  0  0  0  0  0  0  0  0  0  0  0
  144.3613  136.7028  152.8125 C   0  0  0  0  0  0  0  0  0  0  0  0
  145.0866  137.8883  153.1157 O   0  0  0  0  0  0  0  0  0  0  0  0
  146.2758  138.0223  152.3440 C   0  0  2  0  0  0  0  0  0  0  0  0
  146.9900  139.2953  152.8290 C   0  0  0  0  0  0  0  0  0  0  0  0
  148.4538  139.2178  152.6411 N   0  3  0  0  0  0  0  0  0  0  0  0
  149.2246  139.3133  153.8975 C   0  0  0  0  0  0  0  0  0  0  0  0
  148.6935  140.4399  154.7992 C   0  0  1  0  0  0  0  0  0  0  0  0
  148.2785  139.8753  156.0286 O   0  0  0  0  0  0  0  0  0  0  0  0
  149.7666  141.5138  155.0646 C   0  0  0  0  0  0  0  0  0  0  0  0
  150.8178  141.0460  155.9511 N   0  0  0  0  0  0  0  0  0  0  0  0
  151.6564  140.0138  155.7377 C   0  0  0  0  0  0  0  0  0  0  0  0
  152.5520  139.7508  156.6844 N   0  0  0  0  0  0  0  0  0  0  0  0
  152.2564  140.7215  157.6259 C   0  0  0  0  0  0  0  0  0  0  0  0
  152.8450  140.9901  158.8808 C   0  0  0  0  0  0  0  0  0  0  0  0
  152.3750  142.0485  159.6904 C   0  0  0  0  0  0  0  0  0  0  0  0
  153.0351  142.2986  161.0351 C   0  0  0  0  0  0  0  0  0  0  0  0
  151.2990  142.8585  159.2465 C   0  0  0  0  0  0  0  0  0  0  0  0
  150.7757  144.0000  160.1004 C   0  0  0  0  0  0  0  0  0  0  0  0
  150.7009  142.6055  157.9941 C   0  0  0  0  0  0  0  0  0  0  0  0
  151.1762  141.5480  157.1982 C   0  0  0  0  0  0  0  0  0  0  0  0
  145.8914  138.0838  150.8463 C   0  0  0  0  0  0  0  0  0  0  0  0
  145.5730  133.5884  149.6223 H   0  0  0  0  0  0  0  0  0  0  0  0
  144.6440  134.7222  148.6596 H   0  0  0  0  0  0  0  0  0  0  0  0
  144.1298  134.3299  150.3010 H   0  0  0  0  0  0  0  0  0  0  0  0
  146.2592  135.3236  151.1875 H   0  0  0  0  0  0  0  0  0  0  0  0
  146.7228  135.8301  149.5849 H   0  0  0  0  0  0  0  0  0  0  0  0
  143.2411  137.5763  151.1859 H   0  0  0  0  0  0  0  0  0  0  0  0
  143.3566  135.8387  151.0811 H   0  0  0  0  0  0  0  0  0  0  0  0
  143.4874  136.6513  153.4621 H   0  0  0  0  0  0  0  0  0  0  0  0
  144.9674  135.8215  153.0276 H   0  0  0  0  0  0  0  0  0  0  0  0
  146.9208  137.1646  152.5412 H   0  0  0  0  0  0  0  0  0  0  0  0
  146.5976  140.1709  152.3099 H   0  0  0  0  0  0  0  0  0  0  0  0
  146.7885  139.4395  153.8914 H   0  0  0  0  0  0  0  0  0  0  0  0
  148.6820  138.3418  152.1930 H   0  0  0  0  0  0  0  0  0  0  0  0
  149.1935  138.3590  154.4257 H   0  0  0  0  0  0  0  0  0  0  0  0
  150.2687  139.5036  153.6454 H   0  0  0  0  0  0  0  0  0  0  0  0
  147.8295  140.9102  154.3273 H   0  0  0  0  0  0  0  0  0  0  0  0
  147.9089  139.0214  155.8578 H   0  0  0  0  0  0  0  0  0  0  0  0
  150.2185  141.8426  154.1279 H   0  0  0  0  0  0  0  0  0  0  0  0
  149.3120  142.3971  155.5153 H   0  0  0  0  0  0  0  0  0  0  0  0
  151.6084  139.4237  154.8341 H   0  0  0  0  0  0  0  0  0  0  0  0
  153.6637  140.3721  159.2193 H   0  0  0  0  0  0  0  0  0  0  0  0
  152.3300  142.1112  161.8449 H   0  0  0  0  0  0  0  0  0  0  0  0
  153.3810  143.3297  161.1085 H   0  0  0  0  0  0  0  0  0  0  0  0
  153.8968  141.6472  161.1830 H   0  0  0  0  0  0  0  0  0  0  0  0
  149.9129  144.4801  159.6382 H   0  0  0  0  0  0  0  0  0  0  0  0
  151.5473  144.7577  160.2374 H   0  0  0  0  0  0  0  0  0  0  0  0
  150.4691  143.6360  161.0809 H   0  0  0  0  0  0  0  0  0  0  0  0
  149.8814  143.2166  157.6456 H   0  0  0  0  0  0  0  0  0  0  0  0
  146.7767  138.1848  150.2200 H   0  0  0  0  0  0  0  0  0  0  0  0
  145.2925  138.9774  150.6647 H   0  0  0  0  0  0  0  0  0  0  0  0
  148.7452  139.9755  152.0395 H   0  0  0  0  0  0  0  0  0  0  0  0
  144.6949  137.1239  149.5281 H   0  0  0  0  0  0  0  0  0  0  0  0
  1  2  1  0  0  0  0
  1 26  1  0  0  0  0
  1 27  1  0  0  0  0
  1 28  1  0  0  0  0
  2  3  1  0  0  0  0
  2 29  1  0  0  0  0
  2 30  1  0  0  0  0
  3 25  1  0  0  0  0
  3  4  1  0  0  0  0
  3 57  1  0  0  0  0
  4  5  1  0  0  0  0
  4 31  1  0  0  0  0
  4 32  1  0  0  0  0
  5  6  1  0  0  0  0
  5 33  1  0  0  0  0
  5 34  1  0  0  0  0
  6  7  1  0  0  0  0
  7  8  1  0  0  0  0
  7 25  1  0  0  0  0
  7 35  1  0  0  0  0
  8  9  1  0  0  0  0
  8 36  1  0  0  0  0
  8 37  1  0  0  0  0
  9 10  1  0  0  0  0
  9 38  1  0  0  0  0
  9 56  1  0  0  0  0
 10 11  1  0  0  0  0
 10 39  1  0  0  0  0
 10 40  1  0  0  0  0
 11 12  1  0  0  0  0
 11 13  1  0  0  0  0
 11 41  1  0  0  0  0
 12 42  1  0  0  0  0
 13 14  1  0  0  0  0
 13 43  1  0  0  0  0
 13 44  1  0  0  0  0
 14 24  1  0  0  0  0
 14 15  1  0  0  0  0
 15 16  2  0  0  0  0
 15 45  1  0  0  0  0
 16 17  1  0  0  0  0
 17 24  2  0  0  0  0
 17 18  1  0  0  0  0
 18 19  2  0  0  0  0
 18 46  1  0  0  0  0
 19 20  1  0  0  0  0
 19 21  1  0  0  0  0
 20 47  1  0  0  0  0
 20 48  1  0  0  0  0
 20 49  1  0  0  0  0
 21 22  1  0  0  0  0
 21 23  2  0  0  0  0
 22 50  1  0  0  0  0
 22 51  1  0  0  0  0
 22 52  1  0  0  0  0
 23 24  1  0  0  0  0
 23 53  1  0  0  0  0
 25 54  1  0  0  0  0
 25 55  1  0  0  0  0
M  CHG  1   3   1
M  CHG  1   9   1
M  END
> <s_m_source_file>
AV-unprocessed.smi

> <i_m_source_file_index>
1047

> <i_lp_mmshare_version>
43012

> <i_f3d_flags>
0

> <s_epik_input>
W0NIM11bQ0gyXU4xW0NIMl1bQ0gyXU9bQ0BIXShbQ0gyXTEpW0NIMl1bTkhdW0NIMl1bQ0BIXShbT0hdKVtDSDJdbihbY0hdbjIpYyhjMjMpW2NIXWMoW0NIM10pYyhbY0hdMylbQ0gzXQ==

> <s_epik_cmdline>
J2VwaWtfcHl0aG9uJywgJy1waCcsICc3LjAnLCAnLXRuJywgJzgnLCAnLW1hJywgJzIwMCcsICctbWV0YWxfYmluZGluZycsICctaW1hZScsICc8aW5maWxlLm1hZT4nLCAnLW9tYWUnLCAnPG91dGZpbGUubWFlPic=

> <r_epik_Ionization_Penalty>
0.528991

> <r_epik_Ionization_Penalty_Charging>
0.438567

> <r_epik_Ionization_Penalty_Neutral>
0.0904237

> <r_epik_State_Penalty>
0.533036

> <r_epik_Charging_Adjusted_Penalty>
0.971603

> <i_epik_Tot_Q>
2

> <i_epik_Tot_abs_Q>
2

> <r_epik_Metal_State_Penalty>
0.448985

> <b_epik_Metal_Only>
0

> <s_lp_Force_Field>
OPLS_2005

> <r_lp_Energy>
33.3507

> <b_lp_Chiralities_Consistent>
1

> <s_lp_Variant>
AV-unprocessed.smi:1047-7

> <Gold.Version>
5.8.1

> <Gold.Id.Protein>
6NUR|6NUR_protein|mol2

> <Gold.PLP.Fitness>
57.9169

> <Gold.PLP.PLP>
-48.3965

> <Gold.PLP.part.hbond>
-3.8648

> <Gold.PLP.part.metal>
0.0000

> <Gold.PLP.part.buried>
-2.6245

> <Gold.PLP.part.nonpolar>
-42.3530

> <Gold.PLP.part.repulsive>
0.2840

> <Gold.PLP.ligand.clash>
0.0000

> <Gold.PLP.ligand.torsion>
1.6020

> <Gold.PLP.Chemscore.Hbond>
4.0849

> <Gold.PLP.Chemscore.CHOScore>
0.0000

> <Gold.PLP.Chemscore.Metal>
0.0000

> <Gold.Chemscore.Hbonds>
donor molecule, donor type, donor heavy atom, donor atom, acceptor molecule, acceptor atom, score
      L1  H     3    57       P1 10171  0.10
      L1  H     9    38       P1  7948  1.59
      L1  H     9    56       P1  7957  0.15
      P1  H  7997  8010       L1    16  1.00

> <Gold.PLP.Chemscore.Internal.Correction>
0.4698

> <Gold.Rescore>
     Score         DG    S(hbond)    S(metal)    S(lipo)     H(rot)  DE(clash)    DE(int)     intcor
     20.70     -22.62       2.82        0.00     125.12       2.70       0.48       1.45       ----

> <Gold.Chemscore.Fitness>
20.6964

> <Gold.Chemscore.DG>
-22.6191

> <Gold.Chemscore.ZeroCoef>
-5.4800

> <Gold.Chemscore.Hbond>
2.8169

> <Gold.Chemscore.Metal>
0.0000

> <Gold.Chemscore.Lipo>
125.1169

> <Gold.Chemscore.Internal_Hbond>
0.0000

> <Gold.Chemscore.DEClash>
0.4776

> <Gold.Chemscore.DEInternal>
1.4451

> <Gold.Chemscore.Rot>
2.6985

> <Gold.Chemscore.Internal.Correction>
   9.000000E+99

> <Gold.Chemscore.Hbonds>
donor molecule, donor type, donor heavy atom, donor atom, acceptor molecule, acceptor atom, score
      L1  H     3    57       P1 10171  0.12
      L1  H     9    38       P1  7948  0.78
      L1  H     9    56       P1  7957  0.16
      P1  H  7997  8010       L1    16  0.29

> <Gold.Chemscore.Hbond.Weighted>
-9.4086

> <Gold.Chemscore.Metal.Weighted>
-0.0000

> <Gold.Chemscore.Lipo.Weighted>
-14.6387

> <Gold.Chemscore.Internal_Hbond.Weighted>
0.0000

> <Gold.Chemscore.DEClash.Weighted>
0.4776

> <Gold.Chemscore.DEInternal.Weighted>
1.4451

> <Gold.Chemscore.Rot.Weighted>
6.9081

> <Gold.Chemscore.Internal.Correction.Weighted>
   9.000000E+99

> <Gold.Protein.RotatedTorsions>
[ 6907 6896 6895 6894 ] final  -53.45 input  -60.11 | X-H torsion
[ 7974 7965 7964 7962 ] final  -26.38 input  175.53 | X-H torsion
[ 8008 7997 7996 7995 ] final   78.39 input   59.86 | X-H torsion
[ 10167 10162 10161 10158 ] final  166.28 input  -65.29 | X-H torsion
[ 10718 10713 10712 10709 ] final  173.88 input   66.30 | X-H torsion
[ 10763 10752 10751 10750 ] final  126.29 input  -60.55 | X-H torsion
[ 11005 11000 10999 10996 ] final -148.98 input  -57.11 | X-H torsion

> <Gold.Protein.ActiveResidues>
 VAL166  LYS551  ARG553  GLY616  TRP617  ASP618  TYR619  PRO620  LYS621  CYS622 
 ASP623  PHE694  ASN695  SER759  ASP760  ASP761  ALA762  ILE779  LEU786  VAL792 
 PHE793  MET794  SER795  GLU796  ALA797  LYS798  CYS799  TRP800  GLU811  SER814 

> <Gold.Protein.RotatedAtoms>
  150.8426  134.7723  159.6943 H   0  0  0  0  0  0  0  0  0  0  0  0  # atno 6907 bound_to 6896
  152.4510  134.5391  159.9843 H   0  0  0  0  0  0  0  0  0  0  0  0  # atno 6908 bound_to 6896
  151.5528  133.3377  159.2992 H   0  0  0  0  0  0  0  0  0  0  0  0  # atno 6909 bound_to 6896
  146.1429  140.5012  142.8644 H   0  0  0  0  0  0  0  0  0  0  0  0  # atno 7974 bound_to 7965
  155.8551  140.3456  155.5719 H   0  0  0  0  0  0  0  0  0  0  0  0  # atno 8008 bound_to 7997
  155.7995  140.0883  157.1984 H   0  0  0  0  0  0  0  0  0  0  0  0  # atno 8009 bound_to 7997
  154.4009  140.1468  156.3245 H   0  0  0  0  0  0  0  0  0  0  0  0  # atno 8010 bound_to 7997
  139.4922  144.4044  151.9373 H   0  0  0  0  0  0  0  0  0  0  0  0  # atno 10167 bound_to 10162
  156.9578  131.0051  151.2934 H   0  0  0  0  0  0  0  0  0  0  0  0  # atno 10718 bound_to 10713
  153.6909  135.3299  155.3202 H   0  0  0  0  0  0  0  0  0  0  0  0  # atno 10763 bound_to 10752
  154.8440  135.4431  154.1509 H   0  0  0  0  0  0  0  0  0  0  0  0  # atno 10764 bound_to 10752
  153.2551  135.6985  153.7716 H   0  0  0  0  0  0  0  0  0  0  0  0  # atno 10765 bound_to 10752
  140.7555  134.3358  157.5115 H   0  0  0  0  0  0  0  0  0  0  0  0  # atno 11005 bound_to 11000
  144.7813  140.5845  143.6604 LP  0  0  0  0  0  0  0  0  0  0  0  0  # atno 17320 bound_to 7965
  145.5005  139.1483  143.3660 LP  0  0  0  0  0  0  0  0  0  0  0  0  # atno 17321 bound_to 7965
  140.3483  144.3119  150.5954 LP  0  0  0  0  0  0  0  0  0  0  0  0  # atno 17342 bound_to 10162
  140.5507  143.2207  151.7932 LP  0  0  0  0  0  0  0  0  0  0  0  0  # atno 17343 bound_to 10162
  157.5678  130.8290  149.8351 LP  0  0  0  0  0  0  0  0  0  0  0  0  # atno 17370 bound_to 10713
  156.0335  130.3758  150.1623 LP  0  0  0  0  0  0  0  0  0  0  0  0  # atno 17371 bound_to 10713
  139.8780  134.9169  156.3166 LP  0  0  0  0  0  0  0  0  0  0  0  0  # atno 17394 bound_to 11000
  140.9711  133.7326  156.0536 LP  0  0  0  0  0  0  0  0  0  0  0  0  # atno 17395 bound_to 11000

$$$$
