AV-unprocessed.smi:870|AV-procd|sdf|4009|dock2
  -GOLD-   22720 1493D 1   1.00000     0.00000
 Structure written by MMmdl.
 47 49  0  0  0  0  0  0  0  0  2 V2000
  150.5588  139.2834  153.1561 C   0  0  0  0  0  0  0  0  0  0  0  0
  151.1938  138.6710  154.2648 O   0  0  0  0  0  0  0  0  0  0  0  0
  150.5386  137.4826  154.6770 C   0  0  0  0  0  0  0  0  0  0  0  0
  149.2020  137.7638  155.2814 C   0  0  0  0  0  0  0  0  0  0  0  0
  148.1235  136.9302  155.2730 N   0  3  0  0  0  0  0  0  0  0  0  0
  147.0525  137.5351  155.9315 C   0  0  0  0  0  0  0  0  0  0  0  0
  145.7600  137.0813  156.1761 C   0  0  0  0  0  0  0  0  0  0  0  0
  144.9071  137.9522  156.8852 C   0  0  0  0  0  0  0  0  0  0  0  0
  145.3491  139.2176  157.3226 C   0  0  0  0  0  0  0  0  0  0  0  0
  146.6615  139.6671  157.0680 C   0  0  0  0  0  0  0  0  0  0  0  0
  147.4987  138.8010  156.3643 C   0  0  0  0  0  0  0  0  0  0  0  0
  148.8301  138.8983  155.9406 N   0  0  0  0  0  0  0  0  0  0  0  0
  149.6038  140.1163  156.2298 C   0  0  0  0  0  0  0  0  0  0  0  0
  150.7248  139.8829  157.2626 C   0  0  2  0  0  0  0  0  0  0  0  0
  150.1719  139.7274  158.5538 O   0  0  0  0  0  0  0  0  0  0  0  0
  151.7345  141.0385  157.3007 C   0  0  0  0  0  0  0  0  0  0  0  0
  151.0671  142.2110  157.7471 O   0  0  0  0  0  0  0  0  0  0  0  0
  151.5117  142.8244  158.9000 C   0  0  0  0  0  0  0  0  0  0  0  0
  152.6743  142.4238  159.6070 C   0  0  0  0  0  0  0  0  0  0  0  0
  153.0676  143.0988  160.7781 C   0  0  0  0  0  0  0  0  0  0  0  0
  152.3082  144.1806  161.2579 C   0  0  0  0  0  0  0  0  0  0  0  0
  151.1533  144.5868  160.5651 C   0  0  0  0  0  0  0  0  0  0  0  0
  150.7546  143.9137  159.3912 C   0  0  0  0  0  0  0  0  0  0  0  0
  149.5051  144.3628  158.6570 C   0  0  0  0  0  0  0  0  0  0  0  0
  151.0975  140.1898  152.8799 H   0  0  0  0  0  0  0  0  0  0  0  0
  149.5317  139.5622  153.3948 H   0  0  0  0  0  0  0  0  0  0  0  0
  150.5500  138.6200  152.2904 H   0  0  0  0  0  0  0  0  0  0  0  0
  150.4047  136.8174  153.8230 H   0  0  0  0  0  0  0  0  0  0  0  0
  151.1492  136.9559  155.4118 H   0  0  0  0  0  0  0  0  0  0  0  0
  145.4199  136.1115  155.8437 H   0  0  0  0  0  0  0  0  0  0  0  0
  143.8941  137.6433  157.0991 H   0  0  0  0  0  0  0  0  0  0  0  0
  144.6681  139.8567  157.8657 H   0  0  0  0  0  0  0  0  0  0  0  0
  146.9895  140.6365  157.4131 H   0  0  0  0  0  0  0  0  0  0  0  0
  150.0327  140.4542  155.2858 H   0  0  0  0  0  0  0  0  0  0  0  0
  148.9269  140.9080  156.5510 H   0  0  0  0  0  0  0  0  0  0  0  0
  151.2551  138.9604  157.0234 H   0  0  0  0  0  0  0  0  0  0  0  0
  149.8586  140.5690  158.8480 H   0  0  0  0  0  0  0  0  0  0  0  0
  152.5658  140.7888  157.9627 H   0  0  0  0  0  0  0  0  0  0  0  0
  152.1358  141.2082  156.3000 H   0  0  0  0  0  0  0  0  0  0  0  0
  153.2849  141.5996  159.2714 H   0  0  0  0  0  0  0  0  0  0  0  0
  153.9544  142.7852  161.3090 H   0  0  0  0  0  0  0  0  0  0  0  0
  152.6106  144.6981  162.1564 H   0  0  0  0  0  0  0  0  0  0  0  0
  150.5741  145.4178  160.9402 H   0  0  0  0  0  0  0  0  0  0  0  0
  149.0326  145.2111  159.1532 H   0  0  0  0  0  0  0  0  0  0  0  0
  148.7801  143.5498  158.6120 H   0  0  0  0  0  0  0  0  0  0  0  0
  149.7516  144.6612  157.6375 H   0  0  0  0  0  0  0  0  0  0  0  0
  148.1265  136.0131  154.8451 H   0  0  0  0  0  0  0  0  0  0  0  0
  1  2  1  0  0  0  0
  1 25  1  0  0  0  0
  1 26  1  0  0  0  0
  1 27  1  0  0  0  0
  2  3  1  0  0  0  0
  3  4  1  0  0  0  0
  3 28  1  0  0  0  0
  3 29  1  0  0  0  0
  4 12  1  0  0  0  0
  4  5  2  0  0  0  0
  5  6  1  0  0  0  0
  5 47  1  0  0  0  0
  6 11  2  0  0  0  0
  6  7  1  0  0  0  0
  7  8  2  0  0  0  0
  7 30  1  0  0  0  0
  8  9  1  0  0  0  0
  8 31  1  0  0  0  0
  9 10  2  0  0  0  0
  9 32  1  0  0  0  0
 10 11  1  0  0  0  0
 10 33  1  0  0  0  0
 11 12  1  0  0  0  0
 12 13  1  0  0  0  0
 13 14  1  0  0  0  0
 13 34  1  0  0  0  0
 13 35  1  0  0  0  0
 14 15  1  0  0  0  0
 14 16  1  0  0  0  0
 14 36  1  0  0  0  0
 15 37  1  0  0  0  0
 16 17  1  0  0  0  0
 16 38  1  0  0  0  0
 16 39  1  0  0  0  0
 17 18  1  0  0  0  0
 18 23  1  0  0  0  0
 18 19  2  0  0  0  0
 19 20  1  0  0  0  0
 19 40  1  0  0  0  0
 20 21  2  0  0  0  0
 20 41  1  0  0  0  0
 21 22  1  0  0  0  0
 21 42  1  0  0  0  0
 22 23  2  0  0  0  0
 22 43  1  0  0  0  0
 23 24  1  0  0  0  0
 24 44  1  0  0  0  0
 24 45  1  0  0  0  0
 24 46  1  0  0  0  0
M  CHG  1   5   1
M  END
> <s_m_source_file>
AV-unprocessed.smi

> <i_m_source_file_index>
870

> <i_lp_mmshare_version>
43012

> <i_f3d_flags>
0

> <s_epik_input>
W2NIXTFbY0hdW2NIXVtjSF1jKGMxMiluKGMobjIpW0NIMl1PW0NIM10pW0NIMl1bQ0BIXShbT0hdKVtDSDJdT2MzW2NIXVtjSF1bY0hdW2NIXWMzW0NIM10=

> <s_epik_cmdline>
J2VwaWtfcHl0aG9uJywgJy1waCcsICc3LjAnLCAnLXRuJywgJzgnLCAnLW1hJywgJzIwMCcsICctbWV0YWxfYmluZGluZycsICctaW1hZScsICc8aW5maWxlLm1hZT4nLCAnLW9tYWUnLCAnPG91dGZpbGUubWFlPic=

> <r_lp_tautomer_probability>
1

> <r_epik_Ionization_Penalty>
1.55338

> <r_epik_Ionization_Penalty_Charging>
1.55338

> <r_epik_Ionization_Penalty_Neutral>
2.3993e-06

> <r_epik_State_Penalty>
1.64778

> <r_epik_Charging_Adjusted_Penalty>
3.20115

> <i_epik_Tot_Q>
1

> <i_epik_Tot_abs_Q>
1

> <r_epik_Metal_State_Penalty>
5.70266

> <b_epik_Metal_Only>
0

> <s_lp_Force_Field>
OPLS_2005

> <r_lp_Energy>
18.2102

> <b_lp_Chiralities_Consistent>
1

> <s_lp_Variant>
AV-unprocessed.smi:870-3

> <Gold.Version>
5.8.1

> <Gold.Id.Protein>
6NUR|6NUR_protein|mol2

> <Gold.PLP.Fitness>
6.2309

> <Gold.PLP.PLP>
-7.9640

> <Gold.PLP.part.hbond>
-0.1286

> <Gold.PLP.part.metal>
0.0000

> <Gold.PLP.part.buried>
9.5438

> <Gold.PLP.part.nonpolar>
-12.0768

> <Gold.PLP.part.repulsive>
0.2337

> <Gold.PLP.ligand.clash>
0.0000

> <Gold.PLP.ligand.torsion>
0.9818

> <Gold.PLP.Chemscore.Hbond>
0.0000

> <Gold.PLP.Chemscore.CHOScore>
0.0000

> <Gold.PLP.Chemscore.Metal>
0.0000

> <Gold.PLP.Chemscore.Internal.Correction>
0.2305

> <Gold.Rescore>
     Score         DG    S(hbond)    S(metal)    S(lipo)     H(rot)  DE(clash)    DE(int)     intcor
      8.39     -10.68       0.00        0.00      98.05       2.45       0.09       2.20       ----

> <Gold.Chemscore.Fitness>
8.3897

> <Gold.Chemscore.DG>
-10.6820

> <Gold.Chemscore.ZeroCoef>
-5.4800

> <Gold.Chemscore.Hbond>
0.0000

> <Gold.Chemscore.Metal>
0.0000

> <Gold.Chemscore.Lipo>
98.0547

> <Gold.Chemscore.Internal_Hbond>
0.0000

> <Gold.Chemscore.DEClash>
0.0922

> <Gold.Chemscore.DEInternal>
2.2001

> <Gold.Chemscore.Rot>
2.4494

> <Gold.Chemscore.Internal.Correction>
   9.000000E+99

> <Gold.Chemscore.Hbond.Weighted>
-0.0000

> <Gold.Chemscore.Metal.Weighted>
-0.0000

> <Gold.Chemscore.Lipo.Weighted>
-11.4724

> <Gold.Chemscore.Internal_Hbond.Weighted>
0.0000

> <Gold.Chemscore.DEClash.Weighted>
0.0922

> <Gold.Chemscore.DEInternal.Weighted>
2.2001

> <Gold.Chemscore.Rot.Weighted>
6.2704

> <Gold.Chemscore.Internal.Correction.Weighted>
   9.000000E+99

> <Gold.Protein.RotatedTorsions>
[ 6907 6896 6895 6894 ] final  159.26 input  -60.11 | X-H torsion
[ 7974 7965 7964 7962 ] final   30.68 input  175.53 | X-H torsion
[ 8008 7997 7996 7995 ] final -155.30 input   59.86 | X-H torsion
[ 10167 10162 10161 10158 ] final -149.67 input  -65.29 | X-H torsion
[ 10718 10713 10712 10709 ] final   87.39 input   66.30 | X-H torsion
[ 10763 10752 10751 10750 ] final  -25.40 input  -60.55 | X-H torsion
[ 11005 11000 10999 10996 ] final -154.14 input  -57.11 | X-H torsion

> <Gold.Protein.ActiveResidues>
 VAL166  LYS551  ARG553  GLY616  TRP617  ASP618  TYR619  PRO620  LYS621  CYS622 
 ASP623  PHE694  ASN695  SER759  ASP760  ASP761  ALA762  ILE779  LEU786  VAL792 
 PHE793  MET794  SER795  GLU796  ALA797  LYS798  CYS799  TRP800  GLU811  SER814 

> <Gold.Protein.RotatedAtoms>
  151.9882  133.3781  159.4133 H   0  0  0  0  0  0  0  0  0  0  0  0  # atno 6907 bound_to 6896
  150.6925  134.3965  159.5109 H   0  0  0  0  0  0  0  0  0  0  0  0  # atno 6908 bound_to 6896
  152.1695  134.8846  160.0586 H   0  0  0  0  0  0  0  0  0  0  0  0  # atno 6909 bound_to 6896
  146.1597  139.6756  142.9042 H   0  0  0  0  0  0  0  0  0  0  0  0  # atno 7974 bound_to 7965
  155.6997  140.0765  157.2415 H   0  0  0  0  0  0  0  0  0  0  0  0  # atno 8008 bound_to 7997
  154.4075  140.1649  156.2230 H   0  0  0  0  0  0  0  0  0  0  0  0  # atno 8009 bound_to 7997
  155.9379  140.3386  155.6306 H   0  0  0  0  0  0  0  0  0  0  0  0  # atno 8010 bound_to 7997
  139.7422  143.8644  152.2565 H   0  0  0  0  0  0  0  0  0  0  0  0  # atno 10167 bound_to 10162
  157.6939  131.0253  150.3116 H   0  0  0  0  0  0  0  0  0  0  0  0  # atno 10718 bound_to 10713
  153.6992  135.6957  153.5068 H   0  0  0  0  0  0  0  0  0  0  0  0  # atno 10763 bound_to 10752
  153.2355  135.4323  155.0641 H   0  0  0  0  0  0  0  0  0  0  0  0  # atno 10764 bound_to 10752
  154.8349  135.3495  154.6532 H   0  0  0  0  0  0  0  0  0  0  0  0  # atno 10765 bound_to 10752
  140.7005  134.3942  157.5210 H   0  0  0  0  0  0  0  0  0  0  0  0  # atno 11005 bound_to 11000
  145.4620  141.0433  143.2746 LP  0  0  0  0  0  0  0  0  0  0  0  0  # atno 17320 bound_to 7965
  144.8010  139.6141  143.7072 LP  0  0  0  0  0  0  0  0  0  0  0  0  # atno 17321 bound_to 7965
  139.8598  144.7123  150.9113 LP  0  0  0  0  0  0  0  0  0  0  0  0  # atno 17342 bound_to 10162
  140.7787  143.3827  151.1448 LP  0  0  0  0  0  0  0  0  0  0  0  0  # atno 17343 bound_to 10162
  156.3617  130.3848  149.7246 LP  0  0  0  0  0  0  0  0  0  0  0  0  # atno 17370 bound_to 10713
  156.4690  130.7988  151.3006 LP  0  0  0  0  0  0  0  0  0  0  0  0  # atno 17371 bound_to 10713
  139.8898  134.8821  156.2403 LP  0  0  0  0  0  0  0  0  0  0  0  0  # atno 17394 bound_to 11000
  141.0167  133.7064  156.1200 LP  0  0  0  0  0  0  0  0  0  0  0  0  # atno 17395 bound_to 11000

$$$$
