AV-unprocessed.smi:2050|AV-procd|sdf|8324|dock2
  -GOLD-   2272010593D 1   1.00000     0.00000
 Structure written by MMmdl.
 33 34  0  0  0  0  0  0  0  0  1 V2000
  144.1925  133.7310  150.7694 C   0  0  0  0  0  0  0  0  0  0  0  0
  144.6907  135.0107  151.3492 C   0  0  0  0  0  0  0  0  0  0  0  0
  145.7689  135.8015  151.0673 C   0  0  0  0  0  0  0  0  0  0  0  0
  145.6391  136.8640  152.0010 C   0  0  0  0  0  0  0  0  0  0  0  0
  146.5827  137.9224  152.0353 N   0  0  0  0  0  0  0  0  0  0  0  0
  146.7900  138.8024  153.0300 C   0  0  0  0  0  0  0  0  0  0  0  0
  146.1791  138.8226  154.0988 O   0  0  0  0  0  0  0  0  0  0  0  0
  147.7582  139.6749  152.7158 N   0  0  0  0  0  0  0  0  0  0  0  0
  148.2243  140.7542  153.5801 C   0  0  0  0  0  0  0  0  0  0  0  0
  149.0923  140.2429  154.7480 C   0  0  2  0  0  0  0  0  0  0  0  0
  149.7315  141.3721  155.5838 C   0  0  0  0  0  0  0  0  0  0  0  0
  150.7844  140.7573  156.5109 C   0  0  0  0  0  0  0  0  0  0  0  0
  151.5124  139.3639  155.5726 S   0  0  0  0  0  0  0  0  0  0  0  0
  152.7822  139.7920  154.9666 O   0  0  0  0  0  0  0  0  0  0  0  0
  151.4367  138.1437  156.3901 O   0  0  0  0  0  0  0  0  0  0  0  0
  150.2208  139.3148  154.2720 C   0  0  0  0  0  0  0  0  0  0  0  0
  144.5782  136.7333  152.7826 N   0  0  0  0  0  0  0  0  0  0  0  0
  143.9657  135.5442  152.3699 O   0  0  0  0  0  0  0  0  0  0  0  0
  144.5575  133.5973  149.7509 H   0  0  0  0  0  0  0  0  0  0  0  0
  143.1027  133.7146  150.7412 H   0  0  0  0  0  0  0  0  0  0  0  0
  144.5289  132.8817  151.3641 H   0  0  0  0  0  0  0  0  0  0  0  0
  146.5258  135.6425  150.3139 H   0  0  0  0  0  0  0  0  0  0  0  0
  147.1603  138.0204  151.2138 H   0  0  0  0  0  0  0  0  0  0  0  0
  148.2080  139.5862  151.8163 H   0  0  0  0  0  0  0  0  0  0  0  0
  148.7797  141.4844  152.9887 H   0  0  0  0  0  0  0  0  0  0  0  0
  147.3486  141.2761  153.9669 H   0  0  0  0  0  0  0  0  0  0  0  0
  148.4633  139.6595  155.4223 H   0  0  0  0  0  0  0  0  0  0  0  0
  150.2213  142.0807  154.9145 H   0  0  0  0  0  0  0  0  0  0  0  0
  148.9871  141.9311  156.1517 H   0  0  0  0  0  0  0  0  0  0  0  0
  151.5610  141.4626  156.8066 H   0  0  0  0  0  0  0  0  0  0  0  0
  150.3188  140.3518  157.4095 H   0  0  0  0  0  0  0  0  0  0  0  0
  149.8861  138.2896  154.1130 H   0  0  0  0  0  0  0  0  0  0  0  0
  150.6685  139.6795  153.3471 H   0  0  0  0  0  0  0  0  0  0  0  0
  1  2  1  0  0  0  0
  1 19  1  0  0  0  0
  1 20  1  0  0  0  0
  1 21  1  0  0  0  0
  2 18  1  0  0  0  0
  2  3  2  0  0  0  0
  3  4  1  0  0  0  0
  3 22  1  0  0  0  0
  4  5  1  0  0  0  0
  4 17  2  0  0  0  0
  5  6  1  0  0  0  0
  5 23  1  0  0  0  0
  6  7  2  0  0  0  0
  6  8  1  0  0  0  0
  8  9  1  0  0  0  0
  8 24  1  0  0  0  0
  9 10  1  0  0  0  0
  9 25  1  0  0  0  0
  9 26  1  0  0  0  0
 10 16  1  0  0  0  0
 10 11  1  0  0  0  0
 10 27  1  0  0  0  0
 11 12  1  0  0  0  0
 11 28  1  0  0  0  0
 11 29  1  0  0  0  0
 12 13  1  0  0  0  0
 12 30  1  0  0  0  0
 12 31  1  0  0  0  0
 13 14  2  0  0  0  0
 13 15  2  0  0  0  0
 13 16  1  0  0  0  0
 16 32  1  0  0  0  0
 16 33  1  0  0  0  0
 17 18  1  0  0  0  0
M  END
> <s_m_source_file>
AV-unprocessed.smi

> <i_m_source_file_index>
2050

> <i_lp_mmshare_version>
43012

> <i_f3d_flags>
0

> <s_epik_input>
W0NIM11jMVtjSF1jKG5vMSlbTkhdQyg9TylbTkhdW0NIMl1bQ0BASF0oW0NIMl0yKVtDSDJdW0NIMl1TMig9Tyk9Tw==

> <s_epik_cmdline>
J2VwaWtfcHl0aG9uJywgJy1waCcsICc3LjAnLCAnLXRuJywgJzgnLCAnLW1hJywgJzIwMCcsICctbWV0YWxfYmluZGluZycsICctaW1hZScsICc8aW5maWxlLm1hZT4nLCAnLW9tYWUnLCAnPG91dGZpbGUubWFlPic=

> <r_lp_tautomer_probability>
1

> <r_epik_Ionization_Penalty>
2.22143e-05

> <r_epik_Ionization_Penalty_Charging>
0

> <r_epik_Ionization_Penalty_Neutral>
2.22143e-05

> <r_epik_State_Penalty>
-0

> <r_epik_Charging_Adjusted_Penalty>
0

> <i_epik_Tot_Q>
0

> <i_epik_Tot_abs_Q>
0

> <r_epik_Metal_State_Penalty>
-0

> <b_epik_Metal_Only>
0

> <s_lp_Force_Field>
OPLS_2005

> <r_lp_Energy>
2.27669

> <b_lp_Chiralities_Consistent>
1

> <s_lp_Variant>
AV-unprocessed.smi:2050-1

> <Gold.Version>
5.8.1

> <Gold.Id.Protein>
6NUR|6NUR_protein|mol2

> <Gold.PLP.Fitness>
36.4455

> <Gold.PLP.PLP>
-30.9776

> <Gold.PLP.part.hbond>
-3.6179

> <Gold.PLP.part.metal>
0.0000

> <Gold.PLP.part.buried>
-1.8141

> <Gold.PLP.part.nonpolar>
-26.8176

> <Gold.PLP.part.repulsive>
0.6144

> <Gold.PLP.ligand.clash>
0.0000

> <Gold.PLP.ligand.torsion>
0.1861

> <Gold.PLP.Chemscore.Hbond>
1.9454

> <Gold.PLP.Chemscore.CHOScore>
0.0000

> <Gold.PLP.Chemscore.Metal>
0.0000

> <Gold.Chemscore.Hbonds>
donor molecule, donor type, donor heavy atom, donor atom, acceptor molecule, acceptor atom, score
      L1  H     8    24       P1  7957  0.77
      P1  H  7989  7998       L1    14  0.19
      P1  H  7997  8009       L1    14  1.00

> <Gold.PLP.Chemscore.Internal.Correction>
0.0038

> <Gold.Rescore>
     Score         DG    S(hbond)    S(metal)    S(lipo)     H(rot)  DE(clash)    DE(int)     intcor
     13.25     -14.65       1.95        0.00      52.48       1.36       0.05       1.36       ----

> <Gold.Chemscore.Fitness>
13.2489

> <Gold.Chemscore.DG>
-14.6503

> <Gold.Chemscore.ZeroCoef>
-5.4800

> <Gold.Chemscore.Hbond>
1.9471

> <Gold.Chemscore.Metal>
0.0000

> <Gold.Chemscore.Lipo>
52.4801

> <Gold.Chemscore.Internal_Hbond>
0.0000

> <Gold.Chemscore.DEClash>
0.0453

> <Gold.Chemscore.DEInternal>
1.3561

> <Gold.Chemscore.Rot>
1.3567

> <Gold.Chemscore.Internal.Correction>
   9.000000E+99

> <Gold.Chemscore.Hbonds>
donor molecule, donor type, donor heavy atom, donor atom, acceptor molecule, acceptor atom, score
      L1  H     8    24       P1  7957  0.74
      P1  H  7989  7998       L1    14  0.01
      P1  H  7997  8009       L1    14  0.97

> <Gold.Chemscore.Hbond.Weighted>
-6.5033

> <Gold.Chemscore.Metal.Weighted>
-0.0000

> <Gold.Chemscore.Lipo.Weighted>
-6.1402

> <Gold.Chemscore.Internal_Hbond.Weighted>
0.0000

> <Gold.Chemscore.DEClash.Weighted>
0.0453

> <Gold.Chemscore.DEInternal.Weighted>
1.3561

> <Gold.Chemscore.Rot.Weighted>
3.4732

> <Gold.Chemscore.Internal.Correction.Weighted>
   9.000000E+99

> <Gold.Protein.RotatedTorsions>
[ 6907 6896 6895 6894 ] final   34.77 input  -60.11 | X-H torsion
[ 7974 7965 7964 7962 ] final  -74.08 input  175.53 | X-H torsion
[ 8008 7997 7996 7995 ] final -147.52 input   59.86 | X-H torsion
[ 10167 10162 10161 10158 ] final    2.52 input  -65.29 | X-H torsion
[ 10718 10713 10712 10709 ] final -162.12 input   66.30 | X-H torsion
[ 10763 10752 10751 10750 ] final  -34.50 input  -60.55 | X-H torsion
[ 11005 11000 10999 10996 ] final   44.85 input  -57.11 | X-H torsion

> <Gold.Protein.ActiveResidues>
 VAL166  LYS551  ARG553  GLY616  TRP617  ASP618  TYR619  PRO620  LYS621  CYS622 
 ASP623  PHE694  ASN695  SER759  ASP760  ASP761  ALA762  ILE779  LEU786  VAL792 
 PHE793  MET794  SER795  GLU796  ALA797  LYS798  CYS799  TRP800  GLU811  SER814 

> <Gold.Protein.RotatedAtoms>
  152.1070  134.9301  160.0567 H   0  0  0  0  0  0  0  0  0  0  0  0  # atno 6907 bound_to 6896
  152.0493  133.4007  159.4378 H   0  0  0  0  0  0  0  0  0  0  0  0  # atno 6908 bound_to 6896
  150.6842  134.3246  159.4845 H   0  0  0  0  0  0  0  0  0  0  0  0  # atno 6909 bound_to 6896
  145.6437  140.9303  143.1022 H   0  0  0  0  0  0  0  0  0  0  0  0  # atno 7974 bound_to 7965
  155.5769  140.0639  157.2793 H   0  0  0  0  0  0  0  0  0  0  0  0  # atno 8008 bound_to 7997
  154.4344  140.1859  156.0983 H   0  0  0  0  0  0  0  0  0  0  0  0  # atno 8009 bound_to 7997
  156.0334  140.3304  155.7168 H   0  0  0  0  0  0  0  0  0  0  0  0  # atno 8010 bound_to 7997
  140.6631  143.7252  150.7775 H   0  0  0  0  0  0  0  0  0  0  0  0  # atno 10167 bound_to 10162
  156.6059  130.8830  151.2925 H   0  0  0  0  0  0  0  0  0  0  0  0  # atno 10718 bound_to 10713
  153.8478  135.6852  153.4795 H   0  0  0  0  0  0  0  0  0  0  0  0  # atno 10763 bound_to 10752
  153.1415  135.4655  154.9501 H   0  0  0  0  0  0  0  0  0  0  0  0  # atno 10764 bound_to 10752
  154.7816  135.3271  154.7925 H   0  0  0  0  0  0  0  0  0  0  0  0  # atno 10765 bound_to 10752
  140.1513  134.4458  155.8380 H   0  0  0  0  0  0  0  0  0  0  0  0  # atno 11005 bound_to 11000
  144.7148  139.8238  143.7402 LP  0  0  0  0  0  0  0  0  0  0  0  0  # atno 17320 bound_to 7965
  146.1260  139.4286  143.0199 LP  0  0  0  0  0  0  0  0  0  0  0  0  # atno 17321 bound_to 7965
  140.0924  143.4865  152.2471 LP  0  0  0  0  0  0  0  0  0  0  0  0  # atno 17342 bound_to 10162
  139.5871  144.7535  151.3494 LP  0  0  0  0  0  0  0  0  0  0  0  0  # atno 17343 bound_to 10162
  157.7267  130.9633  150.1668 LP  0  0  0  0  0  0  0  0  0  0  0  0  # atno 17370 bound_to 10713
  156.2430  130.3693  149.8316 LP  0  0  0  0  0  0  0  0  0  0  0  0  # atno 17371 bound_to 10713
  141.2199  133.6874  156.7427 LP  0  0  0  0  0  0  0  0  0  0  0  0  # atno 17394 bound_to 11000
  140.2601  134.8473  157.3750 LP  0  0  0  0  0  0  0  0  0  0  0  0  # atno 17395 bound_to 11000

$$$$
