AV-unprocessed.smi:1534|AV-procd|sdf|6168|dock6
  -GOLD-   22720 6313D 1   1.00000     0.00000
 Structure written by MMmdl.
 37 38  0  0  0  0  0  0  0  0  2 V2000
  148.9262  134.5548  155.8876 O   0  0  0  0  0  0  0  0  0  0  0  0
  148.9761  134.9410  154.7214 C   0  0  0  0  0  0  0  0  0  0  0  0
  148.2280  134.4142  153.7368 N   0  0  0  0  0  0  0  0  0  0  0  0
  147.2636  133.3341  153.9074 C   0  0  0  0  0  0  0  0  0  0  0  0
  147.3902  132.2808  152.7936 C   0  0  0  0  0  0  0  0  0  0  0  0
  146.3019  132.4186  151.7472 C   0  0  0  0  0  0  0  0  0  0  0  0
  145.0084  132.8851  152.0679 C   0  0  0  0  0  0  0  0  0  0  0  0
  144.0388  132.9836  151.0482 C   0  0  0  0  0  0  0  0  0  0  0  0
  144.3821  132.6131  149.7313 C   0  0  0  0  0  0  0  0  0  0  0  0
  145.6880  132.1517  149.4676 C   0  0  0  0  0  0  0  0  0  0  0  0
  146.5888  132.0707  150.4717 N   0  3  0  0  0  0  0  0  0  0  0  0
  149.7869  135.9438  154.3399 N   0  0  0  0  0  0  0  0  0  0  0  0
  150.7168  136.7179  155.1632 C   0  0  2  0  0  0  0  0  0  0  0  0
  149.9814  137.3924  156.3362 C   0  0  0  0  0  0  0  0  0  0  0  0
  150.8979  138.4595  156.9487 C   0  0  0  0  0  0  0  0  0  0  0  0
  151.9654  139.0618  155.5852 S   0  0  0  0  0  0  0  0  0  0  0  0
  151.5200  140.3964  155.1570 O   0  0  0  0  0  0  0  0  0  0  0  0
  153.3711  138.8075  155.9352 O   0  0  0  0  0  0  0  0  0  0  0  0
  151.4158  137.8228  154.3543 C   0  0  0  0  0  0  0  0  0  0  0  0
  148.3333  134.7914  152.8061 H   0  0  0  0  0  0  0  0  0  0  0  0
  147.4388  132.8742  154.8803 H   0  0  0  0  0  0  0  0  0  0  0  0
  146.2517  133.7425  153.9341 H   0  0  0  0  0  0  0  0  0  0  0  0
  148.3605  132.3629  152.3018 H   0  0  0  0  0  0  0  0  0  0  0  0
  147.3475  131.2778  153.2210 H   0  0  0  0  0  0  0  0  0  0  0  0
  144.7599  133.1620  153.0824 H   0  0  0  0  0  0  0  0  0  0  0  0
  143.0436  133.3379  151.2740 H   0  0  0  0  0  0  0  0  0  0  0  0
  143.6540  132.6808  148.9359 H   0  0  0  0  0  0  0  0  0  0  0  0
  146.0366  131.8473  148.4916 H   0  0  0  0  0  0  0  0  0  0  0  0
  149.7380  136.2121  153.3674 H   0  0  0  0  0  0  0  0  0  0  0  0
  151.4746  136.0577  155.5889 H   0  0  0  0  0  0  0  0  0  0  0  0
  149.0817  137.8828  155.9611 H   0  0  0  0  0  0  0  0  0  0  0  0
  149.6586  136.6672  157.0839 H   0  0  0  0  0  0  0  0  0  0  0  0
  150.3462  139.2893  157.3908 H   0  0  0  0  0  0  0  0  0  0  0  0
  151.5422  138.0245  157.7131 H   0  0  0  0  0  0  0  0  0  0  0  0
  152.2692  137.4656  153.7781 H   0  0  0  0  0  0  0  0  0  0  0  0
  150.7189  138.3158  153.6756 H   0  0  0  0  0  0  0  0  0  0  0  0
  147.5278  131.7333  150.2580 H   0  0  0  0  0  0  0  0  0  0  0  0
  1  2  2  0  0  0  0
  2  3  1  0  0  0  0
  2 12  1  0  0  0  0
  3  4  1  0  0  0  0
  3 20  1  0  0  0  0
  4  5  1  0  0  0  0
  4 21  1  0  0  0  0
  4 22  1  0  0  0  0
  5  6  1  0  0  0  0
  5 23  1  0  0  0  0
  5 24  1  0  0  0  0
  6 11  1  0  0  0  0
  6  7  2  0  0  0  0
  7  8  1  0  0  0  0
  7 25  1  0  0  0  0
  8  9  2  0  0  0  0
  8 26  1  0  0  0  0
  9 10  1  0  0  0  0
  9 27  1  0  0  0  0
 10 11  2  0  0  0  0
 10 28  1  0  0  0  0
 11 37  1  0  0  0  0
 12 13  1  0  0  0  0
 12 29  1  0  0  0  0
 13 19  1  0  0  0  0
 13 14  1  0  0  0  0
 13 30  1  0  0  0  0
 14 15  1  0  0  0  0
 14 31  1  0  0  0  0
 14 32  1  0  0  0  0
 15 16  1  0  0  0  0
 15 33  1  0  0  0  0
 15 34  1  0  0  0  0
 16 17  2  0  0  0  0
 16 18  2  0  0  0  0
 16 19  1  0  0  0  0
 19 35  1  0  0  0  0
 19 36  1  0  0  0  0
M  CHG  1  11   1
M  END
> <s_m_source_file>
AV-unprocessed.smi

> <i_m_source_file_index>
1534

> <i_lp_mmshare_version>
43012

> <i_f3d_flags>
0

> <s_epik_input>
Tz1TMSg9TylbQ0gyXVtDSDJdW0NASF0oW0NIMl0xKVtOSF1DKD1PKVtOSF1bQ0gyXVtDSDJdYzJbY0hdW2NIXVtjSF1bY0hdbjI=

> <s_epik_cmdline>
J2VwaWtfcHl0aG9uJywgJy1waCcsICc3LjAnLCAnLXRuJywgJzgnLCAnLW1hJywgJzIwMCcsICctbWV0YWxfYmluZGluZycsICctaW1hZScsICc8aW5maWxlLm1hZT4nLCAnLW9tYWUnLCAnPG91dGZpbGUubWFlPic=

> <r_epik_Ionization_Penalty>
1.58466

> <r_epik_Ionization_Penalty_Charging>
1.58462

> <r_epik_Ionization_Penalty_Neutral>
3.4911e-05

> <r_epik_State_Penalty>
1.6815

> <r_epik_Charging_Adjusted_Penalty>
3.26612

> <i_epik_Tot_Q>
1

> <i_epik_Tot_abs_Q>
1

> <r_epik_Metal_State_Penalty>
1.72144

> <b_epik_Metal_Only>
0

> <s_lp_Force_Field>
OPLS_2005

> <r_lp_Energy>
16.0644

> <b_lp_Chiralities_Consistent>
1

> <s_lp_Variant>
AV-unprocessed.smi:1534-3

> <Gold.Version>
5.8.1

> <Gold.Id.Protein>
6NUR|6NUR_protein|mol2

> <Gold.PLP.Fitness>
45.9559

> <Gold.PLP.PLP>
-32.9391

> <Gold.PLP.part.hbond>
-5.3438

> <Gold.PLP.part.metal>
0.0000

> <Gold.PLP.part.buried>
-4.6396

> <Gold.PLP.part.nonpolar>
-23.0836

> <Gold.PLP.part.repulsive>
0.1979

> <Gold.PLP.ligand.clash>
0.0000

> <Gold.PLP.ligand.torsion>
0.7799

> <Gold.PLP.Chemscore.Hbond>
4.8560

> <Gold.PLP.Chemscore.CHOScore>
0.0000

> <Gold.PLP.Chemscore.Metal>
0.0000

> <Gold.Chemscore.Hbonds>
donor molecule, donor type, donor heavy atom, donor atom, acceptor molecule, acceptor atom, score
      L1  H     3    20       P1  7948  0.90
      L1  H    11    37       P1 10747  1.00
      L1  H    12    29       P1  7948  0.90
      P1  H  7989  7998       L1    17  0.91
      P1  H  7997  8010       L1    18  0.90

> <Gold.PLP.Chemscore.Internal.Correction>
0.0087

> <Gold.Rescore>
     Score         DG    S(hbond)    S(metal)    S(lipo)     H(rot)  DE(clash)    DE(int)     intcor
     22.92     -23.74       4.38        0.00      70.83       1.82       0.07       0.74       ----

> <Gold.Chemscore.Fitness>
22.9242

> <Gold.Chemscore.DG>
-23.7363

> <Gold.Chemscore.ZeroCoef>
-5.4800

> <Gold.Chemscore.Hbond>
4.3813

> <Gold.Chemscore.Metal>
0.0000

> <Gold.Chemscore.Lipo>
70.8281

> <Gold.Chemscore.Internal_Hbond>
0.0000

> <Gold.Chemscore.DEClash>
0.0735

> <Gold.Chemscore.DEInternal>
0.7386

> <Gold.Chemscore.Rot>
1.8220

> <Gold.Chemscore.Internal.Correction>
   9.000000E+99

> <Gold.Chemscore.Hbonds>
donor molecule, donor type, donor heavy atom, donor atom, acceptor molecule, acceptor atom, score
      L1  H     3    20       P1  7948  0.49
      L1  H    11    37       P1 10747  1.00
      L1  H    12    29       P1  7948  0.17
      P1  H  7989  7998       L1    17  0.87
      P1  H  7997  8010       L1    18  0.87

> <Gold.Chemscore.Hbond.Weighted>
-14.6336

> <Gold.Chemscore.Metal.Weighted>
-0.0000

> <Gold.Chemscore.Lipo.Weighted>
-8.2869

> <Gold.Chemscore.Internal_Hbond.Weighted>
0.0000

> <Gold.Chemscore.DEClash.Weighted>
0.0735

> <Gold.Chemscore.DEInternal.Weighted>
0.7386

> <Gold.Chemscore.Rot.Weighted>
4.6642

> <Gold.Chemscore.Internal.Correction.Weighted>
   9.000000E+99

> <Gold.Protein.RotatedTorsions>
[ 6907 6896 6895 6894 ] final -129.64 input  -60.11 | X-H torsion
[ 7974 7965 7964 7962 ] final   24.79 input  175.53 | X-H torsion
[ 8008 7997 7996 7995 ] final   68.77 input   59.86 | X-H torsion
[ 10167 10162 10161 10158 ] final  -26.03 input  -65.29 | X-H torsion
[ 10718 10713 10712 10709 ] final  112.43 input   66.30 | X-H torsion
[ 10763 10752 10751 10750 ] final  100.63 input  -60.55 | X-H torsion
[ 11005 11000 10999 10996 ] final -109.00 input  -57.11 | X-H torsion

> <Gold.Protein.ActiveResidues>
 VAL166  LYS551  ARG553  GLY616  TRP617  ASP618  TYR619  PRO620  LYS621  CYS622 
 ASP623  PHE694  ASN695  SER759  ASP760  ASP761  ALA762  ILE779  LEU786  VAL792 
 PHE793  MET794  SER795  GLU796  ALA797  LYS798  CYS799  TRP800  GLU811  SER814 

> <Gold.Protein.RotatedAtoms>
  150.9309  133.6768  159.2810 H   0  0  0  0  0  0  0  0  0  0  0  0  # atno 6907 bound_to 6896
  151.4190  135.0994  159.9618 H   0  0  0  0  0  0  0  0  0  0  0  0  # atno 6908 bound_to 6896
  152.5025  133.8765  159.7380 H   0  0  0  0  0  0  0  0  0  0  0  0  # atno 6909 bound_to 6896
  146.1920  139.7555  142.8825 H   0  0  0  0  0  0  0  0  0  0  0  0  # atno 7974 bound_to 7965
  155.7135  140.3494  155.4984 H   0  0  0  0  0  0  0  0  0  0  0  0  # atno 8008 bound_to 7997
  155.9335  140.1088  157.1135 H   0  0  0  0  0  0  0  0  0  0  0  0  # atno 8009 bound_to 7997
  154.4089  140.1226  156.4820 H   0  0  0  0  0  0  0  0  0  0  0  0  # atno 8010 bound_to 7997
  140.7284  143.4213  151.0946 H   0  0  0  0  0  0  0  0  0  0  0  0  # atno 10167 bound_to 10162
  157.6393  131.0967  150.6894 H   0  0  0  0  0  0  0  0  0  0  0  0  # atno 10718 bound_to 10713
  153.3164  135.4072  155.1379 H   0  0  0  0  0  0  0  0  0  0  0  0  # atno 10763 bound_to 10752
  154.8589  135.3577  154.5655 H   0  0  0  0  0  0  0  0  0  0  0  0  # atno 10764 bound_to 10752
  153.6086  135.7068  153.5414 H   0  0  0  0  0  0  0  0  0  0  0  0  # atno 10765 bound_to 10752
  141.0871  133.9120  157.2160 H   0  0  0  0  0  0  0  0  0  0  0  0  # atno 11005 bound_to 11000
  145.3762  141.0351  143.3203 LP  0  0  0  0  0  0  0  0  0  0  0  0  # atno 17320 bound_to 7965
  144.8506  139.5328  143.6858 LP  0  0  0  0  0  0  0  0  0  0  0  0  # atno 17321 bound_to 7965
  139.7859  143.8287  152.3145 LP  0  0  0  0  0  0  0  0  0  0  0  0  # atno 17342 bound_to 10162
  139.8255  144.7277  150.9518 LP  0  0  0  0  0  0  0  0  0  0  0  0  # atno 17343 bound_to 10162
  156.7221  130.4683  149.5520 LP  0  0  0  0  0  0  0  0  0  0  0  0  # atno 17370 bound_to 10713
  156.1659  130.6405  151.0777 LP  0  0  0  0  0  0  0  0  0  0  0  0  # atno 17371 bound_to 10713
  139.9691  135.0133  156.9465 LP  0  0  0  0  0  0  0  0  0  0  0  0  # atno 17394 bound_to 11000
  140.5337  134.0788  155.7322 LP  0  0  0  0  0  0  0  0  0  0  0  0  # atno 17395 bound_to 11000

$$$$
