#       Name:                AV-unprocessed.smi:1070
#       Creating user name   scv26
#       Creation time:       Fri Mar 27 03:19:03 2020


#       File generated by GOLD software.
#

@<TRIPOS>MOLECULE
AV-unprocessed.smi:1070
    58    59     1
SMALL
NO_CHARGES


@<TRIPOS>ATOM
      1 ****        -4.4498  -0.5187  -0.9357 C.3            1 S1                 0.0000
      2 ****        -4.4609   0.9162  -0.4037 C.3            1 S1                 0.0000
      3 ****        -3.1247   1.3348  -0.1885 O.3            1 S1                 0.0000
      4 ****        -3.0381   2.6463   0.3513 C.3            1 S1                 0.0000
      5 ****        -1.5664   3.0234   0.5197 C.2            1 S1                 0.0000
      6 ****        -1.1987   4.1675   0.2555 O.2            1 S1                 0.0000
      7 ****        -0.7578   2.0438   0.9610 N.am           1 S1                 0.0000
      8 ****         0.6567   2.0692   1.1080 C.ar           1 S1                 0.0000
      9 ****         1.3559   3.2322   1.5080 C.ar           1 S1                 0.0000
     10 ****         2.7507   3.1694   1.6774 C.ar           1 S1                 0.0000
     11 ****         3.4053   1.9443   1.4534 C.ar           1 S1                 0.0000
     12 ****         4.7737   1.8838   1.6199 O.3            1 S1                 0.0000
     13 ****         5.4275   0.6416   1.3838 C.3            1 S1                 0.0000
     14 ****         2.7410   0.8229   1.0840 N.ar           1 S1                 0.0000
     15 ****         1.3984   0.8739   0.9144 C.ar           1 S1                 0.0000
     16 ****         0.7529  -0.3121   0.5116 N.3            1 S1                 0.0000
     17 ****         1.2988  -1.5751   1.0113 C.3            1 S1                 0.0000
     18 ****         0.3388  -2.7392   0.6996 C.3            1 S1                 0.0000
     19 ****         0.0502  -2.7513  -0.7409 N.am           1 S1                 0.0000
     20 ****         0.4529  -3.7488  -1.5634 C.2            1 S1                 0.0000
     21 ****         0.1589  -3.6477  -3.0618 C.3            1 S1                 0.0000
     22 ****         1.0513  -4.7452  -1.1575 O.2            1 S1                 0.0000
     23 ****        -0.6065  -1.5068  -1.1653 C.3            1 S1                 0.0000
     24 ****         0.3403  -0.3238  -0.8922 C.3            1 S1                 0.0000
     25 ****        -5.4631  -0.8692  -1.1322 H              1 S1                 0.0000
     26 ****        -3.9955  -1.1987  -0.2150 H              1 S1                 0.0000
     27 ****        -3.8849  -0.5879  -1.8657 H              1 S1                 0.0000
     28 ****        -4.9492   1.5773  -1.1211 H              1 S1                 0.0000
     29 ****        -5.0265   0.9626   0.5281 H              1 S1                 0.0000
     30 ****        -3.5267   3.3627  -0.3115 H              1 S1                 0.0000
     31 ****        -3.5329   2.6941   1.3225 H              1 S1                 0.0000
     32 ****        -1.1874   1.1352   1.0619 H              1 S1                 0.0000
     33 ****         0.8441   4.1621   1.7040 H              1 S1                 0.0000
     34 ****         3.3069   4.0439   1.9812 H              1 S1                 0.0000
     35 ****         6.4981   0.7598   1.5500 H              1 S1                 0.0000
     36 ****         5.2880   0.3064   0.3549 H              1 S1                 0.0000
     37 ****         5.0704  -0.1330   2.0640 H              1 S1                 0.0000
     38 ****         2.2688  -1.7633   0.5486 H              1 S1                 0.0000
     39 ****         1.4612  -1.5054   2.0877 H              1 S1                 0.0000
     40 ****         0.7695  -3.6757   1.0558 H              1 S1                 0.0000
     41 ****        -0.5950  -2.6120   1.2493 H              1 S1                 0.0000
     42 ****         0.6292  -2.7617  -3.4894 H              1 S1                 0.0000
     43 ****        -0.9154  -3.6027  -3.2423 H              1 S1                 0.0000
     44 ****         0.5485  -4.5187  -3.5898 H              1 S1                 0.0000
     45 ****        -0.9076  -1.5007  -2.2116 H              1 S1                 0.0000
     46 ****        -1.5277  -1.3812  -0.5951 H              1 S1                 0.0000
     47 ****        -0.1531   0.6095  -1.1628 H              1 S1                 0.0000
     48 ****         1.2282  -0.4026  -1.5209 H              1 S1                 0.0000
     49 ****        -2.6395   1.3165  -1.0628 LP             1 S1                 0.0000
     50 ****        -2.6890   0.6981   0.4478 LP             1 S1                 0.0000
     51 ****        -1.8611   4.8436  -0.0671 LP             1 S1                 0.0000
     52 ****        -0.2374   4.4212   0.3633 LP             1 S1                 0.0000
     53 ****         4.9690   2.1463   2.5648 LP             1 S1                 0.0000
     54 ****         5.1777   2.5541   0.9974 LP             1 S1                 0.0000
     55 ****         3.2367  -0.0333   0.9381 LP             1 S1                 0.0000
     56 ****        -0.1018  -0.2668   1.0287 LP             1 S1                 0.0000
     57 ****         1.2587  -4.8419  -0.1840 LP             1 S1                 0.0000
     58 ****         1.3301  -5.4579  -1.8013 LP             1 S1                 0.0000
@<TRIPOS>BOND
    1    1    2 1     
    2    1   25 1     
    3    1   26 1     
    4    1   27 1     
    5    2    3 1     
    6    2   28 1     
    7    2   29 1     
    8    3    4 1     
    9    4    5 1     
   10    4   30 1     
   11    4   31 1     
   12    5    6 2     
   13    5    7 am    
   14    7    8 1     
   15    7   32 1     
   16    8   15 ar    
   17    8    9 ar    
   18    9   10 ar    
   19    9   33 1     
   20   10   11 ar    
   21   10   34 1     
   22   11   12 1     
   23   11   14 ar    
   24   12   13 1     
   25   13   35 1     
   26   13   36 1     
   27   13   37 1     
   28   14   15 ar    
   29   15   16 1     
   30   16   24 1     
   31   16   17 1     
   32   17   18 1     
   33   17   38 1     
   34   17   39 1     
   35   18   19 1     
   36   18   40 1     
   37   18   41 1     
   38   19   20 am    
   39   19   23 1     
   40   20   21 1     
   41   20   22 2     
   42   21   42 1     
   43   21   43 1     
   44   21   44 1     
   45   23   24 1     
   46   23   45 1     
   47   23   46 1     
   48   24   47 1     
   49   24   48 1     
   50    3   49 1     
   51    3   50 1     
   52    6   51 1     
   53    6   52 1     
   54   12   53 1     
   55   12   54 1     
   56   14   55 1     
   57   16   56 1     
   58   22   57 1     
   59   22   58 1     
@<TRIPOS>SUBSTRUCTURE
      1 S1             1
@<TRIPOS>SET
LONE_PAIRS      STATIC     ATOMS    <user>   **** ""
10 49 50 51 52 53 54 55 56 57 58
DONOR_HYDROGENS      STATIC     ATOMS    <user>   **** ""
1 32
ATOM$BLUE        STATIC     ATOMS    COLORGROUP SYSTEM
10 49 50 51 52 53 54 55 56 57 58
ATOM$RED        STATIC     ATOMS    COLORGROUP SYSTEM
1 32
