AV-unprocessed.smi:1810|AV-procd|sdf|7333|dock10
  -GOLD-   22720 8593D 1   1.00000     0.00000
 Structure written by MMmdl.
 40 41  0  0  0  0  0  0  0  0  1 V2000
  150.0852  144.0340  159.4463 C   0  0  0  0  0  0  0  0  0  0  0  0
  150.6459  142.8585  158.6918 C   0  0  0  0  0  0  0  0  0  0  0  0
  149.9906  142.4730  157.6465 N   0  0  0  0  0  0  0  0  0  0  0  0
  150.4191  141.4056  156.8824 N   0  0  0  0  0  0  0  0  0  0  0  0
  149.5481  141.0989  155.7426 C   0  0  0  0  0  0  0  0  0  0  0  0
  148.0725  141.3746  156.0699 C   0  0  0  0  0  0  0  0  0  0  0  0
  147.3802  141.6407  154.8579 O   0  0  0  0  0  0  0  0  0  0  0  0
  146.2567  142.4379  154.9100 C   0  0  0  0  0  0  0  0  0  0  0  0
  145.4011  142.5365  156.0374 C   0  0  0  0  0  0  0  0  0  0  0  0
  144.2707  143.3759  156.0041 C   0  0  0  0  0  0  0  0  0  0  0  0
  143.9883  144.1233  154.8453 C   0  0  0  0  0  0  0  0  0  0  0  0
  142.5487  145.1844  154.8169 S   0  0  0  0  0  0  0  0  0  0  0  0
  141.6464  144.5288  153.5070 N   0  0  0  0  0  0  0  0  0  0  0  0
  141.7764  144.9504  156.0468 O   0  0  0  0  0  0  0  0  0  0  0  0
  142.9615  146.5438  154.4348 O   0  0  0  0  0  0  0  0  0  0  0  0
  144.8282  144.0365  153.7185 C   0  0  0  0  0  0  0  0  0  0  0  0
  145.9563  143.1945  153.7574 C   0  0  0  0  0  0  0  0  0  0  0  0
  151.5364  140.6668  157.1367 C   0  0  0  0  0  0  0  0  0  0  0  0
  151.8785  139.7179  156.4296 O   0  0  0  0  0  0  0  0  0  0  0  0
  152.2741  141.1084  158.3226 C   0  0  0  0  0  0  0  0  0  0  0  0
  153.4512  140.3604  158.6264 C   0  0  0  0  0  0  0  0  0  0  0  0
  154.4174  139.7707  158.8687 N   0  0  0  0  0  0  0  0  0  0  0  0
  151.8642  142.1557  159.0813 C   0  0  0  0  0  0  0  0  0  0  0  0
  152.5935  142.6538  160.3218 C   0  0  0  0  0  0  0  0  0  0  0  0
  150.8058  144.8513  159.4817 H   0  0  0  0  0  0  0  0  0  0  0  0
  149.8394  143.7543  160.4708 H   0  0  0  0  0  0  0  0  0  0  0  0
  149.1751  144.4182  158.9831 H   0  0  0  0  0  0  0  0  0  0  0  0
  149.8432  141.6964  154.8780 H   0  0  0  0  0  0  0  0  0  0  0  0
  149.6757  140.0599  155.4340 H   0  0  0  0  0  0  0  0  0  0  0  0
  147.6334  140.5107  156.5711 H   0  0  0  0  0  0  0  0  0  0  0  0
  147.9983  142.2329  156.7398 H   0  0  0  0  0  0  0  0  0  0  0  0
  145.5892  141.9772  156.9411 H   0  0  0  0  0  0  0  0  0  0  0  0
  143.6243  143.4437  156.8668 H   0  0  0  0  0  0  0  0  0  0  0  0
  140.6419  144.5507  153.6805 H   0  0  0  0  0  0  0  0  0  0  0  0
  141.9873  143.6102  153.2249 H   0  0  0  0  0  0  0  0  0  0  0  0
  144.6158  144.6070  152.8266 H   0  0  0  0  0  0  0  0  0  0  0  0
  146.5998  143.1287  152.8922 H   0  0  0  0  0  0  0  0  0  0  0  0
  153.4842  142.0658  160.5417 H   0  0  0  0  0  0  0  0  0  0  0  0
  151.9432  142.6008  161.1957 H   0  0  0  0  0  0  0  0  0  0  0  0
  152.9097  143.6890  160.1893 H   0  0  0  0  0  0  0  0  0  0  0  0
  1  2  1  0  0  0  0
  1 25  1  0  0  0  0
  1 26  1  0  0  0  0
  1 27  1  0  0  0  0
  2 23  1  0  0  0  0
  2  3  2  0  0  0  0
  3  4  1  0  0  0  0
  4  5  1  0  0  0  0
  4 18  1  0  0  0  0
  5  6  1  0  0  0  0
  5 28  1  0  0  0  0
  5 29  1  0  0  0  0
  6  7  1  0  0  0  0
  6 30  1  0  0  0  0
  6 31  1  0  0  0  0
  7  8  1  0  0  0  0
  8 17  1  0  0  0  0
  8  9  2  0  0  0  0
  9 10  1  0  0  0  0
  9 32  1  0  0  0  0
 10 11  2  0  0  0  0
 10 33  1  0  0  0  0
 11 12  1  0  0  0  0
 11 16  1  0  0  0  0
 12 13  1  0  0  0  0
 12 14  2  0  0  0  0
 12 15  2  0  0  0  0
 13 34  1  0  0  0  0
 13 35  1  0  0  0  0
 16 17  2  0  0  0  0
 16 36  1  0  0  0  0
 17 37  1  0  0  0  0
 18 19  2  0  0  0  0
 18 20  1  0  0  0  0
 20 21  1  0  0  0  0
 20 23  2  0  0  0  0
 21 22  3  0  0  0  0
 23 24  1  0  0  0  0
 24 38  1  0  0  0  0
 24 39  1  0  0  0  0
 24 40  1  0  0  0  0
M  END
> <s_m_source_file>
AV-unprocessed.smi

> <i_m_source_file_index>
1810

> <i_lp_mmshare_version>
43012

> <i_f3d_flags>
0

> <s_epik_input>
TiNDYyhjMVtDSDNdKWMoPU8pbihuYzFbQ0gzXSlbQ0gyXVtDSDJdT2MyW2NIXVtjSF1jKFMoPU8pKD1PKVtOSDJdKVtjSF1bY0hdMg==

> <s_epik_cmdline>
J2VwaWtfcHl0aG9uJywgJy1waCcsICc3LjAnLCAnLXRuJywgJzgnLCAnLW1hJywgJzIwMCcsICctbWV0YWxfYmluZGluZycsICctaW1hZScsICc8aW5maWxlLm1hZT4nLCAnLW9tYWUnLCAnPG91dGZpbGUubWFlPic=

> <r_lp_tautomer_probability>
1

> <r_epik_Ionization_Penalty>
0.000347403

> <r_epik_Ionization_Penalty_Charging>
5.27838e-11

> <r_epik_Ionization_Penalty_Neutral>
0.000347403

> <r_epik_State_Penalty>
0.00021091

> <r_epik_Charging_Adjusted_Penalty>
0.000210911

> <i_epik_Tot_Q>
0

> <i_epik_Tot_abs_Q>
0

> <r_epik_Metal_State_Penalty>
0.18648

> <b_epik_Metal_Only>
0

> <s_lp_Force_Field>
OPLS_2005

> <r_lp_Energy>
32.1268

> <b_lp_Chiralities_Consistent>
1

> <s_lp_Variant>
AV-unprocessed.smi:1810-1

> <Gold.Version>
5.8.1

> <Gold.Id.Protein>
6NUR|6NUR_protein|mol2

> <Gold.PLP.Fitness>
44.9402

> <Gold.PLP.PLP>
-41.5855

> <Gold.PLP.part.hbond>
-4.5579

> <Gold.PLP.part.metal>
0.0000

> <Gold.PLP.part.buried>
-6.6755

> <Gold.PLP.part.nonpolar>
-30.7807

> <Gold.PLP.part.repulsive>
1.1853

> <Gold.PLP.ligand.clash>
0.0000

> <Gold.PLP.ligand.torsion>
2.0917

> <Gold.PLP.Chemscore.Hbond>
1.8500

> <Gold.PLP.Chemscore.CHOScore>
0.0000

> <Gold.PLP.Chemscore.Metal>
0.0000

> <Gold.Chemscore.Hbonds>
donor molecule, donor type, donor heavy atom, donor atom, acceptor molecule, acceptor atom, score
      L1  H    13    35       P1 10174  1.00
      P1  H  7997  8008       L1    22  0.80

> <Gold.PLP.Chemscore.Internal.Correction>
1.9881

> <Gold.Rescore>
     Score         DG    S(hbond)    S(metal)    S(lipo)     H(rot)  DE(clash)    DE(int)     intcor
     10.12     -13.90       1.12        0.00      83.64       1.99       1.76       2.02       ----

> <Gold.Chemscore.Fitness>
10.1171

> <Gold.Chemscore.DG>
-13.8993

> <Gold.Chemscore.ZeroCoef>
-5.4800

> <Gold.Chemscore.Hbond>
1.1179

> <Gold.Chemscore.Metal>
0.0000

> <Gold.Chemscore.Lipo>
83.6428

> <Gold.Chemscore.Internal_Hbond>
0.0000

> <Gold.Chemscore.DEClash>
1.7594

> <Gold.Chemscore.DEInternal>
2.0228

> <Gold.Chemscore.Rot>
1.9925

> <Gold.Chemscore.Internal.Correction>
   9.000000E+99

> <Gold.Chemscore.Hbonds>
donor molecule, donor type, donor heavy atom, donor atom, acceptor molecule, acceptor atom, score
      L1  H    13    35       P1 10174  0.97
      P1  H  7997  8008       L1    22  0.12

> <Gold.Chemscore.Hbond.Weighted>
-3.7338

> <Gold.Chemscore.Metal.Weighted>
-0.0000

> <Gold.Chemscore.Lipo.Weighted>
-9.7862

> <Gold.Chemscore.Internal_Hbond.Weighted>
0.0000

> <Gold.Chemscore.DEClash.Weighted>
1.7594

> <Gold.Chemscore.DEInternal.Weighted>
2.0228

> <Gold.Chemscore.Rot.Weighted>
5.1007

> <Gold.Chemscore.Internal.Correction.Weighted>
   9.000000E+99

> <Gold.Protein.RotatedTorsions>
[ 6907 6896 6895 6894 ] final  104.41 input  -60.11 | X-H torsion
[ 7974 7965 7964 7962 ] final   14.20 input  175.53 | X-H torsion
[ 8008 7997 7996 7995 ] final -123.79 input   59.86 | X-H torsion
[ 10167 10162 10161 10158 ] final  129.31 input  -65.29 | X-H torsion
[ 10718 10713 10712 10709 ] final  165.00 input   66.30 | X-H torsion
[ 10763 10752 10751 10750 ] final   15.51 input  -60.55 | X-H torsion
[ 11005 11000 10999 10996 ] final -109.50 input  -57.11 | X-H torsion

> <Gold.Protein.ActiveResidues>
 VAL166  LYS551  ARG553  GLY616  TRP617  ASP618  TYR619  PRO620  LYS621  CYS622 
 ASP623  PHE694  ASN695  SER759  ASP760  ASP761  ALA762  ILE779  LEU786  VAL792 
 PHE793  MET794  SER795  GLU796  ALA797  LYS798  CYS799  TRP800  GLU811  SER814 

> <Gold.Protein.RotatedAtoms>
  152.5265  133.9681  159.7748 H   0  0  0  0  0  0  0  0  0  0  0  0  # atno 6907 bound_to 6896
  150.9958  133.6096  159.2709 H   0  0  0  0  0  0  0  0  0  0  0  0  # atno 6908 bound_to 6896
  151.3223  135.0828  159.9363 H   0  0  0  0  0  0  0  0  0  0  0  0  # atno 6909 bound_to 6896
  146.2311  139.9076  142.8529 H   0  0  0  0  0  0  0  0  0  0  0  0  # atno 7974 bound_to 7965
  155.1863  140.0412  157.2892 H   0  0  0  0  0  0  0  0  0  0  0  0  # atno 8008 bound_to 7997
  154.6169  140.2491  155.7570 H   0  0  0  0  0  0  0  0  0  0  0  0  # atno 8009 bound_to 7997
  156.2412  140.2903  156.0459 H   0  0  0  0  0  0  0  0  0  0  0  0  # atno 8010 bound_to 7997
  139.5484  144.6793  151.4400 H   0  0  0  0  0  0  0  0  0  0  0  0  # atno 10167 bound_to 10162
  157.0863  131.0406  151.2555 H   0  0  0  0  0  0  0  0  0  0  0  0  # atno 10718 bound_to 10713
  153.1518  135.6780  153.8870 H   0  0  0  0  0  0  0  0  0  0  0  0  # atno 10763 bound_to 10752
  153.8294  135.3119  155.3418 H   0  0  0  0  0  0  0  0  0  0  0  0  # atno 10764 bound_to 10752
  154.7868  135.4857  154.0050 H   0  0  0  0  0  0  0  0  0  0  0  0  # atno 10765 bound_to 10752
  141.0844  133.9164  157.2218 H   0  0  0  0  0  0  0  0  0  0  0  0  # atno 11005 bound_to 11000
  145.2261  140.9954  143.4017 LP  0  0  0  0  0  0  0  0  0  0  0  0  # atno 17320 bound_to 7965
  144.9569  139.4022  143.6375 LP  0  0  0  0  0  0  0  0  0  0  0  0  # atno 17321 bound_to 7965
  140.6739  143.8232  150.7034 LP  0  0  0  0  0  0  0  0  0  0  0  0  # atno 17342 bound_to 10162
  140.1665  143.4231  152.2031 LP  0  0  0  0  0  0  0  0  0  0  0  0  # atno 17343 bound_to 10162
  157.4758  130.7736  149.7367 LP  0  0  0  0  0  0  0  0  0  0  0  0  # atno 17370 bound_to 10713
  155.9910  130.3941  150.3004 LP  0  0  0  0  0  0  0  0  0  0  0  0  # atno 17371 bound_to 10713
  139.9661  135.0141  156.9389 LP  0  0  0  0  0  0  0  0  0  0  0  0  # atno 17394 bound_to 11000
  140.5396  134.0733  155.7338 LP  0  0  0  0  0  0  0  0  0  0  0  0  # atno 17395 bound_to 11000

$$$$
