AV-unprocessed.smi:221|AV-procd|sdf|1695|dock6
  -GOLD-   2262020143D 1   1.00000     0.00000
 Structure written by MMmdl.
 50 53  0  0  0  0  0  0  0  0  1 V2000
  145.3262  135.9795  160.8143 N   0  0  0  0  0  0  0  0  0  0  0  0
  146.5647  136.4547  160.6630 C   0  0  0  0  0  0  0  0  0  0  0  0
  146.7816  137.6433  160.4324 O   0  0  0  0  0  0  0  0  0  0  0  0
  147.7146  135.4378  160.7898 C   0  0  1  0  0  0  0  0  0  0  0  0
  147.6957  134.7114  162.1473 C   0  0  0  0  0  0  0  0  0  0  0  0
  146.8728  133.4454  161.9060 C   0  0  1  0  0  0  0  0  0  0  0  0
  145.5728  133.7136  162.0380 F   0  0  0  0  0  0  0  0  0  0  0  0
  147.1843  133.0936  160.4504 C   0  0  0  0  0  0  0  0  0  0  0  0
  147.6037  134.3444  159.8238 N   0  0  0  0  0  0  0  0  0  0  0  0
  147.9400  134.4210  158.5056 C   0  0  0  0  0  0  0  0  0  0  0  0
  149.1810  134.8829  158.1959 N   0  0  0  0  0  0  0  0  0  0  0  0
  149.5785  134.9830  156.9252 C   0  0  0  0  0  0  0  0  0  0  0  0
  148.9036  134.6830  155.8162 N   0  0  0  0  0  0  0  0  0  0  0  0
  147.6555  134.2220  156.1102 C   0  0  0  0  0  0  0  0  0  0  0  0
  147.0947  134.0584  157.4113 C   0  0  0  0  0  0  0  0  0  0  0  0
  145.7992  133.5636  157.2909 N   0  0  0  0  0  0  0  0  0  0  0  0
  145.6100  133.4392  156.0067 C   0  0  0  0  0  0  0  0  0  0  0  0
  146.6720  133.8231  155.2229 N   0  0  0  0  0  0  0  0  0  0  0  0
  146.7417  133.7984  153.7721 C   0  0  0  0  0  0  0  0  0  0  0  0
  145.9327  132.6304  153.1515 C   0  0  2  0  0  0  0  0  0  0  0  0
  146.6508  131.2764  153.3601 C   0  0  0  0  0  0  0  0  0  0  0  0
  147.9755  131.3191  152.8721 O   0  0  0  0  0  0  0  0  0  0  0  0
  145.5604  132.8582  151.6600 C   0  0  1  0  0  0  0  0  0  0  0  0
  144.7130  131.7751  151.0091 C   0  0  0  0  0  0  0  0  0  0  0  0
  144.0603  132.4985  149.8263 C   0  0  0  0  0  0  0  0  0  0  0  0
  144.3360  133.8867  149.9971 O   0  0  0  0  0  0  0  0  0  0  0  0
  144.7565  134.1155  151.3330 C   0  0  0  0  0  0  0  0  0  0  0  0
  148.6708  135.9506  160.6833 H   0  0  0  0  0  0  0  0  0  0  0  0
  147.1091  132.6391  162.6009 H   0  0  0  0  0  0  0  0  0  0  0  0
  144.5386  136.6069  160.7427 H   0  0  0  0  0  0  0  0  0  0  0  0
  145.1811  134.9982  161.0018 H   0  0  0  0  0  0  0  0  0  0  0  0
  148.7147  134.4303  162.4166 H   0  0  0  0  0  0  0  0  0  0  0  0
  147.3039  135.3175  162.9656 H   0  0  0  0  0  0  0  0  0  0  0  0
  148.0076  132.3797  160.4018 H   0  0  0  0  0  0  0  0  0  0  0  0
  146.3199  132.6529  159.9516 H   0  0  0  0  0  0  0  0  0  0  0  0
  150.5803  135.3582  156.7765 H   0  0  0  0  0  0  0  0  0  0  0  0
  144.6820  133.0703  155.5944 H   0  0  0  0  0  0  0  0  0  0  0  0
  146.3850  134.7636  153.4168 H   0  0  0  0  0  0  0  0  0  0  0  0
  147.7911  133.7318  153.4837 H   0  0  0  0  0  0  0  0  0  0  0  0
  144.9897  132.5724  153.6970 H   0  0  0  0  0  0  0  0  0  0  0  0
  146.6615  130.9997  154.4144 H   0  0  0  0  0  0  0  0  0  0  0  0
  146.1427  130.4732  152.8273 H   0  0  0  0  0  0  0  0  0  0  0  0
  147.9688  131.0755  151.9589 H   0  0  0  0  0  0  0  0  0  0  0  0
  146.4816  132.9072  151.0778 H   0  0  0  0  0  0  0  0  0  0  0  0
  145.3091  130.9176  150.6952 H   0  0  0  0  0  0  0  0  0  0  0  0
  143.9376  131.4077  151.6795 H   0  0  0  0  0  0  0  0  0  0  0  0
  144.4704  132.1635  148.8732 H   0  0  0  0  0  0  0  0  0  0  0  0
  142.9834  132.3277  149.8093 H   0  0  0  0  0  0  0  0  0  0  0  0
  143.8727  134.2137  151.9638 H   0  0  0  0  0  0  0  0  0  0  0  0
  145.3441  135.0300  151.4135 H   0  0  0  0  0  0  0  0  0  0  0  0
  1  2  1  0  0  0  0
  1 30  1  0  0  0  0
  1 31  1  0  0  0  0
  2  3  2  0  0  0  0
  2  4  1  0  0  0  0
  4 28  1  0  0  0  0
  4  9  1  0  0  0  0
  4  5  1  0  0  0  0
  5  6  1  0  0  0  0
  5 32  1  0  0  0  0
  5 33  1  0  0  0  0
  6 29  1  0  0  0  0
  6  7  1  0  0  0  0
  6  8  1  0  0  0  0
  8  9  1  0  0  0  0
  8 34  1  0  0  0  0
  8 35  1  0  0  0  0
  9 10  1  0  0  0  0
 10 15  1  0  0  0  0
 10 11  2  0  0  0  0
 11 12  1  0  0  0  0
 12 13  2  0  0  0  0
 12 36  1  0  0  0  0
 13 14  1  0  0  0  0
 14 18  1  0  0  0  0
 14 15  2  0  0  0  0
 15 16  1  0  0  0  0
 16 17  2  0  0  0  0
 17 18  1  0  0  0  0
 17 37  1  0  0  0  0
 18 19  1  0  0  0  0
 19 20  1  0  0  0  0
 19 38  1  0  0  0  0
 19 39  1  0  0  0  0
 20 21  1  0  0  0  0
 20 23  1  0  0  0  0
 20 40  1  0  0  0  0
 21 22  1  0  0  0  0
 21 41  1  0  0  0  0
 21 42  1  0  0  0  0
 22 43  1  0  0  0  0
 23 27  1  0  0  0  0
 23 24  1  0  0  0  0
 23 44  1  0  0  0  0
 24 25  1  0  0  0  0
 24 45  1  0  0  0  0
 24 46  1  0  0  0  0
 25 26  1  0  0  0  0
 25 47  1  0  0  0  0
 25 48  1  0  0  0  0
 26 27  1  0  0  0  0
 27 49  1  0  0  0  0
 27 50  1  0  0  0  0
M  END
> <s_m_source_file>
AV-unprocessed.smi

> <i_m_source_file_index>
221

> <i_lp_mmshare_version>
43012

> <i_f3d_flags>
0

> <s_epik_input>
W05IMl1DKD1PKVtDQEBIXTFbQ0gyXVtDQEBIXShGKVtDSDJdTjFjKG5bY0hdbjIpYyhjMjMpbltjSF1uM1tDSDJdW0NASF0oW0NIMl1bT0hdKVtDQEBIXTRbQ0gyXVtDSDJdT1tDSDJdNA==

> <s_epik_cmdline>
J2VwaWtfcHl0aG9uJywgJy1waCcsICc3LjAnLCAnLXRuJywgJzgnLCAnLW1hJywgJzIwMCcsICctbWV0YWxfYmluZGluZycsICctaW1hZScsICc8aW5maWxlLm1hZT4nLCAnLW9tYWUnLCAnPG91dGZpbGUubWFlPic=

> <r_lp_tautomer_probability>
1

> <r_epik_Ionization_Penalty>
0.000818822

> <r_epik_Ionization_Penalty_Charging>
0

> <r_epik_Ionization_Penalty_Neutral>
0.000818822

> <r_epik_State_Penalty>
0.000440551

> <r_epik_Charging_Adjusted_Penalty>
0.000440551

> <i_epik_Tot_Q>
0

> <i_epik_Tot_abs_Q>
0

> <r_epik_Metal_State_Penalty>
-0

> <b_epik_Metal_Only>
0

> <s_lp_Force_Field>
OPLS_2005

> <r_lp_Energy>
49.0425

> <b_lp_Chiralities_Consistent>
1

> <s_lp_Variant>
AV-unprocessed.smi:221-10

> <Gold.Version>
5.8.1

> <Gold.Id.Protein>
6NUR|6NUR_protein|mol2

> <Gold.PLP.Fitness>
43.3473

> <Gold.PLP.PLP>
-34.3542

> <Gold.PLP.part.hbond>
-3.0000

> <Gold.PLP.part.metal>
0.0000

> <Gold.PLP.part.buried>
-6.9010

> <Gold.PLP.part.nonpolar>
-24.4594

> <Gold.PLP.part.repulsive>
0.3674

> <Gold.PLP.ligand.clash>
0.0000

> <Gold.PLP.ligand.torsion>
1.5948

> <Gold.PLP.Chemscore.Hbond>
3.0000

> <Gold.PLP.Chemscore.CHOScore>
1.0000

> <Gold.PLP.Chemscore.Metal>
0.0000

> <Gold.Chemscore.Hbonds>
donor molecule, donor type, donor heavy atom, donor atom, acceptor molecule, acceptor atom, score
      L1  H    22    43       P1 10747  0.94
      P1  H  6896  6907       L1    11  1.00
      P1  H  6934  6947       L1     3  0.96
      L1  C    17    37       P1 10957  1.00

> <Gold.PLP.Chemscore.Internal.Correction>
0.1826

> <Gold.Rescore>
     Score         DG    S(hbond)    S(metal)    S(lipo)     H(rot)  DE(clash)    DE(int)     intcor
     11.99     -15.38       2.88        0.00      74.80       3.31       0.05       3.35       ----

> <Gold.Chemscore.Fitness>
11.9879

> <Gold.Chemscore.DG>
-15.3849

> <Gold.Chemscore.ZeroCoef>
-5.4800

> <Gold.Chemscore.Hbond>
2.8814

> <Gold.Chemscore.Metal>
0.0000

> <Gold.Chemscore.Lipo>
74.8014

> <Gold.Chemscore.Internal_Hbond>
0.0000

> <Gold.Chemscore.DEClash>
0.0500

> <Gold.Chemscore.DEInternal>
3.3469

> <Gold.Chemscore.Rot>
3.3089

> <Gold.Chemscore.Internal.Correction>
   9.000000E+99

> <Gold.Chemscore.Hbonds>
donor molecule, donor type, donor heavy atom, donor atom, acceptor molecule, acceptor atom, score
      L1  H    22    43       P1 10747  0.89
      P1  H  6896  6907       L1    11  0.75
      P1  H  6934  6947       L1     3  0.91

> <Gold.Chemscore.Hbond.Weighted>
-9.6240

> <Gold.Chemscore.Metal.Weighted>
-0.0000

> <Gold.Chemscore.Lipo.Weighted>
-8.7518

> <Gold.Chemscore.Internal_Hbond.Weighted>
0.0000

> <Gold.Chemscore.DEClash.Weighted>
0.0500

> <Gold.Chemscore.DEInternal.Weighted>
3.3469

> <Gold.Chemscore.Rot.Weighted>
8.4709

> <Gold.Chemscore.Internal.Correction.Weighted>
   9.000000E+99

> <Gold.Protein.RotatedTorsions>
[ 6907 6896 6895 6894 ] final  -89.21 input  -60.11 | X-H torsion
[ 7974 7965 7964 7962 ] final   46.55 input  175.53 | X-H torsion
[ 8008 7997 7996 7995 ] final -174.07 input   59.86 | X-H torsion
[ 10167 10162 10161 10158 ] final  -68.44 input  -65.29 | X-H torsion
[ 10718 10713 10712 10709 ] final  -80.62 input   66.30 | X-H torsion
[ 10763 10752 10751 10750 ] final  133.47 input  -60.55 | X-H torsion
[ 11005 11000 10999 10996 ] final  136.65 input  -57.11 | X-H torsion

> <Gold.Protein.ActiveResidues>
 VAL166  LYS551  ARG553  GLY616  TRP617  ASP618  TYR619  PRO620  LYS621  CYS622 
 ASP623  PHE694  ASN695  SER759  ASP760  ASP761  ALA762  ILE779  LEU786  VAL792 
 PHE793  MET794  SER795  GLU796  ALA797  LYS798  CYS799  TRP800  GLU811  SER814 

> <Gold.Protein.RotatedAtoms>
  150.6872  134.2622  159.4553 H   0  0  0  0  0  0  0  0  0  0  0  0  # atno 6907 bound_to 6896
  152.0551  134.9627  160.0584 H   0  0  0  0  0  0  0  0  0  0  0  0  # atno 6908 bound_to 6896
  152.1075  133.4248  159.4652 H   0  0  0  0  0  0  0  0  0  0  0  0  # atno 6909 bound_to 6896
  146.0379  139.4843  142.9797 H   0  0  0  0  0  0  0  0  0  0  0  0  # atno 7974 bound_to 7965
  155.9655  140.1152  157.0858 H   0  0  0  0  0  0  0  0  0  0  0  0  # atno 8008 bound_to 7997
  154.4142  140.1173  156.5303 H   0  0  0  0  0  0  0  0  0  0  0  0  # atno 8009 bound_to 7997
  155.6665  140.3473  155.4804 H   0  0  0  0  0  0  0  0  0  0  0  0  # atno 8010 bound_to 7997
  140.5507  143.2312  151.6917 H   0  0  0  0  0  0  0  0  0  0  0  0  # atno 10167 bound_to 10162
  156.0066  130.4580  150.3829 H   0  0  0  0  0  0  0  0  0  0  0  0  # atno 10718 bound_to 10713
  153.8076  135.3133  155.3397 H   0  0  0  0  0  0  0  0  0  0  0  0  # atno 10763 bound_to 10752
  154.8064  135.4695  154.0407 H   0  0  0  0  0  0  0  0  0  0  0  0  # atno 10764 bound_to 10752
  153.1774  135.6888  153.8612 H   0  0  0  0  0  0  0  0  0  0  0  0  # atno 10765 bound_to 10752
  140.0060  134.9459  157.0176 H   0  0  0  0  0  0  0  0  0  0  0  0  # atno 11005 bound_to 11000
  145.6933  141.0158  143.1543 LP  0  0  0  0  0  0  0  0  0  0  0  0  # atno 17320 bound_to 7965
  144.7060  139.8558  143.7429 LP  0  0  0  0  0  0  0  0  0  0  0  0  # atno 17321 bound_to 7965
  139.5026  144.3822  152.0364 LP  0  0  0  0  0  0  0  0  0  0  0  0  # atno 17342 bound_to 10162
  140.2939  144.3722  150.6080 LP  0  0  0  0  0  0  0  0  0  0  0  0  # atno 17343 bound_to 10162
  157.1907  131.0414  151.2701 LP  0  0  0  0  0  0  0  0  0  0  0  0  # atno 17370 bound_to 10713
  157.4063  130.7361  149.6805 LP  0  0  0  0  0  0  0  0  0  0  0  0  # atno 17371 bound_to 10713
  140.4640  134.1454  155.7195 LP  0  0  0  0  0  0  0  0  0  0  0  0  # atno 17394 bound_to 11000
  141.1677  133.8670  157.1665 LP  0  0  0  0  0  0  0  0  0  0  0  0  # atno 17395 bound_to 11000

$$$$
