AV-unprocessed.smi:1099|AV-procd|sdf|4755|dock2
  -GOLD-   22720 3293D 1   1.00000     0.00000
 Structure written by MMmdl.
 41 43  0  0  0  0  0  0  0  0  1 V2000
  154.1041  142.3534  163.6436 C   0  0  0  0  0  0  0  0  0  0  0  0
  153.0690  143.2320  162.9332 C   0  0  0  0  0  0  0  0  0  0  0  0
  152.7195  142.7208  161.5756 C   0  0  0  0  0  0  0  0  0  0  0  0
  151.8083  143.2932  160.7839 N   0  0  0  0  0  0  0  0  0  0  0  0
  151.6877  142.6491  159.5483 C   0  0  0  0  0  0  0  0  0  0  0  0
  150.7016  143.1467  158.5358 C   0  0  0  0  0  0  0  0  0  0  0  0
  151.3402  143.3465  157.1511 C   0  0  0  0  0  0  0  0  0  0  0  0
  150.4617  142.8828  156.0831 N   0  0  0  0  0  0  0  0  0  0  0  0
  150.1115  141.6040  155.8750 C   0  0  0  0  0  0  0  0  0  0  0  0
  150.4999  140.6799  156.5901 O   0  0  0  0  0  0  0  0  0  0  0  0
  149.1857  141.3393  154.6741 C   0  0  2  0  0  0  0  0  0  0  0  0
  147.8369  142.0964  154.7568 C   0  0  0  0  0  0  0  0  0  0  0  0
  146.7915  140.9713  154.6245 C   0  0  1  0  0  0  0  0  0  0  0  0
  146.8268  140.4039  153.1924 C   0  0  0  0  0  0  0  0  0  0  0  0
  148.1488  139.6120  153.1736 C   0  0  0  0  0  0  0  0  0  0  0  0
  148.7127  139.8659  154.5850 C   0  0  2  0  0  0  0  0  0  0  0  0
  147.4341  139.8450  155.4219 C   0  0  0  0  0  0  0  0  0  0  0  0
  152.5349  141.5778  159.4116 C   0  0  0  0  0  0  0  0  0  0  0  0
  153.5191  141.3418  160.8293 S   0  0  0  0  0  0  0  0  0  0  0  0
  154.3370  142.7498  164.6322 H   0  0  0  0  0  0  0  0  0  0  0  0
  155.0341  142.3037  163.0764 H   0  0  0  0  0  0  0  0  0  0  0  0
  153.7342  141.3356  163.7714 H   0  0  0  0  0  0  0  0  0  0  0  0
  152.1581  143.2887  163.5296 H   0  0  0  0  0  0  0  0  0  0  0  0
  153.4458  144.2513  162.8409 H   0  0  0  0  0  0  0  0  0  0  0  0
  149.8690  142.4469  158.4541 H   0  0  0  0  0  0  0  0  0  0  0  0
  150.2674  144.0866  158.8791 H   0  0  0  0  0  0  0  0  0  0  0  0
  151.5949  144.3963  156.9960 H   0  0  0  0  0  0  0  0  0  0  0  0
  152.2746  142.7880  157.0872 H   0  0  0  0  0  0  0  0  0  0  0  0
  150.0979  143.5837  155.4538 H   0  0  0  0  0  0  0  0  0  0  0  0
  149.7142  141.6164  153.7601 H   0  0  0  0  0  0  0  0  0  0  0  0
  147.7121  142.6179  155.7071 H   0  0  0  0  0  0  0  0  0  0  0  0
  147.7365  142.8396  153.9650 H   0  0  0  0  0  0  0  0  0  0  0  0
  145.7937  141.2604  154.9559 H   0  0  0  0  0  0  0  0  0  0  0  0
  145.9804  139.7395  153.0146 H   0  0  0  0  0  0  0  0  0  0  0  0
  146.8008  141.1895  152.4363 H   0  0  0  0  0  0  0  0  0  0  0  0
  147.9557  138.5495  153.0200 H   0  0  0  0  0  0  0  0  0  0  0  0
  148.8247  139.9443  152.3849 H   0  0  0  0  0  0  0  0  0  0  0  0
  149.4652  139.1362  154.8878 H   0  0  0  0  0  0  0  0  0  0  0  0
  147.5806  140.0889  156.4742 H   0  0  0  0  0  0  0  0  0  0  0  0
  146.8884  138.9022  155.3537 H   0  0  0  0  0  0  0  0  0  0  0  0
  152.6407  140.9168  158.5641 H   0  0  0  0  0  0  0  0  0  0  0  0
  1  2  1  0  0  0  0
  1 20  1  0  0  0  0
  1 21  1  0  0  0  0
  1 22  1  0  0  0  0
  2  3  1  0  0  0  0
  2 23  1  0  0  0  0
  2 24  1  0  0  0  0
  3 19  1  0  0  0  0
  3  4  2  0  0  0  0
  4  5  1  0  0  0  0
  5  6  1  0  0  0  0
  5 18  2  0  0  0  0
  6  7  1  0  0  0  0
  6 25  1  0  0  0  0
  6 26  1  0  0  0  0
  7  8  1  0  0  0  0
  7 27  1  0  0  0  0
  7 28  1  0  0  0  0
  8  9  1  0  0  0  0
  8 29  1  0  0  0  0
  9 10  2  0  0  0  0
  9 11  1  0  0  0  0
 11 16  1  0  0  0  0
 11 12  1  0  0  0  0
 11 30  1  0  0  0  0
 12 13  1  0  0  0  0
 12 31  1  0  0  0  0
 12 32  1  0  0  0  0
 13 17  1  0  0  0  0
 13 14  1  0  0  0  0
 13 33  1  0  0  0  0
 14 15  1  0  0  0  0
 14 34  1  0  0  0  0
 14 35  1  0  0  0  0
 15 16  1  0  0  0  0
 15 36  1  0  0  0  0
 15 37  1  0  0  0  0
 16 17  1  0  0  0  0
 16 38  1  0  0  0  0
 17 39  1  0  0  0  0
 17 40  1  0  0  0  0
 18 19  1  0  0  0  0
 18 41  1  0  0  0  0
M  END
> <s_m_source_file>
AV-unprocessed.smi

> <i_m_source_file_index>
1099

> <i_lp_mmshare_version>
43012

> <i_f3d_flags>
0

> <s_epik_input>
W0NIM11bQ0gyXWMxbmMoW2NIXXMxKVtDSDJdW0NIMl1bTkhdQyg9TylbQ0BIXShbQ0gyXVtDQEBIXTIzKVtDQEBIXShbQ0gyXTMpW0NIMl1bQ0gyXTI=

> <s_epik_cmdline>
J2VwaWtfcHl0aG9uJywgJy1waCcsICc3LjAnLCAnLXRuJywgJzgnLCAnLW1hJywgJzIwMCcsICctbWV0YWxfYmluZGluZycsICctaW1hZScsICc8aW5maWxlLm1hZT4nLCAnLW9tYWUnLCAnPG91dGZpbGUubWFlPic=

> <r_epik_Ionization_Penalty>
0.00110131

> <r_epik_Ionization_Penalty_Charging>
0

> <r_epik_Ionization_Penalty_Neutral>
0.00110131

> <r_epik_State_Penalty>
0.00072257

> <r_epik_Charging_Adjusted_Penalty>
0.00072257

> <i_epik_Tot_Q>
0

> <i_epik_Tot_abs_Q>
0

> <r_epik_Metal_State_Penalty>
-0

> <b_epik_Metal_Only>
0

> <s_lp_Force_Field>
OPLS_2005

> <r_lp_Energy>
37.6271

> <b_lp_Chiralities_Consistent>
1

> <s_lp_Variant>
AV-unprocessed.smi:1099-1

> <Gold.Version>
5.8.1

> <Gold.Id.Protein>
6NUR|6NUR_protein|mol2

> <Gold.PLP.Fitness>
42.1736

> <Gold.PLP.PLP>
-40.1709

> <Gold.PLP.part.hbond>
-1.0000

> <Gold.PLP.part.metal>
0.0000

> <Gold.PLP.part.buried>
3.0557

> <Gold.PLP.part.nonpolar>
-42.0580

> <Gold.PLP.part.repulsive>
0.2184

> <Gold.PLP.ligand.clash>
0.0000

> <Gold.PLP.ligand.torsion>
0.4481

> <Gold.PLP.Chemscore.Hbond>
0.9440

> <Gold.PLP.Chemscore.CHOScore>
0.0000

> <Gold.PLP.Chemscore.Metal>
0.0000

> <Gold.Chemscore.Hbonds>
donor molecule, donor type, donor heavy atom, donor atom, acceptor molecule, acceptor atom, score
      L1  H     8    29       P1  8028  0.64

> <Gold.PLP.Chemscore.Internal.Correction>
0.0669

> <Gold.Rescore>
     Score         DG    S(hbond)    S(metal)    S(lipo)     H(rot)  DE(clash)    DE(int)     intcor
     17.32     -19.59       0.91        0.00     125.68       1.42       1.84       0.44       ----

> <Gold.Chemscore.Fitness>
17.3162

> <Gold.Chemscore.DG>
-19.5950

> <Gold.Chemscore.ZeroCoef>
-5.4800

> <Gold.Chemscore.Hbond>
0.9093

> <Gold.Chemscore.Metal>
0.0000

> <Gold.Chemscore.Lipo>
125.6769

> <Gold.Chemscore.Internal_Hbond>
0.0000

> <Gold.Chemscore.DEClash>
1.8384

> <Gold.Chemscore.DEInternal>
0.4404

> <Gold.Chemscore.Rot>
1.4165

> <Gold.Chemscore.Internal.Correction>
   9.000000E+99

> <Gold.Chemscore.Hbonds>
donor molecule, donor type, donor heavy atom, donor atom, acceptor molecule, acceptor atom, score
      L1  H     8    29       P1  8028  0.64

> <Gold.Chemscore.Hbond.Weighted>
-3.0369

> <Gold.Chemscore.Metal.Weighted>
-0.0000

> <Gold.Chemscore.Lipo.Weighted>
-14.7042

> <Gold.Chemscore.Internal_Hbond.Weighted>
0.0000

> <Gold.Chemscore.DEClash.Weighted>
1.8384

> <Gold.Chemscore.DEInternal.Weighted>
0.4404

> <Gold.Chemscore.Rot.Weighted>
3.6262

> <Gold.Chemscore.Internal.Correction.Weighted>
   9.000000E+99

> <Gold.Protein.RotatedTorsions>
[ 6907 6896 6895 6894 ] final  178.18 input  -60.11 | X-H torsion
[ 7974 7965 7964 7962 ] final  -72.27 input  175.53 | X-H torsion
[ 8008 7997 7996 7995 ] final   -1.58 input   59.86 | X-H torsion
[ 10167 10162 10161 10158 ] final   90.62 input  -65.29 | X-H torsion
[ 10718 10713 10712 10709 ] final  -62.22 input   66.30 | X-H torsion
[ 10763 10752 10751 10750 ] final   67.20 input  -60.55 | X-H torsion
[ 11005 11000 10999 10996 ] final -119.37 input  -57.11 | X-H torsion

> <Gold.Protein.ActiveResidues>
 VAL166  LYS551  ARG553  GLY616  TRP617  ASP618  TYR619  PRO620  LYS621  CYS622 
 ASP623  PHE694  ASN695  SER759  ASP760  ASP761  ALA762  ILE779  LEU786  VAL792 
 PHE793  MET794  SER795  GLU796  ALA797  LYS798  CYS799  TRP800  GLU811  SER814 

> <Gold.Protein.RotatedAtoms>
  151.6920  133.3311  159.3244 H   0  0  0  0  0  0  0  0  0  0  0  0  # atno 6907 bound_to 6896
  150.7774  134.6690  159.6390 H   0  0  0  0  0  0  0  0  0  0  0  0  # atno 6908 bound_to 6896
  152.3821  134.6577  160.0191 H   0  0  0  0  0  0  0  0  0  0  0  0  # atno 6909 bound_to 6896
  145.6674  140.9232  143.0901 H   0  0  0  0  0  0  0  0  0  0  0  0  # atno 7974 bound_to 7965
  154.6452  140.2556  155.7277 H   0  0  0  0  0  0  0  0  0  0  0  0  # atno 8008 bound_to 7997
  156.2548  140.2879  156.0783 H   0  0  0  0  0  0  0  0  0  0  0  0  # atno 8009 bound_to 7997
  155.1535  140.0382  157.2817 H   0  0  0  0  0  0  0  0  0  0  0  0  # atno 8010 bound_to 7997
  139.8455  144.6620  150.9232 H   0  0  0  0  0  0  0  0  0  0  0  0  # atno 10167 bound_to 10162
  156.0870  130.4206  150.1104 H   0  0  0  0  0  0  0  0  0  0  0  0  # atno 10718 bound_to 10713
  153.0175  135.5292  154.6943 H   0  0  0  0  0  0  0  0  0  0  0  0  # atno 10763 bound_to 10752
  154.6069  135.2874  155.0477 H   0  0  0  0  0  0  0  0  0  0  0  0  # atno 10764 bound_to 10752
  154.1513  135.6562  153.5016 H   0  0  0  0  0  0  0  0  0  0  0  0  # atno 10765 bound_to 10752
  141.0220  134.0109  157.3268 H   0  0  0  0  0  0  0  0  0  0  0  0  # atno 11005 bound_to 11000
  144.7068  139.8527  143.7427 LP  0  0  0  0  0  0  0  0  0  0  0  0  # atno 17320 bound_to 7965
  146.1074  139.4076  143.0309 LP  0  0  0  0  0  0  0  0  0  0  0  0  # atno 17321 bound_to 7965
  140.7793  143.3874  151.1370 LP  0  0  0  0  0  0  0  0  0  0  0  0  # atno 17342 bound_to 10162
  139.7517  143.8769  152.3078 LP  0  0  0  0  0  0  0  0  0  0  0  0  # atno 17343 bound_to 10162
  156.9123  130.9655  151.3561 LP  0  0  0  0  0  0  0  0  0  0  0  0  # atno 17370 bound_to 10713
  157.6007  130.8510  149.8798 LP  0  0  0  0  0  0  0  0  0  0  0  0  # atno 17371 bound_to 10713
  139.9152  135.0196  156.7853 LP  0  0  0  0  0  0  0  0  0  0  0  0  # atno 17394 bound_to 11000
  140.6556  133.9692  155.7778 LP  0  0  0  0  0  0  0  0  0  0  0  0  # atno 17395 bound_to 11000

$$$$
