AV-unprocessed.smi:2481|AV-procd|sdf|9772|dock8
  -GOLD-   2272013413D 1   1.00000     0.00000
 Structure written by MMmdl.
 37 38  0  0  0  0  0  0  0  0  1 V2000
  143.2520  137.3655  153.5286 C   0  0  0  0  0  0  0  0  0  0  0  0
  141.9669  136.7094  153.6737 N   0  0  0  0  0  0  0  0  0  0  0  0
  140.8319  137.4292  153.8368 N   0  0  0  0  0  0  0  0  0  0  0  0
  139.8958  136.4842  153.9267 C   0  0  0  0  0  0  0  0  0  0  0  0
  140.3358  135.1945  153.8342 N   0  0  0  0  0  0  0  0  0  0  0  0
  141.6373  135.4145  153.6772 C   0  0  0  0  0  0  0  0  0  0  0  0
  142.6417  134.4217  153.5230 N   0  0  0  0  0  0  0  0  0  0  0  0
  143.6436  134.3969  152.6279 C   0  0  0  0  0  0  0  0  0  0  0  0
  143.8598  135.2632  151.7799 O   0  0  0  0  0  0  0  0  0  0  0  0
  144.3969  133.2977  152.7748 N   0  0  0  0  0  0  0  0  0  0  0  0
  145.5696  132.9554  151.9681 C   0  0  1  0  0  0  0  0  0  0  0  0
  146.5873  132.1449  152.7994 C   0  0  0  0  0  0  0  0  0  0  0  0
  146.0765  130.7310  153.1231 C   0  0  0  0  0  0  0  0  0  0  0  0
  145.6822  129.9788  151.8439 C   0  0  0  0  0  0  0  0  0  0  0  0
  144.6539  130.7723  151.0220 C   0  0  0  0  0  0  0  0  0  0  0  0
  145.1646  132.1887  150.6805 C   0  0  1  0  0  0  0  0  0  0  0  0
  144.1489  132.9486  149.8011 C   0  0  0  0  0  0  0  0  0  0  0  0
  143.5840  132.0923  148.8305 O   0  0  0  0  0  0  0  0  0  0  0  0
  143.6629  137.1502  152.5418 H   0  0  0  0  0  0  0  0  0  0  0  0
  143.9401  136.9977  154.2904 H   0  0  0  0  0  0  0  0  0  0  0  0
  143.1465  138.4455  153.6399 H   0  0  0  0  0  0  0  0  0  0  0  0
  138.8542  136.7341  154.0646 H   0  0  0  0  0  0  0  0  0  0  0  0
  142.5904  133.6458  154.1663 H   0  0  0  0  0  0  0  0  0  0  0  0
  144.1446  132.6438  153.5009 H   0  0  0  0  0  0  0  0  0  0  0  0
  146.0556  133.8840  151.6634 H   0  0  0  0  0  0  0  0  0  0  0  0
  147.5204  132.0660  152.2403 H   0  0  0  0  0  0  0  0  0  0  0  0
  146.8343  132.6730  153.7213 H   0  0  0  0  0  0  0  0  0  0  0  0
  146.8448  130.1734  153.6592 H   0  0  0  0  0  0  0  0  0  0  0  0
  145.2178  130.7918  153.7928 H   0  0  0  0  0  0  0  0  0  0  0  0
  146.5713  129.7979  151.2384 H   0  0  0  0  0  0  0  0  0  0  0  0
  145.2781  128.9989  152.0991 H   0  0  0  0  0  0  0  0  0  0  0  0
  144.4297  130.2268  150.1047 H   0  0  0  0  0  0  0  0  0  0  0  0
  143.7161  130.8367  151.5753 H   0  0  0  0  0  0  0  0  0  0  0  0
  146.0689  132.0604  150.0828 H   0  0  0  0  0  0  0  0  0  0  0  0
  143.3372  133.3391  150.4159 H   0  0  0  0  0  0  0  0  0  0  0  0
  144.6086  133.8040  149.3056 H   0  0  0  0  0  0  0  0  0  0  0  0
  143.7252  132.4701  147.9759 H   0  0  0  0  0  0  0  0  0  0  0  0
  1  2  1  0  0  0  0
  1 19  1  0  0  0  0
  1 20  1  0  0  0  0
  1 21  1  0  0  0  0
  2  6  1  0  0  0  0
  2  3  1  0  0  0  0
  3  4  2  0  0  0  0
  4  5  1  0  0  0  0
  4 22  1  0  0  0  0
  5  6  2  0  0  0  0
  6  7  1  0  0  0  0
  7  8  1  0  0  0  0
  7 23  1  0  0  0  0
  8  9  2  0  0  0  0
  8 10  1  0  0  0  0
 10 11  1  0  0  0  0
 10 24  1  0  0  0  0
 11 16  1  0  0  0  0
 11 12  1  0  0  0  0
 11 25  1  0  0  0  0
 12 13  1  0  0  0  0
 12 26  1  0  0  0  0
 12 27  1  0  0  0  0
 13 14  1  0  0  0  0
 13 28  1  0  0  0  0
 13 29  1  0  0  0  0
 14 15  1  0  0  0  0
 14 30  1  0  0  0  0
 14 31  1  0  0  0  0
 15 16  1  0  0  0  0
 15 32  1  0  0  0  0
 15 33  1  0  0  0  0
 16 17  1  0  0  0  0
 16 34  1  0  0  0  0
 17 18  1  0  0  0  0
 17 35  1  0  0  0  0
 17 36  1  0  0  0  0
 18 37  1  0  0  0  0
M  END
> <s_m_source_file>
AV-unprocessed.smi

> <i_m_source_file_index>
2481

> <i_lp_mmshare_version>
43012

> <i_f3d_flags>
0

> <s_epik_input>
W0NIM11uMW5bY0hdbmMxW05IXUMoPU8pW05IXVtDQEBIXTJbQ0gyXVtDSDJdW0NIMl1bQ0gyXVtDQEhdMltDSDJdW09IXQ==

> <s_epik_cmdline>
J2VwaWtfcHl0aG9uJywgJy1waCcsICc3LjAnLCAnLXRuJywgJzgnLCAnLW1hJywgJzIwMCcsICctbWV0YWxfYmluZGluZycsICctaW1hZScsICc8aW5maWxlLm1hZT4nLCAnLW9tYWUnLCAnPG91dGZpbGUubWFlPic=

> <r_lp_tautomer_probability>
1

> <r_epik_Ionization_Penalty>
2.32704e-05

> <r_epik_Ionization_Penalty_Charging>
0

> <r_epik_Ionization_Penalty_Neutral>
2.32704e-05

> <r_epik_State_Penalty>
-0

> <r_epik_Charging_Adjusted_Penalty>
0

> <i_epik_Tot_Q>
0

> <i_epik_Tot_abs_Q>
0

> <r_epik_Metal_State_Penalty>
-0

> <b_epik_Metal_Only>
0

> <s_lp_Force_Field>
OPLS_2005

> <r_lp_Energy>
12.0368

> <b_lp_Chiralities_Consistent>
1

> <s_lp_Variant>
AV-unprocessed.smi:2481-2

> <Gold.Version>
5.8.1

> <Gold.Id.Protein>
6NUR|6NUR_protein|mol2

> <Gold.PLP.Fitness>
43.4985

> <Gold.PLP.PLP>
-35.0615

> <Gold.PLP.part.hbond>
-5.4542

> <Gold.PLP.part.metal>
0.0000

> <Gold.PLP.part.buried>
-8.2850

> <Gold.PLP.part.nonpolar>
-23.5679

> <Gold.PLP.part.repulsive>
0.5448

> <Gold.PLP.ligand.clash>
0.0000

> <Gold.PLP.ligand.torsion>
0.8923

> <Gold.PLP.Chemscore.Hbond>
3.4013

> <Gold.PLP.Chemscore.CHOScore>
0.0000

> <Gold.PLP.Chemscore.Metal>
0.0000

> <Gold.Chemscore.Hbonds>
donor molecule, donor type, donor heavy atom, donor atom, acceptor molecule, acceptor atom, score
      L1  H     7    23       P1 10957  1.00
      L1  H    10    24       P1 10957  0.75
      P1  H 10785 10796       L1    18  0.80
      P1  H 11000 11005       L1     5  0.91

> <Gold.PLP.Chemscore.Internal.Correction>
0.0179

> <Gold.Rescore>
     Score         DG    S(hbond)    S(metal)    S(lipo)     H(rot)  DE(clash)    DE(int)     intcor
     14.14     -17.13       3.08        0.00      54.99       1.99       0.03       2.95       ----

> <Gold.Chemscore.Fitness>
14.1436

> <Gold.Chemscore.DG>
-17.1276

> <Gold.Chemscore.ZeroCoef>
-5.4800

> <Gold.Chemscore.Hbond>
3.0844

> <Gold.Chemscore.Metal>
0.0000

> <Gold.Chemscore.Lipo>
54.9942

> <Gold.Chemscore.Internal_Hbond>
0.0000

> <Gold.Chemscore.DEClash>
0.0310

> <Gold.Chemscore.DEInternal>
2.9530

> <Gold.Chemscore.Rot>
1.9877

> <Gold.Chemscore.Internal.Correction>
   9.000000E+99

> <Gold.Chemscore.Hbonds>
donor molecule, donor type, donor heavy atom, donor atom, acceptor molecule, acceptor atom, score
      L1  H     7    23       P1 10957  0.97
      L1  H    10    24       P1 10957  0.31
      P1  H 10785 10796       L1    18  0.64
      P1  H 11000 11005       L1     5  0.19

> <Gold.Chemscore.Hbond.Weighted>
-10.3018

> <Gold.Chemscore.Metal.Weighted>
-0.0000

> <Gold.Chemscore.Lipo.Weighted>
-6.4343

> <Gold.Chemscore.Internal_Hbond.Weighted>
0.0000

> <Gold.Chemscore.DEClash.Weighted>
0.0310

> <Gold.Chemscore.DEInternal.Weighted>
2.9530

> <Gold.Chemscore.Rot.Weighted>
5.0885

> <Gold.Chemscore.Internal.Correction.Weighted>
   9.000000E+99

> <Gold.Protein.RotatedTorsions>
[ 6907 6896 6895 6894 ] final    8.78 input  -60.11 | X-H torsion
[ 7974 7965 7964 7962 ] final  -12.75 input  175.53 | X-H torsion
[ 8008 7997 7996 7995 ] final    5.00 input   59.86 | X-H torsion
[ 10167 10162 10161 10158 ] final   72.05 input  -65.29 | X-H torsion
[ 10718 10713 10712 10709 ] final   75.15 input   66.30 | X-H torsion
[ 10763 10752 10751 10750 ] final   38.72 input  -60.55 | X-H torsion
[ 11005 11000 10999 10996 ] final   39.53 input  -57.11 | X-H torsion

> <Gold.Protein.ActiveResidues>
 VAL166  LYS551  ARG553  GLY616  TRP617  ASP618  TYR619  PRO620  LYS621  CYS622 
 ASP623  PHE694  ASN695  SER759  ASP760  ASP761  ALA762  ILE779  LEU786  VAL792 
 PHE793  MET794  SER795  GLU796  ALA797  LYS798  CYS799  TRP800  GLU811  SER814 

> <Gold.Protein.RotatedAtoms>
  151.7115  135.0911  160.0268 H   0  0  0  0  0  0  0  0  0  0  0  0  # atno 6907 bound_to 6896
  152.3658  133.6351  159.6058 H   0  0  0  0  0  0  0  0  0  0  0  0  # atno 6908 bound_to 6896
  150.7637  133.9266  159.3455 H   0  0  0  0  0  0  0  0  0  0  0  0  # atno 6909 bound_to 6896
  146.2140  140.3103  142.8382 H   0  0  0  0  0  0  0  0  0  0  0  0  # atno 7974 bound_to 7965
  154.7229  140.2715  155.6525 H   0  0  0  0  0  0  0  0  0  0  0  0  # atno 8008 bound_to 7997
  156.2829  140.2731  156.1831 H   0  0  0  0  0  0  0  0  0  0  0  0  # atno 8009 bound_to 7997
  155.0483  140.0371  157.2524 H   0  0  0  0  0  0  0  0  0  0  0  0  # atno 8010 bound_to 7997
  140.0394  144.5401  150.7445 H   0  0  0  0  0  0  0  0  0  0  0  0  # atno 10167 bound_to 10162
  157.6622  130.9712  150.1312 H   0  0  0  0  0  0  0  0  0  0  0  0  # atno 10718 bound_to 10713
  152.9991  135.6241  154.2350 H   0  0  0  0  0  0  0  0  0  0  0  0  # atno 10763 bound_to 10752
  154.2092  135.2800  155.2966 H   0  0  0  0  0  0  0  0  0  0  0  0  # atno 10764 bound_to 10752
  154.5621  135.5702  153.7075 H   0  0  0  0  0  0  0  0  0  0  0  0  # atno 10765 bound_to 10752
  140.2019  134.3860  155.8092 H   0  0  0  0  0  0  0  0  0  0  0  0  # atno 11005 bound_to 11000
  144.8993  140.7623  143.5877 LP  0  0  0  0  0  0  0  0  0  0  0  0  # atno 17320 bound_to 7965
  145.3028  139.1844  143.4680 LP  0  0  0  0  0  0  0  0  0  0  0  0  # atno 17321 bound_to 7965
  140.7267  143.2643  151.4096 LP  0  0  0  0  0  0  0  0  0  0  0  0  # atno 17342 bound_to 10162
  139.6023  144.1269  152.2212 LP  0  0  0  0  0  0  0  0  0  0  0  0  # atno 17343 bound_to 10162
  156.2158  130.3670  149.8615 LP  0  0  0  0  0  0  0  0  0  0  0  0  # atno 17370 bound_to 10713
  156.6481  130.8732  151.3526 LP  0  0  0  0  0  0  0  0  0  0  0  0  # atno 17371 bound_to 10713
  141.2227  133.7098  156.8273 LP  0  0  0  0  0  0  0  0  0  0  0  0  # atno 17394 bound_to 11000
  140.2044  134.8873  157.3205 LP  0  0  0  0  0  0  0  0  0  0  0  0  # atno 17395 bound_to 11000

$$$$
