#       Name:                AV-unprocessed.smi:1056
#       Creating user name   scv26
#       Creation time:       Fri Mar 27 03:15:25 2020


#       File generated by GOLD software.
#

@<TRIPOS>MOLECULE
AV-unprocessed.smi:1056
    50    52     1
SMALL
NO_CHARGES


@<TRIPOS>ATOM
      1 ****        -2.8817   4.3682  -2.5142 C.3            1 S1                 0.0000
      2 ****        -2.5733   3.2446  -1.5392 C.ar           1 S1                 0.0000
      3 ****        -2.9036   3.4244  -0.1769 C.ar           1 S1                 0.0000
      4 ****        -2.6107   2.3785   0.6900 C.ar           1 S1                 0.0000
      5 ****        -2.8068   2.2478   2.0665 N.pl3          1 S1                 1.0000
      6 ****        -2.3571   1.0296   2.4762 C.2            1 S1                 0.0000
      7 ****        -1.8748   0.3813   1.3812 N.pl3          1 S1                 0.0000
      8 ****        -1.2763  -0.9549   1.2629 C.3            1 S1                 0.0000
      9 ****         0.2646  -0.9231   1.2274 C.3            1 S1                 0.0000
     10 ****         0.7390  -0.3008   2.4069 O.3            1 S1                 0.0000
     11 ****         0.8557  -2.3443   1.1337 C.3            1 S1                 0.0000
     12 ****         2.3205  -2.3405   0.8940 N.4            1 S1                 1.0000
     13 ****         2.6924  -2.0757  -0.5208 C.3            1 S1                 0.0000
     14 ****         4.1995  -1.7757  -0.6257 C.3            1 S1                 0.0000
     15 ****         4.9706  -2.7800   0.1167 N.pl3          1 S1                -1.0000
     16 ****         4.5109  -3.5694   1.1376 C.2            1 S1                 0.0000
     17 ****         5.2018  -4.3131   1.8303 O.2            1 S1                 0.0000
     18 ****         2.9833  -3.5673   1.4174 C.3            1 S1                 0.0000
     19 ****        -2.0116   1.1844   0.2442 C.ar           1 S1                 0.0000
     20 ****        -1.6788   0.9905  -1.0941 C.ar           1 S1                 0.0000
     21 ****        -1.9680   2.0433  -1.9918 C.ar           1 S1                 0.0000
     22 ****        -1.6159   1.8624  -3.4585 C.3            1 S1                 0.0000
     23 ****        -3.3253   5.2260  -2.0079 H              1 S1                 0.0000
     24 ****        -3.5851   4.0309  -3.2757 H              1 S1                 0.0000
     25 ****        -1.9716   4.7079  -3.0087 H              1 S1                 0.0000
     26 ****        -3.3644   4.3361   0.1749 H              1 S1                 0.0000
     27 ****        -2.3760   0.6484   3.4872 H              1 S1                 0.0000
     28 ****        -1.6239  -1.5444   2.1127 H              1 S1                 0.0000
     29 ****        -1.6789  -1.4338   0.3694 H              1 S1                 0.0000
     30 ****         0.5809  -0.3196   0.3776 H              1 S1                 0.0000
     31 ****         1.6742  -0.1825   2.3375 H              1 S1                 0.0000
     32 ****         0.6325  -2.8758   2.0605 H              1 S1                 0.0000
     33 ****         0.3708  -2.9107   0.3370 H              1 S1                 0.0000
     34 ****         2.4324  -2.9416  -1.1321 H              1 S1                 0.0000
     35 ****         2.1347  -1.2315  -0.9240 H              1 S1                 0.0000
     36 ****         4.4865  -1.7342  -1.6760 H              1 S1                 0.0000
     37 ****         4.3825  -0.7776  -0.2273 H              1 S1                 0.0000
     38 ****         2.8201  -3.6401   2.4935 H              1 S1                 0.0000
     39 ****         2.5413  -4.4534   0.9593 H              1 S1                 0.0000
     40 ****        -1.2185   0.0761  -1.4379 H              1 S1                 0.0000
     41 ****        -1.1750   0.8830  -3.6461 H              1 S1                 0.0000
     42 ****        -0.8962   2.6177  -3.7751 H              1 S1                 0.0000
     43 ****        -2.5071   1.9506  -4.0805 H              1 S1                 0.0000
     44 ****         2.7036  -1.5779   1.4334 H              1 S1                 0.0000
     45 ****        -3.2173   2.9373   2.6834 H              1 S1                 0.0000
     46 ****         0.5317  -0.8777   3.1970 LP             1 S1                 0.0000
     47 ****         0.2959   0.5887   2.5182 LP             1 S1                 0.0000
     48 ****         5.9271  -2.9000  -0.1493 LP             1 S1                 0.0000
     49 ****         6.1864  -4.3763   1.6675 LP             1 S1                 0.0000
     50 ****         4.7794  -4.8551   2.5568 LP             1 S1                 0.0000
@<TRIPOS>BOND
    1    1    2 1     
    2    1   23 1     
    3    1   24 1     
    4    1   25 1     
    5    2   21 ar    
    6    2    3 ar    
    7    3    4 ar    
    8    3   26 1     
    9    4   19 ar    
   10    4    5 1     
   11    5    6 2     
   12    5   45 1     
   13    6    7 1     
   14    6   27 1     
   15    7    8 1     
   16    7   19 1     
   17    8    9 1     
   18    8   28 1     
   19    8   29 1     
   20    9   10 1     
   21    9   11 1     
   22    9   30 1     
   23   10   31 1     
   24   11   12 1     
   25   11   32 1     
   26   11   33 1     
   27   12   18 1     
   28   12   13 1     
   29   12   44 1     
   30   13   14 1     
   31   13   34 1     
   32   13   35 1     
   33   14   15 1     
   34   14   36 1     
   35   14   37 1     
   36   15   16 1     
   37   16   17 2     
   38   16   18 1     
   39   18   38 1     
   40   18   39 1     
   41   19   20 ar    
   42   20   21 ar    
   43   20   40 1     
   44   21   22 1     
   45   22   41 1     
   46   22   42 1     
   47   22   43 1     
   48   10   46 1     
   49   10   47 1     
   50   15   48 1     
   51   17   49 1     
   52   17   50 1     
@<TRIPOS>SUBSTRUCTURE
      1 S1             1
@<TRIPOS>SET
LONE_PAIRS      STATIC     ATOMS    <user>   **** ""
5 46 47 48 49 50
DONOR_HYDROGENS      STATIC     ATOMS    <user>   **** ""
3 45 31 44
ATOM$BLUE        STATIC     ATOMS    COLORGROUP SYSTEM
5 46 47 48 49 50
ATOM$RED        STATIC     ATOMS    COLORGROUP SYSTEM
3 45 31 44
