#       Name:                AV-unprocessed.smi:2135
#       Creating user name   scv26
#       Creation time:       Fri Mar 27 11:45:48 2020


#       File generated by GOLD software.
#

@<TRIPOS>MOLECULE
AV-unprocessed.smi:2135
    45    46     1
SMALL
NO_CHARGES


@<TRIPOS>ATOM
      1 ****        -4.2797   0.3294   1.5253 C.3            1 S1                 0.0000
      2 ****        -4.0752  -1.4984   1.5618 S.o2           1 S1                 0.0000
      3 ****        -3.1703  -1.8365   2.6711 O.2            1 S1                 0.0000
      4 ****        -5.4119  -2.1088   1.4994 O.2            1 S1                 0.0000
      5 ****        -3.2538  -1.8667   0.0722 N.pl3          1 S1                 0.0000
      6 ****        -3.9956  -1.8455  -1.2047 C.3            1 S1                 0.0000
      7 ****        -3.7178  -0.5584  -2.0011 C.3            1 S1                 0.0000
      8 ****        -2.2130  -0.3390  -2.1951 C.3            1 S1                 0.0000
      9 ****        -1.5101  -0.3146  -0.8259 C.3            1 S1                 0.0000
     10 ****         0.0025  -0.1087  -0.9799 C.2            1 S1                 0.0000
     11 ****         0.6661  -0.8748  -1.6793 O.2            1 S1                 0.0000
     12 ****         0.5366   0.9272  -0.3146 N.am           1 S1                 0.0000
     13 ****         1.9521   1.2749  -0.3052 C.3            1 S1                 0.0000
     14 ****         2.7482   0.3724   0.6515 C.3            1 S1                 0.0000
     15 ****         4.2156   0.7479   0.7001 C.ar           1 S1                 0.0000
     16 ****         4.7130   1.6017   1.7059 C.ar           1 S1                 0.0000
     17 ****         6.0837   1.9239   1.7048 C.ar           1 S1                 0.0000
     18 ****         6.9004   1.3771   0.6947 C.ar           1 S1                 0.0000
     19 ****         6.4346   0.5588  -0.2734 N.ar           1 S1                 0.0000
     20 ****         5.1190   0.2543  -0.2649 C.ar           1 S1                 0.0000
     21 ****        -1.8029  -1.6197  -0.0537 C.3            1 S1                 0.0000
     22 ****        -4.8050   0.6457   2.4261 H              1 S1                 0.0000
     23 ****        -4.8659   0.6194   0.6551 H              1 S1                 0.0000
     24 ****        -3.3050   0.8126   1.4984 H              1 S1                 0.0000
     25 ****        -3.6895  -2.7108  -1.7937 H              1 S1                 0.0000
     26 ****        -5.0646  -1.9582  -1.0256 H              1 S1                 0.0000
     27 ****        -4.2107  -0.6142  -2.9720 H              1 S1                 0.0000
     28 ****        -4.1502   0.3009  -1.4903 H              1 S1                 0.0000
     29 ****        -1.8075  -1.1360  -2.8204 H              1 S1                 0.0000
     30 ****        -2.0416   0.5966  -2.7291 H              1 S1                 0.0000
     31 ****        -1.9076   0.5266  -0.2581 H              1 S1                 0.0000
     32 ****        -0.0795   1.5077   0.2358 H              1 S1                 0.0000
     33 ****         2.3578   1.2165  -1.3167 H              1 S1                 0.0000
     34 ****         2.0413   2.3160   0.0062 H              1 S1                 0.0000
     35 ****         2.3298   0.4306   1.6573 H              1 S1                 0.0000
     36 ****         2.6668  -0.6714   0.3453 H              1 S1                 0.0000
     37 ****         4.0577   2.0049   2.4641 H              1 S1                 0.0000
     38 ****         6.4994   2.5749   2.4596 H              1 S1                 0.0000
     39 ****         7.9558   1.6041   0.6631 H              1 S1                 0.0000
     40 ****         4.7768  -0.3999  -1.0534 H              1 S1                 0.0000
     41 ****        -1.3411  -1.5917   0.9333 H              1 S1                 0.0000
     42 ****        -1.3589  -2.4705  -0.5729 H              1 S1                 0.0000
     43 ****         0.2194  -1.6355  -2.1502 LP             1 S1                 0.0000
     44 ****         1.6517  -0.7362  -1.7764 LP             1 S1                 0.0000
     45 ****         7.0448   0.1899  -0.9746 LP             1 S1                 0.0000
@<TRIPOS>BOND
    1    1    2 1     
    2    1   22 1     
    3    1   23 1     
    4    1   24 1     
    5    2    3 2     
    6    2    4 2     
    7    2    5 1     
    8    5   21 1     
    9    5    6 1     
   10    6    7 1     
   11    6   25 1     
   12    6   26 1     
   13    7    8 1     
   14    7   27 1     
   15    7   28 1     
   16    8    9 1     
   17    8   29 1     
   18    8   30 1     
   19    9   10 1     
   20    9   21 1     
   21    9   31 1     
   22   10   11 2     
   23   10   12 am    
   24   12   13 1     
   25   12   32 1     
   26   13   14 1     
   27   13   33 1     
   28   13   34 1     
   29   14   15 1     
   30   14   35 1     
   31   14   36 1     
   32   15   20 ar    
   33   15   16 ar    
   34   16   17 ar    
   35   16   37 1     
   36   17   18 ar    
   37   17   38 1     
   38   18   19 ar    
   39   18   39 1     
   40   19   20 ar    
   41   20   40 1     
   42   21   41 1     
   43   21   42 1     
   44   11   43 1     
   45   11   44 1     
   46   19   45 1     
@<TRIPOS>SUBSTRUCTURE
      1 S1             1
@<TRIPOS>SET
LONE_PAIRS      STATIC     ATOMS    <user>   **** ""
5 3 4 43 44 45
DONOR_HYDROGENS      STATIC     ATOMS    <user>   **** ""
1 32
ATOM$BLUE        STATIC     ATOMS    COLORGROUP SYSTEM
5 3 4 43 44 45
ATOM$RED        STATIC     ATOMS    COLORGROUP SYSTEM
1 32
