AV-unprocessed.smi:2563|AV-procd|sdf|10056|dock8
  -GOLD-   2272014 93D 1   1.00000     0.00000
 Structure written by MMmdl.
 35 36  0  0  0  0  0  0  0  0  2 V2000
  151.5789  138.7991  156.7333 C   0  0  0  0  0  0  0  0  0  0  0  0
  151.5558  139.9712  155.7436 C   0  0  0  0  0  0  0  0  0  0  0  0
  150.9284  141.1617  156.3133 N   0  0  0  0  0  0  0  0  0  0  0  0
  149.7427  141.7146  155.6571 C   0  0  0  0  0  0  0  0  0  0  0  0
  149.2355  140.8229  154.5095 C   0  0  2  0  0  0  0  0  0  0  0  0
  147.9593  141.3967  153.8639 C   0  0  0  0  0  0  0  0  0  0  0  0
  147.4645  140.4817  152.8162 N   0  3  0  0  0  0  0  0  0  0  0  0
  147.2524  139.1187  153.3409 C   0  0  0  0  0  0  0  0  0  0  0  0
  148.5337  138.6109  154.0234 C   0  0  0  0  0  0  0  0  0  0  0  0
  148.9299  139.5323  155.0337 O   0  0  0  0  0  0  0  0  0  0  0  0
  151.4555  141.7774  157.4748 C   0  0  0  0  0  0  0  0  0  0  0  0
  151.2122  143.1397  157.7776 C   0  0  0  0  0  0  0  0  0  0  0  0
  151.7684  143.6668  158.9558 C   0  0  0  0  0  0  0  0  0  0  0  0
  152.5321  142.7998  159.7554 C   0  0  0  0  0  0  0  0  0  0  0  0
  152.7406  141.5069  159.4268 N   0  0  0  0  0  0  0  0  0  0  0  0
  152.2107  141.0101  158.3045 N   0  0  0  0  0  0  0  0  0  0  0  0
  152.0365  137.9203  156.2789 H   0  0  0  0  0  0  0  0  0  0  0  0
  150.5705  138.5242  157.0437 H   0  0  0  0  0  0  0  0  0  0  0  0
  152.1495  139.0435  157.6294 H   0  0  0  0  0  0  0  0  0  0  0  0
  152.5587  140.1940  155.3801 H   0  0  0  0  0  0  0  0  0  0  0  0
  150.9922  139.6710  154.8601 H   0  0  0  0  0  0  0  0  0  0  0  0
  148.9510  141.8461  156.3958 H   0  0  0  0  0  0  0  0  0  0  0  0
  149.9630  142.7172  155.2885 H   0  0  0  0  0  0  0  0  0  0  0  0
  150.0110  140.7327  153.7470 H   0  0  0  0  0  0  0  0  0  0  0  0
  147.1808  141.5377  154.6153 H   0  0  0  0  0  0  0  0  0  0  0  0
  148.1585  142.3722  153.4192 H   0  0  0  0  0  0  0  0  0  0  0  0
  146.5971  140.8375  152.4403 H   0  0  0  0  0  0  0  0  0  0  0  0
  146.4269  139.1338  154.0536 H   0  0  0  0  0  0  0  0  0  0  0  0
  146.9621  138.4563  152.5250 H   0  0  0  0  0  0  0  0  0  0  0  0
  148.3556  137.6381  154.4816 H   0  0  0  0  0  0  0  0  0  0  0  0
  149.3384  138.4796  153.2984 H   0  0  0  0  0  0  0  0  0  0  0  0
  150.6273  143.7833  157.1389 H   0  0  0  0  0  0  0  0  0  0  0  0
  151.6162  144.6985  159.2357 H   0  0  0  0  0  0  0  0  0  0  0  0
  152.9845  143.1475  160.6723 H   0  0  0  0  0  0  0  0  0  0  0  0
  148.1511  140.4393  152.0764 H   0  0  0  0  0  0  0  0  0  0  0  0
  1  2  1  0  0  0  0
  1 17  1  0  0  0  0
  1 18  1  0  0  0  0
  1 19  1  0  0  0  0
  2  3  1  0  0  0  0
  2 20  1  0  0  0  0
  2 21  1  0  0  0  0
  3  4  1  0  0  0  0
  3 11  1  0  0  0  0
  4  5  1  0  0  0  0
  4 22  1  0  0  0  0
  4 23  1  0  0  0  0
  5 10  1  0  0  0  0
  5  6  1  0  0  0  0
  5 24  1  0  0  0  0
  6  7  1  0  0  0  0
  6 25  1  0  0  0  0
  6 26  1  0  0  0  0
  7  8  1  0  0  0  0
  7 27  1  0  0  0  0
  7 35  1  0  0  0  0
  8  9  1  0  0  0  0
  8 28  1  0  0  0  0
  8 29  1  0  0  0  0
  9 10  1  0  0  0  0
  9 30  1  0  0  0  0
  9 31  1  0  0  0  0
 11 16  1  0  0  0  0
 11 12  2  0  0  0  0
 12 13  1  0  0  0  0
 12 32  1  0  0  0  0
 13 14  2  0  0  0  0
 13 33  1  0  0  0  0
 14 15  1  0  0  0  0
 14 34  1  0  0  0  0
 15 16  2  0  0  0  0
M  CHG  1   7   1
M  END
> <s_m_source_file>
AV-unprocessed.smi

> <i_m_source_file_index>
2563

> <i_lp_mmshare_version>
43012

> <i_f3d_flags>
0

> <s_epik_input>
bjFuW2NIXVtjSF1bY0hdYzFOKFtDSDJdW0NIM10pW0NIMl1bQ0BASF0yW0NIMl1bTkhdW0NIMl1bQ0gyXU8y

> <s_epik_cmdline>
J2VwaWtfcHl0aG9uJywgJy1waCcsICc3LjAnLCAnLXRuJywgJzgnLCAnLW1hJywgJzIwMCcsICctbWV0YWxfYmluZGluZycsICctaW1hZScsICc8aW5maWxlLm1hZT4nLCAnLW9tYWUnLCAnPG91dGZpbGUubWFlPic=

> <r_lp_tautomer_probability>
1

> <r_epik_Ionization_Penalty>
0.0472862

> <r_epik_Ionization_Penalty_Charging>
0.0127794

> <r_epik_Ionization_Penalty_Neutral>
0.0345068

> <r_epik_State_Penalty>
0.0614045

> <r_epik_Charging_Adjusted_Penalty>
0.0741839

> <i_epik_Tot_Q>
1

> <i_epik_Tot_abs_Q>
1

> <r_epik_Metal_State_Penalty>
0.0547208

> <b_epik_Metal_Only>
0

> <s_lp_Force_Field>
OPLS_2005

> <r_lp_Energy>
24.8207

> <b_lp_Chiralities_Consistent>
1

> <s_lp_Variant>
AV-unprocessed.smi:2563-1

> <Gold.Version>
5.8.1

> <Gold.Id.Protein>
6NUR|6NUR_protein|mol2

> <Gold.PLP.Fitness>
34.7292

> <Gold.PLP.PLP>
-32.2711

> <Gold.PLP.part.hbond>
-1.0000

> <Gold.PLP.part.metal>
0.0000

> <Gold.PLP.part.buried>
-2.9564

> <Gold.PLP.part.nonpolar>
-28.6797

> <Gold.PLP.part.repulsive>
0.1606

> <Gold.PLP.ligand.clash>
0.0000

> <Gold.PLP.ligand.torsion>
0.2780

> <Gold.PLP.Chemscore.Hbond>
1.0000

> <Gold.PLP.Chemscore.CHOScore>
0.0000

> <Gold.PLP.Chemscore.Metal>
0.0000

> <Gold.Chemscore.Hbonds>
donor molecule, donor type, donor heavy atom, donor atom, acceptor molecule, acceptor atom, score
      L1  H     7    35       P1  7957  1.00

> <Gold.PLP.Chemscore.Internal.Correction>
0.0141

> <Gold.Rescore>
     Score         DG    S(hbond)    S(metal)    S(lipo)     H(rot)  DE(clash)    DE(int)     intcor
     11.73     -14.71       1.00        0.00      81.22       1.40       0.03       2.95       ----

> <Gold.Chemscore.Fitness>
11.7339

> <Gold.Chemscore.DG>
-14.7141

> <Gold.Chemscore.ZeroCoef>
-5.4800

> <Gold.Chemscore.Hbond>
0.9952

> <Gold.Chemscore.Metal>
0.0000

> <Gold.Chemscore.Lipo>
81.2192

> <Gold.Chemscore.Internal_Hbond>
0.0000

> <Gold.Chemscore.DEClash>
0.0337

> <Gold.Chemscore.DEInternal>
2.9465

> <Gold.Chemscore.Rot>
1.4033

> <Gold.Chemscore.Internal.Correction>
   9.000000E+99

> <Gold.Chemscore.Hbonds>
donor molecule, donor type, donor heavy atom, donor atom, acceptor molecule, acceptor atom, score
      L1  H     7    35       P1  7957  1.00

> <Gold.Chemscore.Hbond.Weighted>
-3.3239

> <Gold.Chemscore.Metal.Weighted>
-0.0000

> <Gold.Chemscore.Lipo.Weighted>
-9.5026

> <Gold.Chemscore.Internal_Hbond.Weighted>
0.0000

> <Gold.Chemscore.DEClash.Weighted>
0.0337

> <Gold.Chemscore.DEInternal.Weighted>
2.9465

> <Gold.Chemscore.Rot.Weighted>
3.5924

> <Gold.Chemscore.Internal.Correction.Weighted>
   9.000000E+99

> <Gold.Protein.RotatedTorsions>
[ 6907 6896 6895 6894 ] final  -35.25 input  -60.11 | X-H torsion
[ 7974 7965 7964 7962 ] final -112.29 input  175.53 | X-H torsion
[ 8008 7997 7996 7995 ] final -168.74 input   59.86 | X-H torsion
[ 10167 10162 10161 10158 ] final -166.61 input  -65.29 | X-H torsion
[ 10718 10713 10712 10709 ] final  147.45 input   66.30 | X-H torsion
[ 10763 10752 10751 10750 ] final  174.53 input  -60.55 | X-H torsion
[ 11005 11000 10999 10996 ] final -165.40 input  -57.11 | X-H torsion

> <Gold.Protein.ActiveResidues>
 VAL166  LYS551  ARG553  GLY616  TRP617  ASP618  TYR619  PRO620  LYS621  CYS622 
 ASP623  PHE694  ASN695  SER759  ASP760  ASP761  ALA762  ILE779  LEU786  VAL792 
 PHE793  MET794  SER795  GLU796  ALA797  LYS798  CYS799  TRP800  GLU811  SER814 

> <Gold.Protein.RotatedAtoms>
  151.0422  134.9615  159.8167 H   0  0  0  0  0  0  0  0  0  0  0  0  # atno 6907 bound_to 6896
  152.5366  134.2643  159.8957 H   0  0  0  0  0  0  0  0  0  0  0  0  # atno 6908 bound_to 6896
  151.2656  133.4238  159.2652 H   0  0  0  0  0  0  0  0  0  0  0  0  # atno 6909 bound_to 6896
  145.1458  140.8802  143.3675 H   0  0  0  0  0  0  0  0  0  0  0  0  # atno 7974 bound_to 7965
  155.8955  140.1032  157.1388 H   0  0  0  0  0  0  0  0  0  0  0  0  # atno 8008 bound_to 7997
  154.4020  140.1302  156.4434 H   0  0  0  0  0  0  0  0  0  0  0  0  # atno 8009 bound_to 7997
  155.7484  140.3465  155.5140 H   0  0  0  0  0  0  0  0  0  0  0  0  # atno 8010 bound_to 7997
  139.6103  144.0828  152.1835 H   0  0  0  0  0  0  0  0  0  0  0  0  # atno 10167 bound_to 10162
  157.3209  131.0904  151.1241 H   0  0  0  0  0  0  0  0  0  0  0  0  # atno 10718 bound_to 10713
  154.4552  135.2766  155.1752 H   0  0  0  0  0  0  0  0  0  0  0  0  # atno 10763 bound_to 10752
  154.3563  135.6139  153.5671 H   0  0  0  0  0  0  0  0  0  0  0  0  # atno 10764 bound_to 10752
  152.9850  135.5823  154.4904 H   0  0  0  0  0  0  0  0  0  0  0  0  # atno 10765 bound_to 10752
  140.5762  134.5188  157.5170 H   0  0  0  0  0  0  0  0  0  0  0  0  # atno 11005 bound_to 11000
  145.0483  139.3202  143.5941 LP  0  0  0  0  0  0  0  0  0  0  0  0  # atno 17320 bound_to 7965
  146.3500  139.9882  142.8688 LP  0  0  0  0  0  0  0  0  0  0  0  0  # atno 17321 bound_to 7965
  140.0445  144.5981  150.7385 LP  0  0  0  0  0  0  0  0  0  0  0  0  # atno 17342 bound_to 10162
  140.7314  143.2694  151.3937 LP  0  0  0  0  0  0  0  0  0  0  0  0  # atno 17343 bound_to 10162
  157.2527  130.6621  149.5938 LP  0  0  0  0  0  0  0  0  0  0  0  0  # atno 17370 bound_to 10713
  155.9686  130.4533  150.5808 LP  0  0  0  0  0  0  0  0  0  0  0  0  # atno 17371 bound_to 10713
  139.9339  134.7912  156.0856 LP  0  0  0  0  0  0  0  0  0  0  0  0  # atno 17394 bound_to 11000
  141.1025  133.6672  156.2788 LP  0  0  0  0  0  0  0  0  0  0  0  0  # atno 17395 bound_to 11000

$$$$
