AV-unprocessed.smi:630|AV-procd|sdf|3124|dock7
  -GOLD-   22720 0 43D 1   1.00000     0.00000
 Structure written by MMmdl.
 36 37  0  0  0  0  0  0  0  0  2 V2000
  153.3686  139.2892  160.0140 N   0  0  0  0  0  0  0  0  0  0  0  0
  152.9160  139.8644  158.8966 C   0  0  0  0  0  0  0  0  0  0  0  0
  153.2821  139.4966  157.7817 O   0  0  0  0  0  0  0  0  0  0  0  0
  151.9125  141.0237  159.0564 C   0  0  1  0  0  0  0  0  0  0  0  0
  152.4825  142.1145  159.9980 C   0  0  0  0  0  0  0  0  0  0  0  0
  153.3241  143.2196  159.3367 C   0  0  0  0  0  0  0  0  0  0  0  0
  152.4658  144.3913  158.8353 C   0  0  0  0  0  0  0  0  0  0  0  0
  151.6480  144.0877  157.5726 C   0  0  0  0  0  0  0  0  0  0  0  0
  150.6947  142.8839  157.6816 C   0  0  0  0  0  0  0  0  0  0  0  0
  151.4238  141.5226  157.6657 C   0  0  2  0  0  0  0  0  0  0  0  0
  150.5314  140.5115  157.0891 N   0  0  0  0  0  0  0  0  0  0  0  0
  150.4822  140.1053  155.8115 C   0  0  0  0  0  0  0  0  0  0  0  0
  151.2316  140.6057  154.9699 O   0  0  0  0  0  0  0  0  0  0  0  0
  149.5655  139.1354  155.5902 N   0  5  0  0  0  0  0  0  0  0  0  0
  148.5955  139.3231  154.6806 C   0  0  0  0  0  0  0  0  0  0  0  0
  148.0102  138.3179  154.0191 N   0  0  0  0  0  0  0  0  0  0  0  0
  147.0328  138.7420  153.1168 C   0  0  0  0  0  0  0  0  0  0  0  0
  146.8770  140.1024  153.0835 C   0  0  0  0  0  0  0  0  0  0  0  0
  147.9587  140.8962  154.1922 S   0  0  0  0  0  0  0  0  0  0  0  0
  154.0031  138.5066  159.9526 H   0  0  0  0  0  0  0  0  0  0  0  0
  153.0513  139.6187  160.9142 H   0  0  0  0  0  0  0  0  0  0  0  0
  151.0451  140.6192  159.5822 H   0  0  0  0  0  0  0  0  0  0  0  0
  151.6631  142.5708  160.5548 H   0  0  0  0  0  0  0  0  0  0  0  0
  153.0926  141.6362  160.7664 H   0  0  0  0  0  0  0  0  0  0  0  0
  154.0117  143.6123  160.0864 H   0  0  0  0  0  0  0  0  0  0  0  0
  153.9515  142.8217  158.5387 H   0  0  0  0  0  0  0  0  0  0  0  0
  151.8010  144.7300  159.6309 H   0  0  0  0  0  0  0  0  0  0  0  0
  153.1214  145.2359  158.6211 H   0  0  0  0  0  0  0  0  0  0  0  0
  151.0597  144.9736  157.3314 H   0  0  0  0  0  0  0  0  0  0  0  0
  152.3212  143.9456  156.7262 H   0  0  0  0  0  0  0  0  0  0  0  0
  150.0498  142.9717  158.5568 H   0  0  0  0  0  0  0  0  0  0  0  0
  150.0278  142.9350  156.8193 H   0  0  0  0  0  0  0  0  0  0  0  0
  152.2959  141.6331  157.0185 H   0  0  0  0  0  0  0  0  0  0  0  0
  149.8874  140.0685  157.7277 H   0  0  0  0  0  0  0  0  0  0  0  0
  146.4974  138.0055  152.5365 H   0  0  0  0  0  0  0  0  0  0  0  0
  146.1971  140.6831  152.4788 H   0  0  0  0  0  0  0  0  0  0  0  0
  1  2  1  0  0  0  0
  1 20  1  0  0  0  0
  1 21  1  0  0  0  0
  2  3  2  0  0  0  0
  2  4  1  0  0  0  0
  4 10  1  0  0  0  0
  4  5  1  0  0  0  0
  4 22  1  0  0  0  0
  5  6  1  0  0  0  0
  5 23  1  0  0  0  0
  5 24  1  0  0  0  0
  6  7  1  0  0  0  0
  6 25  1  0  0  0  0
  6 26  1  0  0  0  0
  7  8  1  0  0  0  0
  7 27  1  0  0  0  0
  7 28  1  0  0  0  0
  8  9  1  0  0  0  0
  8 29  1  0  0  0  0
  8 30  1  0  0  0  0
  9 10  1  0  0  0  0
  9 31  1  0  0  0  0
  9 32  1  0  0  0  0
 10 11  1  0  0  0  0
 10 33  1  0  0  0  0
 11 12  1  0  0  0  0
 11 34  1  0  0  0  0
 12 13  2  0  0  0  0
 12 14  1  0  0  0  0
 14 15  1  0  0  0  0
 15 19  1  0  0  0  0
 15 16  2  0  0  0  0
 16 17  1  0  0  0  0
 17 18  2  0  0  0  0
 17 35  1  0  0  0  0
 18 19  1  0  0  0  0
 18 36  1  0  0  0  0
M  CHG  1  14  -1
M  END
> <s_m_source_file>
AV-unprocessed.smi

> <i_m_source_file_index>
630

> <i_lp_mmshare_version>
43012

> <i_f3d_flags>
0

> <s_epik_input>
W05IMl1DKD1PKVtDQEBIXTFbQ0gyXVtDSDJdW0NIMl1bQ0gyXVtDSDJdW0NASF0xW05IXUMoPU8pW05IXWMybltjSF1bY0hdczI=

> <s_epik_cmdline>
J2VwaWtfcHl0aG9uJywgJy1waCcsICc3LjAnLCAnLXRuJywgJzgnLCAnLW1hJywgJzIwMCcsICctbWV0YWxfYmluZGluZycsICctaW1hZScsICc8aW5maWxlLm1hZT4nLCAnLW9tYWUnLCAnPG91dGZpbGUubWFlPic=

> <r_lp_tautomer_probability>
0.999

> <r_epik_Ionization_Penalty>
8.29606

> <r_epik_Ionization_Penalty_Charging>
6.67551

> <r_epik_Ionization_Penalty_Neutral>
1.62055

> <r_epik_State_Penalty>
6.67568

> <r_epik_Charging_Adjusted_Penalty>
13.3512

> <i_epik_Tot_Q>
-1

> <i_epik_Tot_abs_Q>
1

> <r_epik_Metal_State_Penalty>
2.59802

> <b_epik_Metal_Only>
1

> <s_lp_Force_Field>
OPLS_2005

> <r_lp_Energy>
8.13293

> <b_lp_Chiralities_Consistent>
1

> <s_lp_Variant>
AV-unprocessed.smi:630-8

> <Gold.Version>
5.8.1

> <Gold.Id.Protein>
6NUR|6NUR_protein|mol2

> <Gold.PLP.Fitness>
41.5568

> <Gold.PLP.PLP>
-34.8862

> <Gold.PLP.part.hbond>
-1.8873

> <Gold.PLP.part.metal>
0.0000

> <Gold.PLP.part.buried>
-4.1290

> <Gold.PLP.part.nonpolar>
-31.3940

> <Gold.PLP.part.repulsive>
0.3600

> <Gold.PLP.ligand.clash>
0.0000

> <Gold.PLP.ligand.torsion>
1.0484

> <Gold.PLP.Chemscore.Hbond>
1.9280

> <Gold.PLP.Chemscore.CHOScore>
0.9547

> <Gold.PLP.Chemscore.Metal>
0.0000

> <Gold.Chemscore.Hbonds>
donor molecule, donor type, donor heavy atom, donor atom, acceptor molecule, acceptor atom, score
      P1  H  7989  7998       L1    13  0.93
      P1  H  7997  8010       L1     3  1.00
      L1  C    18    36       P1 10175  0.93

> <Gold.PLP.Chemscore.Internal.Correction>
0.1192

> <Gold.Rescore>
     Score         DG    S(hbond)    S(metal)    S(lipo)     H(rot)  DE(clash)    DE(int)     intcor
     18.17     -19.22       1.93        0.00      95.15       1.50       0.10       0.96       ----

> <Gold.Chemscore.Fitness>
18.1663

> <Gold.Chemscore.DG>
-19.2240

> <Gold.Chemscore.ZeroCoef>
-5.4800

> <Gold.Chemscore.Hbond>
1.9348

> <Gold.Chemscore.Metal>
0.0000

> <Gold.Chemscore.Lipo>
95.1529

> <Gold.Chemscore.Internal_Hbond>
0.0000

> <Gold.Chemscore.DEClash>
0.0980

> <Gold.Chemscore.DEInternal>
0.9597

> <Gold.Chemscore.Rot>
1.5044

> <Gold.Chemscore.Internal.Correction>
   9.000000E+99

> <Gold.Chemscore.Hbonds>
donor molecule, donor type, donor heavy atom, donor atom, acceptor molecule, acceptor atom, score
      P1  H  7989  7998       L1    13  0.85
      P1  H  7997  8010       L1     3  0.95

> <Gold.Chemscore.Hbond.Weighted>
-6.4623

> <Gold.Chemscore.Metal.Weighted>
-0.0000

> <Gold.Chemscore.Lipo.Weighted>
-11.1329

> <Gold.Chemscore.Internal_Hbond.Weighted>
0.0000

> <Gold.Chemscore.DEClash.Weighted>
0.0980

> <Gold.Chemscore.DEInternal.Weighted>
0.9597

> <Gold.Chemscore.Rot.Weighted>
3.8512

> <Gold.Chemscore.Internal.Correction.Weighted>
   9.000000E+99

> <Gold.Protein.RotatedTorsions>
[ 6907 6896 6895 6894 ] final  -16.21 input  -60.11 | X-H torsion
[ 7974 7965 7964 7962 ] final  175.11 input  175.53 | X-H torsion
[ 8008 7997 7996 7995 ] final   22.44 input   59.86 | X-H torsion
[ 10167 10162 10161 10158 ] final  -80.11 input  -65.29 | X-H torsion
[ 10718 10713 10712 10709 ] final  146.50 input   66.30 | X-H torsion
[ 10763 10752 10751 10750 ] final   40.55 input  -60.55 | X-H torsion
[ 11005 11000 10999 10996 ] final  123.45 input  -57.11 | X-H torsion

> <Gold.Protein.ActiveResidues>
 VAL166  LYS551  ARG553  GLY616  TRP617  ASP618  TYR619  PRO620  LYS621  CYS622 
 ASP623  PHE694  ASN695  SER759  ASP760  ASP761  ALA762  ILE779  LEU786  VAL792 
 PHE793  MET794  SER795  GLU796  ALA797  LYS798  CYS799  TRP800  GLU811  SER814 

> <Gold.Protein.RotatedAtoms>
  151.3120  135.0796  159.9275 H   0  0  0  0  0  0  0  0  0  0  0  0  # atno 6907 bound_to 6896
  152.5275  133.9726  159.7779 H   0  0  0  0  0  0  0  0  0  0  0  0  # atno 6908 bound_to 6896
  151.0031  133.5985  159.2722 H   0  0  0  0  0  0  0  0  0  0  0  0  # atno 6909 bound_to 6896
  144.7208  139.9898  143.6440 H   0  0  0  0  0  0  0  0  0  0  0  0  # atno 7974 bound_to 7965
  154.9657  140.3083  155.5010 H   0  0  0  0  0  0  0  0  0  0  0  0  # atno 8008 bound_to 7997
  156.2972  140.2293  156.4684 H   0  0  0  0  0  0  0  0  0  0  0  0  # atno 8009 bound_to 7997
  154.7923  140.0439  157.1199 H   0  0  0  0  0  0  0  0  0  0  0  0  # atno 8010 bound_to 7997
  140.4532  143.2476  151.8457 H   0  0  0  0  0  0  0  0  0  0  0  0  # atno 10167 bound_to 10162
  157.3324  131.0922  151.1151 H   0  0  0  0  0  0  0  0  0  0  0  0  # atno 10718 bound_to 10713
  152.9933  135.6188  154.2644 H   0  0  0  0  0  0  0  0  0  0  0  0  # atno 10763 bound_to 10752
  154.2379  135.2789  155.2867 H   0  0  0  0  0  0  0  0  0  0  0  0  # atno 10764 bound_to 10752
  154.5394  135.5765  153.6884 H   0  0  0  0  0  0  0  0  0  0  0  0  # atno 10765 bound_to 10752
  139.9313  134.9641  156.8262 H   0  0  0  0  0  0  0  0  0  0  0  0  # atno 11005 bound_to 11000
  146.0421  139.3431  143.0691 LP  0  0  0  0  0  0  0  0  0  0  0  0  # atno 17320 bound_to 7965
  145.8322  140.9625  143.0843 LP  0  0  0  0  0  0  0  0  0  0  0  0  # atno 17321 bound_to 7965
  139.4798  144.5095  151.8952 LP  0  0  0  0  0  0  0  0  0  0  0  0  # atno 17342 bound_to 10162
  140.4182  144.2279  150.5887 LP  0  0  0  0  0  0  0  0  0  0  0  0  # atno 17343 bound_to 10162
  157.2395  130.6562  149.5883 LP  0  0  0  0  0  0  0  0  0  0  0  0  # atno 17370 bound_to 10713
  155.9697  130.4573  150.5957 LP  0  0  0  0  0  0  0  0  0  0  0  0  # atno 17371 bound_to 10713
  140.6194  134.0008  155.7611 LP  0  0  0  0  0  0  0  0  0  0  0  0  # atno 17394 bound_to 11000
  141.0904  133.9926  157.3247 LP  0  0  0  0  0  0  0  0  0  0  0  0  # atno 17395 bound_to 11000

$$$$
