AV-unprocessed.smi:1831|AV-procd|sdf|7457|dock10
  -GOLD-   22720 9143D 1   1.00000     0.00000
 Structure written by MMmdl.
 41 42  0  0  0  0  0  0  0  0  2 V2000
  151.9720  140.7664  157.0002 C   0  0  0  0  0  0  0  0  0  0  0  0
  151.4522  139.7297  156.0639 C   0  0  0  0  0  0  0  0  0  0  0  0
  151.7337  139.7271  154.7549 N   0  0  0  0  0  0  0  0  0  0  0  0
  151.1388  138.6642  154.0881 N   0  0  0  0  0  0  0  0  0  0  0  0
  150.4283  137.8916  154.9144 C   0  0  0  0  0  0  0  0  0  0  0  0
  149.7651  136.7641  154.3687 N   0  0  0  0  0  0  0  0  0  0  0  0
  149.4790  135.6015  154.9764 C   0  0  0  0  0  0  0  0  0  0  0  0
  149.7531  135.3213  156.1432 O   0  0  0  0  0  0  0  0  0  0  0  0
  148.8415  134.7627  154.1466 N   0  0  0  0  0  0  0  0  0  0  0  0
  148.4175  133.4051  154.4763 C   0  0  0  0  0  0  0  0  0  0  0  0
  148.1375  132.5555  153.2209 C   0  0  1  0  0  0  0  0  0  0  0  0
  147.2278  131.3577  153.4839 C   0  0  0  0  0  0  0  0  0  0  0  0
  146.5990  131.0360  152.1219 C   0  0  0  0  0  0  0  0  0  0  0  0
  146.8420  132.2053  151.2393 N   0  3  1  0  0  0  0  0  0  0  0  0
  145.6926  132.6010  150.3771 C   0  0  0  0  0  0  0  0  0  0  0  0
  144.3496  132.3120  151.0741 C   0  0  0  0  0  0  0  0  0  0  0  0
  145.7284  131.8843  149.0134 C   0  0  0  0  0  0  0  0  0  0  0  0
  147.3921  133.2772  152.0971 C   0  0  0  0  0  0  0  0  0  0  0  0
  150.4224  138.4086  156.6006 S   0  0  0  0  0  0  0  0  0  0  0  0
  152.3879  141.6098  156.4481 H   0  0  0  0  0  0  0  0  0  0  0  0
  152.7532  140.3401  157.6297 H   0  0  0  0  0  0  0  0  0  0  0  0
  151.1672  141.1311  157.6385 H   0  0  0  0  0  0  0  0  0  0  0  0
  149.4845  136.8524  153.4030 H   0  0  0  0  0  0  0  0  0  0  0  0
  148.6589  135.0774  153.2046 H   0  0  0  0  0  0  0  0  0  0  0  0
  149.2192  132.9435  155.0534 H   0  0  0  0  0  0  0  0  0  0  0  0
  147.5454  133.4246  155.1322 H   0  0  0  0  0  0  0  0  0  0  0  0
  149.0832  132.1826  152.8232 H   0  0  0  0  0  0  0  0  0  0  0  0
  147.7657  130.5092  153.9079 H   0  0  0  0  0  0  0  0  0  0  0  0
  146.4413  131.6338  154.1881 H   0  0  0  0  0  0  0  0  0  0  0  0
  147.0593  130.1550  151.6737 H   0  0  0  0  0  0  0  0  0  0  0  0
  145.5356  130.8277  152.2473 H   0  0  0  0  0  0  0  0  0  0  0  0
  145.7601  133.6746  150.1942 H   0  0  0  0  0  0  0  0  0  0  0  0
  143.5111  132.5886  150.4340 H   0  0  0  0  0  0  0  0  0  0  0  0
  144.2367  132.8734  152.0013 H   0  0  0  0  0  0  0  0  0  0  0  0
  144.2468  131.2527  151.3117 H   0  0  0  0  0  0  0  0  0  0  0  0
  144.8574  132.1469  148.4122 H   0  0  0  0  0  0  0  0  0  0  0  0
  145.7305  130.8004  149.1338 H   0  0  0  0  0  0  0  0  0  0  0  0
  146.6065  132.1588  148.4288 H   0  0  0  0  0  0  0  0  0  0  0  0
  146.5736  133.8680  152.5126 H   0  0  0  0  0  0  0  0  0  0  0  0
  148.0445  133.9454  151.5341 H   0  0  0  0  0  0  0  0  0  0  0  0
  147.5944  131.9350  150.6220 H   0  0  0  0  0  0  0  0  0  0  0  0
  1  2  1  0  0  0  0
  1 20  1  0  0  0  0
  1 21  1  0  0  0  0
  1 22  1  0  0  0  0
  2 19  1  0  0  0  0
  2  3  2  0  0  0  0
  3  4  1  0  0  0  0
  4  5  2  0  0  0  0
  5  6  1  0  0  0  0
  5 19  1  0  0  0  0
  6  7  1  0  0  0  0
  6 23  1  0  0  0  0
  7  8  2  0  0  0  0
  7  9  1  0  0  0  0
  9 10  1  0  0  0  0
  9 24  1  0  0  0  0
 10 11  1  0  0  0  0
 10 25  1  0  0  0  0
 10 26  1  0  0  0  0
 11 18  1  0  0  0  0
 11 12  1  0  0  0  0
 11 27  1  0  0  0  0
 12 13  1  0  0  0  0
 12 28  1  0  0  0  0
 12 29  1  0  0  0  0
 13 14  1  0  0  0  0
 13 30  1  0  0  0  0
 13 31  1  0  0  0  0
 14 15  1  0  0  0  0
 14 18  1  0  0  0  0
 14 41  1  0  0  0  0
 15 16  1  0  0  0  0
 15 17  1  0  0  0  0
 15 32  1  0  0  0  0
 16 33  1  0  0  0  0
 16 34  1  0  0  0  0
 16 35  1  0  0  0  0
 17 36  1  0  0  0  0
 17 37  1  0  0  0  0
 17 38  1  0  0  0  0
 18 39  1  0  0  0  0
 18 40  1  0  0  0  0
M  CHG  1  14   1
M  END
> <s_m_source_file>
AV-unprocessed.smi

> <i_m_source_file_index>
1831

> <i_lp_mmshare_version>
43012

> <i_f3d_flags>
0

> <s_epik_input>
W0NIM11jMW5uYyhzMSlbTkhdQyg9TylbTkhdW0NIMl1bQ0BASF0yW0NIMl1bQ0gyXU4oW0NIMl0yKVtDSF0oW0NIM10pW0NIM10=

> <s_epik_cmdline>
J2VwaWtfcHl0aG9uJywgJy1waCcsICc3LjAnLCAnLXRuJywgJzgnLCAnLW1hJywgJzIwMCcsICctbWV0YWxfYmluZGluZycsICctaW1hZScsICc8aW5maWxlLm1hZT4nLCAnLW9tYWUnLCAnPG91dGZpbGUubWFlPic=

> <r_lp_tautomer_probability>
1

> <r_epik_Ionization_Penalty>
0.00080807

> <r_epik_Ionization_Penalty_Charging>
0.000218981

> <r_epik_Ionization_Penalty_Neutral>
0.00058909

> <r_epik_State_Penalty>
-0

> <r_epik_Charging_Adjusted_Penalty>
0.000218981

> <i_epik_Tot_Q>
1

> <i_epik_Tot_abs_Q>
1

> <r_epik_Metal_State_Penalty>
0.236062

> <b_epik_Metal_Only>
0

> <s_lp_Force_Field>
OPLS_2005

> <r_lp_Energy>
27.4223

> <b_lp_Chiralities_Consistent>
1

> <s_lp_Variant>
AV-unprocessed.smi:1831-2

> <Gold.Version>
5.8.1

> <Gold.Id.Protein>
6NUR|6NUR_protein|mol2

> <Gold.PLP.Fitness>
39.7173

> <Gold.PLP.PLP>
-30.6480

> <Gold.PLP.part.hbond>
-4.4298

> <Gold.PLP.part.metal>
0.0000

> <Gold.PLP.part.buried>
-3.2719

> <Gold.PLP.part.nonpolar>
-23.0850

> <Gold.PLP.part.repulsive>
0.3388

> <Gold.PLP.ligand.clash>
0.0000

> <Gold.PLP.ligand.torsion>
1.3143

> <Gold.PLP.Chemscore.Hbond>
3.8920

> <Gold.PLP.Chemscore.CHOScore>
0.0000

> <Gold.PLP.Chemscore.Metal>
0.0000

> <Gold.Chemscore.Hbonds>
donor molecule, donor type, donor heavy atom, donor atom, acceptor molecule, acceptor atom, score
      L1  H     6    23       P1  7948  1.00
      L1  H     9    24       P1  7948  1.00
      L1  H    14    41       P1 10747  0.99
      P1  H  7989  7998       L1     3  0.90

> <Gold.PLP.Chemscore.Internal.Correction>
0.0219

> <Gold.Rescore>
     Score         DG    S(hbond)    S(metal)    S(lipo)     H(rot)  DE(clash)    DE(int)     intcor
     18.86     -20.08       2.93        0.00      74.86       1.54       0.18       1.05       ----

> <Gold.Chemscore.Fitness>
18.8574

> <Gold.Chemscore.DG>
-20.0802

> <Gold.Chemscore.ZeroCoef>
-5.4800

> <Gold.Chemscore.Hbond>
2.9289

> <Gold.Chemscore.Metal>
0.0000

> <Gold.Chemscore.Lipo>
74.8632

> <Gold.Chemscore.Internal_Hbond>
0.0000

> <Gold.Chemscore.DEClash>
0.1753

> <Gold.Chemscore.DEInternal>
1.0474

> <Gold.Chemscore.Rot>
1.5396

> <Gold.Chemscore.Internal.Correction>
   9.000000E+99

> <Gold.Chemscore.Hbonds>
donor molecule, donor type, donor heavy atom, donor atom, acceptor molecule, acceptor atom, score
      L1  H     6    23       P1  7948  0.80
      L1  H     9    24       P1  7948  0.62
      L1  H    14    41       P1 10747  0.94
      P1  H  7989  7998       L1     3  0.17

> <Gold.Chemscore.Hbond.Weighted>
-9.7825

> <Gold.Chemscore.Metal.Weighted>
-0.0000

> <Gold.Chemscore.Lipo.Weighted>
-8.7590

> <Gold.Chemscore.Internal_Hbond.Weighted>
0.0000

> <Gold.Chemscore.DEClash.Weighted>
0.1753

> <Gold.Chemscore.DEInternal.Weighted>
1.0474

> <Gold.Chemscore.Rot.Weighted>
3.9413

> <Gold.Chemscore.Internal.Correction.Weighted>
   9.000000E+99

> <Gold.Protein.RotatedTorsions>
[ 6907 6896 6895 6894 ] final    6.50 input  -60.11 | X-H torsion
[ 7974 7965 7964 7962 ] final -114.78 input  175.53 | X-H torsion
[ 8008 7997 7996 7995 ] final   83.17 input   59.86 | X-H torsion
[ 10167 10162 10161 10158 ] final   -1.68 input  -65.29 | X-H torsion
[ 10718 10713 10712 10709 ] final   82.32 input   66.30 | X-H torsion
[ 10763 10752 10751 10750 ] final  -32.07 input  -60.55 | X-H torsion
[ 11005 11000 10999 10996 ] final -127.16 input  -57.11 | X-H torsion

> <Gold.Protein.ActiveResidues>
 VAL166  LYS551  ARG553  GLY616  TRP617  ASP618  TYR619  PRO620  LYS621  CYS622 
 ASP623  PHE694  ASN695  SER759  ASP760  ASP761  ALA762  ILE779  LEU786  VAL792 
 PHE793  MET794  SER795  GLU796  ALA797  LYS798  CYS799  TRP800  GLU811  SER814 

> <Gold.Protein.RotatedAtoms>
  151.6746  135.0971  160.0204 H   0  0  0  0  0  0  0  0  0  0  0  0  # atno 6907 bound_to 6896
  152.3871  133.6622  159.6216 H   0  0  0  0  0  0  0  0  0  0  0  0  # atno 6908 bound_to 6896
  150.7794  133.8933  159.3361 H   0  0  0  0  0  0  0  0  0  0  0  0  # atno 6909 bound_to 6896
  145.1162  140.8641  143.3841 H   0  0  0  0  0  0  0  0  0  0  0  0  # atno 7974 bound_to 7965
  155.9203  140.3421  155.6168 H   0  0  0  0  0  0  0  0  0  0  0  0  # atno 8008 bound_to 7997
  155.7281  140.0792  157.2320 H   0  0  0  0  0  0  0  0  0  0  0  0  # atno 8009 bound_to 7997
  154.4068  140.1593  156.2465 H   0  0  0  0  0  0  0  0  0  0  0  0  # atno 8010 bound_to 7997
  140.6820  143.6746  150.8156 H   0  0  0  0  0  0  0  0  0  0  0  0  # atno 10167 bound_to 10162
  157.6854  131.0042  150.2357 H   0  0  0  0  0  0  0  0  0  0  0  0  # atno 10718 bound_to 10713
  153.8077  135.6885  153.4845 H   0  0  0  0  0  0  0  0  0  0  0  0  # atno 10763 bound_to 10752
  153.1648  135.4565  154.9820 H   0  0  0  0  0  0  0  0  0  0  0  0  # atno 10764 bound_to 10752
  154.7980  135.3326  154.7561 H   0  0  0  0  0  0  0  0  0  0  0  0  # atno 10765 bound_to 10752
  140.9622  134.0921  157.3957 H   0  0  0  0  0  0  0  0  0  0  0  0  # atno 11005 bound_to 11000
  145.0792  139.2973  143.5792 LP  0  0  0  0  0  0  0  0  0  0  0  0  # atno 17320 bound_to 7965
  146.3523  140.0292  142.8652 LP  0  0  0  0  0  0  0  0  0  0  0  0  # atno 17321 bound_to 7965
  140.0448  143.5309  152.2701 LP  0  0  0  0  0  0  0  0  0  0  0  0  # atno 17342 bound_to 10162
  139.6150  144.7617  151.2867 LP  0  0  0  0  0  0  0  0  0  0  0  0  # atno 17343 bound_to 10162
  156.2981  130.3754  149.7777 LP  0  0  0  0  0  0  0  0  0  0  0  0  # atno 17370 bound_to 10713
  156.5415  130.8302  151.3270 LP  0  0  0  0  0  0  0  0  0  0  0  0  # atno 17371 bound_to 10713
  139.8882  135.0096  156.6606 LP  0  0  0  0  0  0  0  0  0  0  0  0  # atno 17394 bound_to 11000
  140.7451  133.8945  155.8306 LP  0  0  0  0  0  0  0  0  0  0  0  0  # atno 17395 bound_to 11000

$$$$
