AV-unprocessed.smi:2179|AV-procd|sdf|8857|dock2
  -GOLD-   2272012 53D 1   1.00000     0.00000
 Structure written by MMmdl.
 47 48  0  0  0  0  0  0  0  0  1 V2000
  144.3635  135.1920  150.0930 C   0  0  0  0  0  0  0  0  0  0  0  0
  145.0279  135.7817  151.3324 C   0  0  0  0  0  0  0  0  0  0  0  0
  145.2712  135.0652  152.3027 O   0  0  0  0  0  0  0  0  0  0  0  0
  145.3190  137.0902  151.2848 N   0  0  0  0  0  0  0  0  0  0  0  0
  145.9497  137.8466  152.3595 C   0  0  0  0  0  0  0  0  0  0  0  0
  146.9233  138.9044  151.8105 C   0  0  0  0  0  0  0  0  0  0  0  0
  147.6402  139.5760  152.8871 N   0  0  0  0  0  0  0  0  0  0  0  0
  147.0905  139.9869  154.0412 C   0  0  0  0  0  0  0  0  0  0  0  0
  145.9032  139.8249  154.3237 O   0  0  0  0  0  0  0  0  0  0  0  0
  148.0381  140.6076  155.0264 C   0  0  0  0  0  0  0  0  0  0  0  0
  147.7190  140.7193  156.3975 C   0  0  0  0  0  0  0  0  0  0  0  0
  148.6577  141.2935  157.2756 C   0  0  0  0  0  0  0  0  0  0  0  0
  149.9014  141.7346  156.7654 C   0  0  0  0  0  0  0  0  0  0  0  0
  150.8561  142.3117  157.6295 N   0  0  0  0  0  0  0  0  0  0  0  0
  150.5382  143.6520  158.1143 C   0  0  0  0  0  0  0  0  0  0  0  0
  151.7702  144.3117  158.7642 C   0  0  2  0  0  0  0  0  0  0  0  0
  152.8108  144.8035  157.7426 C   0  0  0  0  0  0  0  0  0  0  0  0
  152.3417  143.4387  159.7410 O   0  0  0  0  0  0  0  0  0  0  0  0
  152.7015  142.1474  159.2514 C   0  0  1  0  0  0  0  0  0  0  0  0
  153.2899  141.3445  160.4163 C   0  0  0  0  0  0  0  0  0  0  0  0
  151.4631  141.4609  158.6491 C   0  0  0  0  0  0  0  0  0  0  0  0
  150.2085  141.6208  155.4500 N   0  0  0  0  0  0  0  0  0  0  0  0
  149.3059  141.0684  154.6119 C   0  0  0  0  0  0  0  0  0  0  0  0
  145.0596  135.1913  149.2539 H   0  0  0  0  0  0  0  0  0  0  0  0
  143.4848  135.7745  149.8140 H   0  0  0  0  0  0  0  0  0  0  0  0
  144.0465  134.1647  150.2758 H   0  0  0  0  0  0  0  0  0  0  0  0
  145.0848  137.5995  150.4452 H   0  0  0  0  0  0  0  0  0  0  0  0
  145.1598  138.3264  152.9383 H   0  0  0  0  0  0  0  0  0  0  0  0
  146.4654  137.1684  153.0413 H   0  0  0  0  0  0  0  0  0  0  0  0
  147.6628  138.4355  151.1611 H   0  0  0  0  0  0  0  0  0  0  0  0
  146.3917  139.6355  151.1989 H   0  0  0  0  0  0  0  0  0  0  0  0
  148.6290  139.7284  152.7506 H   0  0  0  0  0  0  0  0  0  0  0  0
  146.7705  140.3746  156.7831 H   0  0  0  0  0  0  0  0  0  0  0  0
  148.4106  141.3992  158.3215 H   0  0  0  0  0  0  0  0  0  0  0  0
  150.1590  144.2961  157.3220 H   0  0  0  0  0  0  0  0  0  0  0  0
  149.7397  143.5642  158.8523 H   0  0  0  0  0  0  0  0  0  0  0  0
  151.4253  145.1910  159.3092 H   0  0  0  0  0  0  0  0  0  0  0  0
  152.3835  145.5698  157.0956 H   0  0  0  0  0  0  0  0  0  0  0  0
  153.1693  144.0013  157.0978 H   0  0  0  0  0  0  0  0  0  0  0  0
  153.6735  145.2404  158.2460 H   0  0  0  0  0  0  0  0  0  0  0  0
  153.4728  142.2458  158.4873 H   0  0  0  0  0  0  0  0  0  0  0  0
  153.5907  140.3476  160.0932 H   0  0  0  0  0  0  0  0  0  0  0  0
  152.5655  141.2310  161.2235 H   0  0  0  0  0  0  0  0  0  0  0  0
  154.1702  141.8404  160.8257 H   0  0  0  0  0  0  0  0  0  0  0  0
  150.7283  141.2551  159.4287 H   0  0  0  0  0  0  0  0  0  0  0  0
  151.7565  140.5036  158.2161 H   0  0  0  0  0  0  0  0  0  0  0  0
  149.6104  141.0012  153.5775 H   0  0  0  0  0  0  0  0  0  0  0  0
  1  2  1  0  0  0  0
  1 24  1  0  0  0  0
  1 25  1  0  0  0  0
  1 26  1  0  0  0  0
  2  3  2  0  0  0  0
  2  4  1  0  0  0  0
  4  5  1  0  0  0  0
  4 27  1  0  0  0  0
  5  6  1  0  0  0  0
  5 28  1  0  0  0  0
  5 29  1  0  0  0  0
  6  7  1  0  0  0  0
  6 30  1  0  0  0  0
  6 31  1  0  0  0  0
  7  8  1  0  0  0  0
  7 32  1  0  0  0  0
  8  9  2  0  0  0  0
  8 10  1  0  0  0  0
 10 23  1  0  0  0  0
 10 11  2  0  0  0  0
 11 12  1  0  0  0  0
 11 33  1  0  0  0  0
 12 13  2  0  0  0  0
 12 34  1  0  0  0  0
 13 14  1  0  0  0  0
 13 22  1  0  0  0  0
 14 21  1  0  0  0  0
 14 15  1  0  0  0  0
 15 16  1  0  0  0  0
 15 35  1  0  0  0  0
 15 36  1  0  0  0  0
 16 17  1  0  0  0  0
 16 18  1  0  0  0  0
 16 37  1  0  0  0  0
 17 38  1  0  0  0  0
 17 39  1  0  0  0  0
 17 40  1  0  0  0  0
 18 19  1  0  0  0  0
 19 20  1  0  0  0  0
 19 21  1  0  0  0  0
 19 41  1  0  0  0  0
 20 42  1  0  0  0  0
 20 43  1  0  0  0  0
 20 44  1  0  0  0  0
 21 45  1  0  0  0  0
 21 46  1  0  0  0  0
 22 23  2  0  0  0  0
 23 47  1  0  0  0  0
M  END
> <s_m_source_file>
AV-unprocessed.smi

> <i_m_source_file_index>
2179

> <i_lp_mmshare_version>
43012

> <i_f3d_flags>
0

> <s_epik_input>
W0NIM11DKD1PKVtOSF1bQ0gyXVtDSDJdW05IXUMoPU8pYzFbY0hdW2NIXWMobltjSF0xKU4yW0NIMl1bQ0BASF0oW0NIM10pT1tDQEBIXShbQ0gzXSlbQ0gyXTI=

> <s_epik_cmdline>
J2VwaWtfcHl0aG9uJywgJy1waCcsICc3LjAnLCAnLXRuJywgJzgnLCAnLW1hJywgJzIwMCcsICctbWV0YWxfYmluZGluZycsICctaW1hZScsICc8aW5maWxlLm1hZT4nLCAnLW9tYWUnLCAnPG91dGZpbGUubWFlPic=

> <r_lp_tautomer_probability>
1

> <r_epik_Ionization_Penalty>
2.00433e-05

> <r_epik_Ionization_Penalty_Charging>
0

> <r_epik_Ionization_Penalty_Neutral>
2.00433e-05

> <r_epik_State_Penalty>
-0

> <r_epik_Charging_Adjusted_Penalty>
0

> <i_epik_Tot_Q>
0

> <i_epik_Tot_abs_Q>
0

> <r_epik_Metal_State_Penalty>
-0

> <b_epik_Metal_Only>
0

> <s_lp_Force_Field>
OPLS_2005

> <r_lp_Energy>
15.6634

> <b_lp_Chiralities_Consistent>
1

> <s_lp_Variant>
AV-unprocessed.smi:2179-2

> <Gold.Version>
5.8.1

> <Gold.Id.Protein>
6NUR|6NUR_protein|mol2

> <Gold.PLP.Fitness>
48.6361

> <Gold.PLP.PLP>
-41.9383

> <Gold.PLP.part.hbond>
-2.5743

> <Gold.PLP.part.metal>
0.0000

> <Gold.PLP.part.buried>
-4.5014

> <Gold.PLP.part.nonpolar>
-35.8094

> <Gold.PLP.part.repulsive>
0.5211

> <Gold.PLP.ligand.clash>
0.0000

> <Gold.PLP.ligand.torsion>
0.5923

> <Gold.PLP.Chemscore.Hbond>
1.7360

> <Gold.PLP.Chemscore.CHOScore>
0.7743

> <Gold.PLP.Chemscore.Metal>
0.0000

> <Gold.Chemscore.Hbonds>
donor molecule, donor type, donor heavy atom, donor atom, acceptor molecule, acceptor atom, score
      L1  H     4    27       P1 10171  0.83
      L1  H     7    32       P1  7957  0.59
      L1  C    23    47       P1  7957  0.84

> <Gold.PLP.Chemscore.Internal.Correction>
0.3515

> <Gold.Rescore>
     Score         DG    S(hbond)    S(metal)    S(lipo)     H(rot)  DE(clash)    DE(int)     intcor
     15.66     -19.09       1.61        0.00     111.14       1.86       1.33       2.10       ----

> <Gold.Chemscore.Fitness>
15.6584

> <Gold.Chemscore.DG>
-19.0892

> <Gold.Chemscore.ZeroCoef>
-5.4800

> <Gold.Chemscore.Hbond>
1.6058

> <Gold.Chemscore.Metal>
0.0000

> <Gold.Chemscore.Lipo>
111.1427

> <Gold.Chemscore.Internal_Hbond>
0.0000

> <Gold.Chemscore.DEClash>
1.3289

> <Gold.Chemscore.DEInternal>
2.1019

> <Gold.Chemscore.Rot>
1.8586

> <Gold.Chemscore.Internal.Correction>
   9.000000E+99

> <Gold.Chemscore.Hbonds>
donor molecule, donor type, donor heavy atom, donor atom, acceptor molecule, acceptor atom, score
      L1  H     4    27       P1 10171  0.83
      L1  H     7    32       P1  7957  0.58

> <Gold.Chemscore.Hbond.Weighted>
-5.3634

> <Gold.Chemscore.Metal.Weighted>
-0.0000

> <Gold.Chemscore.Lipo.Weighted>
-13.0037

> <Gold.Chemscore.Internal_Hbond.Weighted>
0.0000

> <Gold.Chemscore.DEClash.Weighted>
1.3289

> <Gold.Chemscore.DEInternal.Weighted>
2.1019

> <Gold.Chemscore.Rot.Weighted>
4.7579

> <Gold.Chemscore.Internal.Correction.Weighted>
   9.000000E+99

> <Gold.Protein.RotatedTorsions>
[ 6907 6896 6895 6894 ] final   24.24 input  -60.11 | X-H torsion
[ 7974 7965 7964 7962 ] final   58.13 input  175.53 | X-H torsion
[ 8008 7997 7996 7995 ] final  115.49 input   59.86 | X-H torsion
[ 10167 10162 10161 10158 ] final  110.27 input  -65.29 | X-H torsion
[ 10718 10713 10712 10709 ] final  -93.97 input   66.30 | X-H torsion
[ 10763 10752 10751 10750 ] final  -39.68 input  -60.55 | X-H torsion
[ 11005 11000 10999 10996 ] final  106.01 input  -57.11 | X-H torsion

> <Gold.Protein.ActiveResidues>
 VAL166  LYS551  ARG553  GLY616  TRP617  ASP618  TYR619  PRO620  LYS621  CYS622 
 ASP623  PHE694  ASN695  SER759  ASP760  ASP761  ALA762  ILE779  LEU786  VAL792 
 PHE793  MET794  SER795  GLU796  ALA797  LYS798  CYS799  TRP800  GLU811  SER814 

> <Gold.Protein.RotatedAtoms>
  151.9544  135.0153  160.0543 H   0  0  0  0  0  0  0  0  0  0  0  0  # atno 6907 bound_to 6896
  152.1924  133.4778  159.5023 H   0  0  0  0  0  0  0  0  0  0  0  0  # atno 6908 bound_to 6896
  150.6938  134.1612  159.4220 H   0  0  0  0  0  0  0  0  0  0  0  0  # atno 6909 bound_to 6896
  145.9215  139.3733  143.0475 H   0  0  0  0  0  0  0  0  0  0  0  0  # atno 7974 bound_to 7965
  156.2384  140.2937  156.0376 H   0  0  0  0  0  0  0  0  0  0  0  0  # atno 8008 bound_to 7997
  155.2023  140.0410  157.2936 H   0  0  0  0  0  0  0  0  0  0  0  0  # atno 8009 bound_to 7997
  154.6122  140.2454  155.7662 H   0  0  0  0  0  0  0  0  0  0  0  0  # atno 8010 bound_to 7997
  139.6701  144.7125  151.1703 H   0  0  0  0  0  0  0  0  0  0  0  0  # atno 10167 bound_to 10162
  156.0020  130.5048  150.5856 H   0  0  0  0  0  0  0  0  0  0  0  0  # atno 10718 bound_to 10713
  153.9334  135.6769  153.4745 H   0  0  0  0  0  0  0  0  0  0  0  0  # atno 10763 bound_to 10752
  153.0968  135.4847  154.8790 H   0  0  0  0  0  0  0  0  0  0  0  0  # atno 10764 bound_to 10752
  154.7416  135.3162  154.8676 H   0  0  0  0  0  0  0  0  0  0  0  0  # atno 10765 bound_to 10752
  139.8809  134.9355  156.5601 H   0  0  0  0  0  0  0  0  0  0  0  0  # atno 11005 bound_to 11000
  145.8543  140.9511  143.0733 LP  0  0  0  0  0  0  0  0  0  0  0  0  # atno 17320 bound_to 7965
  144.6753  140.0448  143.7480 LP  0  0  0  0  0  0  0  0  0  0  0  0  # atno 17321 bound_to 7965
  140.7615  143.5857  150.8848 LP  0  0  0  0  0  0  0  0  0  0  0  0  # atno 17342 bound_to 10162
  139.9522  143.6260  152.3026 LP  0  0  0  0  0  0  0  0  0  0  0  0  # atno 17343 bound_to 10162
  157.3729  131.0768  151.1542 LP  0  0  0  0  0  0  0  0  0  0  0  0  # atno 17370 bound_to 10713
  157.2289  130.6516  149.5841 LP  0  0  0  0  0  0  0  0  0  0  0  0  # atno 17371 bound_to 10713
  140.8176  133.8379  155.8866 LP  0  0  0  0  0  0  0  0  0  0  0  0  # atno 17394 bound_to 11000
  140.9449  134.1854  157.4771 LP  0  0  0  0  0  0  0  0  0  0  0  0  # atno 17395 bound_to 11000

$$$$
