AV-unprocessed.smi:3165|AV-procd|sdf|12088|dock8
  -GOLD-   2272017523D 1   1.00000     0.00000
 Structure written by MMmdl.
 38 39  0  0  0  0  0  0  0  0  2 V2000
  147.1678  142.2561  157.3786 C   0  0  0  0  0  0  0  0  0  0  0  0
  148.6015  141.7386  157.2008 C   0  0  1  0  0  0  0  0  0  0  0  0
  148.7378  140.9441  155.8848 C   0  0  0  0  0  0  0  0  0  0  0  0
  147.7960  141.3739  154.8670 N   0  0  0  0  0  0  0  0  0  0  0  0
  147.5519  142.6512  154.4082 C   0  0  0  0  0  0  0  0  0  0  0  0
  146.5687  142.5620  153.4648 C   0  0  0  0  0  0  0  0  0  0  0  0
  146.2746  141.1707  153.4124 C   0  0  0  0  0  0  0  0  0  0  0  0
  147.0118  140.4620  154.2521 N   0  0  0  0  0  0  0  0  0  0  0  0
  149.5457  142.8787  157.2336 N   0  3  0  0  0  0  0  0  0  0  0  0
  150.9750  142.5049  157.1887 C   0  0  0  0  0  0  0  0  0  0  0  0
  151.7336  143.0829  158.3908 C   0  0  1  0  0  0  0  0  0  0  0  0
  151.5911  144.6151  158.4738 C   0  0  0  0  0  0  0  0  0  0  0  0
  152.2644  145.1528  159.7416 C   0  0  0  0  0  0  0  0  0  0  0  0
  151.7264  144.4068  160.9668 C   0  0  0  0  0  0  0  0  0  0  0  0
  151.8543  142.8890  160.7651 C   0  0  0  0  0  0  0  0  0  0  0  0
  151.1822  142.5012  159.5708 O   0  0  0  0  0  0  0  0  0  0  0  0
  146.4513  141.4342  157.3847 H   0  0  0  0  0  0  0  0  0  0  0  0
  146.8868  142.9359  156.5733 H   0  0  0  0  0  0  0  0  0  0  0  0
  147.0579  142.7927  158.3216 H   0  0  0  0  0  0  0  0  0  0  0  0
  148.8118  141.0727  158.0397 H   0  0  0  0  0  0  0  0  0  0  0  0
  149.7433  141.0633  155.4790 H   0  0  0  0  0  0  0  0  0  0  0  0
  148.6030  139.8762  156.0657 H   0  0  0  0  0  0  0  0  0  0  0  0
  148.0885  143.5076  154.7896 H   0  0  0  0  0  0  0  0  0  0  0  0
  146.1271  143.3679  152.8975 H   0  0  0  0  0  0  0  0  0  0  0  0
  145.5521  140.6582  152.7945 H   0  0  0  0  0  0  0  0  0  0  0  0
  149.3435  143.4764  156.4442 H   0  0  0  0  0  0  0  0  0  0  0  0
  151.0453  141.4165  157.1856 H   0  0  0  0  0  0  0  0  0  0  0  0
  151.4316  142.8563  156.2630 H   0  0  0  0  0  0  0  0  0  0  0  0
  152.7900  142.8189  158.3118 H   0  0  0  0  0  0  0  0  0  0  0  0
  152.0287  145.0852  157.5926 H   0  0  0  0  0  0  0  0  0  0  0  0
  150.5347  144.8870  158.4811 H   0  0  0  0  0  0  0  0  0  0  0  0
  153.3444  145.0157  159.6723 H   0  0  0  0  0  0  0  0  0  0  0  0
  152.0891  146.2242  159.8411 H   0  0  0  0  0  0  0  0  0  0  0  0
  152.2636  144.7163  161.8636 H   0  0  0  0  0  0  0  0  0  0  0  0
  150.6785  144.6661  161.1236 H   0  0  0  0  0  0  0  0  0  0  0  0
  152.9024  142.5890  160.7193 H   0  0  0  0  0  0  0  0  0  0  0  0
  151.4085  142.3600  161.6076 H   0  0  0  0  0  0  0  0  0  0  0  0
  149.3880  143.4039  158.0818 H   0  0  0  0  0  0  0  0  0  0  0  0
  1  2  1  0  0  0  0
  1 17  1  0  0  0  0
  1 18  1  0  0  0  0
  1 19  1  0  0  0  0
  2  3  1  0  0  0  0
  2  9  1  0  0  0  0
  2 20  1  0  0  0  0
  3  4  1  0  0  0  0
  3 21  1  0  0  0  0
  3 22  1  0  0  0  0
  4  8  1  0  0  0  0
  4  5  1  0  0  0  0
  5  6  2  0  0  0  0
  5 23  1  0  0  0  0
  6  7  1  0  0  0  0
  6 24  1  0  0  0  0
  7  8  2  0  0  0  0
  7 25  1  0  0  0  0
  9 10  1  0  0  0  0
  9 26  1  0  0  0  0
  9 38  1  0  0  0  0
 10 11  1  0  0  0  0
 10 27  1  0  0  0  0
 10 28  1  0  0  0  0
 11 16  1  0  0  0  0
 11 12  1  0  0  0  0
 11 29  1  0  0  0  0
 12 13  1  0  0  0  0
 12 30  1  0  0  0  0
 12 31  1  0  0  0  0
 13 14  1  0  0  0  0
 13 32  1  0  0  0  0
 13 33  1  0  0  0  0
 14 15  1  0  0  0  0
 14 34  1  0  0  0  0
 14 35  1  0  0  0  0
 15 16  1  0  0  0  0
 15 36  1  0  0  0  0
 15 37  1  0  0  0  0
M  CHG  1   9   1
M  END
> <s_m_source_file>
AV-unprocessed.smi

> <i_m_source_file_index>
3165

> <i_lp_mmshare_version>
43012

> <i_f3d_flags>
0

> <s_epik_input>
bjFbY0hdW2NIXVtjSF1uMVtDSDJdW0NAQEhdKFtDSDNdKVtOSF1bQ0gyXVtDQEBIXTJbQ0gyXVtDSDJdW0NIMl1bQ0gyXU8y

> <s_epik_cmdline>
J2VwaWtfcHl0aG9uJywgJy1waCcsICc3LjAnLCAnLXRuJywgJzgnLCAnLW1hJywgJzIwMCcsICctbWV0YWxfYmluZGluZycsICctaW1hZScsICc8aW5maWxlLm1hZT4nLCAnLW9tYWUnLCAnPG91dGZpbGUubWFlPic=

> <r_lp_tautomer_probability>
1

> <r_epik_Ionization_Penalty>
0.00849196

> <r_epik_Ionization_Penalty_Charging>
0.00848754

> <r_epik_Ionization_Penalty_Neutral>
4.42049e-06

> <r_epik_State_Penalty>
0.00639836

> <r_epik_Charging_Adjusted_Penalty>
0.0148859

> <i_epik_Tot_Q>
1

> <i_epik_Tot_abs_Q>
1

> <r_epik_Metal_State_Penalty>
0.00639878

> <b_epik_Metal_Only>
0

> <s_lp_Force_Field>
OPLS_2005

> <r_lp_Energy>
13.0452

> <b_lp_Chiralities_Consistent>
1

> <s_lp_Variant>
AV-unprocessed.smi:3165-4

> <Gold.Version>
5.8.1

> <Gold.Id.Protein>
6NUR|6NUR_protein|mol2

> <Gold.PLP.Fitness>
45.3751

> <Gold.PLP.PLP>
-38.1063

> <Gold.PLP.part.hbond>
-1.0000

> <Gold.PLP.part.metal>
0.0000

> <Gold.PLP.part.buried>
-5.9334

> <Gold.PLP.part.nonpolar>
-32.8053

> <Gold.PLP.part.repulsive>
0.2885

> <Gold.PLP.ligand.clash>
0.0000

> <Gold.PLP.ligand.torsion>
0.8898

> <Gold.PLP.Chemscore.Hbond>
2.0000

> <Gold.PLP.Chemscore.CHOScore>
1.0000

> <Gold.PLP.Chemscore.Metal>
0.0000

> <Gold.Chemscore.Hbonds>
donor molecule, donor type, donor heavy atom, donor atom, acceptor molecule, acceptor atom, score
      L1  H     9    26       P1  8028  2.00
      L1  C     5    23       P1  8028  0.05
      L1  C     7    25       P1 10175  0.66

> <Gold.PLP.Chemscore.Internal.Correction>
0.0484

> <Gold.Rescore>
     Score         DG    S(hbond)    S(metal)    S(lipo)     H(rot)  DE(clash)    DE(int)     intcor
     15.45     -16.56       0.99        0.00     102.33       1.64       0.19       0.92       ----

> <Gold.Chemscore.Fitness>
15.4457

> <Gold.Chemscore.DG>
-16.5620

> <Gold.Chemscore.ZeroCoef>
-5.4800

> <Gold.Chemscore.Hbond>
0.9937

> <Gold.Chemscore.Metal>
0.0000

> <Gold.Chemscore.Lipo>
102.3315

> <Gold.Chemscore.Internal_Hbond>
0.0000

> <Gold.Chemscore.DEClash>
0.1930

> <Gold.Chemscore.DEInternal>
0.9234

> <Gold.Chemscore.Rot>
1.6444

> <Gold.Chemscore.Internal.Correction>
   9.000000E+99

> <Gold.Chemscore.Hbonds>
donor molecule, donor type, donor heavy atom, donor atom, acceptor molecule, acceptor atom, score
      L1  H     9    26       P1  8028  0.93

> <Gold.Chemscore.Hbond.Weighted>
-3.3190

> <Gold.Chemscore.Metal.Weighted>
-0.0000

> <Gold.Chemscore.Lipo.Weighted>
-11.9728

> <Gold.Chemscore.Internal_Hbond.Weighted>
0.0000

> <Gold.Chemscore.DEClash.Weighted>
0.1930

> <Gold.Chemscore.DEInternal.Weighted>
0.9234

> <Gold.Chemscore.Rot.Weighted>
4.2097

> <Gold.Chemscore.Internal.Correction.Weighted>
   9.000000E+99

> <Gold.Protein.RotatedTorsions>
[ 6907 6896 6895 6894 ] final   71.70 input  -60.11 | X-H torsion
[ 7974 7965 7964 7962 ] final -116.25 input  175.53 | X-H torsion
[ 8008 7997 7996 7995 ] final  154.55 input   59.86 | X-H torsion
[ 10167 10162 10161 10158 ] final  126.62 input  -65.29 | X-H torsion
[ 10718 10713 10712 10709 ] final  -27.21 input   66.30 | X-H torsion
[ 10763 10752 10751 10750 ] final  177.07 input  -60.55 | X-H torsion
[ 11005 11000 10999 10996 ] final  -71.82 input  -57.11 | X-H torsion

> <Gold.Protein.ActiveResidues>
 VAL166  LYS551  ARG553  GLY616  TRP617  ASP618  TYR619  PRO620  LYS621  CYS622 
 ASP623  PHE694  ASN695  SER759  ASP760  ASP761  ALA762  ILE779  LEU786  VAL792 
 PHE793  MET794  SER795  GLU796  ALA797  LYS798  CYS799  TRP800  GLU811  SER814 

> <Gold.Protein.RotatedAtoms>
  152.4825  134.4681  159.9626 H   0  0  0  0  0  0  0  0  0  0  0  0  # atno 6907 bound_to 6896
  151.4684  133.3569  159.2827 H   0  0  0  0  0  0  0  0  0  0  0  0  # atno 6908 bound_to 6896
  150.8909  134.8338  159.7353 H   0  0  0  0  0  0  0  0  0  0  0  0  # atno 6909 bound_to 6896
  145.0989  140.8539  143.3938 H   0  0  0  0  0  0  0  0  0  0  0  0  # atno 7974 bound_to 7965
  156.2525  140.1963  156.6664 H   0  0  0  0  0  0  0  0  0  0  0  0  # atno 8008 bound_to 7997
  154.6426  140.0582  156.9888 H   0  0  0  0  0  0  0  0  0  0  0  0  # atno 8009 bound_to 7997
  155.1540  140.3254  155.4428 H   0  0  0  0  0  0  0  0  0  0  0  0  # atno 8010 bound_to 7997
  139.5621  144.6888  151.4012 H   0  0  0  0  0  0  0  0  0  0  0  0  # atno 10167 bound_to 10162
  156.4412  130.4464  149.7052 H   0  0  0  0  0  0  0  0  0  0  0  0  # atno 10718 bound_to 10713
  154.4896  135.2778  155.1507 H   0  0  0  0  0  0  0  0  0  0  0  0  # atno 10763 bound_to 10752
  154.3184  135.6215  153.5500 H   0  0  0  0  0  0  0  0  0  0  0  0  # atno 10764 bound_to 10752
  152.9886  135.5736  154.5315 H   0  0  0  0  0  0  0  0  0  0  0  0  # atno 10765 bound_to 10752
  141.1599  133.6829  156.6965 H   0  0  0  0  0  0  0  0  0  0  0  0  # atno 11005 bound_to 11000
  145.0979  139.2844  143.5701 LP  0  0  0  0  0  0  0  0  0  0  0  0  # atno 17320 bound_to 7965
  146.3530  140.0536  142.8634 LP  0  0  0  0  0  0  0  0  0  0  0  0  # atno 17321 bound_to 7965
  140.6902  143.7879  150.7244 LP  0  0  0  0  0  0  0  0  0  0  0  0  # atno 17342 bound_to 10162
  140.1359  143.4484  152.2225 LP  0  0  0  0  0  0  0  0  0  0  0  0  # atno 17343 bound_to 10162
  156.3916  130.7630  151.2631 LP  0  0  0  0  0  0  0  0  0  0  0  0  # atno 17370 bound_to 10713
  157.7506  131.0266  150.3970 LP  0  0  0  0  0  0  0  0  0  0  0  0  # atno 17371 bound_to 10713
  140.2991  134.8178  157.4082 LP  0  0  0  0  0  0  0  0  0  0  0  0  # atno 17394 bound_to 11000
  140.1278  134.5135  155.8130 LP  0  0  0  0  0  0  0  0  0  0  0  0  # atno 17395 bound_to 11000

$$$$
