AV-unprocessed.smi:1570|AV-procd|sdf|6318|dock8
  -GOLD-   22720 6523D 1   1.00000     0.00000
 Structure written by MMmdl.
 52 54  0  0  0  0  0  0  0  0  2 V2000
  153.4770  139.3632  159.9472 C   0  0  0  0  0  0  0  0  0  0  0  0
  153.7262  140.8737  159.8480 C   0  0  0  0  0  0  0  0  0  0  0  0
  152.6627  141.5359  159.0972 N   0  0  0  0  0  0  0  0  0  0  0  0
  152.1920  141.1776  157.8797 C   0  0  0  0  0  0  0  0  0  0  0  0
  152.5776  140.2214  157.2075 O   0  0  0  0  0  0  0  0  0  0  0  0
  151.2496  142.0775  157.5107 N   0  0  0  0  0  0  0  0  0  0  0  0
  150.5154  142.1070  156.2461 C   0  0  0  0  0  0  0  0  0  0  0  0
  149.7149  140.8094  156.0129 C   0  0  2  0  0  0  0  0  0  0  0  0
  150.5669  139.8813  155.3729 O   0  0  0  0  0  0  0  0  0  0  0  0
  148.4639  141.0171  155.1319 C   0  0  0  0  0  0  0  0  0  0  0  0
  147.4270  141.8436  155.7984 N   0  3  1  0  0  0  0  0  0  0  0  0
  146.1710  141.9561  155.0164 C   0  0  0  0  0  0  0  0  0  0  0  0
  145.1588  142.8594  155.7451 C   0  0  1  0  0  0  0  0  0  0  0  0
  143.8171  142.9312  155.0077 C   0  0  0  0  0  0  0  0  0  0  0  0
  144.9217  142.3362  157.0476 O   0  0  0  0  0  0  0  0  0  0  0  0
  146.0988  142.3021  157.8473 C   0  0  1  0  0  0  0  0  0  0  0  0
  145.7111  141.8126  159.2470 C   0  0  0  0  0  0  0  0  0  0  0  0
  147.1357  141.3819  157.1759 C   0  0  0  0  0  0  0  0  0  0  0  0
  151.1224  143.0454  158.5174 C   0  0  0  0  0  0  0  0  0  0  0  0
  150.3009  144.1827  158.6080 C   0  0  0  0  0  0  0  0  0  0  0  0
  150.4230  144.9774  159.7718 C   0  0  0  0  0  0  0  0  0  0  0  0
  151.3420  144.6304  160.7960 C   0  0  0  0  0  0  0  0  0  0  0  0
  152.1572  143.4801  160.6789 C   0  0  0  0  0  0  0  0  0  0  0  0
  152.0133  142.7065  159.5140 C   0  0  0  0  0  0  0  0  0  0  0  0
  154.2740  138.8754  160.5087 H   0  0  0  0  0  0  0  0  0  0  0  0
  153.4378  138.9038  158.9591 H   0  0  0  0  0  0  0  0  0  0  0  0
  152.5352  139.1503  160.4541 H   0  0  0  0  0  0  0  0  0  0  0  0
  153.7983  141.3039  160.8481 H   0  0  0  0  0  0  0  0  0  0  0  0
  154.6865  141.0637  159.3679 H   0  0  0  0  0  0  0  0  0  0  0  0
  149.8534  142.9741  156.2091 H   0  0  0  0  0  0  0  0  0  0  0  0
  151.2383  142.2499  155.4418 H   0  0  0  0  0  0  0  0  0  0  0  0
  149.4416  140.3891  156.9800 H   0  0  0  0  0  0  0  0  0  0  0  0
  151.0653  140.3351  154.7100 H   0  0  0  0  0  0  0  0  0  0  0  0
  148.7225  141.4914  154.1853 H   0  0  0  0  0  0  0  0  0  0  0  0
  148.0539  140.0386  154.8758 H   0  0  0  0  0  0  0  0  0  0  0  0
  146.3737  142.3649  154.0270 H   0  0  0  0  0  0  0  0  0  0  0  0
  145.7453  140.9621  154.8681 H   0  0  0  0  0  0  0  0  0  0  0  0
  145.5616  143.8701  155.8316 H   0  0  0  0  0  0  0  0  0  0  0  0
  143.9417  143.3397  154.0044 H   0  0  0  0  0  0  0  0  0  0  0  0
  143.1128  143.5704  155.5407 H   0  0  0  0  0  0  0  0  0  0  0  0
  143.3645  141.9437  154.9132 H   0  0  0  0  0  0  0  0  0  0  0  0
  146.5045  143.3120  157.9332 H   0  0  0  0  0  0  0  0  0  0  0  0
  146.5794  141.7753  159.9051 H   0  0  0  0  0  0  0  0  0  0  0  0
  145.2755  140.8137  159.2099 H   0  0  0  0  0  0  0  0  0  0  0  0
  144.9776  142.4782  159.7028 H   0  0  0  0  0  0  0  0  0  0  0  0
  146.7678  140.3549  157.1446 H   0  0  0  0  0  0  0  0  0  0  0  0
  148.0552  141.3761  157.7630 H   0  0  0  0  0  0  0  0  0  0  0  0
  149.6050  144.4432  157.8242 H   0  0  0  0  0  0  0  0  0  0  0  0
  149.8101  145.8600  159.8815 H   0  0  0  0  0  0  0  0  0  0  0  0
  151.4207  145.2523  161.6754 H   0  0  0  0  0  0  0  0  0  0  0  0
  152.8599  143.2129  161.4540 H   0  0  0  0  0  0  0  0  0  0  0  0
  147.8135  142.7730  155.8859 H   0  0  0  0  0  0  0  0  0  0  0  0
  1  2  1  0  0  0  0
  1 25  1  0  0  0  0
  1 26  1  0  0  0  0
  1 27  1  0  0  0  0
  2  3  1  0  0  0  0
  2 28  1  0  0  0  0
  2 29  1  0  0  0  0
  3 24  1  0  0  0  0
  3  4  1  0  0  0  0
  4  5  2  0  0  0  0
  4  6  1  0  0  0  0
  6  7  1  0  0  0  0
  6 19  1  0  0  0  0
  7  8  1  0  0  0  0
  7 30  1  0  0  0  0
  7 31  1  0  0  0  0
  8  9  1  0  0  0  0
  8 10  1  0  0  0  0
  8 32  1  0  0  0  0
  9 33  1  0  0  0  0
 10 11  1  0  0  0  0
 10 34  1  0  0  0  0
 10 35  1  0  0  0  0
 11 18  1  0  0  0  0
 11 12  1  0  0  0  0
 11 52  1  0  0  0  0
 12 13  1  0  0  0  0
 12 36  1  0  0  0  0
 12 37  1  0  0  0  0
 13 14  1  0  0  0  0
 13 15  1  0  0  0  0
 13 38  1  0  0  0  0
 14 39  1  0  0  0  0
 14 40  1  0  0  0  0
 14 41  1  0  0  0  0
 15 16  1  0  0  0  0
 16 17  1  0  0  0  0
 16 18  1  0  0  0  0
 16 42  1  0  0  0  0
 17 43  1  0  0  0  0
 17 44  1  0  0  0  0
 17 45  1  0  0  0  0
 18 46  1  0  0  0  0
 18 47  1  0  0  0  0
 19 24  2  0  0  0  0
 19 20  1  0  0  0  0
 20 21  2  0  0  0  0
 20 48  1  0  0  0  0
 21 22  1  0  0  0  0
 21 49  1  0  0  0  0
 22 23  2  0  0  0  0
 22 50  1  0  0  0  0
 23 24  1  0  0  0  0
 23 51  1  0  0  0  0
M  CHG  1  11   1
M  END
> <s_m_source_file>
AV-unprocessed.smi

> <i_m_source_file_index>
1570

> <i_lp_mmshare_version>
43012

> <i_f3d_flags>
0

> <s_epik_input>
W2NIXTFbY0hdW2NIXVtjSF1jKGMxMiluKFtDSDJdW0NIM10pYyg9TyluMltDSDJdW0NASF0oW09IXSlbQ0gyXU4zW0NIMl1bQ0BASF0oW0NIM10pT1tDQEBIXShbQ0gzXSlbQ0gyXTM=

> <s_epik_cmdline>
J2VwaWtfcHl0aG9uJywgJy1waCcsICc3LjAnLCAnLXRuJywgJzgnLCAnLW1hJywgJzIwMCcsICctbWV0YWxfYmluZGluZycsICctaW1hZScsICc8aW5maWxlLm1hZT4nLCAnLW9tYWUnLCAnPG91dGZpbGUubWFlPic=

> <r_epik_Ionization_Penalty>
0.706332

> <r_epik_Ionization_Penalty_Charging>
0.706318

> <r_epik_Ionization_Penalty_Neutral>
1.42224e-05

> <r_epik_State_Penalty>
0.729493

> <r_epik_Charging_Adjusted_Penalty>
1.43581

> <i_epik_Tot_Q>
1

> <i_epik_Tot_abs_Q>
1

> <r_epik_Metal_State_Penalty>
0.729493

> <b_epik_Metal_Only>
0

> <s_lp_Force_Field>
OPLS_2005

> <r_lp_Energy>
50.1879

> <b_lp_Chiralities_Consistent>
1

> <s_lp_Variant>
AV-unprocessed.smi:1570-7

> <Gold.Version>
5.8.1

> <Gold.Id.Protein>
6NUR|6NUR_protein|mol2

> <Gold.PLP.Fitness>
53.9675

> <Gold.PLP.PLP>
-45.8921

> <Gold.PLP.part.hbond>
-2.0000

> <Gold.PLP.part.metal>
0.0000

> <Gold.PLP.part.buried>
-8.6419

> <Gold.PLP.part.nonpolar>
-37.1349

> <Gold.PLP.part.repulsive>
0.1482

> <Gold.PLP.ligand.clash>
0.0000

> <Gold.PLP.ligand.torsion>
0.5122

> <Gold.PLP.Chemscore.Hbond>
3.0000

> <Gold.PLP.Chemscore.CHOScore>
0.0000

> <Gold.PLP.Chemscore.Metal>
0.0000

> <Gold.Chemscore.Hbonds>
donor molecule, donor type, donor heavy atom, donor atom, acceptor molecule, acceptor atom, score
      L1  H    11    52       P1  8028  1.11
      P1  H  7997  8010       L1     5  1.00

> <Gold.PLP.Chemscore.Internal.Correction>
0.0997

> <Gold.Rescore>
     Score         DG    S(hbond)    S(metal)    S(lipo)     H(rot)  DE(clash)    DE(int)     intcor
     19.58     -20.14       1.92        0.00     117.03       2.13       0.06       0.50       ----

> <Gold.Chemscore.Fitness>
19.5829

> <Gold.Chemscore.DG>
-20.1425

> <Gold.Chemscore.ZeroCoef>
-5.4800

> <Gold.Chemscore.Hbond>
1.9231

> <Gold.Chemscore.Metal>
0.0000

> <Gold.Chemscore.Lipo>
117.0324

> <Gold.Chemscore.Internal_Hbond>
0.0000

> <Gold.Chemscore.DEClash>
0.0570

> <Gold.Chemscore.DEInternal>
0.5026

> <Gold.Chemscore.Rot>
2.1303

> <Gold.Chemscore.Internal.Correction>
   9.000000E+99

> <Gold.Chemscore.Hbonds>
donor molecule, donor type, donor heavy atom, donor atom, acceptor molecule, acceptor atom, score
      L1  H    11    52       P1  8028  0.33
      P1  H  7997  8010       L1     5  0.93

> <Gold.Chemscore.Hbond.Weighted>
-6.4233

> <Gold.Chemscore.Metal.Weighted>
-0.0000

> <Gold.Chemscore.Lipo.Weighted>
-13.6928

> <Gold.Chemscore.Internal_Hbond.Weighted>
0.0000

> <Gold.Chemscore.DEClash.Weighted>
0.0570

> <Gold.Chemscore.DEInternal.Weighted>
0.5026

> <Gold.Chemscore.Rot.Weighted>
5.4535

> <Gold.Chemscore.Internal.Correction.Weighted>
   9.000000E+99

> <Gold.Protein.RotatedTorsions>
[ 6907 6896 6895 6894 ] final -148.83 input  -60.11 | X-H torsion
[ 7974 7965 7964 7962 ] final -153.21 input  175.53 | X-H torsion
[ 8008 7997 7996 7995 ] final   58.19 input   59.86 | X-H torsion
[ 10167 10162 10161 10158 ] final -167.29 input  -65.29 | X-H torsion
[ 10718 10713 10712 10709 ] final  116.65 input   66.30 | X-H torsion
[ 10763 10752 10751 10750 ] final  -24.78 input  -60.55 | X-H torsion
[ 11005 11000 10999 10996 ] final -125.02 input  -57.11 | X-H torsion

> <Gold.Protein.ActiveResidues>
 VAL166  LYS551  ARG553  GLY616  TRP617  ASP618  TYR619  PRO620  LYS621  CYS622 
 ASP623  PHE694  ASN695  SER759  ASP760  ASP761  ALA762  ILE779  LEU786  VAL792 
 PHE793  MET794  SER795  GLU796  ALA797  LYS798  CYS799  TRP800  GLU811  SER814 

> <Gold.Protein.RotatedAtoms>
  151.1755  133.4758  159.2593 H   0  0  0  0  0  0  0  0  0  0  0  0  # atno 6907 bound_to 6896
  151.1313  135.0131  159.8593 H   0  0  0  0  0  0  0  0  0  0  0  0  # atno 6908 bound_to 6896
  152.5460  134.1657  159.8629 H   0  0  0  0  0  0  0  0  0  0  0  0  # atno 6909 bound_to 6896
  144.7753  140.4557  143.5878 H   0  0  0  0  0  0  0  0  0  0  0  0  # atno 7974 bound_to 7965
  155.5461  140.3485  155.4458 H   0  0  0  0  0  0  0  0  0  0  0  0  # atno 8008 bound_to 7997
  156.0617  140.1341  156.9960 H   0  0  0  0  0  0  0  0  0  0  0  0  # atno 8009 bound_to 7997
  154.4483  140.0984  156.6511 H   0  0  0  0  0  0  0  0  0  0  0  0  # atno 8010 bound_to 7997
  139.6059  144.0914  152.1792 H   0  0  0  0  0  0  0  0  0  0  0  0  # atno 10167 bound_to 10162
  157.6147  131.1028  150.7502 H   0  0  0  0  0  0  0  0  0  0  0  0  # atno 10718 bound_to 10713
  153.6893  135.6962  153.5095 H   0  0  0  0  0  0  0  0  0  0  0  0  # atno 10763 bound_to 10752
  153.2425  135.4301  155.0712 H   0  0  0  0  0  0  0  0  0  0  0  0  # atno 10764 bound_to 10752
  154.8377  135.3511  154.6434 H   0  0  0  0  0  0  0  0  0  0  0  0  # atno 10765 bound_to 10752
  140.9795  134.0693  157.3781 H   0  0  0  0  0  0  0  0  0  0  0  0  # atno 11005 bound_to 11000
  145.6205  139.1523  143.3025 LP  0  0  0  0  0  0  0  0  0  0  0  0  # atno 17320 bound_to 7965
  146.1928  140.6315  142.9138 LP  0  0  0  0  0  0  0  0  0  0  0  0  # atno 17321 bound_to 7965
  140.0521  144.5924  150.7328 LP  0  0  0  0  0  0  0  0  0  0  0  0  # atno 17342 bound_to 10162
  140.7284  143.2662  151.4038 LP  0  0  0  0  0  0  0  0  0  0  0  0  # atno 17343 bound_to 10162
  156.7872  130.4878  149.5391 LP  0  0  0  0  0  0  0  0  0  0  0  0  # atno 17370 bound_to 10713
  156.1264  130.6147  151.0270 LP  0  0  0  0  0  0  0  0  0  0  0  0  # atno 17371 bound_to 10713
  139.8944  135.0136  156.6949 LP  0  0  0  0  0  0  0  0  0  0  0  0  # atno 17394 bound_to 11000
  140.7208  133.9142  155.8146 LP  0  0  0  0  0  0  0  0  0  0  0  0  # atno 17395 bound_to 11000

$$$$
