AV-unprocessed.smi:2188|AV-procd|sdf|8882|dock8
  -GOLD-   2272012 83D 1   1.00000     0.00000
 Structure written by MMmdl.
 38 40  0  0  0  0  0  0  0  0  2 V2000
  151.5471  140.0814  154.7889 O   0  0  0  0  0  0  0  0  0  0  0  0
  150.6691  140.0018  155.6584 C   0  0  0  0  0  0  0  0  0  0  0  0
  150.8981  139.7273  156.9803 N   0  5  0  0  0  0  0  0  0  0  0  0
  151.2279  140.7118  158.0119 C   0  0  0  0  0  0  0  0  0  0  0  0
  151.2410  142.1239  157.3927 C   0  0  0  0  0  0  0  0  0  0  0  0
  151.5315  143.2318  158.3963 C   0  0  0  0  0  0  0  0  0  0  0  0
  151.9934  142.9313  159.6966 C   0  0  0  0  0  0  0  0  0  0  0  0
  152.2375  143.9886  160.5938 C   0  0  0  0  0  0  0  0  0  0  0  0
  152.0044  145.3070  160.1549 C   0  0  0  0  0  0  0  0  0  0  0  0
  151.5569  145.6091  158.9173 N   0  0  0  0  0  0  0  0  0  0  0  0
  151.3264  144.5892  158.0621 C   0  0  0  0  0  0  0  0  0  0  0  0
  149.2556  140.1839  155.2674 C   0  0  0  0  0  0  0  0  0  0  0  0
  148.9680  141.0419  154.2524 C   0  0  0  0  0  0  0  0  0  0  0  0
  147.6174  141.2640  153.8002 C   0  0  0  0  0  0  0  0  0  0  0  0
  146.6301  140.6223  154.4327 C   0  0  0  0  0  0  0  0  0  0  0  0
  146.8455  139.7543  155.5015 N   0  0  0  0  0  0  0  0  0  0  0  0
  145.6618  139.2076  156.1565 C   0  0  0  0  0  0  0  0  0  0  0  0
  145.8727  137.7430  156.4936 C   0  0  0  0  0  0  0  0  0  0  0  0
  147.2470  137.7044  157.6986 S   0  0  0  0  0  0  0  0  0  0  0  0
  146.8433  138.4899  158.8754 O   0  0  0  0  0  0  0  0  0  0  0  0
  147.6612  136.3041  157.8737 O   0  0  0  0  0  0  0  0  0  0  0  0
  148.4194  138.5450  156.8484 N   0  0  0  0  0  0  0  0  0  0  0  0
  148.1646  139.4446  155.9400 C   0  0  0  0  0  0  0  0  0  0  0  0
  150.5149  140.7030  158.8375 H   0  0  0  0  0  0  0  0  0  0  0  0
  152.2021  140.5086  158.4578 H   0  0  0  0  0  0  0  0  0  0  0  0
  151.9842  142.1723  156.5953 H   0  0  0  0  0  0  0  0  0  0  0  0
  150.2784  142.3304  156.9220 H   0  0  0  0  0  0  0  0  0  0  0  0
  152.1619  141.9083  159.9998 H   0  0  0  0  0  0  0  0  0  0  0  0
  152.5953  143.7934  161.5940 H   0  0  0  0  0  0  0  0  0  0  0  0
  152.1807  146.1414  160.8174 H   0  0  0  0  0  0  0  0  0  0  0  0
  150.9679  144.8652  157.0812 H   0  0  0  0  0  0  0  0  0  0  0  0
  149.7493  141.5978  153.7537 H   0  0  0  0  0  0  0  0  0  0  0  0
  147.4110  141.9296  152.9752 H   0  0  0  0  0  0  0  0  0  0  0  0
  145.5978  140.7494  154.1409 H   0  0  0  0  0  0  0  0  0  0  0  0
  145.4465  139.7868  157.0550 H   0  0  0  0  0  0  0  0  0  0  0  0
  144.7871  139.2967  155.5116 H   0  0  0  0  0  0  0  0  0  0  0  0
  144.9898  137.3010  156.9545 H   0  0  0  0  0  0  0  0  0  0  0  0
  146.1418  137.1530  155.6168 H   0  0  0  0  0  0  0  0  0  0  0  0
  1  2  2  0  0  0  0
  2  3  1  0  0  0  0
  2 12  1  0  0  0  0
  3  4  1  0  0  0  0
  4  5  1  0  0  0  0
  4 24  1  0  0  0  0
  4 25  1  0  0  0  0
  5  6  1  0  0  0  0
  5 26  1  0  0  0  0
  5 27  1  0  0  0  0
  6 11  1  0  0  0  0
  6  7  2  0  0  0  0
  7  8  1  0  0  0  0
  7 28  1  0  0  0  0
  8  9  2  0  0  0  0
  8 29  1  0  0  0  0
  9 10  1  0  0  0  0
  9 30  1  0  0  0  0
 10 11  2  0  0  0  0
 11 31  1  0  0  0  0
 12 23  1  0  0  0  0
 12 13  2  0  0  0  0
 13 14  1  0  0  0  0
 13 32  1  0  0  0  0
 14 15  2  0  0  0  0
 14 33  1  0  0  0  0
 15 16  1  0  0  0  0
 15 34  1  0  0  0  0
 16 23  1  0  0  0  0
 16 17  1  0  0  0  0
 17 18  1  0  0  0  0
 17 35  1  0  0  0  0
 17 36  1  0  0  0  0
 18 19  1  0  0  0  0
 18 37  1  0  0  0  0
 18 38  1  0  0  0  0
 19 20  2  0  0  0  0
 19 21  2  0  0  0  0
 19 22  1  0  0  0  0
 22 23  2  0  0  0  0
M  CHG  1   3  -1
M  END
> <s_m_source_file>
AV-unprocessed.smi

> <i_m_source_file_index>
2188

> <i_lp_mmshare_version>
43012

> <i_f3d_flags>
0

> <s_epik_input>
W0NIMl0xW0NIMl1TKD1PKSg9TylOPUMoTjEyKUMoPVtDSF1bQ0hdPVtDSF0yKUMoPU8pW05IXVtDSDJdW0NIMl1jM1tjSF1bY0hdW2NIXW5bY0hdMw==

> <s_epik_cmdline>
J2VwaWtfcHl0aG9uJywgJy1waCcsICc3LjAnLCAnLXRuJywgJzgnLCAnLW1hJywgJzIwMCcsICctbWV0YWxfYmluZGluZycsICctaW1hZScsICc8aW5maWxlLm1hZT4nLCAnLW9tYWUnLCAnPG91dGZpbGUubWFlPic=

> <r_epik_Ionization_Penalty>
5.61471

> <r_epik_Ionization_Penalty_Charging>
5.5942

> <r_epik_Ionization_Penalty_Neutral>
0.0205175

> <r_epik_State_Penalty>
5.60129

> <r_epik_Charging_Adjusted_Penalty>
11.1955

> <i_epik_Tot_Q>
-1

> <i_epik_Tot_abs_Q>
1

> <r_epik_Metal_State_Penalty>
1.60393

> <b_epik_Metal_Only>
1

> <s_lp_Force_Field>
OPLS_2005

> <r_lp_Energy>
34.9518

> <b_lp_Chiralities_Consistent>
1

> <s_lp_Variant>
AV-unprocessed.smi:2188-3

> <Gold.Version>
5.8.1

> <Gold.Id.Protein>
6NUR|6NUR_protein|mol2

> <Gold.PLP.Fitness>
44.3194

> <Gold.PLP.PLP>
-36.9402

> <Gold.PLP.part.hbond>
-2.8508

> <Gold.PLP.part.metal>
0.0000

> <Gold.PLP.part.buried>
-5.6984

> <Gold.PLP.part.nonpolar>
-29.7572

> <Gold.PLP.part.repulsive>
0.1996

> <Gold.PLP.ligand.clash>
0.0219

> <Gold.PLP.ligand.torsion>
1.3113

> <Gold.PLP.Chemscore.Hbond>
1.2444

> <Gold.PLP.Chemscore.CHOScore>
2.0000

> <Gold.PLP.Chemscore.Metal>
0.0000

> <Gold.Chemscore.Hbonds>
donor molecule, donor type, donor heavy atom, donor atom, acceptor molecule, acceptor atom, score
      P1  H  6934  6947       L1    20  0.27
      P1  H  7989  7998       L1     1  0.94
      L1  C    11    31       P1  8028  1.00
      L1  C    15    34       P1 10175  0.96

> <Gold.PLP.Chemscore.Internal.Correction>
0.2906

> <Gold.Rescore>
     Score         DG    S(hbond)    S(metal)    S(lipo)     H(rot)  DE(clash)    DE(int)     intcor
     14.51     -17.53       1.46        0.00      92.88       1.44       0.09       2.92       ----

> <Gold.Chemscore.Fitness>
14.5114

> <Gold.Chemscore.DG>
-17.5251

> <Gold.Chemscore.ZeroCoef>
-5.4800

> <Gold.Chemscore.Hbond>
1.4589

> <Gold.Chemscore.Metal>
0.0000

> <Gold.Chemscore.Lipo>
92.8833

> <Gold.Chemscore.Internal_Hbond>
0.0000

> <Gold.Chemscore.DEClash>
0.0931

> <Gold.Chemscore.DEInternal>
2.9206

> <Gold.Chemscore.Rot>
1.4433

> <Gold.Chemscore.Internal.Correction>
   9.000000E+99

> <Gold.Chemscore.Hbonds>
donor molecule, donor type, donor heavy atom, donor atom, acceptor molecule, acceptor atom, score
      P1  H  6934  6947       L1    20  0.26
      P1  H  7989  7998       L1     1  0.89

> <Gold.Chemscore.Hbond.Weighted>
-4.8726

> <Gold.Chemscore.Metal.Weighted>
-0.0000

> <Gold.Chemscore.Lipo.Weighted>
-10.8673

> <Gold.Chemscore.Internal_Hbond.Weighted>
0.0000

> <Gold.Chemscore.DEClash.Weighted>
0.0931

> <Gold.Chemscore.DEInternal.Weighted>
2.9206

> <Gold.Chemscore.Rot.Weighted>
3.6949

> <Gold.Chemscore.Internal.Correction.Weighted>
   9.000000E+99

> <Gold.Protein.RotatedTorsions>
[ 6907 6896 6895 6894 ] final   64.80 input  -60.11 | X-H torsion
[ 7974 7965 7964 7962 ] final  132.16 input  175.53 | X-H torsion
[ 8008 7997 7996 7995 ] final  -26.86 input   59.86 | X-H torsion
[ 10167 10162 10161 10158 ] final   32.43 input  -65.29 | X-H torsion
[ 10718 10713 10712 10709 ] final -133.41 input   66.30 | X-H torsion
[ 10763 10752 10751 10750 ] final  147.22 input  -60.55 | X-H torsion
[ 11005 11000 10999 10996 ] final -105.66 input  -57.11 | X-H torsion

> <Gold.Protein.ActiveResidues>
 VAL166  LYS551  ARG553  GLY616  TRP617  ASP618  TYR619  PRO620  LYS621  CYS622 
 ASP623  PHE694  ASN695  SER759  ASP760  ASP761  ALA762  ILE779  LEU786  VAL792 
 PHE793  MET794  SER795  GLU796  ALA797  LYS798  CYS799  TRP800  GLU811  SER814 

> <Gold.Protein.RotatedAtoms>
  152.4359  134.5686  159.9914 H   0  0  0  0  0  0  0  0  0  0  0  0  # atno 6907 bound_to 6896
  151.5797  133.3373  159.3014 H   0  0  0  0  0  0  0  0  0  0  0  0  # atno 6908 bound_to 6896
  150.8258  134.7523  159.6876 H   0  0  0  0  0  0  0  0  0  0  0  0  # atno 6909 bound_to 6896
  144.9998  139.4323  143.5298 H   0  0  0  0  0  0  0  0  0  0  0  0  # atno 7974 bound_to 7965
  154.4405  140.1888  156.0841 H   0  0  0  0  0  0  0  0  0  0  0  0  # atno 8008 bound_to 7997
  156.0416  140.3319  155.7224 H   0  0  0  0  0  0  0  0  0  0  0  0  # atno 8009 bound_to 7997
  155.5691  140.0611  157.2802 H   0  0  0  0  0  0  0  0  0  0  0  0  # atno 8010 bound_to 7997
  140.4499  144.1064  150.6189 H   0  0  0  0  0  0  0  0  0  0  0  0  # atno 10167 bound_to 10162
  156.2447  130.7117  151.0992 H   0  0  0  0  0  0  0  0  0  0  0  0  # atno 10718 bound_to 10713
  154.0347  135.2894  155.3363 H   0  0  0  0  0  0  0  0  0  0  0  0  # atno 10763 bound_to 10752
  154.6966  135.5205  153.8470 H   0  0  0  0  0  0  0  0  0  0  0  0  # atno 10764 bound_to 10752
  153.0625  135.6619  154.0557 H   0  0  0  0  0  0  0  0  0  0  0  0  # atno 10765 bound_to 10752
  141.1043  133.8827  157.1761 H   0  0  0  0  0  0  0  0  0  0  0  0  # atno 11005 bound_to 11000
  146.3449  139.9379  142.8745 LP  0  0  0  0  0  0  0  0  0  0  0  0  # atno 17320 bound_to 7965
  145.2169  140.9919  143.4068 LP  0  0  0  0  0  0  0  0  0  0  0  0  # atno 17321 bound_to 7965
  140.4220  143.2607  151.9704 LP  0  0  0  0  0  0  0  0  0  0  0  0  # atno 17342 bound_to 10162
  139.4796  144.5822  151.7913 LP  0  0  0  0  0  0  0  0  0  0  0  0  # atno 17343 bound_to 10162
  157.7190  131.0693  150.6213 LP  0  0  0  0  0  0  0  0  0  0  0  0  # atno 17370 bound_to 10713
  156.6289  130.4426  149.5794 LP  0  0  0  0  0  0  0  0  0  0  0  0  # atno 17371 bound_to 10713
  139.9906  135.0066  156.9966 LP  0  0  0  0  0  0  0  0  0  0  0  0  # atno 17394 bound_to 11000
  140.4943  134.1161  155.7238 LP  0  0  0  0  0  0  0  0  0  0  0  0  # atno 17395 bound_to 11000

$$$$
