AV-unprocessed.smi:743|AV-procd|sdf|3567|dock6
  -GOLD-   22720 0563D 1   1.00000     0.00000
 Structure written by MMmdl.
 28 29  0  0  0  0  0  0  0  0  1 V2000
  141.9426  137.5113  153.3722 C   0  0  0  0  0  0  0  0  0  0  0  0
  142.5797  136.3098  152.8776 N   0  0  0  0  0  0  0  0  0  0  0  0
  143.7115  136.1935  152.1009 C   0  0  0  0  0  0  0  0  0  0  0  0
  143.9352  134.8599  151.8889 C   0  0  0  0  0  0  0  0  0  0  0  0
  145.0421  134.1765  151.1088 C   0  0  1  0  0  0  0  0  0  0  0  0
  145.8221  133.2952  151.9823 N   0  0  0  0  0  0  0  0  0  0  0  0
  145.6842  131.9615  152.1075 C   0  0  0  0  0  0  0  0  0  0  0  0
  146.3100  131.3309  152.9562 O   0  0  0  0  0  0  0  0  0  0  0  0
  144.7629  131.2048  151.1350 C   0  0  0  0  0  0  0  0  0  0  0  0
  143.8084  132.1078  150.3333 C   0  0  0  0  0  0  0  0  0  0  0  0
  144.5220  133.3881  149.8815 C   0  0  1  0  0  0  0  0  0  0  0  0
  143.6611  134.1881  149.0289 N   0  0  0  0  0  0  0  0  0  0  0  0
  142.8589  134.2393  152.5872 C   0  0  0  0  0  0  0  0  0  0  0  0
  142.0519  135.1063  153.1763 N   0  0  0  0  0  0  0  0  0  0  0  0
  145.3791  133.0965  149.2728 H   0  0  0  0  0  0  0  0  0  0  0  0
  142.5092  138.3898  153.0622 H   0  0  0  0  0  0  0  0  0  0  0  0
  141.8993  137.4847  154.4614 H   0  0  0  0  0  0  0  0  0  0  0  0
  140.9302  137.5835  152.9738 H   0  0  0  0  0  0  0  0  0  0  0  0
  144.2634  137.0610  151.7696 H   0  0  0  0  0  0  0  0  0  0  0  0
  145.7391  134.9319  150.7445 H   0  0  0  0  0  0  0  0  0  0  0  0
  146.4702  133.7509  152.6085 H   0  0  0  0  0  0  0  0  0  0  0  0
  145.4066  130.6620  150.4421 H   0  0  0  0  0  0  0  0  0  0  0  0
  144.1939  130.4525  151.6817 H   0  0  0  0  0  0  0  0  0  0  0  0
  143.4350  131.5588  149.4681 H   0  0  0  0  0  0  0  0  0  0  0  0
  142.9348  132.3523  150.9392 H   0  0  0  0  0  0  0  0  0  0  0  0
  142.6933  133.9945  149.2430 H   0  0  0  0  0  0  0  0  0  0  0  0
  143.8093  135.1691  149.2186 H   0  0  0  0  0  0  0  0  0  0  0  0
  142.6438  133.1853  152.6838 H   0  0  0  0  0  0  0  0  0  0  0  0
  1  2  1  0  0  0  0
  1 16  1  0  0  0  0
  1 17  1  0  0  0  0
  1 18  1  0  0  0  0
  2 14  1  0  0  0  0
  2  3  1  0  0  0  0
  3  4  2  0  0  0  0
  3 19  1  0  0  0  0
  4  5  1  0  0  0  0
  4 13  1  0  0  0  0
  5 11  1  0  0  0  0
  5  6  1  0  0  0  0
  5 20  1  0  0  0  0
  6  7  1  0  0  0  0
  6 21  1  0  0  0  0
  7  8  2  0  0  0  0
  7  9  1  0  0  0  0
  9 10  1  0  0  0  0
  9 22  1  0  0  0  0
  9 23  1  0  0  0  0
 10 11  1  0  0  0  0
 10 24  1  0  0  0  0
 10 25  1  0  0  0  0
 11 15  1  0  0  0  0
 11 12  1  0  0  0  0
 12 26  1  0  0  0  0
 12 27  1  0  0  0  0
 13 14  2  0  0  0  0
 13 28  1  0  0  0  0
M  END
> <s_m_source_file>
AV-unprocessed.smi

> <i_m_source_file_index>
743

> <i_lp_mmshare_version>
43012

> <i_f3d_flags>
0

> <s_epik_input>
W0NIM11uMVtjSF1jKFtjSF1uMSlbQ0BASF0yW05IXUMoPU8pW0NIMl1bQ0gyXVtDQEBIXTJbTkgyXQ==

> <s_epik_cmdline>
J2VwaWtfcHl0aG9uJywgJy1waCcsICc3LjAnLCAnLXRuJywgJzgnLCAnLW1hJywgJzIwMCcsICctbWV0YWxfYmluZGluZycsICctaW1hZScsICc8aW5maWxlLm1hZT4nLCAnLW9tYWUnLCAnPG91dGZpbGUubWFlPic=

> <r_lp_tautomer_probability>
1

> <r_epik_Ionization_Penalty>
2.50279

> <r_epik_Ionization_Penalty_Charging>
0

> <r_epik_Ionization_Penalty_Neutral>
2.50279

> <r_epik_State_Penalty>
2.66754

> <r_epik_Charging_Adjusted_Penalty>
2.66754

> <i_epik_Tot_Q>
0

> <i_epik_Tot_abs_Q>
0

> <r_epik_Metal_State_Penalty>
2.66721

> <b_epik_Metal_Only>
0

> <s_lp_Force_Field>
OPLS_2005

> <r_lp_Energy>
9.07018

> <b_lp_Chiralities_Consistent>
1

> <s_lp_Variant>
AV-unprocessed.smi:743-8

> <Gold.Version>
5.8.1

> <Gold.Id.Protein>
6NUR|6NUR_protein|mol2

> <Gold.PLP.Fitness>
34.6736

> <Gold.PLP.PLP>
-25.7814

> <Gold.PLP.part.hbond>
-2.0000

> <Gold.PLP.part.metal>
0.0000

> <Gold.PLP.part.buried>
-5.1546

> <Gold.PLP.part.nonpolar>
-19.6172

> <Gold.PLP.part.repulsive>
0.3522

> <Gold.PLP.ligand.clash>
0.0000

> <Gold.PLP.ligand.torsion>
0.0145

> <Gold.PLP.Chemscore.Hbond>
1.0000

> <Gold.PLP.Chemscore.CHOScore>
1.9677

> <Gold.PLP.Chemscore.Metal>
0.0000

> <Gold.Chemscore.Hbonds>
donor molecule, donor type, donor heavy atom, donor atom, acceptor molecule, acceptor atom, score
      L1  H    12    26       P1 10186  1.00
      L1  C     3    19       P1 10171  1.00
      L1  C    13    28       P1 10957  0.99

> <Gold.PLP.Chemscore.Internal.Correction>
0.0179

> <Gold.Rescore>
     Score         DG    S(hbond)    S(metal)    S(lipo)     H(rot)  DE(clash)    DE(int)     intcor
     12.02     -12.06       0.97        0.00      50.32       1.00       0.02       0.01       ----

> <Gold.Chemscore.Fitness>
12.0229

> <Gold.Chemscore.DG>
-12.0563

> <Gold.Chemscore.ZeroCoef>
-5.4800

> <Gold.Chemscore.Hbond>
0.9726

> <Gold.Chemscore.Metal>
0.0000

> <Gold.Chemscore.Lipo>
50.3228

> <Gold.Chemscore.Internal_Hbond>
0.0000

> <Gold.Chemscore.DEClash>
0.0202

> <Gold.Chemscore.DEInternal>
0.0132

> <Gold.Chemscore.Rot>
1.0000

> <Gold.Chemscore.Internal.Correction>
   9.000000E+99

> <Gold.Chemscore.Hbonds>
donor molecule, donor type, donor heavy atom, donor atom, acceptor molecule, acceptor atom, score
      L1  H    12    26       P1 10186  0.98

> <Gold.Chemscore.Hbond.Weighted>
-3.2485

> <Gold.Chemscore.Metal.Weighted>
-0.0000

> <Gold.Chemscore.Lipo.Weighted>
-5.8878

> <Gold.Chemscore.Internal_Hbond.Weighted>
0.0000

> <Gold.Chemscore.DEClash.Weighted>
0.0202

> <Gold.Chemscore.DEInternal.Weighted>
0.0132

> <Gold.Chemscore.Rot.Weighted>
2.5600

> <Gold.Chemscore.Internal.Correction.Weighted>
   9.000000E+99

> <Gold.Protein.RotatedTorsions>
[ 6907 6896 6895 6894 ] final  -43.27 input  -60.11 | X-H torsion
[ 7974 7965 7964 7962 ] final -146.44 input  175.53 | X-H torsion
[ 8008 7997 7996 7995 ] final  152.29 input   59.86 | X-H torsion
[ 10167 10162 10161 10158 ] final  143.54 input  -65.29 | X-H torsion
[ 10718 10713 10712 10709 ] final   23.81 input   66.30 | X-H torsion
[ 10763 10752 10751 10750 ] final  169.51 input  -60.55 | X-H torsion
[ 11005 11000 10999 10996 ] final  140.03 input  -57.11 | X-H torsion

> <Gold.Protein.ActiveResidues>
 VAL166  LYS551  ARG553  GLY616  TRP617  ASP618  TYR619  PRO620  LYS621  CYS622 
 ASP623  PHE694  ASN695  SER759  ASP760  ASP761  ALA762  ILE779  LEU786  VAL792 
 PHE793  MET794  SER795  GLU796  ALA797  LYS798  CYS799  TRP800  GLU811  SER814 

> <Gold.Protein.RotatedAtoms>
  150.9458  134.8863  159.7640 H   0  0  0  0  0  0  0  0  0  0  0  0  # atno 6907 bound_to 6896
  152.5099  134.3876  159.9383 H   0  0  0  0  0  0  0  0  0  0  0  0  # atno 6908 bound_to 6896
  151.3895  133.3753  159.2754 H   0  0  0  0  0  0  0  0  0  0  0  0  # atno 6909 bound_to 6896
  144.8159  140.5456  143.5611 H   0  0  0  0  0  0  0  0  0  0  0  0  # atno 7974 bound_to 7965
  156.2636  140.2025  156.6309 H   0  0  0  0  0  0  0  0  0  0  0  0  # atno 8008 bound_to 7997
  154.6683  140.0553  157.0162 H   0  0  0  0  0  0  0  0  0  0  0  0  # atno 8009 bound_to 7997
  155.1174  140.3221  155.4509 H   0  0  0  0  0  0  0  0  0  0  0  0  # atno 8010 bound_to 7997
  139.4967  144.6034  151.6432 H   0  0  0  0  0  0  0  0  0  0  0  0  # atno 10167 bound_to 10162
  157.1712  130.6760  149.6078 H   0  0  0  0  0  0  0  0  0  0  0  0  # atno 10718 bound_to 10713
  154.3842  135.2753  155.2193 H   0  0  0  0  0  0  0  0  0  0  0  0  # atno 10763 bound_to 10752
  154.4287  135.5982  153.6058 H   0  0  0  0  0  0  0  0  0  0  0  0  # atno 10764 bound_to 10752
  152.9833  135.5990  154.4089 H   0  0  0  0  0  0  0  0  0  0  0  0  # atno 10765 bound_to 10752
  140.0297  134.9357  157.0639 H   0  0  0  0  0  0  0  0  0  0  0  0  # atno 11005 bound_to 11000
  145.5214  139.1476  143.3550 LP  0  0  0  0  0  0  0  0  0  0  0  0  # atno 17320 bound_to 7965
  146.2463  140.5355  142.8912 LP  0  0  0  0  0  0  0  0  0  0  0  0  # atno 17321 bound_to 7965
  140.5689  144.0143  150.6206 LP  0  0  0  0  0  0  0  0  0  0  0  0  # atno 17342 bound_to 10162
  140.3253  143.3111  152.0742 LP  0  0  0  0  0  0  0  0  0  0  0  0  # atno 17343 bound_to 10162
  155.9738  130.4678  150.6339 LP  0  0  0  0  0  0  0  0  0  0  0  0  # atno 17370 bound_to 10713
  157.4041  131.0814  151.1281 LP  0  0  0  0  0  0  0  0  0  0  0  0  # atno 17371 bound_to 10713
  140.4246  134.1845  155.7165 LP  0  0  0  0  0  0  0  0  0  0  0  0  # atno 17394 bound_to 11000
  141.1824  133.8386  157.1211 LP  0  0  0  0  0  0  0  0  0  0  0  0  # atno 17395 bound_to 11000

$$$$
