AV-unprocessed.smi:2302|AV-procd|sdf|9241|dock4
  -GOLD-   2272012463D 1   1.00000     0.00000
 Structure written by MMmdl.
 39 40  0  0  0  0  0  0  0  0  1 V2000
  145.7060  129.5069  152.8336 C   0  0  0  0  0  0  0  0  0  0  0  0
  145.8963  130.8736  152.2099 C   0  0  0  0  0  0  0  0  0  0  0  0
  145.2262  131.2279  151.0225 C   0  0  0  0  0  0  0  0  0  0  0  0
  145.4506  132.5110  150.4926 C   0  0  0  0  0  0  0  0  0  0  0  0
  146.3295  133.3808  151.1667 C   0  0  0  0  0  0  0  0  0  0  0  0
  146.9630  132.9471  152.3532 C   0  0  0  0  0  0  0  0  0  0  0  0
  147.8330  133.8957  152.9537 N   0  0  0  0  0  0  0  0  0  0  0  0
  148.4419  133.8238  154.1505 C   0  0  0  0  0  0  0  0  0  0  0  0
  148.3173  132.9029  154.9585 O   0  0  0  0  0  0  0  0  0  0  0  0
  149.2166  134.8971  154.3652 N   0  0  0  0  0  0  0  0  0  0  0  0
  150.0067  135.1363  155.5702 C   0  0  0  0  0  0  0  0  0  0  0  0
  150.6125  136.5521  155.6131 C   0  0  1  0  0  0  0  0  0  0  0  0
  151.4466  136.8313  156.8823 C   0  0  0  0  0  0  0  0  0  0  0  0
  152.0264  138.1677  156.8628 N   0  0  0  0  0  0  0  0  0  0  0  0
  152.8112  138.4307  158.0593 C   0  0  0  0  0  0  0  0  0  0  0  0
  152.8180  138.3379  155.6516 C   0  0  0  0  0  0  0  0  0  0  0  0
  151.9879  138.0599  154.3869 C   0  0  0  0  0  0  0  0  0  0  0  0
  151.4258  136.7533  154.4586 O   0  0  0  0  0  0  0  0  0  0  0  0
  146.7400  131.7070  152.8556 N   0  0  0  0  0  0  0  0  0  0  0  0
  144.8484  128.9918  152.3999 H   0  0  0  0  0  0  0  0  0  0  0  0
  145.5400  129.5950  153.9078 H   0  0  0  0  0  0  0  0  0  0  0  0
  146.5924  128.8929  152.6717 H   0  0  0  0  0  0  0  0  0  0  0  0
  144.5590  130.5368  150.5286 H   0  0  0  0  0  0  0  0  0  0  0  0
  144.9579  132.8236  149.5838 H   0  0  0  0  0  0  0  0  0  0  0  0
  146.5132  134.3698  150.7726 H   0  0  0  0  0  0  0  0  0  0  0  0
  148.0228  134.7194  152.4027 H   0  0  0  0  0  0  0  0  0  0  0  0
  149.2593  135.6045  153.6465 H   0  0  0  0  0  0  0  0  0  0  0  0
  149.4104  134.9538  156.4658 H   0  0  0  0  0  0  0  0  0  0  0  0
  150.8099  134.3994  155.5884 H   0  0  0  0  0  0  0  0  0  0  0  0
  149.7882  137.2665  155.5710 H   0  0  0  0  0  0  0  0  0  0  0  0
  150.8146  136.7177  157.7639 H   0  0  0  0  0  0  0  0  0  0  0  0
  152.2433  136.0912  156.9722 H   0  0  0  0  0  0  0  0  0  0  0  0
  153.2071  139.4467  158.0451 H   0  0  0  0  0  0  0  0  0  0  0  0
  153.6511  137.7394  158.1404 H   0  0  0  0  0  0  0  0  0  0  0  0
  152.1971  138.3269  158.9543 H   0  0  0  0  0  0  0  0  0  0  0  0
  153.2166  139.3520  155.6088 H   0  0  0  0  0  0  0  0  0  0  0  0
  153.6767  137.6649  155.6734 H   0  0  0  0  0  0  0  0  0  0  0  0
  151.1928  138.7988  154.2769 H   0  0  0  0  0  0  0  0  0  0  0  0
  152.6155  138.1297  153.4984 H   0  0  0  0  0  0  0  0  0  0  0  0
  1  2  1  0  0  0  0
  1 20  1  0  0  0  0
  1 21  1  0  0  0  0
  1 22  1  0  0  0  0
  2 19  1  0  0  0  0
  2  3  2  0  0  0  0
  3  4  1  0  0  0  0
  3 23  1  0  0  0  0
  4  5  2  0  0  0  0
  4 24  1  0  0  0  0
  5  6  1  0  0  0  0
  5 25  1  0  0  0  0
  6  7  1  0  0  0  0
  6 19  2  0  0  0  0
  7  8  1  0  0  0  0
  7 26  1  0  0  0  0
  8  9  2  0  0  0  0
  8 10  1  0  0  0  0
 10 11  1  0  0  0  0
 10 27  1  0  0  0  0
 11 12  1  0  0  0  0
 11 28  1  0  0  0  0
 11 29  1  0  0  0  0
 12 18  1  0  0  0  0
 12 13  1  0  0  0  0
 12 30  1  0  0  0  0
 13 14  1  0  0  0  0
 13 31  1  0  0  0  0
 13 32  1  0  0  0  0
 14 15  1  0  0  0  0
 14 16  1  0  0  0  0
 15 33  1  0  0  0  0
 15 34  1  0  0  0  0
 15 35  1  0  0  0  0
 16 17  1  0  0  0  0
 16 36  1  0  0  0  0
 16 37  1  0  0  0  0
 17 18  1  0  0  0  0
 17 38  1  0  0  0  0
 17 39  1  0  0  0  0
M  END
> <s_m_source_file>
AV-unprocessed.smi

> <i_m_source_file_index>
2302

> <i_lp_mmshare_version>
43012

> <i_f3d_flags>
0

> <s_epik_input>
W0NIM11jMVtjSF1bY0hdW2NIXWMobjEpW05IXUMoPU8pW05IXVtDSDJdW0NAQEhdMltDSDJdTihbQ0gzXSlbQ0gyXVtDSDJdTzI=

> <s_epik_cmdline>
J2VwaWtfcHl0aG9uJywgJy1waCcsICc3LjAnLCAnLXRuJywgJzgnLCAnLW1hJywgJzIwMCcsICctbWV0YWxfYmluZGluZycsICctaW1hZScsICc8aW5maWxlLm1hZT4nLCAnLW9tYWUnLCAnPG91dGZpbGUubWFlPic=

> <r_epik_Ionization_Penalty>
0.729465

> <r_epik_Ionization_Penalty_Charging>
0

> <r_epik_Ionization_Penalty_Neutral>
0.729465

> <r_epik_State_Penalty>
0.754525

> <r_epik_Charging_Adjusted_Penalty>
0.754525

> <i_epik_Tot_Q>
0

> <i_epik_Tot_abs_Q>
0

> <r_epik_Metal_State_Penalty>
0.754521

> <b_epik_Metal_Only>
0

> <s_lp_Force_Field>
OPLS_2005

> <r_lp_Energy>
21.4946

> <b_lp_Chiralities_Consistent>
1

> <s_lp_Variant>
AV-unprocessed.smi:2302-6

> <Gold.Version>
5.8.1

> <Gold.Id.Protein>
6NUR|6NUR_protein|mol2

> <Gold.PLP.Fitness>
41.6438

> <Gold.PLP.PLP>
-32.7781

> <Gold.PLP.part.hbond>
-3.0000

> <Gold.PLP.part.metal>
0.0000

> <Gold.PLP.part.buried>
-5.7255

> <Gold.PLP.part.nonpolar>
-24.6385

> <Gold.PLP.part.repulsive>
0.9418

> <Gold.PLP.ligand.clash>
0.0000

> <Gold.PLP.ligand.torsion>
0.0565

> <Gold.PLP.Chemscore.Hbond>
2.9920

> <Gold.PLP.Chemscore.CHOScore>
0.0000

> <Gold.PLP.Chemscore.Metal>
0.0000

> <Gold.Chemscore.Hbonds>
donor molecule, donor type, donor heavy atom, donor atom, acceptor molecule, acceptor atom, score
      L1  H     7    26       P1  7948  1.00
      L1  H    10    27       P1  7948  1.00
      P1  H 10752 10765       L1    18  1.00

> <Gold.PLP.Chemscore.Internal.Correction>
0.0027

> <Gold.Rescore>
     Score         DG    S(hbond)    S(metal)    S(lipo)     H(rot)  DE(clash)    DE(int)     intcor
     15.40     -16.78       1.78        0.00      73.22       1.25       0.02       1.36       ----

> <Gold.Chemscore.Fitness>
15.3996

> <Gold.Chemscore.DG>
-16.7843

> <Gold.Chemscore.ZeroCoef>
-5.4800

> <Gold.Chemscore.Hbond>
1.7783

> <Gold.Chemscore.Metal>
0.0000

> <Gold.Chemscore.Lipo>
73.2165

> <Gold.Chemscore.Internal_Hbond>
0.0000

> <Gold.Chemscore.DEClash>
0.0224

> <Gold.Chemscore.DEInternal>
1.3622

> <Gold.Chemscore.Rot>
1.2506

> <Gold.Chemscore.Internal.Correction>
   9.000000E+99

> <Gold.Chemscore.Hbonds>
donor molecule, donor type, donor heavy atom, donor atom, acceptor molecule, acceptor atom, score
      L1  H     7    26       P1  7948  0.55
      L1  H    10    27       P1  7948  0.53
      P1  H 10752 10765       L1    18  0.34

> <Gold.Chemscore.Hbond.Weighted>
-5.9394

> <Gold.Chemscore.Metal.Weighted>
-0.0000

> <Gold.Chemscore.Lipo.Weighted>
-8.5663

> <Gold.Chemscore.Internal_Hbond.Weighted>
0.0000

> <Gold.Chemscore.DEClash.Weighted>
0.0224

> <Gold.Chemscore.DEInternal.Weighted>
1.3622

> <Gold.Chemscore.Rot.Weighted>
3.2015

> <Gold.Chemscore.Internal.Correction.Weighted>
   9.000000E+99

> <Gold.Protein.RotatedTorsions>
[ 6907 6896 6895 6894 ] final -138.80 input  -60.11 | X-H torsion
[ 7974 7965 7964 7962 ] final   42.51 input  175.53 | X-H torsion
[ 8008 7997 7996 7995 ] final -132.16 input   59.86 | X-H torsion
[ 10167 10162 10161 10158 ] final   87.80 input  -65.29 | X-H torsion
[ 10718 10713 10712 10709 ] final   23.32 input   66.30 | X-H torsion
[ 10763 10752 10751 10750 ] final  169.96 input  -60.55 | X-H torsion
[ 11005 11000 10999 10996 ] final  -76.31 input  -57.11 | X-H torsion

> <Gold.Protein.ActiveResidues>
 VAL166  LYS551  ARG553  GLY616  TRP617  ASP618  TYR619  PRO620  LYS621  CYS622 
 ASP623  PHE694  ASN695  SER759  ASP760  ASP761  ALA762  ILE779  LEU786  VAL792 
 PHE793  MET794  SER795  GLU796  ALA797  LYS798  CYS799  TRP800  GLU811  SER814 

> <Gold.Protein.RotatedAtoms>
  151.0397  133.5717  159.2652 H   0  0  0  0  0  0  0  0  0  0  0  0  # atno 6907 bound_to 6896
  151.2768  135.0701  159.9164 H   0  0  0  0  0  0  0  0  0  0  0  0  # atno 6908 bound_to 6896
  152.5361  134.0118  159.7995 H   0  0  0  0  0  0  0  0  0  0  0  0  # atno 6909 bound_to 6896
  146.0734  139.5292  142.9583 H   0  0  0  0  0  0  0  0  0  0  0  0  # atno 7974 bound_to 7965
  155.3242  140.0463  157.3040 H   0  0  0  0  0  0  0  0  0  0  0  0  # atno 8008 bound_to 7997
  154.5363  140.2273  155.8683 H   0  0  0  0  0  0  0  0  0  0  0  0  # atno 8009 bound_to 7997
  156.1838  140.3067  155.9206 H   0  0  0  0  0  0  0  0  0  0  0  0  # atno 8010 bound_to 7997
  139.8737  144.6479  150.8921 H   0  0  0  0  0  0  0  0  0  0  0  0  # atno 10167 bound_to 10162
  157.1644  130.6731  149.6055 H   0  0  0  0  0  0  0  0  0  0  0  0  # atno 10718 bound_to 10713
  154.3907  135.2754  155.2156 H   0  0  0  0  0  0  0  0  0  0  0  0  # atno 10763 bound_to 10752
  154.4224  135.5997  153.6021 H   0  0  0  0  0  0  0  0  0  0  0  0  # atno 10764 bound_to 10752
  152.9832  135.5976  154.4161 H   0  0  0  0  0  0  0  0  0  0  0  0  # atno 10765 bound_to 10752
  141.1653  133.6979  156.7649 H   0  0  0  0  0  0  0  0  0  0  0  0  # atno 11005 bound_to 11000
  145.6350  141.0296  143.1843 LP  0  0  0  0  0  0  0  0  0  0  0  0  # atno 17320 bound_to 7965
  144.7246  139.7917  143.7369 LP  0  0  0  0  0  0  0  0  0  0  0  0  # atno 17321 bound_to 7965
  140.7756  143.3643  151.1769 LP  0  0  0  0  0  0  0  0  0  0  0  0  # atno 17342 bound_to 10162
  139.7260  143.9147  152.3003 LP  0  0  0  0  0  0  0  0  0  0  0  0  # atno 17343 bound_to 10162
  155.9748  130.4700  150.6416 LP  0  0  0  0  0  0  0  0  0  0  0  0  # atno 17370 bound_to 10713
  157.4102  131.0822  151.1228 LP  0  0  0  0  0  0  0  0  0  0  0  0  # atno 17371 bound_to 10713
  140.2507  134.8543  157.3664 LP  0  0  0  0  0  0  0  0  0  0  0  0  # atno 17394 bound_to 11000
  140.1706  134.4614  155.7834 LP  0  0  0  0  0  0  0  0  0  0  0  0  # atno 17395 bound_to 11000

$$$$
