#       Name:                AV-unprocessed.smi:1712
#       Creating user name   scv26
#       Creation time:       Fri Mar 27 08:10:47 2020


#       File generated by GOLD software.
#

@<TRIPOS>MOLECULE
AV-unprocessed.smi:1712
    43    44     1
SMALL
NO_CHARGES


@<TRIPOS>ATOM
      1 ****        -1.4461   0.8136  -0.0977 C.3            1 S1                 0.0000
      2 ****        -0.9554  -0.6552  -0.1316 C.3            1 S1                 0.0000
      3 ****         0.5971  -0.7198  -0.0644 C.3            1 S1                 0.0000
      4 ****         1.1626  -0.0022   1.0765 N.am           1 S1                 0.0000
      5 ****         1.8163   1.1674   1.0112 C.2            1 S1                 0.0000
      6 ****         1.9868   1.7935  -0.0350 O.2            1 S1                 0.0000
      7 ****         2.2458   1.5565   2.2228 N.am           1 S1                 0.0000
      8 ****         2.9524   2.7431   2.5446 C.2            1 S1                 0.0000
      9 ****         3.3811   3.1008   3.8517 C.2            1 S1                 0.0000
     10 ****         4.0151   4.2647   3.8513 N.2            1 S1                 0.0000
     11 ****         3.9954   4.6533   2.5564 N.pl3          1 S1                 0.0000
     12 ****         3.3590   3.7585   1.7249 C.2            1 S1                 0.0000
     13 ****        -1.5013  -1.3921  -1.3224 N.4            1 S1                 1.0000
     14 ****        -1.0036  -2.7919  -1.4502 C.3            1 S1                 0.0000
     15 ****        -1.5993  -3.4998  -2.6787 C.3            1 S1                 0.0000
     16 ****        -3.0151  -3.4765  -2.6066 O.3            1 S1                 0.0000
     17 ****        -3.5046  -2.1460  -2.6289 C.3            1 S1                 0.0000
     18 ****        -2.9904  -1.3826  -1.3971 C.3            1 S1                 0.0000
     19 ****         4.4157   5.5224   2.2589 H              1 S1                 0.0000
     20 ****        -1.0348   1.3625   0.7479 H              1 S1                 0.0000
     21 ****        -2.5251   0.8936   0.0213 H              1 S1                 0.0000
     22 ****        -1.1619   1.3474  -1.0050 H              1 S1                 0.0000
     23 ****        -1.3408  -1.1505   0.7613 H              1 S1                 0.0000
     24 ****         0.9364  -1.7458   0.0683 H              1 S1                 0.0000
     25 ****         1.0306  -0.3706  -1.0033 H              1 S1                 0.0000
     26 ****         1.0670  -0.4404   1.9812 H              1 S1                 0.0000
     27 ****         2.0431   0.9432   2.9985 H              1 S1                 0.0000
     28 ****         3.2553   2.5668   4.7821 H              1 S1                 0.0000
     29 ****         3.2599   3.9266   0.6629 H              1 S1                 0.0000
     30 ****         0.0781  -2.8136  -1.5692 H              1 S1                 0.0000
     31 ****        -1.2452  -3.3505  -0.5445 H              1 S1                 0.0000
     32 ****        -1.2591  -3.0308  -3.6035 H              1 S1                 0.0000
     33 ****        -1.2667  -4.5376  -2.7097 H              1 S1                 0.0000
     34 ****        -3.2050  -1.6464  -3.5518 H              1 S1                 0.0000
     35 ****        -4.5945  -2.1735  -2.6235 H              1 S1                 0.0000
     36 ****        -3.4046  -1.8208  -0.4877 H              1 S1                 0.0000
     37 ****        -3.3734  -0.3668  -1.4714 H              1 S1                 0.0000
     38 ****        -1.1716  -0.8991  -2.1402 H              1 S1                 0.0000
     39 ****         1.6292   1.4338  -0.8968 LP             1 S1                 0.0000
     40 ****         2.4828   2.6617  -0.0230 LP             1 S1                 0.0000
     41 ****         4.4163   4.7457   4.6308 LP             1 S1                 0.0000
     42 ****        -3.3063  -3.9177  -1.7577 LP             1 S1                 0.0000
     43 ****        -3.3903  -3.9759  -3.3875 LP             1 S1                 0.0000
@<TRIPOS>BOND
    1    1    2 1     
    2    1   20 1     
    3    1   21 1     
    4    1   22 1     
    5    2    3 1     
    6    2   13 1     
    7    2   23 1     
    8    3    4 1     
    9    3   24 1     
   10    3   25 1     
   11    4    5 am    
   12    4   26 1     
   13    5    6 2     
   14    5    7 am    
   15    7    8 1     
   16    7   27 1     
   17    8   12 2     
   18    8    9 1     
   19    9   10 2     
   20    9   28 1     
   21   10   11 1     
   22   11   19 1     
   23   11   12 1     
   24   12   29 1     
   25   13   18 1     
   26   13   14 1     
   27   13   38 1     
   28   14   15 1     
   29   14   30 1     
   30   14   31 1     
   31   15   16 1     
   32   15   32 1     
   33   15   33 1     
   34   16   17 1     
   35   17   18 1     
   36   17   34 1     
   37   17   35 1     
   38   18   36 1     
   39   18   37 1     
   40    6   39 1     
   41    6   40 1     
   42   10   41 1     
   43   16   42 1     
   44   16   43 1     
@<TRIPOS>SUBSTRUCTURE
      1 S1             1
@<TRIPOS>SET
LONE_PAIRS      STATIC     ATOMS    <user>   **** ""
5 39 40 41 42 43
DONOR_HYDROGENS      STATIC     ATOMS    <user>   **** ""
4 26 27 19 38
ATOM$BLUE        STATIC     ATOMS    COLORGROUP SYSTEM
5 39 40 41 42 43
ATOM$RED        STATIC     ATOMS    COLORGROUP SYSTEM
4 26 27 19 38
