AV-unprocessed.smi:3338|AV-procd|sdf|12874|dock7
  -GOLD-   2272019273D 1   1.00000     0.00000
 Structure written by MMmdl.
 44 45  0  0  0  0  0  0  0  0  2 V2000
  151.8977  145.5609  159.6261 C   0  0  0  0  0  0  0  0  0  0  0  0
  152.5180  144.4668  158.7397 C   0  0  1  0  0  0  0  0  0  0  0  0
  153.3323  143.4359  159.5435 C   0  0  0  0  0  0  0  0  0  0  0  0
  152.4137  142.4804  160.3180 C   0  0  0  0  0  0  0  0  0  0  0  0
  151.3792  141.8313  159.3854 C   0  0  0  0  0  0  0  0  0  0  0  0
  150.5883  142.8620  158.6652 N   0  3  2  0  0  0  0  0  0  0  0  0
  149.4811  142.2703  157.8738 C   0  0  0  0  0  0  0  0  0  0  0  0
  149.9858  141.5724  156.5961 C   0  0  0  0  0  0  0  0  0  0  0  0
  148.9281  141.4558  155.5998 N   0  0  0  0  0  0  0  0  0  0  0  0
  149.0071  140.7175  154.4810 C   0  0  0  0  0  0  0  0  0  0  0  0
  150.0090  140.0667  154.1808 O   0  0  0  0  0  0  0  0  0  0  0  0
  147.7655  140.7186  153.5730 C   0  0  1  0  0  0  0  0  0  0  0  0
  147.1726  139.3104  153.3645 C   0  0  0  0  0  0  0  0  0  0  0  0
  146.7661  141.6583  154.0689 N   0  0  0  0  0  0  0  0  0  0  0  0
  146.8346  143.0368  154.0929 C   0  0  0  0  0  0  0  0  0  0  0  0
  145.6812  143.4959  154.6615 C   0  0  0  0  0  0  0  0  0  0  0  0
  144.9580  142.3089  154.9643 C   0  0  0  0  0  0  0  0  0  0  0  0
  145.6110  141.2122  154.6164 N   0  0  0  0  0  0  0  0  0  0  0  0
  151.4636  143.7599  157.8629 C   0  0  0  0  0  0  0  0  0  0  0  0
  151.1620  145.1556  160.3207 H   0  0  0  0  0  0  0  0  0  0  0  0
  151.3964  146.3160  159.0197 H   0  0  0  0  0  0  0  0  0  0  0  0
  152.6629  146.0700  160.2129 H   0  0  0  0  0  0  0  0  0  0  0  0
  153.2119  144.9747  158.0687 H   0  0  0  0  0  0  0  0  0  0  0  0
  153.9510  142.8551  158.8581 H   0  0  0  0  0  0  0  0  0  0  0  0
  154.0207  143.9366  160.2253 H   0  0  0  0  0  0  0  0  0  0  0  0
  153.0097  141.7077  160.8049 H   0  0  0  0  0  0  0  0  0  0  0  0
  151.9027  143.0193  161.1165 H   0  0  0  0  0  0  0  0  0  0  0  0
  151.8750  141.1802  158.6635 H   0  0  0  0  0  0  0  0  0  0  0  0
  150.7146  141.2008  159.9775 H   0  0  0  0  0  0  0  0  0  0  0  0
  148.9097  141.5848  158.5021 H   0  0  0  0  0  0  0  0  0  0  0  0
  148.7885  143.0575  157.5727 H   0  0  0  0  0  0  0  0  0  0  0  0
  150.8021  142.1472  156.1579 H   0  0  0  0  0  0  0  0  0  0  0  0
  150.3863  140.5812  156.8101 H   0  0  0  0  0  0  0  0  0  0  0  0
  148.0736  141.9651  155.7744 H   0  0  0  0  0  0  0  0  0  0  0  0
  148.0878  141.0789  152.5947 H   0  0  0  0  0  0  0  0  0  0  0  0
  147.9084  138.6347  152.9272 H   0  0  0  0  0  0  0  0  0  0  0  0
  146.3194  139.3452  152.6868 H   0  0  0  0  0  0  0  0  0  0  0  0
  146.8304  138.8671  154.3004 H   0  0  0  0  0  0  0  0  0  0  0  0
  147.6891  143.5720  153.7054 H   0  0  0  0  0  0  0  0  0  0  0  0
  145.3972  144.5233  154.8346 H   0  0  0  0  0  0  0  0  0  0  0  0
  143.9863  142.2120  155.4258 H   0  0  0  0  0  0  0  0  0  0  0  0
  150.8705  144.5093  157.3396 H   0  0  0  0  0  0  0  0  0  0  0  0
  151.9630  143.1713  157.0915 H   0  0  0  0  0  0  0  0  0  0  0  0
  150.1559  143.4311  159.3788 H   0  0  0  0  0  0  0  0  0  0  0  0
  1  2  1  0  0  0  0
  1 20  1  0  0  0  0
  1 21  1  0  0  0  0
  1 22  1  0  0  0  0
  2 19  1  0  0  0  0
  2  3  1  0  0  0  0
  2 23  1  0  0  0  0
  3  4  1  0  0  0  0
  3 24  1  0  0  0  0
  3 25  1  0  0  0  0
  4  5  1  0  0  0  0
  4 26  1  0  0  0  0
  4 27  1  0  0  0  0
  5  6  1  0  0  0  0
  5 28  1  0  0  0  0
  5 29  1  0  0  0  0
  6  7  1  0  0  0  0
  6 19  1  0  0  0  0
  6 44  1  0  0  0  0
  7  8  1  0  0  0  0
  7 30  1  0  0  0  0
  7 31  1  0  0  0  0
  8  9  1  0  0  0  0
  8 32  1  0  0  0  0
  8 33  1  0  0  0  0
  9 10  1  0  0  0  0
  9 34  1  0  0  0  0
 10 11  2  0  0  0  0
 10 12  1  0  0  0  0
 12 13  1  0  0  0  0
 12 14  1  0  0  0  0
 12 35  1  0  0  0  0
 13 36  1  0  0  0  0
 13 37  1  0  0  0  0
 13 38  1  0  0  0  0
 14 18  1  0  0  0  0
 14 15  1  0  0  0  0
 15 16  2  0  0  0  0
 15 39  1  0  0  0  0
 16 17  1  0  0  0  0
 16 40  1  0  0  0  0
 17 18  2  0  0  0  0
 17 41  1  0  0  0  0
 19 42  1  0  0  0  0
 19 43  1  0  0  0  0
M  CHG  1   6   1
M  END
> <s_m_source_file>
AV-unprocessed.smi

> <i_m_source_file_index>
3338

> <i_lp_mmshare_version>
43012

> <i_f3d_flags>
0

> <s_epik_input>
W0NIM11bQ0BASF0xW0NIMl1bQ0gyXVtDSDJdTihbQ0gyXTEpW0NIMl1bQ0gyXVtOSF1DKD1PKVtDQEhdKFtDSDNdKW4yW2NIXVtjSF1bY0hdbjI=

> <s_epik_cmdline>
J2VwaWtfcHl0aG9uJywgJy1waCcsICc3LjAnLCAnLXRuJywgJzgnLCAnLW1hJywgJzIwMCcsICctbWV0YWxfYmluZGluZycsICctaW1hZScsICc8aW5maWxlLm1hZT4nLCAnLW9tYWUnLCAnPG91dGZpbGUubWFlPic=

> <r_lp_tautomer_probability>
1

> <r_epik_Ionization_Penalty>
0.00225707

> <r_epik_Ionization_Penalty_Charging>
0.00223709

> <r_epik_Ionization_Penalty_Neutral>
1.99775e-05

> <r_epik_State_Penalty>
0.00153978

> <r_epik_Charging_Adjusted_Penalty>
0.00377687

> <i_epik_Tot_Q>
1

> <i_epik_Tot_abs_Q>
1

> <r_epik_Metal_State_Penalty>
-0

> <b_epik_Metal_Only>
0

> <s_lp_Force_Field>
OPLS_2005

> <r_lp_Energy>
22.3922

> <b_lp_Chiralities_Consistent>
1

> <s_lp_Variant>
AV-unprocessed.smi:3338-6

> <Gold.Version>
5.8.1

> <Gold.Id.Protein>
6NUR|6NUR_protein|mol2

> <Gold.PLP.Fitness>
45.2862

> <Gold.PLP.PLP>
-41.4024

> <Gold.PLP.part.hbond>
-1.0000

> <Gold.PLP.part.metal>
0.0000

> <Gold.PLP.part.buried>
-5.1960

> <Gold.PLP.part.nonpolar>
-38.8992

> <Gold.PLP.part.repulsive>
2.6242

> <Gold.PLP.ligand.clash>
0.0000

> <Gold.PLP.ligand.torsion>
0.5592

> <Gold.PLP.Chemscore.Hbond>
0.8480

> <Gold.PLP.Chemscore.CHOScore>
0.7790

> <Gold.PLP.Chemscore.Metal>
0.0000

> <Gold.Chemscore.Hbonds>
donor molecule, donor type, donor heavy atom, donor atom, acceptor molecule, acceptor atom, score
      P1  H  7989  7998       L1    11  0.96
      L1  C    15    39       P1  8028  0.58

> <Gold.PLP.Chemscore.Internal.Correction>
0.1212

> <Gold.Rescore>
     Score         DG    S(hbond)    S(metal)    S(lipo)     H(rot)  DE(clash)    DE(int)     intcor
     15.46     -16.50       0.94        0.00     105.91       1.76       0.27       0.77       ----

> <Gold.Chemscore.Fitness>
15.4567

> <Gold.Chemscore.DG>
-16.4989

> <Gold.Chemscore.ZeroCoef>
-5.4800

> <Gold.Chemscore.Hbond>
0.9357

> <Gold.Chemscore.Metal>
0.0000

> <Gold.Chemscore.Lipo>
105.9113

> <Gold.Chemscore.Internal_Hbond>
0.0000

> <Gold.Chemscore.DEClash>
0.2707

> <Gold.Chemscore.DEInternal>
0.7715

> <Gold.Chemscore.Rot>
1.7570

> <Gold.Chemscore.Internal.Correction>
   9.000000E+99

> <Gold.Chemscore.Hbonds>
donor molecule, donor type, donor heavy atom, donor atom, acceptor molecule, acceptor atom, score
      P1  H  7989  7998       L1    11  0.91

> <Gold.Chemscore.Hbond.Weighted>
-3.1251

> <Gold.Chemscore.Metal.Weighted>
-0.0000

> <Gold.Chemscore.Lipo.Weighted>
-12.3916

> <Gold.Chemscore.Internal_Hbond.Weighted>
0.0000

> <Gold.Chemscore.DEClash.Weighted>
0.2707

> <Gold.Chemscore.DEInternal.Weighted>
0.7715

> <Gold.Chemscore.Rot.Weighted>
4.4979

> <Gold.Chemscore.Internal.Correction.Weighted>
   9.000000E+99

> <Gold.Protein.RotatedTorsions>
[ 6907 6896 6895 6894 ] final   16.08 input  -60.11 | X-H torsion
[ 7974 7965 7964 7962 ] final   84.73 input  175.53 | X-H torsion
[ 8008 7997 7996 7995 ] final -121.01 input   59.86 | X-H torsion
[ 10167 10162 10161 10158 ] final    0.90 input  -65.29 | X-H torsion
[ 10718 10713 10712 10709 ] final   78.01 input   66.30 | X-H torsion
[ 10763 10752 10751 10750 ] final   37.07 input  -60.55 | X-H torsion
[ 11005 11000 10999 10996 ] final  -48.27 input  -57.11 | X-H torsion

> <Gold.Protein.ActiveResidues>
 VAL166  LYS551  ARG553  GLY616  TRP617  ASP618  TYR619  PRO620  LYS621  CYS622 
 ASP623  PHE694  ASN695  SER759  ASP760  ASP761  ALA762  ILE779  LEU786  VAL792 
 PHE793  MET794  SER795  GLU796  ALA797  LYS798  CYS799  TRP800  GLU811  SER814 

> <Gold.Protein.RotatedAtoms>
  151.8282  135.0630  160.0433 H   0  0  0  0  0  0  0  0  0  0  0  0  # atno 6907 bound_to 6896
  152.2900  133.5548  159.5560 H   0  0  0  0  0  0  0  0  0  0  0  0  # atno 6908 bound_to 6896
  150.7226  134.0358  159.3791 H   0  0  0  0  0  0  0  0  0  0  0  0  # atno 6909 bound_to 6896
  145.5948  139.2343  143.2279 H   0  0  0  0  0  0  0  0  0  0  0  0  # atno 7974 bound_to 7965
  155.1410  140.0402  157.2798 H   0  0  0  0  0  0  0  0  0  0  0  0  # atno 8008 bound_to 7997
  154.6473  140.2561  155.7227 H   0  0  0  0  0  0  0  0  0  0  0  0  # atno 8009 bound_to 7997
  156.2561  140.2843  156.0892 H   0  0  0  0  0  0  0  0  0  0  0  0  # atno 8010 bound_to 7997
  140.6708  143.7055  150.7918 H   0  0  0  0  0  0  0  0  0  0  0  0  # atno 10167 bound_to 10162
  157.6730  130.9848  150.1725 H   0  0  0  0  0  0  0  0  0  0  0  0  # atno 10718 bound_to 10713
  153.0052  135.6288  154.2086 H   0  0  0  0  0  0  0  0  0  0  0  0  # atno 10763 bound_to 10752
  154.1830  135.2812  155.3048 H   0  0  0  0  0  0  0  0  0  0  0  0  # atno 10764 bound_to 10752
  154.5820  135.5644  153.7254 H   0  0  0  0  0  0  0  0  0  0  0  0  # atno 10765 bound_to 10752
  141.0691  133.6684  156.3417 H   0  0  0  0  0  0  0  0  0  0  0  0  # atno 11005 bound_to 11000
  146.1620  140.6774  142.9273 LP  0  0  0  0  0  0  0  0  0  0  0  0  # atno 17320 bound_to 7965
  144.7335  140.4741  143.6920 LP  0  0  0  0  0  0  0  0  0  0  0  0  # atno 17321 bound_to 7965
  140.0740  143.5034  152.2565 LP  0  0  0  0  0  0  0  0  0  0  0  0  # atno 17342 bound_to 10162
  139.5975  144.7572  151.3251 LP  0  0  0  0  0  0  0  0  0  0  0  0  # atno 17343 bound_to 10162
  156.2476  130.3697  149.8268 LP  0  0  0  0  0  0  0  0  0  0  0  0  # atno 17370 bound_to 10713
  156.6050  130.8562  151.3441 LP  0  0  0  0  0  0  0  0  0  0  0  0  # atno 17371 bound_to 10713
  140.5712  134.5839  157.5458 LP  0  0  0  0  0  0  0  0  0  0  0  0  # atno 17394 bound_to 11000
  139.9505  134.7625  156.0459 LP  0  0  0  0  0  0  0  0  0  0  0  0  # atno 17395 bound_to 11000

$$$$
