AV-unprocessed.smi:3132|AV-procd|sdf|11930|dock10
  -GOLD-   2272017313D 1   1.00000     0.00000
 Structure written by MMmdl.
 34 35  0  0  0  0  0  0  0  0  2 V2000
  153.0604  140.1389  159.4855 C   0  0  0  0  0  0  0  0  0  0  0  0
  152.1671  141.2407  158.9004 C   0  0  1  0  0  0  0  0  0  0  0  0
  152.8473  142.6236  159.0049 C   0  0  0  0  0  0  0  0  0  0  0  0
  151.8920  143.7275  159.1454 N   0  0  0  0  0  0  0  0  0  0  0  0
  151.8041  144.6272  160.1770 C   0  0  0  0  0  0  0  0  0  0  0  0
  150.7729  145.4763  159.8676 C   0  0  0  0  0  0  0  0  0  0  0  0
  150.2715  145.0553  158.6651 N   0  3  0  0  0  0  0  0  0  0  0  0
  150.9498  143.9885  158.2303 C   0  0  0  0  0  0  0  0  0  0  0  0
  151.8571  140.9062  157.5110 N   0  0  0  0  0  0  0  0  0  0  0  0
  150.6728  140.4716  157.0514 C   0  0  0  0  0  0  0  0  0  0  0  0
  149.6837  140.3225  157.7704 O   0  0  0  0  0  0  0  0  0  0  0  0
  150.6022  140.1573  155.5498 C   0  0  2  0  0  0  0  0  0  0  0  0
  150.1412  138.7186  155.2406 C   0  0  0  0  0  0  0  0  0  0  0  0
  151.2842  138.1238  154.4360 C   0  0  0  0  0  0  0  0  0  0  0  0
  152.4750  138.9679  154.8653 C   0  0  0  0  0  0  0  0  0  0  0  0
  151.9122  140.2652  154.9946 O   0  0  0  0  0  0  0  0  0  0  0  0
  153.2836  140.3310  160.5352 H   0  0  0  0  0  0  0  0  0  0  0  0
  154.0086  140.0698  158.9511 H   0  0  0  0  0  0  0  0  0  0  0  0
  152.5728  139.1650  159.4276 H   0  0  0  0  0  0  0  0  0  0  0  0
  151.2470  141.2515  159.4876 H   0  0  0  0  0  0  0  0  0  0  0  0
  153.5081  142.6571  159.8723 H   0  0  0  0  0  0  0  0  0  0  0  0
  153.4675  142.8186  158.1287 H   0  0  0  0  0  0  0  0  0  0  0  0
  152.4690  144.6016  161.0281 H   0  0  0  0  0  0  0  0  0  0  0  0
  150.3690  146.3260  160.3986 H   0  0  0  0  0  0  0  0  0  0  0  0
  150.7775  143.4506  157.3150 H   0  0  0  0  0  0  0  0  0  0  0  0
  152.6129  140.9908  156.8464 H   0  0  0  0  0  0  0  0  0  0  0  0
  149.9577  140.8798  155.0467 H   0  0  0  0  0  0  0  0  0  0  0  0
  149.9770  138.1342  156.1471 H   0  0  0  0  0  0  0  0  0  0  0  0
  149.2089  138.7035  154.6750 H   0  0  0  0  0  0  0  0  0  0  0  0
  151.4287  137.0590  154.6193 H   0  0  0  0  0  0  0  0  0  0  0  0
  151.0999  138.2639  153.3700 H   0  0  0  0  0  0  0  0  0  0  0  0
  152.8658  138.6326  155.8271 H   0  0  0  0  0  0  0  0  0  0  0  0
  153.2879  138.9529  154.1392 H   0  0  0  0  0  0  0  0  0  0  0  0
  149.5005  145.4883  158.1722 H   0  0  0  0  0  0  0  0  0  0  0  0
  1  2  1  0  0  0  0
  1 17  1  0  0  0  0
  1 18  1  0  0  0  0
  1 19  1  0  0  0  0
  2  3  1  0  0  0  0
  2  9  1  0  0  0  0
  2 20  1  0  0  0  0
  3  4  1  0  0  0  0
  3 21  1  0  0  0  0
  3 22  1  0  0  0  0
  4  8  1  0  0  0  0
  4  5  1  0  0  0  0
  5  6  2  0  0  0  0
  5 23  1  0  0  0  0
  6  7  1  0  0  0  0
  6 24  1  0  0  0  0
  7  8  2  0  0  0  0
  7 34  1  0  0  0  0
  8 25  1  0  0  0  0
  9 10  1  0  0  0  0
  9 26  1  0  0  0  0
 10 11  2  0  0  0  0
 10 12  1  0  0  0  0
 12 16  1  0  0  0  0
 12 13  1  0  0  0  0
 12 27  1  0  0  0  0
 13 14  1  0  0  0  0
 13 28  1  0  0  0  0
 13 29  1  0  0  0  0
 14 15  1  0  0  0  0
 14 30  1  0  0  0  0
 14 31  1  0  0  0  0
 15 16  1  0  0  0  0
 15 32  1  0  0  0  0
 15 33  1  0  0  0  0
M  CHG  1   7   1
M  END
> <s_m_source_file>
AV-unprocessed.smi

> <i_m_source_file_index>
3132

> <i_lp_mmshare_version>
43012

> <i_f3d_flags>
0

> <s_epik_input>
W2NIXTFuW2NIXVtjSF1uMVtDSDJdW0NAQEhdKFtDSDNdKVtOSF1DKD1PKVtDQEBIXTJbQ0gyXVtDSDJdW0NIMl1PMg==

> <s_epik_cmdline>
J2VwaWtfcHl0aG9uJywgJy1waCcsICc3LjAnLCAnLXRuJywgJzgnLCAnLW1hJywgJzIwMCcsICctbWV0YWxfYmluZGluZycsICctaW1hZScsICc8aW5maWxlLm1hZT4nLCAnLW9tYWUnLCAnPG91dGZpbGUubWFlPic=

> <r_lp_tautomer_probability>
1

> <r_epik_Ionization_Penalty>
0.250802

> <r_epik_Ionization_Penalty_Charging>
0

> <r_epik_Ionization_Penalty_Neutral>
0.250802

> <r_epik_State_Penalty>
0.242139

> <r_epik_Charging_Adjusted_Penalty>
0.242139

> <i_epik_Tot_Q>
1

> <i_epik_Tot_abs_Q>
1

> <r_epik_Metal_State_Penalty>
0.533361

> <b_epik_Metal_Only>
0

> <s_lp_Force_Field>
OPLS_2005

> <r_lp_Energy>
21.4246

> <b_lp_Chiralities_Consistent>
1

> <s_lp_Variant>
AV-unprocessed.smi:3132-2

> <Gold.Version>
5.8.1

> <Gold.Id.Protein>
6NUR|6NUR_protein|mol2

> <Gold.PLP.Fitness>
43.8588

> <Gold.PLP.PLP>
-36.0554

> <Gold.PLP.part.hbond>
-2.1376

> <Gold.PLP.part.metal>
0.0000

> <Gold.PLP.part.buried>
-4.3669

> <Gold.PLP.part.nonpolar>
-30.5175

> <Gold.PLP.part.repulsive>
0.3430

> <Gold.PLP.ligand.clash>
0.0000

> <Gold.PLP.ligand.torsion>
0.5460

> <Gold.PLP.Chemscore.Hbond>
2.8320

> <Gold.PLP.Chemscore.CHOScore>
0.1287

> <Gold.PLP.Chemscore.Metal>
0.0000

> <Gold.Chemscore.Hbonds>
donor molecule, donor type, donor heavy atom, donor atom, acceptor molecule, acceptor atom, score
      L1  H     7    34       P1  8029  2.00
      P1  H  7989  7998       L1    16  0.80
      L1  C     8    25       P1  8028  0.21

> <Gold.PLP.Chemscore.Internal.Correction>
0.0134

> <Gold.Rescore>
     Score         DG    S(hbond)    S(metal)    S(lipo)     H(rot)  DE(clash)    DE(int)     intcor
     14.34     -14.82       1.71        0.00      73.39       1.93       0.02       0.46       ----

> <Gold.Chemscore.Fitness>
14.3359

> <Gold.Chemscore.DG>
-14.8209

> <Gold.Chemscore.ZeroCoef>
-5.4800

> <Gold.Chemscore.Hbond>
1.7056

> <Gold.Chemscore.Metal>
0.0000

> <Gold.Chemscore.Lipo>
73.3944

> <Gold.Chemscore.Internal_Hbond>
0.0000

> <Gold.Chemscore.DEClash>
0.0234

> <Gold.Chemscore.DEInternal>
0.4616

> <Gold.Chemscore.Rot>
1.9308

> <Gold.Chemscore.Internal.Correction>
   9.000000E+99

> <Gold.Chemscore.Hbonds>
donor molecule, donor type, donor heavy atom, donor atom, acceptor molecule, acceptor atom, score
      L1  H     7    34       P1  8029  0.55
      P1  H  7989  7998       L1    16  0.25

> <Gold.Chemscore.Hbond.Weighted>
-5.6966

> <Gold.Chemscore.Metal.Weighted>
-0.0000

> <Gold.Chemscore.Lipo.Weighted>
-8.5871

> <Gold.Chemscore.Internal_Hbond.Weighted>
0.0000

> <Gold.Chemscore.DEClash.Weighted>
0.0234

> <Gold.Chemscore.DEInternal.Weighted>
0.4616

> <Gold.Chemscore.Rot.Weighted>
4.9429

> <Gold.Chemscore.Internal.Correction.Weighted>
   9.000000E+99

> <Gold.Protein.RotatedTorsions>
[ 6907 6896 6895 6894 ] final  -42.08 input  -60.11 | X-H torsion
[ 7974 7965 7964 7962 ] final  -15.72 input  175.53 | X-H torsion
[ 8008 7997 7996 7995 ] final  103.29 input   59.86 | X-H torsion
[ 10167 10162 10161 10158 ] final   54.83 input  -65.29 | X-H torsion
[ 10718 10713 10712 10709 ] final  -35.96 input   66.30 | X-H torsion
[ 10763 10752 10751 10750 ] final -170.68 input  -60.55 | X-H torsion
[ 11005 11000 10999 10996 ] final  169.40 input  -57.11 | X-H torsion

> <Gold.Protein.ActiveResidues>
 VAL166  LYS551  ARG553  GLY616  TRP617  ASP618  TYR619  PRO620  LYS621  CYS622 
 ASP623  PHE694  ASN695  SER759  ASP760  ASP761  ALA762  ILE779  LEU786  VAL792 
 PHE793  MET794  SER795  GLU796  ALA797  LYS798  CYS799  TRP800  GLU811  SER814 

> <Gold.Protein.RotatedAtoms>
  150.9593  134.8983  159.7720 H   0  0  0  0  0  0  0  0  0  0  0  0  # atno 6907 bound_to 6896
  152.5150  134.3695  159.9323 H   0  0  0  0  0  0  0  0  0  0  0  0  # atno 6908 bound_to 6896
  151.3707  133.3815  159.2734 H   0  0  0  0  0  0  0  0  0  0  0  0  # atno 6909 bound_to 6896
  146.2019  140.3534  142.8420 H   0  0  0  0  0  0  0  0  0  0  0  0  # atno 7974 bound_to 7965
  156.1471  140.3167  155.8587 H   0  0  0  0  0  0  0  0  0  0  0  0  # atno 8008 bound_to 7997
  155.4044  140.0502  157.3052 H   0  0  0  0  0  0  0  0  0  0  0  0  # atno 8009 bound_to 7997
  154.5025  140.2135  155.9329 H   0  0  0  0  0  0  0  0  0  0  0  0  # atno 8010 bound_to 7997
  140.2259  144.3738  150.6432 H   0  0  0  0  0  0  0  0  0  0  0  0  # atno 10167 bound_to 10162
  156.3325  130.4281  149.7859 H   0  0  0  0  0  0  0  0  0  0  0  0  # atno 10718 bound_to 10713
  154.6389  135.2896  155.0128 H   0  0  0  0  0  0  0  0  0  0  0  0  # atno 10763 bound_to 10752
  154.1261  135.6540  153.4916 H   0  0  0  0  0  0  0  0  0  0  0  0  # atno 10764 bound_to 10752
  153.0316  135.5299  154.7247 H   0  0  0  0  0  0  0  0  0  0  0  0  # atno 10765 bound_to 10752
  140.2974  134.7623  157.3888 H   0  0  0  0  0  0  0  0  0  0  0  0  # atno 11005 bound_to 11000
  144.8703  140.7264  143.6051 LP  0  0  0  0  0  0  0  0  0  0  0  0  # atno 17320 bound_to 7965
  145.3453  139.1721  143.4463 LP  0  0  0  0  0  0  0  0  0  0  0  0  # atno 17321 bound_to 7965
  140.6220  143.2177  151.6673 LP  0  0  0  0  0  0  0  0  0  0  0  0  # atno 17342 bound_to 10162
  139.5127  144.3467  152.0690 LP  0  0  0  0  0  0  0  0  0  0  0  0  # atno 17343 bound_to 10162
  156.5126  130.8179  151.3174 LP  0  0  0  0  0  0  0  0  0  0  0  0  # atno 17370 bound_to 10713
  157.7433  130.9909  150.2581 LP  0  0  0  0  0  0  0  0  0  0  0  0  # atno 17371 bound_to 10713
  140.1140  134.5307  155.8241 LP  0  0  0  0  0  0  0  0  0  0  0  0  # atno 17394 bound_to 11000
  141.2135  133.6734  156.6743 LP  0  0  0  0  0  0  0  0  0  0  0  0  # atno 17395 bound_to 11000

$$$$
