AV-unprocessed.smi:2330|AV-procd|sdf|9312|dock2
  -GOLD-   2272012533D 1   1.00000     0.00000
 Structure written by MMmdl.
 42 43  0  0  0  0  0  0  0  0  1 V2000
  148.6715  140.0557  152.8083 C   0  0  0  0  0  0  0  0  0  0  0  0
  148.0508  140.1261  154.2108 C   0  0  2  0  0  0  0  0  0  0  0  0
  147.5174  141.5383  154.5188 C   0  0  0  0  0  0  0  0  0  0  0  0
  146.9030  141.6213  155.9281 C   0  0  0  0  0  0  0  0  0  0  0  0
  147.8878  141.1634  157.0210 C   0  0  2  0  0  0  0  0  0  0  0  0
  148.9662  142.1396  157.1678 N   0  0  0  0  0  0  0  0  0  0  0  0
  149.8625  142.1648  158.1635 C   0  0  0  0  0  0  0  0  0  0  0  0
  149.8763  141.3670  159.1012 O   0  0  0  0  0  0  0  0  0  0  0  0
  150.7511  143.1554  158.0029 N   0  0  0  0  0  0  0  0  0  0  0  0
  151.8716  143.4416  158.8940 C   0  0  0  0  0  0  0  0  0  0  0  0
  151.4603  144.3252  160.0911 C   0  0  2  0  0  0  0  0  0  0  0  0
  152.0698  145.7381  160.0854 C   0  0  0  0  0  0  0  0  0  0  0  0
  151.7058  143.6300  161.3940 C   0  0  0  0  0  0  0  0  0  0  0  0
  151.3822  144.1448  162.5848 N   0  0  0  0  0  0  0  0  0  0  0  0
  151.7160  143.2977  163.6441 C   0  0  0  0  0  0  0  0  0  0  0  0
  152.3005  142.1238  163.2424 C   0  0  0  0  0  0  0  0  0  0  0  0
  152.4547  142.0401  161.5092 S   0  0  0  0  0  0  0  0  0  0  0  0
  148.4391  139.7573  156.7018 C   0  0  0  0  0  0  0  0  0  0  0  0
  149.0527  139.6796  155.2927 C   0  0  0  0  0  0  0  0  0  0  0  0
  149.5262  140.7270  152.7190 H   0  0  0  0  0  0  0  0  0  0  0  0
  147.9465  140.3359  152.0437 H   0  0  0  0  0  0  0  0  0  0  0  0
  149.0159  139.0465  152.5810 H   0  0  0  0  0  0  0  0  0  0  0  0
  147.2057  139.4361  154.2309 H   0  0  0  0  0  0  0  0  0  0  0  0
  148.3253  142.2656  154.4274 H   0  0  0  0  0  0  0  0  0  0  0  0
  146.7676  141.8217  153.7793 H   0  0  0  0  0  0  0  0  0  0  0  0
  146.5632  142.6382  156.1282 H   0  0  0  0  0  0  0  0  0  0  0  0
  146.0122  140.9931  155.9644 H   0  0  0  0  0  0  0  0  0  0  0  0
  147.3427  141.1183  157.9655 H   0  0  0  0  0  0  0  0  0  0  0  0
  149.0427  142.8389  156.4437 H   0  0  0  0  0  0  0  0  0  0  0  0
  150.6510  143.7539  157.1960 H   0  0  0  0  0  0  0  0  0  0  0  0
  152.2424  142.4836  159.2602 H   0  0  0  0  0  0  0  0  0  0  0  0
  152.7000  143.8977  158.3489 H   0  0  0  0  0  0  0  0  0  0  0  0
  150.3799  144.4593  160.0220 H   0  0  0  0  0  0  0  0  0  0  0  0
  151.7176  146.3182  160.9392 H   0  0  0  0  0  0  0  0  0  0  0  0
  151.7984  146.2912  159.1866 H   0  0  0  0  0  0  0  0  0  0  0  0
  153.1584  145.6986  160.1360 H   0  0  0  0  0  0  0  0  0  0  0  0
  151.5014  143.6102  164.6554 H   0  0  0  0  0  0  0  0  0  0  0  0
  152.6481  141.3072  163.8579 H   0  0  0  0  0  0  0  0  0  0  0  0
  149.1766  139.4562  157.4466 H   0  0  0  0  0  0  0  0  0  0  0  0
  147.6275  139.0325  156.7748 H   0  0  0  0  0  0  0  0  0  0  0  0
  149.3804  138.6582  155.0964 H   0  0  0  0  0  0  0  0  0  0  0  0
  149.9478  140.3014  155.2480 H   0  0  0  0  0  0  0  0  0  0  0  0
  1  2  1  0  0  0  0
  1 20  1  0  0  0  0
  1 21  1  0  0  0  0
  1 22  1  0  0  0  0
  2 19  1  0  0  0  0
  2  3  1  0  0  0  0
  2 23  1  0  0  0  0
  3  4  1  0  0  0  0
  3 24  1  0  0  0  0
  3 25  1  0  0  0  0
  4  5  1  0  0  0  0
  4 26  1  0  0  0  0
  4 27  1  0  0  0  0
  5  6  1  0  0  0  0
  5 18  1  0  0  0  0
  5 28  1  0  0  0  0
  6  7  1  0  0  0  0
  6 29  1  0  0  0  0
  7  8  2  0  0  0  0
  7  9  1  0  0  0  0
  9 10  1  0  0  0  0
  9 30  1  0  0  0  0
 10 11  1  0  0  0  0
 10 31  1  0  0  0  0
 10 32  1  0  0  0  0
 11 12  1  0  0  0  0
 11 13  1  0  0  0  0
 11 33  1  0  0  0  0
 12 34  1  0  0  0  0
 12 35  1  0  0  0  0
 12 36  1  0  0  0  0
 13 17  1  0  0  0  0
 13 14  2  0  0  0  0
 14 15  1  0  0  0  0
 15 16  2  0  0  0  0
 15 37  1  0  0  0  0
 16 17  1  0  0  0  0
 16 38  1  0  0  0  0
 18 19  1  0  0  0  0
 18 39  1  0  0  0  0
 18 40  1  0  0  0  0
 19 41  1  0  0  0  0
 19 42  1  0  0  0  0
M  END
> <s_m_source_file>
AV-unprocessed.smi

> <i_m_source_file_index>
2330

> <i_lp_mmshare_version>
43012

> <i_f3d_flags>
0

> <s_epik_input>
W0NIM11bQ0BASF0xW0NIMl1bQ0gyXVtDQEhdKFtDSDJdW0NIMl0xKVtOSF1DKD1PKVtOSF1bQ0gyXVtDQEhdKFtDSDNdKWMybltjSF1bY0hdczI=

> <s_epik_cmdline>
J2VwaWtfcHl0aG9uJywgJy1waCcsICc3LjAnLCAnLXRuJywgJzgnLCAnLW1hJywgJzIwMCcsICctbWV0YWxfYmluZGluZycsICctaW1hZScsICc8aW5maWxlLm1hZT4nLCAnLW9tYWUnLCAnPG91dGZpbGUubWFlPic=

> <r_lp_tautomer_probability>
1

> <r_epik_Ionization_Penalty>
0.000331107

> <r_epik_Ionization_Penalty_Charging>
0

> <r_epik_Ionization_Penalty_Neutral>
0.000331107

> <r_epik_State_Penalty>
-0

> <r_epik_Charging_Adjusted_Penalty>
0

> <i_epik_Tot_Q>
0

> <i_epik_Tot_abs_Q>
0

> <r_epik_Metal_State_Penalty>
-0

> <b_epik_Metal_Only>
0

> <s_lp_Force_Field>
OPLS_2005

> <r_lp_Energy>
-1.48662

> <b_lp_Chiralities_Consistent>
1

> <s_lp_Variant>
AV-unprocessed.smi:2330-3

> <Gold.Version>
5.8.1

> <Gold.Id.Protein>
6NUR|6NUR_protein|mol2

> <Gold.PLP.Fitness>
43.4191

> <Gold.PLP.PLP>
-39.8819

> <Gold.PLP.part.hbond>
-2.0000

> <Gold.PLP.part.metal>
0.0000

> <Gold.PLP.part.buried>
-5.5152

> <Gold.PLP.part.nonpolar>
-32.2544

> <Gold.PLP.part.repulsive>
0.2210

> <Gold.PLP.ligand.clash>
0.0000

> <Gold.PLP.ligand.torsion>
1.0515

> <Gold.PLP.Chemscore.Hbond>
1.8400

> <Gold.PLP.Chemscore.CHOScore>
0.0000

> <Gold.PLP.Chemscore.Metal>
0.0000

> <Gold.Chemscore.Hbonds>
donor molecule, donor type, donor heavy atom, donor atom, acceptor molecule, acceptor atom, score
      L1  H     6    29       P1  8028  0.98

> <Gold.PLP.Chemscore.Internal.Correction>
0.1202

> <Gold.Rescore>
     Score         DG    S(hbond)    S(metal)    S(lipo)     H(rot)  DE(clash)    DE(int)     intcor
     16.53     -21.54       1.86        0.00     116.10       1.45       2.54       2.48       ----

> <Gold.Chemscore.Fitness>
16.5268

> <Gold.Chemscore.DG>
-21.5405

> <Gold.Chemscore.ZeroCoef>
-5.4800

> <Gold.Chemscore.Hbond>
1.8555

> <Gold.Chemscore.Metal>
0.0000

> <Gold.Chemscore.Lipo>
116.1047

> <Gold.Chemscore.Internal_Hbond>
0.0000

> <Gold.Chemscore.DEClash>
2.5358

> <Gold.Chemscore.DEInternal>
2.4779

> <Gold.Chemscore.Rot>
1.4536

> <Gold.Chemscore.Internal.Correction>
   9.000000E+99

> <Gold.Chemscore.Hbonds>
donor molecule, donor type, donor heavy atom, donor atom, acceptor molecule, acceptor atom, score
      L1  H     6    29       P1  8028  0.89
      L1  H     9    30       P1  8028  0.01

> <Gold.Chemscore.Hbond.Weighted>
-6.1974

> <Gold.Chemscore.Metal.Weighted>
-0.0000

> <Gold.Chemscore.Lipo.Weighted>
-13.5843

> <Gold.Chemscore.Internal_Hbond.Weighted>
0.0000

> <Gold.Chemscore.DEClash.Weighted>
2.5358

> <Gold.Chemscore.DEInternal.Weighted>
2.4779

> <Gold.Chemscore.Rot.Weighted>
3.7212

> <Gold.Chemscore.Internal.Correction.Weighted>
   9.000000E+99

> <Gold.Protein.RotatedTorsions>
[ 6907 6896 6895 6894 ] final -129.98 input  -60.11 | X-H torsion
[ 7974 7965 7964 7962 ] final  135.11 input  175.53 | X-H torsion
[ 8008 7997 7996 7995 ] final  -57.08 input   59.86 | X-H torsion
[ 10167 10162 10161 10158 ] final   13.16 input  -65.29 | X-H torsion
[ 10718 10713 10712 10709 ] final   39.25 input   66.30 | X-H torsion
[ 10763 10752 10751 10750 ] final  -32.52 input  -60.55 | X-H torsion
[ 11005 11000 10999 10996 ] final -155.56 input  -57.11 | X-H torsion

> <Gold.Protein.ActiveResidues>
 VAL166  LYS551  ARG553  GLY616  TRP617  ASP618  TYR619  PRO620  LYS621  CYS622 
 ASP623  PHE694  ASN695  SER759  ASP760  ASP761  ALA762  ILE779  LEU786  VAL792 
 PHE793  MET794  SER795  GLU796  ALA797  LYS798  CYS799  TRP800  GLU811  SER814 

> <Gold.Protein.RotatedAtoms>
  150.9347  133.6726  159.2803 H   0  0  0  0  0  0  0  0  0  0  0  0  # atno 6907 bound_to 6896
  151.4136  135.0987  159.9602 H   0  0  0  0  0  0  0  0  0  0  0  0  # atno 6908 bound_to 6896
  152.5042  133.8814  159.7403 H   0  0  0  0  0  0  0  0  0  0  0  0  # atno 6909 bound_to 6896
  144.9696  139.4619  143.5439 H   0  0  0  0  0  0  0  0  0  0  0  0  # atno 7974 bound_to 7965
  154.4254  140.1115  156.5741 H   0  0  0  0  0  0  0  0  0  0  0  0  # atno 8008 bound_to 7997
  155.6181  140.3495  155.4624 H   0  0  0  0  0  0  0  0  0  0  0  0  # atno 8009 bound_to 7997
  156.0046  140.1206  157.0504 H   0  0  0  0  0  0  0  0  0  0  0  0  # atno 8010 bound_to 7997
  140.6021  143.8584  150.6975 H   0  0  0  0  0  0  0  0  0  0  0  0  # atno 10167 bound_to 10162
  157.3683  130.7687  149.7100 H   0  0  0  0  0  0  0  0  0  0  0  0  # atno 10718 bound_to 10713
  153.8151  135.6879  153.4835 H   0  0  0  0  0  0  0  0  0  0  0  0  # atno 10763 bound_to 10752
  153.1604  135.4582  154.9762 H   0  0  0  0  0  0  0  0  0  0  0  0  # atno 10764 bound_to 10752
  154.7951  135.3316  154.7628 H   0  0  0  0  0  0  0  0  0  0  0  0  # atno 10765 bound_to 10752
  140.6851  134.4102  157.5224 H   0  0  0  0  0  0  0  0  0  0  0  0  # atno 11005 bound_to 11000
  146.3378  139.8900  142.8810 LP  0  0  0  0  0  0  0  0  0  0  0  0  # atno 17320 bound_to 7965
  145.2578  141.0066  143.3844 LP  0  0  0  0  0  0  0  0  0  0  0  0  # atno 17321 bound_to 7965
  140.2132  143.3867  152.1702 LP  0  0  0  0  0  0  0  0  0  0  0  0  # atno 17342 bound_to 10162
  139.5298  144.7146  151.5096 LP  0  0  0  0  0  0  0  0  0  0  0  0  # atno 17343 bound_to 10162
  155.9750  130.4094  150.3878 LP  0  0  0  0  0  0  0  0  0  0  0  0  # atno 17370 bound_to 10713
  157.1965  131.0428  151.2673 LP  0  0  0  0  0  0  0  0  0  0  0  0  # atno 17371 bound_to 10713
  139.8940  134.8717  156.2198 LP  0  0  0  0  0  0  0  0  0  0  0  0  # atno 17394 bound_to 11000
  141.0286  133.7001  156.1391 LP  0  0  0  0  0  0  0  0  0  0  0  0  # atno 17395 bound_to 11000

$$$$
