AV-unprocessed.smi:2741|AV-procd|sdf|10561|dock4
  -GOLD-   2272015 13D 1   1.00000     0.00000
 Structure written by MMmdl.
 39 40  0  0  0  0  0  0  0  0  1 V2000
  150.4668  141.3075  158.1090 O   0  0  0  0  0  0  0  0  0  0  0  0
  150.7883  142.2500  157.3837 C   0  0  0  0  0  0  0  0  0  0  0  0
  151.5526  143.4569  157.9460 C   0  0  0  0  0  0  0  0  0  0  0  0
  152.0347  143.2588  159.3235 N   0  0  0  0  0  0  0  0  0  0  0  0
  152.7522  142.0753  159.5871 C   0  0  0  0  0  0  0  0  0  0  0  0
  153.2415  141.7707  160.8045 C   0  0  0  0  0  0  0  0  0  0  0  0
  154.0560  140.5104  161.0521 C   0  0  0  0  0  0  0  0  0  0  0  0
  153.3566  139.4213  160.7327 F   0  0  0  0  0  0  0  0  0  0  0  0
  155.1577  140.5291  160.3031 F   0  0  0  0  0  0  0  0  0  0  0  0
  154.4238  140.4123  162.3302 F   0  0  0  0  0  0  0  0  0  0  0  0
  153.0241  142.7503  161.8506 C   0  0  0  0  0  0  0  0  0  0  0  0
  152.3404  143.8872  161.6154 C   0  0  0  0  0  0  0  0  0  0  0  0
  151.7906  144.1915  160.2923 C   0  0  0  0  0  0  0  0  0  0  0  0
  151.1542  145.2213  160.0677 O   0  0  0  0  0  0  0  0  0  0  0  0
  150.5235  142.2884  156.0693 N   0  0  0  0  0  0  0  0  0  0  0  0
  149.8414  141.2411  155.3163 C   0  0  0  0  0  0  0  0  0  0  0  0
  148.6977  141.8031  154.4494 C   0  0  1  0  0  0  0  0  0  0  0  0
  148.1435  140.7942  153.4373 C   0  0  0  0  0  0  0  0  0  0  0  0
  146.7483  141.3241  153.1167 C   0  0  0  0  0  0  0  0  0  0  0  0
  146.2320  141.8122  154.4716 C   0  0  2  0  0  0  0  0  0  0  0  0
  145.2594  142.8263  154.3315 O   0  0  0  0  0  0  0  0  0  0  0  0
  147.4710  142.2944  155.2440 C   0  0  0  0  0  0  0  0  0  0  0  0
  152.3887  143.6689  157.2781 H   0  0  0  0  0  0  0  0  0  0  0  0
  150.9162  144.3421  157.8924 H   0  0  0  0  0  0  0  0  0  0  0  0
  152.8749  141.4258  158.7325 H   0  0  0  0  0  0  0  0  0  0  0  0
  153.4117  142.5666  162.8419 H   0  0  0  0  0  0  0  0  0  0  0  0
  152.1942  144.5930  162.4201 H   0  0  0  0  0  0  0  0  0  0  0  0
  150.8249  143.0997  155.5492 H   0  0  0  0  0  0  0  0  0  0  0  0
  150.5582  140.7008  154.6957 H   0  0  0  0  0  0  0  0  0  0  0  0
  149.4468  140.5176  156.0305 H   0  0  0  0  0  0  0  0  0  0  0  0
  149.0780  142.6512  153.8772 H   0  0  0  0  0  0  0  0  0  0  0  0
  148.7710  140.7038  152.5501 H   0  0  0  0  0  0  0  0  0  0  0  0
  148.0634  139.8055  153.8918 H   0  0  0  0  0  0  0  0  0  0  0  0
  146.8291  142.1562  152.4153 H   0  0  0  0  0  0  0  0  0  0  0  0
  146.1019  140.5697  152.6675 H   0  0  0  0  0  0  0  0  0  0  0  0
  145.7847  140.9722  155.0051 H   0  0  0  0  0  0  0  0  0  0  0  0
  145.6402  143.6480  154.6018 H   0  0  0  0  0  0  0  0  0  0  0  0
  147.4551  141.8885  156.2564 H   0  0  0  0  0  0  0  0  0  0  0  0
  147.4996  143.3812  155.3361 H   0  0  0  0  0  0  0  0  0  0  0  0
  1  2  2  0  0  0  0
  2  3  1  0  0  0  0
  2 15  1  0  0  0  0
  3  4  1  0  0  0  0
  3 23  1  0  0  0  0
  3 24  1  0  0  0  0
  4 13  1  0  0  0  0
  4  5  1  0  0  0  0
  5  6  2  0  0  0  0
  5 25  1  0  0  0  0
  6  7  1  0  0  0  0
  6 11  1  0  0  0  0
  7  8  1  0  0  0  0
  7  9  1  0  0  0  0
  7 10  1  0  0  0  0
 11 12  2  0  0  0  0
 11 26  1  0  0  0  0
 12 13  1  0  0  0  0
 12 27  1  0  0  0  0
 13 14  2  0  0  0  0
 15 16  1  0  0  0  0
 15 28  1  0  0  0  0
 16 17  1  0  0  0  0
 16 29  1  0  0  0  0
 16 30  1  0  0  0  0
 17 22  1  0  0  0  0
 17 18  1  0  0  0  0
 17 31  1  0  0  0  0
 18 19  1  0  0  0  0
 18 32  1  0  0  0  0
 18 33  1  0  0  0  0
 19 20  1  0  0  0  0
 19 34  1  0  0  0  0
 19 35  1  0  0  0  0
 20 21  1  0  0  0  0
 20 22  1  0  0  0  0
 20 36  1  0  0  0  0
 21 37  1  0  0  0  0
 22 38  1  0  0  0  0
 22 39  1  0  0  0  0
M  END
> <s_m_source_file>
AV-unprocessed.smi

> <i_m_source_file_index>
2741

> <i_lp_mmshare_version>
43012

> <i_f3d_flags>
0

> <s_epik_input>
W09IXVtDQEBIXShbQ0gyXTEpW0NIMl1bQ0gyXVtDQEhdMVtDSDJdW05IXUMoPU8pW0NIMl1uMltjSF1jKEMoRikoRilGKVtjSF1bY0hdYzI9Tw==

> <s_epik_cmdline>
J2VwaWtfcHl0aG9uJywgJy1waCcsICc3LjAnLCAnLXRuJywgJzgnLCAnLW1hJywgJzIwMCcsICctbWV0YWxfYmluZGluZycsICctaW1hZScsICc8aW5maWxlLm1hZT4nLCAnLW9tYWUnLCAnPG91dGZpbGUubWFlPic=

> <r_lp_tautomer_probability>
1

> <r_epik_Ionization_Penalty>
1.17551e-06

> <r_epik_Ionization_Penalty_Charging>
1.78841e-08

> <r_epik_Ionization_Penalty_Neutral>
1.15762e-06

> <r_epik_State_Penalty>
-0

> <r_epik_Charging_Adjusted_Penalty>
1.78841e-08

> <i_epik_Tot_Q>
0

> <i_epik_Tot_abs_Q>
0

> <r_epik_Metal_State_Penalty>
-0

> <b_epik_Metal_Only>
0

> <s_lp_Force_Field>
OPLS_2005

> <r_lp_Energy>
34.082

> <b_lp_Chiralities_Consistent>
1

> <s_lp_Variant>
AV-unprocessed.smi:2741-4

> <Gold.Version>
5.8.1

> <Gold.Id.Protein>
6NUR|6NUR_protein|mol2

> <Gold.PLP.Fitness>
49.6814

> <Gold.PLP.PLP>
-50.2803

> <Gold.PLP.part.hbond>
-1.7756

> <Gold.PLP.part.metal>
0.0000

> <Gold.PLP.part.buried>
1.2272

> <Gold.PLP.part.nonpolar>
-49.2259

> <Gold.PLP.part.repulsive>
0.3196

> <Gold.PLP.ligand.clash>
0.0000

> <Gold.PLP.ligand.torsion>
0.3325

> <Gold.PLP.Chemscore.Hbond>
0.0083

> <Gold.PLP.Chemscore.CHOScore>
0.0000

> <Gold.PLP.Chemscore.Metal>
0.0000

> <Gold.PLP.Chemscore.Internal.Correction>
0.0411

> <Gold.Rescore>
     Score         DG    S(hbond)    S(metal)    S(lipo)     H(rot)  DE(clash)    DE(int)     intcor
      8.65     -11.86       0.01        0.00     108.52       2.48       1.60       1.61       ----

> <Gold.Chemscore.Fitness>
8.6521

> <Gold.Chemscore.DG>
-11.8574

> <Gold.Chemscore.ZeroCoef>
-5.4800

> <Gold.Chemscore.Hbond>
0.0093

> <Gold.Chemscore.Metal>
0.0000

> <Gold.Chemscore.Lipo>
108.5215

> <Gold.Chemscore.Internal_Hbond>
0.0000

> <Gold.Chemscore.DEClash>
1.5961

> <Gold.Chemscore.DEInternal>
1.6093

> <Gold.Chemscore.Rot>
2.4807

> <Gold.Chemscore.Internal.Correction>
   9.000000E+99

> <Gold.Chemscore.Hbond.Weighted>
-0.0311

> <Gold.Chemscore.Metal.Weighted>
-0.0000

> <Gold.Chemscore.Lipo.Weighted>
-12.6970

> <Gold.Chemscore.Internal_Hbond.Weighted>
0.0000

> <Gold.Chemscore.DEClash.Weighted>
1.5961

> <Gold.Chemscore.DEInternal.Weighted>
1.6093

> <Gold.Chemscore.Rot.Weighted>
6.3507

> <Gold.Chemscore.Internal.Correction.Weighted>
   9.000000E+99

> <Gold.Protein.RotatedTorsions>
[ 6907 6896 6895 6894 ] final  -54.43 input  -60.11 | X-H torsion
[ 7974 7965 7964 7962 ] final -115.34 input  175.53 | X-H torsion
[ 8008 7997 7996 7995 ] final  -37.27 input   59.86 | X-H torsion
[ 10167 10162 10161 10158 ] final   62.22 input  -65.29 | X-H torsion
[ 10718 10713 10712 10709 ] final  157.59 input   66.30 | X-H torsion
[ 10763 10752 10751 10750 ] final  -73.79 input  -60.55 | X-H torsion
[ 11005 11000 10999 10996 ] final  -52.90 input  -57.11 | X-H torsion

> <Gold.Protein.ActiveResidues>
 VAL166  LYS551  ARG553  GLY616  TRP617  ASP618  TYR619  PRO620  LYS621  CYS622 
 ASP623  PHE694  ASN695  SER759  ASP760  ASP761  ALA762  ILE779  LEU786  VAL792 
 PHE793  MET794  SER795  GLU796  ALA797  LYS798  CYS799  TRP800  GLU811  SER814 

> <Gold.Protein.RotatedAtoms>
  150.8339  134.7604  159.6876 H   0  0  0  0  0  0  0  0  0  0  0  0  # atno 6907 bound_to 6896
  152.4439  134.5531  159.9882 H   0  0  0  0  0  0  0  0  0  0  0  0  # atno 6908 bound_to 6896
  151.5686  133.3355  159.3021 H   0  0  0  0  0  0  0  0  0  0  0  0  # atno 6909 bound_to 6896
  145.1096  140.8603  143.3878 H   0  0  0  0  0  0  0  0  0  0  0  0  # atno 7974 bound_to 7965
  154.4057  140.1609  156.2509 H   0  0  0  0  0  0  0  0  0  0  0  0  # atno 8008 bound_to 7997
  155.9120  140.3426  155.6083 H   0  0  0  0  0  0  0  0  0  0  0  0  # atno 8009 bound_to 7997
  155.7325  140.0782  157.2273 H   0  0  0  0  0  0  0  0  0  0  0  0  # atno 8010 bound_to 7997
  140.1463  144.4506  150.6783 H   0  0  0  0  0  0  0  0  0  0  0  0  # atno 10167 bound_to 10162
  157.1893  131.0651  151.2088 H   0  0  0  0  0  0  0  0  0  0  0  0  # atno 10718 bound_to 10713
  154.4643  135.5886  153.6277 H   0  0  0  0  0  0  0  0  0  0  0  0  # atno 10763 bound_to 10752
  152.9827  135.6051  154.3447 H   0  0  0  0  0  0  0  0  0  0  0  0  # atno 10764 bound_to 10752
  154.3322  135.2842  155.2445 H   0  0  0  0  0  0  0  0  0  0  0  0  # atno 10765 bound_to 10752
  141.0948  133.6626  156.4093 H   0  0  0  0  0  0  0  0  0  0  0  0  # atno 11005 bound_to 11000
  145.0863  139.2923  143.5758 LP  0  0  0  0  0  0  0  0  0  0  0  0  # atno 17320 bound_to 7965
  146.3527  140.0385  142.8645 LP  0  0  0  0  0  0  0  0  0  0  0  0  # atno 17321 bound_to 7965
  140.6730  143.2293  151.5578 LP  0  0  0  0  0  0  0  0  0  0  0  0  # atno 17342 bound_to 10162
  139.5447  144.2552  152.1420 LP  0  0  0  0  0  0  0  0  0  0  0  0  # atno 17343 bound_to 10162
  157.3876  130.7264  149.6674 LP  0  0  0  0  0  0  0  0  0  0  0  0  # atno 17370 bound_to 10713
  155.9714  130.4155  150.4186 LP  0  0  0  0  0  0  0  0  0  0  0  0  # atno 17371 bound_to 10713
  140.5165  134.6345  157.5303 LP  0  0  0  0  0  0  0  0  0  0  0  0  # atno 17394 bound_to 11000
  139.9782  134.7180  155.9908 LP  0  0  0  0  0  0  0  0  0  0  0  0  # atno 17395 bound_to 11000

$$$$
