AV-unprocessed.smi:113|AV-procd|sdf|1100|dock1
  -GOLD-   2262018213D 1   1.00000     0.00000
 Structure written by MMmdl.
 53 56  0  0  0  0  0  0  0  0  2 V2000
  147.4913  131.9660  159.0885 C   0  0  0  0  0  0  0  0  0  0  0  0
  148.2066  132.6511  157.9434 C   0  0  0  0  0  0  0  0  0  0  0  0
  148.4839  131.9900  156.7314 C   0  0  0  0  0  0  0  0  0  0  0  0
  149.1560  132.6755  155.6890 C   0  0  0  0  0  0  0  0  0  0  0  0
  149.4744  131.9807  154.3607 C   0  0  0  0  0  0  0  0  0  0  0  0
  148.3440  131.4766  153.5938 N   0  0  0  0  0  0  0  0  0  0  0  0
  148.2619  130.0800  153.3811 C   0  0  0  0  0  0  0  0  0  0  0  0
  149.1086  129.3084  153.8370 O   0  0  0  0  0  0  0  0  0  0  0  0
  147.1013  129.6367  152.6061 C   0  0  0  0  0  0  0  0  0  0  0  0
  146.9708  128.1519  152.3027 C   0  0  0  0  0  0  0  0  0  0  0  0
  146.1886  130.5431  152.1786 C   0  0  0  0  0  0  0  0  0  0  0  0
  146.2734  131.9054  152.4314 N   0  0  0  0  0  0  0  0  0  0  0  0
  145.2226  132.9062  151.9855 C   0  0  1  0  0  0  0  0  0  0  0  0
  145.7459  134.1721  151.3122 C   0  0  0  0  0  0  0  0  0  0  0  0
  144.4783  134.6462  150.6316 C   0  0  1  0  0  0  0  0  0  0  0  0
  144.7750  135.5154  149.5562 O   0  0  0  0  0  0  0  0  0  0  0  0
  143.7769  133.3232  150.2426 C   0  0  1  0  0  0  0  0  0  0  0  0
  143.8640  132.9076  148.7615 C   0  0  0  0  0  0  0  0  0  0  0  0
  143.5257  133.9884  147.9174 O   0  0  0  0  0  0  0  0  0  0  0  0
  144.4367  132.3096  151.0036 O   0  0  0  0  0  0  0  0  0  0  0  0
  147.3778  132.4076  153.1521 C   0  0  0  0  0  0  0  0  0  0  0  0
  147.4807  133.6130  153.3945 O   0  0  0  0  0  0  0  0  0  0  0  0
  149.5298  134.0304  155.9051 C   0  0  0  0  0  0  0  0  0  0  0  0
  150.2017  134.7937  154.9202 C   0  0  0  0  0  0  0  0  0  0  0  0
  150.5557  136.1338  155.1722 C   0  0  0  0  0  0  0  0  0  0  0  0
  150.2443  136.7303  156.4085 C   0  0  0  0  0  0  0  0  0  0  0  0
  149.5764  135.9863  157.3985 C   0  0  0  0  0  0  0  0  0  0  0  0
  149.2214  134.6455  157.1487 C   0  0  0  0  0  0  0  0  0  0  0  0
  148.5805  133.9371  158.1022 N   0  3  0  0  0  0  0  0  0  0  0  0
  147.6104  130.8838  159.0281 H   0  0  0  0  0  0  0  0  0  0  0  0
  146.4260  132.1957  159.0589 H   0  0  0  0  0  0  0  0  0  0  0  0
  147.8896  132.2967  160.0483 H   0  0  0  0  0  0  0  0  0  0  0  0
  148.1760  130.9613  156.6177 H   0  0  0  0  0  0  0  0  0  0  0  0
  150.0371  132.6528  153.7110 H   0  0  0  0  0  0  0  0  0  0  0  0
  150.1509  131.1409  154.5277 H   0  0  0  0  0  0  0  0  0  0  0  0
  146.0733  127.9307  151.7244 H   0  0  0  0  0  0  0  0  0  0  0  0
  146.9200  127.5766  153.2279 H   0  0  0  0  0  0  0  0  0  0  0  0
  147.8302  127.8031  151.7290 H   0  0  0  0  0  0  0  0  0  0  0  0
  145.3680  130.1550  151.5979 H   0  0  0  0  0  0  0  0  0  0  0  0
  144.6328  133.1288  152.8777 H   0  0  0  0  0  0  0  0  0  0  0  0
  146.1633  134.8770  152.0318 H   0  0  0  0  0  0  0  0  0  0  0  0
  146.4852  133.9200  150.5511 H   0  0  0  0  0  0  0  0  0  0  0  0
  143.8607  135.1819  151.3542 H   0  0  0  0  0  0  0  0  0  0  0  0
  145.3059  135.0475  148.9290 H   0  0  0  0  0  0  0  0  0  0  0  0
  142.7327  133.3534  150.5572 H   0  0  0  0  0  0  0  0  0  0  0  0
  144.8559  132.5292  148.5125 H   0  0  0  0  0  0  0  0  0  0  0  0
  143.1576  132.1021  148.5597 H   0  0  0  0  0  0  0  0  0  0  0  0
  144.3211  134.3488  147.5560 H   0  0  0  0  0  0  0  0  0  0  0  0
  150.4567  134.3708  153.9602 H   0  0  0  0  0  0  0  0  0  0  0  0
  151.0683  136.7063  154.4129 H   0  0  0  0  0  0  0  0  0  0  0  0
  150.5177  137.7584  156.5966 H   0  0  0  0  0  0  0  0  0  0  0  0
  149.3395  136.4498  158.3454 H   0  0  0  0  0  0  0  0  0  0  0  0
  148.3686  134.3978  158.9871 H   0  0  0  0  0  0  0  0  0  0  0  0
  1  2  1  0  0  0  0
  1 30  1  0  0  0  0
  1 31  1  0  0  0  0
  1 32  1  0  0  0  0
  2 29  1  0  0  0  0
  2  3  2  0  0  0  0
  3  4  1  0  0  0  0
  3 33  1  0  0  0  0
  4  5  1  0  0  0  0
  4 23  2  0  0  0  0
  5  6  1  0  0  0  0
  5 34  1  0  0  0  0
  5 35  1  0  0  0  0
  6 21  1  0  0  0  0
  6  7  1  0  0  0  0
  7  8  2  0  0  0  0
  7  9  1  0  0  0  0
  9 10  1  0  0  0  0
  9 11  2  0  0  0  0
 10 36  1  0  0  0  0
 10 37  1  0  0  0  0
 10 38  1  0  0  0  0
 11 12  1  0  0  0  0
 11 39  1  0  0  0  0
 12 13  1  0  0  0  0
 12 21  1  0  0  0  0
 13 20  1  0  0  0  0
 13 14  1  0  0  0  0
 13 40  1  0  0  0  0
 14 15  1  0  0  0  0
 14 41  1  0  0  0  0
 14 42  1  0  0  0  0
 15 16  1  0  0  0  0
 15 17  1  0  0  0  0
 15 43  1  0  0  0  0
 16 44  1  0  0  0  0
 17 18  1  0  0  0  0
 17 20  1  0  0  0  0
 17 45  1  0  0  0  0
 18 19  1  0  0  0  0
 18 46  1  0  0  0  0
 18 47  1  0  0  0  0
 19 48  1  0  0  0  0
 21 22  2  0  0  0  0
 23 28  1  0  0  0  0
 23 24  1  0  0  0  0
 24 25  2  0  0  0  0
 24 49  1  0  0  0  0
 25 26  1  0  0  0  0
 25 50  1  0  0  0  0
 26 27  2  0  0  0  0
 26 51  1  0  0  0  0
 27 28  1  0  0  0  0
 27 52  1  0  0  0  0
 28 29  2  0  0  0  0
 29 53  1  0  0  0  0
M  CHG  1  29   1
M  END
> <s_m_source_file>
AV-unprocessed.smi

> <i_m_source_file_index>
113

> <i_lp_mmshare_version>
43012

> <i_f3d_flags>
0

> <s_epik_input>
W2NIXTFbY0hdW2NIXVtjSF1jKGMxMiluYyhbQ0gzXSlbY0hdYzJbQ0gyXW4zYyg9TyljKFtDSDNdKVtjSF1uKGMzPU8pW0NAQEhdNFtDSDJdW0NAQEhdKFtPSF0pW0NASF0oTzQpW0NIMl1bT0hd

> <s_epik_cmdline>
J2VwaWtfcHl0aG9uJywgJy1waCcsICc3LjAnLCAnLXRuJywgJzgnLCAnLW1hJywgJzIwMCcsICctbWV0YWxfYmluZGluZycsICctaW1hZScsICc8aW5maWxlLm1hZT4nLCAnLW9tYWUnLCAnPG91dGZpbGUubWFlPic=

> <r_lp_tautomer_probability>
1

> <r_epik_Ionization_Penalty>
0.705471

> <r_epik_Ionization_Penalty_Charging>
0.70547

> <r_epik_Ionization_Penalty_Neutral>
1.19947e-07

> <r_epik_State_Penalty>
0.728574

> <r_epik_Charging_Adjusted_Penalty>
1.43404

> <i_epik_Tot_Q>
1

> <i_epik_Tot_abs_Q>
1

> <r_epik_Metal_State_Penalty>
4.61665

> <b_epik_Metal_Only>
0

> <s_epik_Chemistry_Notes>
This compound contains an acetal/aminal-like group ( X-CH(R)-Y where X, Y are N, S, or O) that may be acid/base labile, releasing an aldehyde.

> <s_lp_Force_Field>
OPLS_2005

> <r_lp_Energy>
46.487

> <b_lp_Chiralities_Consistent>
1

> <s_lp_Variant>
AV-unprocessed.smi:113-10

> <Gold.Version>
5.8.1

> <Gold.Id.Protein>
6NUR|6NUR_protein|mol2

> <Gold.PLP.Fitness>
52.5892

> <Gold.PLP.PLP>
-44.4453

> <Gold.PLP.part.hbond>
-4.9893

> <Gold.PLP.part.metal>
0.0000

> <Gold.PLP.part.buried>
-5.3370

> <Gold.PLP.part.nonpolar>
-35.0911

> <Gold.PLP.part.repulsive>
0.5064

> <Gold.PLP.ligand.clash>
0.0000

> <Gold.PLP.ligand.torsion>
0.4513

> <Gold.PLP.Chemscore.Hbond>
3.0000

> <Gold.PLP.Chemscore.CHOScore>
0.0000

> <Gold.PLP.Chemscore.Metal>
0.0000

> <Gold.Chemscore.Hbonds>
donor molecule, donor type, donor heavy atom, donor atom, acceptor molecule, acceptor atom, score
      L1  H    16    44       P1  7921  1.00
      L1  H    19    48       P1  7921  1.00
      P1  H 10192 10197       L1    19  0.93

> <Gold.PLP.Chemscore.Internal.Correction>
0.0466

> <Gold.Rescore>
     Score         DG    S(hbond)    S(metal)    S(lipo)     H(rot)  DE(clash)    DE(int)     intcor
     14.72     -18.56       2.80        0.00      97.69       3.01       0.45       3.39       ----

> <Gold.Chemscore.Fitness>
14.7158

> <Gold.Chemscore.DG>
-18.5609

> <Gold.Chemscore.ZeroCoef>
-5.4800

> <Gold.Chemscore.Hbond>
2.8028

> <Gold.Chemscore.Metal>
0.0000

> <Gold.Chemscore.Lipo>
97.6942

> <Gold.Chemscore.Internal_Hbond>
0.0000

> <Gold.Chemscore.DEClash>
0.4532

> <Gold.Chemscore.DEInternal>
3.3919

> <Gold.Chemscore.Rot>
3.0120

> <Gold.Chemscore.Internal.Correction>
   9.000000E+99

> <Gold.Chemscore.Hbonds>
donor molecule, donor type, donor heavy atom, donor atom, acceptor molecule, acceptor atom, score
      L1  H    16    44       P1  7921  0.94
      L1  H    19    48       P1  7921  0.98
      P1  H 10192 10197       L1    19  0.44

> <Gold.Chemscore.Hbond.Weighted>
-9.3615

> <Gold.Chemscore.Metal.Weighted>
-0.0000

> <Gold.Chemscore.Lipo.Weighted>
-11.4302

> <Gold.Chemscore.Internal_Hbond.Weighted>
0.0000

> <Gold.Chemscore.DEClash.Weighted>
0.4532

> <Gold.Chemscore.DEInternal.Weighted>
3.3919

> <Gold.Chemscore.Rot.Weighted>
7.7108

> <Gold.Chemscore.Internal.Correction.Weighted>
   9.000000E+99

> <Gold.Protein.RotatedTorsions>
[ 6907 6896 6895 6894 ] final    7.26 input  -60.11 | X-H torsion
[ 7974 7965 7964 7962 ] final  179.44 input  175.53 | X-H torsion
[ 8008 7997 7996 7995 ] final  -18.54 input   59.86 | X-H torsion
[ 10167 10162 10161 10158 ] final   65.94 input  -65.29 | X-H torsion
[ 10718 10713 10712 10709 ] final   48.77 input   66.30 | X-H torsion
[ 10763 10752 10751 10750 ] final  -86.72 input  -60.55 | X-H torsion
[ 11005 11000 10999 10996 ] final -156.98 input  -57.11 | X-H torsion

> <Gold.Protein.ActiveResidues>
 VAL166  LYS551  ARG553  GLY616  TRP617  ASP618  TYR619  PRO620  LYS621  CYS622 
 ASP623  PHE694  ASN695  SER759  ASP760  ASP761  ALA762  ILE779  LEU786  VAL792 
 PHE793  MET794  SER795  GLU796  ALA797  LYS798  CYS799  TRP800  GLU811  SER814 

> <Gold.Protein.RotatedAtoms>
  151.6870  135.0952  160.0226 H   0  0  0  0  0  0  0  0  0  0  0  0  # atno 6907 bound_to 6896
  152.3801  133.6531  159.6163 H   0  0  0  0  0  0  0  0  0  0  0  0  # atno 6908 bound_to 6896
  150.7740  133.9044  159.3392 H   0  0  0  0  0  0  0  0  0  0  0  0  # atno 6909 bound_to 6896
  144.7146  140.0548  143.6434 H   0  0  0  0  0  0  0  0  0  0  0  0  # atno 7974 bound_to 7965
  154.4899  140.2113  155.9572 H   0  0  0  0  0  0  0  0  0  0  0  0  # atno 8008 bound_to 7997
  156.1290  140.3200  155.8289 H   0  0  0  0  0  0  0  0  0  0  0  0  # atno 8009 bound_to 7997
  155.4331  140.0505  157.3007 H   0  0  0  0  0  0  0  0  0  0  0  0  # atno 8010 bound_to 7997
  140.1058  144.4863  150.7009 H   0  0  0  0  0  0  0  0  0  0  0  0  # atno 10167 bound_to 10162
  157.4720  130.8261  149.7998 H   0  0  0  0  0  0  0  0  0  0  0  0  # atno 10718 bound_to 10713
  154.6256  135.5439  153.7623 H   0  0  0  0  0  0  0  0  0  0  0  0  # atno 10763 bound_to 10752
  153.0259  135.6423  154.1377 H   0  0  0  0  0  0  0  0  0  0  0  0  # atno 10764 bound_to 10752
  154.1309  135.2914  155.3165 H   0  0  0  0  0  0  0  0  0  0  0  0  # atno 10765 bound_to 10752
  140.6696  134.4261  157.5232 H   0  0  0  0  0  0  0  0  0  0  0  0  # atno 11005 bound_to 11000
  145.9914  139.3017  143.0983 LP  0  0  0  0  0  0  0  0  0  0  0  0  # atno 17320 bound_to 7965
  145.8899  140.9310  143.0557 LP  0  0  0  0  0  0  0  0  0  0  0  0  # atno 17321 bound_to 7965
  140.6953  143.2400  151.5018 LP  0  0  0  0  0  0  0  0  0  0  0  0  # atno 17342 bound_to 10162
  139.5646  144.2073  152.1745 LP  0  0  0  0  0  0  0  0  0  0  0  0  # atno 17343 bound_to 10162
  156.0078  130.3847  150.2369 LP  0  0  0  0  0  0  0  0  0  0  0  0  # atno 17370 bound_to 10713
  157.0552  131.0074  151.3240 LP  0  0  0  0  0  0  0  0  0  0  0  0  # atno 17371 bound_to 10713
  139.8986  134.8610  156.1996 LP  0  0  0  0  0  0  0  0  0  0  0  0  # atno 17394 bound_to 11000
  141.0402  133.6942  156.1584 LP  0  0  0  0  0  0  0  0  0  0  0  0  # atno 17395 bound_to 11000

$$$$
