AV-unprocessed.smi:2773|AV-procd|sdf|10677|dock2
  -GOLD-   2272015123D 1   1.00000     0.00000
 Structure written by MMmdl.
 30 31  0  0  0  0  0  0  0  0  1 V2000
  148.0794  139.5043  156.0108 C   0  0  0  0  0  0  0  0  0  0  0  0
  148.3748  139.8048  154.5544 C   0  0  1  0  0  0  0  0  0  0  0  0
  147.6442  140.9071  153.8346 C   0  0  0  0  0  0  0  0  0  0  0  0
  149.1226  141.0533  154.1234 C   0  0  1  0  0  0  0  0  0  0  0  0
  149.4995  142.0185  155.1136 N   0  0  0  0  0  0  0  0  0  0  0  0
  150.3747  141.8694  156.1243 C   0  0  0  0  0  0  0  0  0  0  0  0
  150.9932  140.8172  156.2761 O   0  0  0  0  0  0  0  0  0  0  0  0
  150.5219  142.9639  156.8978 N   0  0  0  0  0  0  0  0  0  0  0  0
  151.3503  143.1329  158.0384 C   0  0  0  0  0  0  0  0  0  0  0  0
  151.3359  144.4278  158.6021 C   0  0  0  0  0  0  0  0  0  0  0  0
  152.1238  144.6970  159.7371 C   0  0  0  0  0  0  0  0  0  0  0  0
  152.9069  143.6638  160.2815 C   0  0  0  0  0  0  0  0  0  0  0  0
  152.8669  142.3967  159.6617 C   0  0  0  0  0  0  0  0  0  0  0  0
  153.6822  141.2239  160.1882 C   0  0  0  0  0  0  0  0  0  0  0  0
  154.9426  141.3261  159.7659 F   0  0  0  0  0  0  0  0  0  0  0  0
  153.6869  141.1854  161.5213 F   0  0  0  0  0  0  0  0  0  0  0  0
  153.1681  140.0800  159.7359 F   0  0  0  0  0  0  0  0  0  0  0  0
  152.1083  142.1434  158.5712 N   0  0  0  0  0  0  0  0  0  0  0  0
  147.7892  140.4068  156.5494 H   0  0  0  0  0  0  0  0  0  0  0  0
  148.9618  139.0807  156.4909 H   0  0  0  0  0  0  0  0  0  0  0  0
  147.2648  138.7837  156.0840 H   0  0  0  0  0  0  0  0  0  0  0  0
  148.5877  138.9124  153.9691 H   0  0  0  0  0  0  0  0  0  0  0  0
  147.3502  140.7225  152.8034 H   0  0  0  0  0  0  0  0  0  0  0  0
  146.9506  141.5162  154.4115 H   0  0  0  0  0  0  0  0  0  0  0  0
  149.7650  140.9553  153.2496 H   0  0  0  0  0  0  0  0  0  0  0  0
  149.1008  142.9391  154.9994 H   0  0  0  0  0  0  0  0  0  0  0  0
  149.9670  143.7670  156.6417 H   0  0  0  0  0  0  0  0  0  0  0  0
  150.7282  145.2107  158.1721 H   0  0  0  0  0  0  0  0  0  0  0  0
  152.1265  145.6806  160.1828 H   0  0  0  0  0  0  0  0  0  0  0  0
  153.5189  143.8473  161.1522 H   0  0  0  0  0  0  0  0  0  0  0  0
  1  2  1  0  0  0  0
  1 19  1  0  0  0  0
  1 20  1  0  0  0  0
  1 21  1  0  0  0  0
  2  4  1  0  0  0  0
  2  3  1  0  0  0  0
  2 22  1  0  0  0  0
  3  4  1  0  0  0  0
  3 23  1  0  0  0  0
  3 24  1  0  0  0  0
  4  5  1  0  0  0  0
  4 25  1  0  0  0  0
  5  6  1  0  0  0  0
  5 26  1  0  0  0  0
  6  7  2  0  0  0  0
  6  8  1  0  0  0  0
  8  9  1  0  0  0  0
  8 27  1  0  0  0  0
  9 18  1  0  0  0  0
  9 10  2  0  0  0  0
 10 11  1  0  0  0  0
 10 28  1  0  0  0  0
 11 12  2  0  0  0  0
 11 29  1  0  0  0  0
 12 13  1  0  0  0  0
 12 30  1  0  0  0  0
 13 14  1  0  0  0  0
 13 18  2  0  0  0  0
 14 15  1  0  0  0  0
 14 16  1  0  0  0  0
 14 17  1  0  0  0  0
M  END
> <s_m_source_file>
AV-unprocessed.smi

> <i_m_source_file_index>
2773

> <i_lp_mmshare_version>
43012

> <i_f3d_flags>
0

> <s_epik_input>
W0NIM11bQ0BASF0xW0NIMl1bQ0BIXTFbTkhdQyg9TylbTkhdYzJbY0hdW2NIXVtjSF1jKG4yKUMoRikoRilG

> <s_epik_cmdline>
J2VwaWtfcHl0aG9uJywgJy1waCcsICc3LjAnLCAnLXRuJywgJzgnLCAnLW1hJywgJzIwMCcsICctbWV0YWxfYmluZGluZycsICctaW1hZScsICc8aW5maWxlLm1hZT4nLCAnLW9tYWUnLCAnPG91dGZpbGUubWFlPic=

> <r_lp_tautomer_probability>
1

> <r_epik_Ionization_Penalty>
4.04275e-05

> <r_epik_Ionization_Penalty_Charging>
0

> <r_epik_Ionization_Penalty_Neutral>
4.04275e-05

> <r_epik_State_Penalty>
-0

> <r_epik_Charging_Adjusted_Penalty>
0

> <i_epik_Tot_Q>
0

> <i_epik_Tot_abs_Q>
0

> <r_epik_Metal_State_Penalty>
-0

> <b_epik_Metal_Only>
0

> <s_lp_Force_Field>
OPLS_2005

> <r_lp_Energy>
32.9292

> <b_lp_Chiralities_Consistent>
1

> <s_lp_Variant>
AV-unprocessed.smi:2773-2

> <Gold.Version>
5.8.1

> <Gold.Id.Protein>
6NUR|6NUR_protein|mol2

> <Gold.PLP.Fitness>
44.5223

> <Gold.PLP.PLP>
-40.4202

> <Gold.PLP.part.hbond>
-2.0000

> <Gold.PLP.part.metal>
0.0000

> <Gold.PLP.part.buried>
-3.7027

> <Gold.PLP.part.nonpolar>
-34.1054

> <Gold.PLP.part.repulsive>
0.2711

> <Gold.PLP.ligand.clash>
0.0000

> <Gold.PLP.ligand.torsion>
0.9561

> <Gold.PLP.Chemscore.Hbond>
1.9920

> <Gold.PLP.Chemscore.CHOScore>
0.0000

> <Gold.PLP.Chemscore.Metal>
0.0000

> <Gold.Chemscore.Hbonds>
donor molecule, donor type, donor heavy atom, donor atom, acceptor molecule, acceptor atom, score
      L1  H     5    26       P1  8028  0.99
      L1  H     8    27       P1  8028  1.00

> <Gold.PLP.Chemscore.Internal.Correction>
0.0383

> <Gold.Rescore>
     Score         DG    S(hbond)    S(metal)    S(lipo)     H(rot)  DE(clash)    DE(int)     intcor
     17.11     -18.52       1.95        0.00      77.68       1.00       0.02       1.40       ----

> <Gold.Chemscore.Fitness>
17.1053

> <Gold.Chemscore.DG>
-18.5249

> <Gold.Chemscore.ZeroCoef>
-5.4800

> <Gold.Chemscore.Hbond>
1.9509

> <Gold.Chemscore.Metal>
0.0000

> <Gold.Chemscore.Lipo>
77.6839

> <Gold.Chemscore.Internal_Hbond>
0.0000

> <Gold.Chemscore.DEClash>
0.0221

> <Gold.Chemscore.DEInternal>
1.3975

> <Gold.Chemscore.Rot>
1.0000

> <Gold.Chemscore.Internal.Correction>
   9.000000E+99

> <Gold.Chemscore.Hbonds>
donor molecule, donor type, donor heavy atom, donor atom, acceptor molecule, acceptor atom, score
      L1  H     5    26       P1  8028  0.94
      L1  H     8    27       P1  8028  0.99

> <Gold.Chemscore.Hbond.Weighted>
-6.5159

> <Gold.Chemscore.Metal.Weighted>
-0.0000

> <Gold.Chemscore.Lipo.Weighted>
-9.0890

> <Gold.Chemscore.Internal_Hbond.Weighted>
0.0000

> <Gold.Chemscore.DEClash.Weighted>
0.0221

> <Gold.Chemscore.DEInternal.Weighted>
1.3975

> <Gold.Chemscore.Rot.Weighted>
2.5600

> <Gold.Chemscore.Internal.Correction.Weighted>
   9.000000E+99

> <Gold.Protein.RotatedTorsions>
[ 6907 6896 6895 6894 ] final   67.09 input  -60.11 | X-H torsion
[ 7974 7965 7964 7962 ] final  -82.39 input  175.53 | X-H torsion
[ 8008 7997 7996 7995 ] final   13.17 input   59.86 | X-H torsion
[ 10167 10162 10161 10158 ] final -105.68 input  -65.29 | X-H torsion
[ 10718 10713 10712 10709 ] final   41.88 input   66.30 | X-H torsion
[ 10763 10752 10751 10750 ] final  -38.34 input  -60.55 | X-H torsion
[ 11005 11000 10999 10996 ] final -158.79 input  -57.11 | X-H torsion

> <Gold.Protein.ActiveResidues>
 VAL166  LYS551  ARG553  GLY616  TRP617  ASP618  TYR619  PRO620  LYS621  CYS622 
 ASP623  PHE694  ASN695  SER759  ASP760  ASP761  ALA762  ILE779  LEU786  VAL792 
 PHE793  MET794  SER795  GLU796  ALA797  LYS798  CYS799  TRP800  GLU811  SER814 

> <Gold.Protein.RotatedAtoms>
  152.4527  134.5358  159.9824 H   0  0  0  0  0  0  0  0  0  0  0  0  # atno 6907 bound_to 6896
  151.5427  133.3424  159.2946 H   0  0  0  0  0  0  0  0  0  0  0  0  # atno 6908 bound_to 6896
  150.8461  134.7802  159.7035 H   0  0  0  0  0  0  0  0  0  0  0  0  # atno 6909 bound_to 6896
  145.5339  140.9518  143.1588 H   0  0  0  0  0  0  0  0  0  0  0  0  # atno 7974 bound_to 7965
  154.8308  140.2899  155.5724 H   0  0  0  0  0  0  0  0  0  0  0  0  # atno 8008 bound_to 7997
  156.3005  140.2532  156.3163 H   0  0  0  0  0  0  0  0  0  0  0  0  # atno 8009 bound_to 7997
  154.9234  140.0385  157.1999 H   0  0  0  0  0  0  0  0  0  0  0  0  # atno 8010 bound_to 7997
  140.1959  143.3856  152.1169 H   0  0  0  0  0  0  0  0  0  0  0  0  # atno 10167 bound_to 10162
  157.3986  130.7847  149.7329 H   0  0  0  0  0  0  0  0  0  0  0  0  # atno 10718 bound_to 10713
  153.9112  135.6792  153.4751 H   0  0  0  0  0  0  0  0  0  0  0  0  # atno 10763 bound_to 10752
  153.1077  135.4797  154.8978 H   0  0  0  0  0  0  0  0  0  0  0  0  # atno 10764 bound_to 10752
  154.7526  135.3189  154.8485 H   0  0  0  0  0  0  0  0  0  0  0  0  # atno 10765 bound_to 10752
  140.6497  134.4464  157.5235 H   0  0  0  0  0  0  0  0  0  0  0  0  # atno 11005 bound_to 11000
  144.7611  139.6954  143.7234 LP  0  0  0  0  0  0  0  0  0  0  0  0  # atno 17320 bound_to 7965
  146.2025  139.5329  142.9734 LP  0  0  0  0  0  0  0  0  0  0  0  0  # atno 17321 bound_to 7965
  139.5237  144.7074  151.5312 LP  0  0  0  0  0  0  0  0  0  0  0  0  # atno 17342 bound_to 10162
  140.6424  143.8863  150.6704 LP  0  0  0  0  0  0  0  0  0  0  0  0  # atno 17343 bound_to 10162
  155.9817  130.4017  150.3457 LP  0  0  0  0  0  0  0  0  0  0  0  0  # atno 17370 bound_to 10713
  157.1582  131.0338  151.2853 LP  0  0  0  0  0  0  0  0  0  0  0  0  # atno 17371 bound_to 10713
  139.9050  134.8469  156.1741 LP  0  0  0  0  0  0  0  0  0  0  0  0  # atno 17394 bound_to 11000
  141.0546  133.6871  156.1836 LP  0  0  0  0  0  0  0  0  0  0  0  0  # atno 17395 bound_to 11000

$$$$
