#       Name:                AV-unprocessed.smi:303
#       Creating user name   scv26
#       Creation time:       Thu Mar 26 22:16:59 2020


#       File generated by GOLD software.
#

@<TRIPOS>MOLECULE
AV-unprocessed.smi:303
    48    49     1
SMALL
NO_CHARGES


@<TRIPOS>ATOM
      1 ****        -3.0623  -3.6811   1.6374 C.3            1 S1                 0.0000
      2 ****        -3.2557  -3.5657   0.1208 C.3            1 S1                 0.0000
      3 ****        -4.7504  -2.5675  -0.3137 S.o2           1 S1                 0.0000
      4 ****        -5.3048  -3.0942  -1.5703 O.2            1 S1                 0.0000
      5 ****        -5.6112  -2.4576   0.8746 O.2            1 S1                 0.0000
      6 ****        -4.1191  -0.9797  -0.6509 N.pl3          1 S1                 0.0000
      7 ****        -3.6443  -0.1279   0.4559 C.3            1 S1                 0.0000
      8 ****        -2.1081  -0.1152   0.5331 C.3            1 S1                 0.0000
      9 ****        -1.4831   0.3097  -0.8077 C.3            1 S1                 0.0000
     10 ****         0.0489   0.2977  -0.7240 C.2            1 S1                 0.0000
     11 ****         0.6508  -0.7518  -0.4928 O.2            1 S1                 0.0000
     12 ****         0.6697   1.4740  -0.9039 N.am           1 S1                 0.0000
     13 ****         2.1124   1.6749  -0.8343 C.3            1 S1                 0.0000
     14 ****         2.6006   1.7521   0.6225 C.3            1 S1                 0.0000
     15 ****         4.0994   1.9589   0.7192 C.ar           1 S1                 0.0000
     16 ****         4.9886   0.8916   0.9714 C.ar           1 S1                 0.0000
     17 ****         6.3729   1.1518   1.0494 C.ar           1 S1                 0.0000
     18 ****         6.8381   2.4713   0.8722 C.ar           1 S1                 0.0000
     19 ****         5.9061   3.4987   0.6200 C.ar           1 S1                 0.0000
     20 ****         4.5877   3.2095   0.5529 N.pl3          1 S1                 1.0000
     21 ****        -1.9889  -0.6302  -1.9177 C.3            1 S1                 0.0000
     22 ****        -3.5268  -0.6690  -1.9691 C.3            1 S1                 0.0000
     23 ****        -2.1604  -4.2472   1.8701 H              1 S1                 0.0000
     24 ****        -3.9040  -4.1941   2.1031 H              1 S1                 0.0000
     25 ****        -2.9699  -2.7005   2.1033 H              1 S1                 0.0000
     26 ****        -2.3808  -3.1387  -0.3625 H              1 S1                 0.0000
     27 ****        -3.3957  -4.5620  -0.2983 H              1 S1                 0.0000
     28 ****        -4.0128   0.8859   0.2954 H              1 S1                 0.0000
     29 ****        -4.0695  -0.4641   1.4013 H              1 S1                 0.0000
     30 ****        -1.7942   0.5667   1.3246 H              1 S1                 0.0000
     31 ****        -1.7466  -1.1022   0.8219 H              1 S1                 0.0000
     32 ****        -1.8139   1.3243  -1.0372 H              1 S1                 0.0000
     33 ****         0.1014   2.2872  -1.0935 H              1 S1                 0.0000
     34 ****         2.6261   0.8734  -1.3684 H              1 S1                 0.0000
     35 ****         2.3512   2.6004  -1.3590 H              1 S1                 0.0000
     36 ****         2.0965   2.5679   1.1429 H              1 S1                 0.0000
     37 ****         2.3381   0.8390   1.1586 H              1 S1                 0.0000
     38 ****         4.6167  -0.1143   1.1038 H              1 S1                 0.0000
     39 ****         7.0692   0.3487   1.2433 H              1 S1                 0.0000
     40 ****         7.8943   2.6916   0.9293 H              1 S1                 0.0000
     41 ****         6.1728   4.5350   0.4723 H              1 S1                 0.0000
     42 ****        -1.6090  -0.2980  -2.8848 H              1 S1                 0.0000
     43 ****        -1.5984  -1.6372  -1.7766 H              1 S1                 0.0000
     44 ****        -3.8617  -1.3858  -2.7179 H              1 S1                 0.0000
     45 ****        -3.9019   0.3037  -2.2894 H              1 S1                 0.0000
     46 ****         3.9314   3.9690   0.3706 H              1 S1                 0.0000
     47 ****         0.1409  -1.6015  -0.3586 LP             1 S1                 0.0000
     48 ****         1.6494  -0.7541  -0.4392 LP             1 S1                 0.0000
@<TRIPOS>BOND
    1    1    2 1     
    2    1   23 1     
    3    1   24 1     
    4    1   25 1     
    5    2    3 1     
    6    2   26 1     
    7    2   27 1     
    8    3    4 2     
    9    3    5 2     
   10    3    6 1     
   11    6   22 1     
   12    6    7 1     
   13    7    8 1     
   14    7   28 1     
   15    7   29 1     
   16    8    9 1     
   17    8   30 1     
   18    8   31 1     
   19    9   10 1     
   20    9   21 1     
   21    9   32 1     
   22   10   11 2     
   23   10   12 am    
   24   12   13 1     
   25   12   33 1     
   26   13   14 1     
   27   13   34 1     
   28   13   35 1     
   29   14   15 1     
   30   14   36 1     
   31   14   37 1     
   32   15   20 ar    
   33   15   16 ar    
   34   16   17 ar    
   35   16   38 1     
   36   17   18 ar    
   37   17   39 1     
   38   18   19 ar    
   39   18   40 1     
   40   19   20 ar    
   41   19   41 1     
   42   20   46 1     
   43   21   22 1     
   44   21   42 1     
   45   21   43 1     
   46   22   44 1     
   47   22   45 1     
   48   11   47 1     
   49   11   48 1     
@<TRIPOS>SUBSTRUCTURE
      1 S1             1
@<TRIPOS>SET
LONE_PAIRS      STATIC     ATOMS    <user>   **** ""
4 4 5 47 48
DONOR_HYDROGENS      STATIC     ATOMS    <user>   **** ""
2 33 46
ATOM$BLUE        STATIC     ATOMS    COLORGROUP SYSTEM
4 4 5 47 48
ATOM$RED        STATIC     ATOMS    COLORGROUP SYSTEM
2 33 46
