AV-unprocessed.smi:862|AV-procd|sdf|3982|dock4
  -GOLD-   22720 1463D 1   1.00000     0.00000
 Structure written by MMmdl.
 45 47  0  0  0  0  0  0  0  0  3 V2000
  149.7287  130.4899  156.8327 N   0  0  0  0  0  0  0  0  0  0  0  0
  150.2221  131.7150  156.6282 C   0  0  0  0  0  0  0  0  0  0  0  0
  150.5583  132.4287  157.5713 O   0  0  0  0  0  0  0  0  0  0  0  0
  150.3667  132.0702  155.3268 N   0  0  0  0  0  0  0  0  0  0  0  0
  150.0361  131.2350  154.1607 C   0  0  0  0  0  0  0  0  0  0  0  0
  148.7139  131.7339  153.5476 C   0  0  0  0  0  0  0  0  0  0  0  0
  148.7974  133.2340  153.1756 C   0  0  0  0  0  0  0  0  0  0  0  0
  147.4883  133.7737  152.7399 N   0  3  0  0  0  0  0  0  0  0  0  0
  146.6071  132.8482  151.9865 C   0  0  2  0  0  0  0  0  0  0  0  0
  146.7797  132.9195  150.4649 C   0  0  0  0  0  0  0  0  0  0  0  0
  145.4725  132.3581  149.8887 C   0  0  0  0  0  0  0  0  0  0  0  0
  144.4429  132.3697  151.0327 C   0  0  0  0  0  0  0  0  0  0  0  0
  145.1038  133.0981  152.2151 C   0  0  2  0  0  0  0  0  0  0  0  0
  144.7311  134.5288  152.2630 N   0  0  0  0  0  0  0  0  0  0  0  0
  144.2008  135.2444  153.3106 C   0  0  0  0  0  0  0  0  0  0  0  0
  144.0151  136.5259  152.8610 C   0  0  0  0  0  0  0  0  0  0  0  0
  144.4312  136.5427  151.5579 N   0  3  0  0  0  0  0  0  0  0  0  0
  144.8628  135.3305  151.1959 C   0  0  0  0  0  0  0  0  0  0  0  0
  149.3286  134.0639  154.3626 C   0  0  0  0  0  0  0  0  0  0  0  0
  150.6251  133.4590  154.9289 C   0  0  0  0  0  0  0  0  0  0  0  0
  149.6068  130.1528  157.7768 H   0  0  0  0  0  0  0  0  0  0  0  0
  149.4928  129.9011  156.0477 H   0  0  0  0  0  0  0  0  0  0  0  0
  150.8398  131.3122  153.4267 H   0  0  0  0  0  0  0  0  0  0  0  0
  149.9555  130.1725  154.3895 H   0  0  0  0  0  0  0  0  0  0  0  0
  148.4827  131.1315  152.6694 H   0  0  0  0  0  0  0  0  0  0  0  0
  147.9029  131.5718  154.2592 H   0  0  0  0  0  0  0  0  0  0  0  0
  149.5113  133.3481  152.3592 H   0  0  0  0  0  0  0  0  0  0  0  0
  146.9958  134.0895  153.5633 H   0  0  0  0  0  0  0  0  0  0  0  0
  146.8130  131.8269  152.3078 H   0  0  0  0  0  0  0  0  0  0  0  0
  146.9101  133.9539  150.1448 H   0  0  0  0  0  0  0  0  0  0  0  0
  147.6493  132.3597  150.1187 H   0  0  0  0  0  0  0  0  0  0  0  0
  145.1354  132.9556  149.0412 H   0  0  0  0  0  0  0  0  0  0  0  0
  145.6165  131.3394  149.5267 H   0  0  0  0  0  0  0  0  0  0  0  0
  143.4946  132.8184  150.7338 H   0  0  0  0  0  0  0  0  0  0  0  0
  144.2240  131.3409  151.3221 H   0  0  0  0  0  0  0  0  0  0  0  0
  144.7822  132.6487  153.1565 H   0  0  0  0  0  0  0  0  0  0  0  0
  144.0040  134.8092  154.2794 H   0  0  0  0  0  0  0  0  0  0  0  0
  143.6286  137.4041  153.3581 H   0  0  0  0  0  0  0  0  0  0  0  0
  145.2473  135.0571  150.2293 H   0  0  0  0  0  0  0  0  0  0  0  0
  149.5076  135.0934  154.0503 H   0  0  0  0  0  0  0  0  0  0  0  0
  148.5782  134.1068  155.1540 H   0  0  0  0  0  0  0  0  0  0  0  0
  150.9945  134.0684  155.7552 H   0  0  0  0  0  0  0  0  0  0  0  0
  151.4122  133.4794  154.1740 H   0  0  0  0  0  0  0  0  0  0  0  0
  147.6673  134.5732  152.1494 H   0  0  0  0  0  0  0  0  0  0  0  0
  144.4196  137.3561  150.9547 H   0  0  0  0  0  0  0  0  0  0  0  0
  1  2  1  0  0  0  0
  1 21  1  0  0  0  0
  1 22  1  0  0  0  0
  2  3  2  0  0  0  0
  2  4  1  0  0  0  0
  4 20  1  0  0  0  0
  4  5  1  0  0  0  0
  5  6  1  0  0  0  0
  5 23  1  0  0  0  0
  5 24  1  0  0  0  0
  6  7  1  0  0  0  0
  6 25  1  0  0  0  0
  6 26  1  0  0  0  0
  7  8  1  0  0  0  0
  7 19  1  0  0  0  0
  7 27  1  0  0  0  0
  8  9  1  0  0  0  0
  8 28  1  0  0  0  0
  8 44  1  0  0  0  0
  9 13  1  0  0  0  0
  9 10  1  0  0  0  0
  9 29  1  0  0  0  0
 10 11  1  0  0  0  0
 10 30  1  0  0  0  0
 10 31  1  0  0  0  0
 11 12  1  0  0  0  0
 11 32  1  0  0  0  0
 11 33  1  0  0  0  0
 12 13  1  0  0  0  0
 12 34  1  0  0  0  0
 12 35  1  0  0  0  0
 13 14  1  0  0  0  0
 13 36  1  0  0  0  0
 14 18  1  0  0  0  0
 14 15  1  0  0  0  0
 15 16  2  0  0  0  0
 15 37  1  0  0  0  0
 16 17  1  0  0  0  0
 16 38  1  0  0  0  0
 17 18  2  0  0  0  0
 17 45  1  0  0  0  0
 18 39  1  0  0  0  0
 19 20  1  0  0  0  0
 19 40  1  0  0  0  0
 19 41  1  0  0  0  0
 20 42  1  0  0  0  0
 20 43  1  0  0  0  0
M  CHG  1   8   1
M  CHG  1  17   1
M  END
> <s_m_source_file>
AV-unprocessed.smi

> <i_m_source_file_index>
862

> <i_lp_mmshare_version>
43012

> <i_f3d_flags>
0

> <s_epik_input>
W05IMl1DKD1PKU4xW0NIMl1bQ0gyXVtDSF0oW0NIMl1bQ0gyXTEpW05IXVtDQEBIXTJbQ0gyXVtDSDJdW0NIMl1bQ0BIXTJuM1tjSF1bY0hdbltjSF0z

> <s_epik_cmdline>
J2VwaWtfcHl0aG9uJywgJy1waCcsICc3LjAnLCAnLXRuJywgJzgnLCAnLW1hJywgJzIwMCcsICctbWV0YWxfYmluZGluZycsICctaW1hZScsICc8aW5maWxlLm1hZT4nLCAnLW9tYWUnLCAnPG91dGZpbGUubWFlPic=

> <r_lp_tautomer_probability>
1

> <r_epik_Ionization_Penalty>
1.30217

> <r_epik_Ionization_Penalty_Charging>
0.00439521

> <r_epik_Ionization_Penalty_Neutral>
1.29777

> <r_epik_State_Penalty>
0.977606

> <r_epik_Charging_Adjusted_Penalty>
0.982001

> <i_epik_Tot_Q>
2

> <i_epik_Tot_abs_Q>
2

> <r_epik_Metal_State_Penalty>
1.03289

> <b_epik_Metal_Only>
0

> <s_lp_Force_Field>
OPLS_2005

> <r_lp_Energy>
66.0454

> <b_lp_Chiralities_Consistent>
1

> <s_lp_Variant>
AV-unprocessed.smi:862-7

> <Gold.Version>
5.8.1

> <Gold.Id.Protein>
6NUR|6NUR_protein|mol2

> <Gold.PLP.Fitness>
49.6205

> <Gold.PLP.PLP>
-36.5300

> <Gold.PLP.part.hbond>
-2.9849

> <Gold.PLP.part.metal>
0.0000

> <Gold.PLP.part.buried>
-3.1178

> <Gold.PLP.part.nonpolar>
-30.4996

> <Gold.PLP.part.repulsive>
0.0500

> <Gold.PLP.ligand.clash>
0.0000

> <Gold.PLP.ligand.torsion>
0.7796

> <Gold.PLP.Chemscore.Hbond>
3.8560

> <Gold.PLP.Chemscore.CHOScore>
1.0000

> <Gold.PLP.Chemscore.Metal>
0.0000

> <Gold.Chemscore.Hbonds>
donor molecule, donor type, donor heavy atom, donor atom, acceptor molecule, acceptor atom, score
      L1  H     8    44       P1  7948  1.57
      L1  H    17    45       P1 10171  1.00
      P1  H  6896  6907       L1     3  0.96
      L1  C    18    39       P1  7921  0.45

> <Gold.PLP.Chemscore.Internal.Correction>
0.0817

> <Gold.Rescore>
     Score         DG    S(hbond)    S(metal)    S(lipo)     H(rot)  DE(clash)    DE(int)     intcor
     17.32     -18.41       2.78        0.00      67.96       1.68       0.08       1.01       ----

> <Gold.Chemscore.Fitness>
17.3162

> <Gold.Chemscore.DG>
-18.4102

> <Gold.Chemscore.ZeroCoef>
-5.4800

> <Gold.Chemscore.Hbond>
2.7795

> <Gold.Chemscore.Metal>
0.0000

> <Gold.Chemscore.Lipo>
67.9575

> <Gold.Chemscore.Internal_Hbond>
0.0000

> <Gold.Chemscore.DEClash>
0.0849

> <Gold.Chemscore.DEInternal>
1.0091

> <Gold.Chemscore.Rot>
1.6814

> <Gold.Chemscore.Internal.Correction>
   9.000000E+99

> <Gold.Chemscore.Hbonds>
donor molecule, donor type, donor heavy atom, donor atom, acceptor molecule, acceptor atom, score
      L1  H     8    44       P1  7948  0.42
      L1  H    17    45       P1 10171  1.00
      P1  H  6896  6907       L1     3  0.91

> <Gold.Chemscore.Hbond.Weighted>
-9.2835

> <Gold.Chemscore.Metal.Weighted>
-0.0000

> <Gold.Chemscore.Lipo.Weighted>
-7.9510

> <Gold.Chemscore.Internal_Hbond.Weighted>
0.0000

> <Gold.Chemscore.DEClash.Weighted>
0.0849

> <Gold.Chemscore.DEInternal.Weighted>
1.0091

> <Gold.Chemscore.Rot.Weighted>
4.3043

> <Gold.Chemscore.Internal.Correction.Weighted>
   9.000000E+99

> <Gold.Protein.RotatedTorsions>
[ 6907 6896 6895 6894 ] final -134.80 input  -60.11 | X-H torsion
[ 7974 7965 7964 7962 ] final  129.18 input  175.53 | X-H torsion
[ 8008 7997 7996 7995 ] final   34.81 input   59.86 | X-H torsion
[ 10167 10162 10161 10158 ] final   35.48 input  -65.29 | X-H torsion
[ 10718 10713 10712 10709 ] final -142.74 input   66.30 | X-H torsion
[ 10763 10752 10751 10750 ] final -141.99 input  -60.55 | X-H torsion
[ 11005 11000 10999 10996 ] final  -52.90 input  -57.11 | X-H torsion

> <Gold.Protein.ActiveResidues>
 VAL166  LYS551  ARG553  GLY616  TRP617  ASP618  TYR619  PRO620  LYS621  CYS622 
 ASP623  PHE694  ASN695  SER759  ASP760  ASP761  ALA762  ILE779  LEU786  VAL792 
 PHE793  MET794  SER795  GLU796  ALA797  LYS798  CYS799  TRP800  GLU811  SER814 

> <Gold.Protein.RotatedAtoms>
  150.9902  133.6157  159.2709 H   0  0  0  0  0  0  0  0  0  0  0  0  # atno 6907 bound_to 6896
  151.3381  135.0856  159.9371 H   0  0  0  0  0  0  0  0  0  0  0  0  # atno 6908 bound_to 6896
  152.5243  133.9518  159.7730 H   0  0  0  0  0  0  0  0  0  0  0  0  # atno 6909 bound_to 6896
  145.0315  139.4042  143.5147 H   0  0  0  0  0  0  0  0  0  0  0  0  # atno 7974 bound_to 7965
  155.1608  140.3283  155.4412 H   0  0  0  0  0  0  0  0  0  0  0  0  # atno 8008 bound_to 7997
  156.2543  140.1960  156.6666 H   0  0  0  0  0  0  0  0  0  0  0  0  # atno 8009 bound_to 7997
  154.6406  140.0570  156.9827 H   0  0  0  0  0  0  0  0  0  0  0  0  # atno 8010 bound_to 7997
  140.4218  144.1449  150.6149 H   0  0  0  0  0  0  0  0  0  0  0  0  # atno 10167 bound_to 10162
  156.3496  130.7681  151.1831 H   0  0  0  0  0  0  0  0  0  0  0  0  # atno 10718 bound_to 10713
  154.8525  135.3508  154.5956 H   0  0  0  0  0  0  0  0  0  0  0  0  # atno 10763 bound_to 10752
  153.6566  135.6991  153.5196 H   0  0  0  0  0  0  0  0  0  0  0  0  # atno 10764 bound_to 10752
  153.2851  135.4251  155.1073 H   0  0  0  0  0  0  0  0  0  0  0  0  # atno 10765 bound_to 10752
  141.0948  133.6626  156.4093 H   0  0  0  0  0  0  0  0  0  0  0  0  # atno 11005 bound_to 11000
  146.3499  139.9867  142.8690 LP  0  0  0  0  0  0  0  0  0  0  0  0  # atno 17320 bound_to 7965
  145.1765  140.9746  143.4291 LP  0  0  0  0  0  0  0  0  0  0  0  0  # atno 17321 bound_to 7965
  140.4526  143.2481  151.9328 LP  0  0  0  0  0  0  0  0  0  0  0  0  # atno 17342 bound_to 10162
  139.4783  144.5547  151.8331 LP  0  0  0  0  0  0  0  0  0  0  0  0  # atno 17343 bound_to 10162
  157.7459  131.0431  150.4728 LP  0  0  0  0  0  0  0  0  0  0  0  0  # atno 17370 bound_to 10713
  156.4921  130.4098  149.6400 LP  0  0  0  0  0  0  0  0  0  0  0  0  # atno 17371 bound_to 10713
  140.5165  134.6345  157.5303 LP  0  0  0  0  0  0  0  0  0  0  0  0  # atno 17394 bound_to 11000
  139.9782  134.7180  155.9908 LP  0  0  0  0  0  0  0  0  0  0  0  0  # atno 17395 bound_to 11000

$$$$
