AV-unprocessed.smi:2619|AV-procd|sdf|10222|dock2
  -GOLD-   2272014223D 1   1.00000     0.00000
 Structure written by MMmdl.
 25 26  0  0  0  0  0  0  0  0  1 V2000
  148.2257  142.2665  155.4435 O   0  0  0  0  0  0  0  0  0  0  0  0
  149.1046  141.4182  156.1528 C   0  0  0  0  0  0  0  0  0  0  0  0
  150.3506  142.1842  156.6276 C   0  0  0  0  0  0  0  0  0  0  0  0
  151.3695  141.3130  157.2019 N   0  0  0  0  0  0  0  0  0  0  0  0
  151.9274  140.1931  156.6727 C   0  0  0  0  0  0  0  0  0  0  0  0
  151.5713  139.6665  155.3156 C   0  0  0  0  0  0  0  0  0  0  0  0
  152.9489  138.7858  154.6071 Cl  0  0  0  0  0  0  0  0  0  0  0  0
  152.8448  139.5900  157.4297 N   0  0  0  0  0  0  0  0  0  0  0  0
  152.8874  140.3895  158.5543 C   0  0  0  0  0  0  0  0  0  0  0  0
  153.6665  140.2808  159.7284 C   0  0  0  0  0  0  0  0  0  0  0  0
  153.5391  141.2339  160.7599 C   0  0  0  0  0  0  0  0  0  0  0  0
  152.6331  142.3070  160.6324 C   0  0  0  0  0  0  0  0  0  0  0  0
  152.4875  143.4681  161.8999 Cl  0  0  0  0  0  0  0  0  0  0  0  0
  151.8469  142.4325  159.4708 C   0  0  0  0  0  0  0  0  0  0  0  0
  151.9768  141.4779  158.4440 C   0  0  0  0  0  0  0  0  0  0  0  0
  148.5313  143.1564  155.5294 H   0  0  0  0  0  0  0  0  0  0  0  0
  148.5738  141.0003  157.0084 H   0  0  0  0  0  0  0  0  0  0  0  0
  149.3825  140.5822  155.5124 H   0  0  0  0  0  0  0  0  0  0  0  0
  150.7905  142.7244  155.7886 H   0  0  0  0  0  0  0  0  0  0  0  0
  150.0762  142.9480  157.3537 H   0  0  0  0  0  0  0  0  0  0  0  0
  150.7359  138.9705  155.3945 H   0  0  0  0  0  0  0  0  0  0  0  0
  151.2794  140.4602  154.6304 H   0  0  0  0  0  0  0  0  0  0  0  0
  154.3643  139.4636  159.8350 H   0  0  0  0  0  0  0  0  0  0  0  0
  154.1409  141.1405  161.6520 H   0  0  0  0  0  0  0  0  0  0  0  0
  151.1550  143.2552  159.3678 H   0  0  0  0  0  0  0  0  0  0  0  0
  1  2  1  0  0  0  0
  1 16  1  0  0  0  0
  2  3  1  0  0  0  0
  2 17  1  0  0  0  0
  2 18  1  0  0  0  0
  3  4  1  0  0  0  0
  3 19  1  0  0  0  0
  3 20  1  0  0  0  0
  4 15  1  0  0  0  0
  4  5  1  0  0  0  0
  5  6  1  0  0  0  0
  5  8  2  0  0  0  0
  6  7  1  0  0  0  0
  6 21  1  0  0  0  0
  6 22  1  0  0  0  0
  8  9  1  0  0  0  0
  9 15  2  0  0  0  0
  9 10  1  0  0  0  0
 10 11  2  0  0  0  0
 10 23  1  0  0  0  0
 11 12  1  0  0  0  0
 11 24  1  0  0  0  0
 12 13  1  0  0  0  0
 12 14  2  0  0  0  0
 14 15  1  0  0  0  0
 14 25  1  0  0  0  0
M  END
> <s_m_source_file>
AV-unprocessed.smi

> <i_m_source_file_index>
2619

> <i_lp_mmshare_version>
43012

> <i_f3d_flags>
0

> <s_epik_input>
W09IXVtDSDJdW0NIMl1uKGMobjEpW0NIMl1DbCljKGMxMilbY0hdYyhDbClbY0hdW2NIXTI=

> <s_epik_cmdline>
J2VwaWtfcHl0aG9uJywgJy1waCcsICc3LjAnLCAnLXRuJywgJzgnLCAnLW1hJywgJzIwMCcsICctbWV0YWxfYmluZGluZycsICctaW1hZScsICc8aW5maWxlLm1hZT4nLCAnLW9tYWUnLCAnPG91dGZpbGUubWFlPic=

> <r_epik_Ionization_Penalty>
0.00756278

> <r_epik_Ionization_Penalty_Charging>
0

> <r_epik_Ionization_Penalty_Neutral>
0.00756278

> <r_epik_State_Penalty>
0.00565607

> <r_epik_Charging_Adjusted_Penalty>
0.00565607

> <i_epik_Tot_Q>
0

> <i_epik_Tot_abs_Q>
0

> <r_epik_Metal_State_Penalty>
-0

> <b_epik_Metal_Only>
0

> <s_lp_Force_Field>
OPLS_2005

> <r_lp_Energy>
6.1257

> <b_lp_Chiralities_Consistent>
1

> <s_lp_Variant>
AV-unprocessed.smi:2619-1

> <Gold.Version>
5.8.1

> <Gold.Id.Protein>
6NUR|6NUR_protein|mol2

> <Gold.PLP.Fitness>
41.2792

> <Gold.PLP.PLP>
-36.1737

> <Gold.PLP.part.hbond>
-2.0000

> <Gold.PLP.part.metal>
0.0000

> <Gold.PLP.part.buried>
-2.0687

> <Gold.PLP.part.nonpolar>
-31.6072

> <Gold.PLP.part.repulsive>
0.0000

> <Gold.PLP.ligand.clash>
0.0000

> <Gold.PLP.ligand.torsion>
0.4484

> <Gold.PLP.Chemscore.Hbond>
2.0000

> <Gold.PLP.Chemscore.CHOScore>
0.0000

> <Gold.PLP.Chemscore.Metal>
0.0000

> <Gold.Chemscore.Hbonds>
donor molecule, donor type, donor heavy atom, donor atom, acceptor molecule, acceptor atom, score
      L1  H     1    16       P1  8028  1.00
      P1  H  7997  8009       L1     8  0.95

> <Gold.PLP.Chemscore.Internal.Correction>
0.0024

> <Gold.Rescore>
     Score         DG    S(hbond)    S(metal)    S(lipo)     H(rot)  DE(clash)    DE(int)     intcor
     16.50     -17.12       1.56        0.00      95.97       1.88       0.35       0.27       ----

> <Gold.Chemscore.Fitness>
16.5011

> <Gold.Chemscore.DG>
-17.1242

> <Gold.Chemscore.ZeroCoef>
-5.4800

> <Gold.Chemscore.Hbond>
1.5649

> <Gold.Chemscore.Metal>
0.0000

> <Gold.Chemscore.Lipo>
95.9702

> <Gold.Chemscore.Internal_Hbond>
0.0000

> <Gold.Chemscore.DEClash>
0.3532

> <Gold.Chemscore.DEInternal>
0.2699

> <Gold.Chemscore.Rot>
1.8794

> <Gold.Chemscore.Internal.Correction>
   9.000000E+99

> <Gold.Chemscore.Hbonds>
donor molecule, donor type, donor heavy atom, donor atom, acceptor molecule, acceptor atom, score
      L1  H     1    16       P1  8028  0.98
      P1  H  7997  8009       L1     8  0.09

> <Gold.Chemscore.Hbond.Weighted>
-5.2269

> <Gold.Chemscore.Metal.Weighted>
-0.0000

> <Gold.Chemscore.Lipo.Weighted>
-11.2285

> <Gold.Chemscore.Internal_Hbond.Weighted>
0.0000

> <Gold.Chemscore.DEClash.Weighted>
0.3532

> <Gold.Chemscore.DEInternal.Weighted>
0.2699

> <Gold.Chemscore.Rot.Weighted>
4.8112

> <Gold.Chemscore.Internal.Correction.Weighted>
   9.000000E+99

> <Gold.Protein.RotatedTorsions>
[ 6907 6896 6895 6894 ] final  -17.84 input  -60.11 | X-H torsion
[ 7974 7965 7964 7962 ] final   49.88 input  175.53 | X-H torsion
[ 8008 7997 7996 7995 ] final  178.28 input   59.86 | X-H torsion
[ 10167 10162 10161 10158 ] final -149.05 input  -65.29 | X-H torsion
[ 10718 10713 10712 10709 ] final  -62.75 input   66.30 | X-H torsion
[ 10763 10752 10751 10750 ] final  -93.06 input  -60.55 | X-H torsion
[ 11005 11000 10999 10996 ] final   77.46 input  -57.11 | X-H torsion

> <Gold.Protein.ActiveResidues>
 VAL166  LYS551  ARG553  GLY616  TRP617  ASP618  TYR619  PRO620  LYS621  CYS622 
 ASP623  PHE694  ASN695  SER759  ASP760  ASP761  ALA762  ILE779  LEU786  VAL792 
 PHE793  MET794  SER795  GLU796  ALA797  LYS798  CYS799  TRP800  GLU811  SER814 

> <Gold.Protein.RotatedAtoms>
  151.2872  135.0731  159.9190 H   0  0  0  0  0  0  0  0  0  0  0  0  # atno 6907 bound_to 6896
  152.5323  133.9969  159.7887 H   0  0  0  0  0  0  0  0  0  0  0  0  # atno 6908 bound_to 6896
  151.0233  133.5806  159.2699 H   0  0  0  0  0  0  0  0  0  0  0  0  # atno 6909 bound_to 6896
  146.0066  139.4497  142.9982 H   0  0  0  0  0  0  0  0  0  0  0  0  # atno 7974 bound_to 7965
  156.0564  140.1337  156.9992 H   0  0  0  0  0  0  0  0  0  0  0  0  # atno 8008 bound_to 7997
  154.4460  140.1000  156.6522 H   0  0  0  0  0  0  0  0  0  0  0  0  # atno 8009 bound_to 7997
  155.5445  140.3461  155.4456 H   0  0  0  0  0  0  0  0  0  0  0  0  # atno 8010 bound_to 7997
  139.7477  143.8565  152.2579 H   0  0  0  0  0  0  0  0  0  0  0  0  # atno 10167 bound_to 10162
  156.0835  130.4212  150.1179 H   0  0  0  0  0  0  0  0  0  0  0  0  # atno 10718 bound_to 10713
  154.6922  135.5208  153.8408 H   0  0  0  0  0  0  0  0  0  0  0  0  # atno 10763 bound_to 10752
  153.0640  135.6578  154.0405 H   0  0  0  0  0  0  0  0  0  0  0  0  # atno 10764 bound_to 10752
  154.0278  135.2988  155.3352 H   0  0  0  0  0  0  0  0  0  0  0  0  # atno 10765 bound_to 10752
  139.9254  134.7684  156.1524 H   0  0  0  0  0  0  0  0  0  0  0  0  # atno 11005 bound_to 11000
  145.7406  141.0009  143.1303 LP  0  0  0  0  0  0  0  0  0  0  0  0  # atno 17320 bound_to 7965
  144.6938  139.9094  143.7462 LP  0  0  0  0  0  0  0  0  0  0  0  0  # atno 17321 bound_to 7965
  139.8534  144.7153  150.9186 LP  0  0  0  0  0  0  0  0  0  0  0  0  # atno 17342 bound_to 10162
  140.7794  143.3879  151.1361 LP  0  0  0  0  0  0  0  0  0  0  0  0  # atno 17343 bound_to 10162
  156.9206  130.9681  151.3549 LP  0  0  0  0  0  0  0  0  0  0  0  0  # atno 17370 bound_to 10713
  157.5961  130.8478  149.8731 LP  0  0  0  0  0  0  0  0  0  0  0  0  # atno 17371 bound_to 10713
  141.0807  133.6755  156.2330 LP  0  0  0  0  0  0  0  0  0  0  0  0  # atno 17394 bound_to 11000
  140.6353  134.5222  157.5564 LP  0  0  0  0  0  0  0  0  0  0  0  0  # atno 17395 bound_to 11000

$$$$
