AV-unprocessed.smi:1536|AV-procd|sdf|6187|dock9
  -GOLD-   22720 6353D 1   1.00000     0.00000
 Structure written by MMmdl.
 48 49  0  0  0  0  0  0  0  0  2 V2000
  144.3606  134.3263  150.1453 C   0  0  0  0  0  0  0  0  0  0  0  0
  145.2331  133.7766  151.2823 C   0  0  2  0  0  0  0  0  0  0  0  0
  145.5086  134.8449  152.3553 C   0  0  0  0  0  0  0  0  0  0  0  0
  146.4045  134.2946  153.4773 C   0  0  0  0  0  0  0  0  0  0  0  0
  147.6757  133.7616  152.9184 N   0  3  1  0  0  0  0  0  0  0  0  0
  148.7484  133.4854  153.9267 C   0  0  1  0  0  0  0  0  0  0  0  0
  148.9448  134.6271  154.9648 C   0  0  0  0  0  0  0  0  0  0  0  0
  149.6271  135.7882  154.4031 N   0  0  0  0  0  0  0  0  0  0  0  0
  150.7443  136.3541  154.8878 C   0  0  0  0  0  0  0  0  0  0  0  0
  151.3485  135.9247  155.8695 O   0  0  0  0  0  0  0  0  0  0  0  0
  151.2397  137.6212  154.1846 C   0  0  0  0  0  0  0  0  0  0  0  0
  151.6689  138.6375  155.1285 N   0  0  0  0  0  0  0  0  0  0  0  0
  152.5773  138.6009  156.1056 C   0  0  0  0  0  0  0  0  0  0  0  0
  152.6715  139.7660  156.7281 N   0  0  0  0  0  0  0  0  0  0  0  0
  151.7432  140.5531  156.0667 N   0  0  0  0  0  0  0  0  0  0  0  0
  151.1443  139.8887  155.1171 N   0  0  0  0  0  0  0  0  0  0  0  0
  148.5042  132.0987  154.5904 C   0  0  0  0  0  0  0  0  0  0  0  0
  147.1705  132.0250  155.3572 C   0  0  0  0  0  0  0  0  0  0  0  0
  149.6494  131.7104  155.5476 C   0  0  0  0  0  0  0  0  0  0  0  0
  147.4454  132.6974  151.9044 C   0  0  0  0  0  0  0  0  0  0  0  0
  146.5701  133.2245  150.7563 C   0  0  0  0  0  0  0  0  0  0  0  0
  144.8532  135.1512  149.6296 H   0  0  0  0  0  0  0  0  0  0  0  0
  143.4065  134.6934  150.5245 H   0  0  0  0  0  0  0  0  0  0  0  0
  144.1458  133.5535  149.4065 H   0  0  0  0  0  0  0  0  0  0  0  0
  144.6876  132.9564  151.7519 H   0  0  0  0  0  0  0  0  0  0  0  0
  145.9886  135.7123  151.8996 H   0  0  0  0  0  0  0  0  0  0  0  0
  144.5684  135.1996  152.7795 H   0  0  0  0  0  0  0  0  0  0  0  0
  146.6153  135.0945  154.1879 H   0  0  0  0  0  0  0  0  0  0  0  0
  145.8668  133.5196  154.0217 H   0  0  0  0  0  0  0  0  0  0  0  0
  149.6884  133.3929  153.3800 H   0  0  0  0  0  0  0  0  0  0  0  0
  147.9847  134.9028  155.4039 H   0  0  0  0  0  0  0  0  0  0  0  0
  149.5676  134.2859  155.7908 H   0  0  0  0  0  0  0  0  0  0  0  0
  149.2094  136.2062  153.5839 H   0  0  0  0  0  0  0  0  0  0  0  0
  152.0693  137.3691  153.5225 H   0  0  0  0  0  0  0  0  0  0  0  0
  150.4466  138.0382  153.5625 H   0  0  0  0  0  0  0  0  0  0  0  0
  153.1665  137.7308  156.3554 H   0  0  0  0  0  0  0  0  0  0  0  0
  148.4621  131.3398  153.8086 H   0  0  0  0  0  0  0  0  0  0  0  0
  147.0938  132.8207  156.0990 H   0  0  0  0  0  0  0  0  0  0  0  0
  147.0723  131.0743  155.8825 H   0  0  0  0  0  0  0  0  0  0  0  0
  146.3118  132.0988  154.6905 H   0  0  0  0  0  0  0  0  0  0  0  0
  149.7680  132.4473  156.3426 H   0  0  0  0  0  0  0  0  0  0  0  0
  150.6048  131.6212  155.0304 H   0  0  0  0  0  0  0  0  0  0  0  0
  149.4575  130.7456  156.0183 H   0  0  0  0  0  0  0  0  0  0  0  0
  148.3960  132.3495  151.5008 H   0  0  0  0  0  0  0  0  0  0  0  0
  146.9602  131.8356  152.3615 H   0  0  0  0  0  0  0  0  0  0  0  0
  146.3878  132.4243  150.0380 H   0  0  0  0  0  0  0  0  0  0  0  0
  147.1084  134.0059  150.2177 H   0  0  0  0  0  0  0  0  0  0  0  0
  148.0469  134.5398  152.3921 H   0  0  0  0  0  0  0  0  0  0  0  0
  1  2  1  0  0  0  0
  1 22  1  0  0  0  0
  1 23  1  0  0  0  0
  1 24  1  0  0  0  0
  2 21  1  0  0  0  0
  2  3  1  0  0  0  0
  2 25  1  0  0  0  0
  3  4  1  0  0  0  0
  3 26  1  0  0  0  0
  3 27  1  0  0  0  0
  4  5  1  0  0  0  0
  4 28  1  0  0  0  0
  4 29  1  0  0  0  0
  5  6  1  0  0  0  0
  5 20  1  0  0  0  0
  5 48  1  0  0  0  0
  6  7  1  0  0  0  0
  6 17  1  0  0  0  0
  6 30  1  0  0  0  0
  7  8  1  0  0  0  0
  7 31  1  0  0  0  0
  7 32  1  0  0  0  0
  8  9  1  0  0  0  0
  8 33  1  0  0  0  0
  9 10  2  0  0  0  0
  9 11  1  0  0  0  0
 11 12  1  0  0  0  0
 11 34  1  0  0  0  0
 11 35  1  0  0  0  0
 12 16  1  0  0  0  0
 12 13  1  0  0  0  0
 13 14  2  0  0  0  0
 13 36  1  0  0  0  0
 14 15  1  0  0  0  0
 15 16  2  0  0  0  0
 17 18  1  0  0  0  0
 17 19  1  0  0  0  0
 17 37  1  0  0  0  0
 18 38  1  0  0  0  0
 18 39  1  0  0  0  0
 18 40  1  0  0  0  0
 19 41  1  0  0  0  0
 19 42  1  0  0  0  0
 19 43  1  0  0  0  0
 20 21  1  0  0  0  0
 20 44  1  0  0  0  0
 20 45  1  0  0  0  0
 21 46  1  0  0  0  0
 21 47  1  0  0  0  0
M  CHG  1   5   1
M  END
> <s_m_source_file>
AV-unprocessed.smi

> <i_m_source_file_index>
1536

> <i_lp_mmshare_version>
43012

> <i_f3d_flags>
0

> <s_epik_input>
W0NIM11bQ0hdMVtDSDJdW0NIMl1OKFtDSDJdW0NIMl0xKVtDQEBIXShbQ0hdKFtDSDNdKVtDSDNdKVtDSDJdW05IXUMoPU8pW0NIMl1uMltjSF1ubm4y

> <s_epik_cmdline>
J2VwaWtfcHl0aG9uJywgJy1waCcsICc3LjAnLCAnLXRuJywgJzgnLCAnLW1hJywgJzIwMCcsICctbWV0YWxfYmluZGluZycsICctaW1hZScsICc8aW5maWxlLm1hZT4nLCAnLW9tYWUnLCAnPG91dGZpbGUubWFlPic=

> <r_lp_tautomer_probability>
1

> <r_epik_Ionization_Penalty>
0.00109671

> <r_epik_Ionization_Penalty_Charging>
0.00109273

> <r_epik_Ionization_Penalty_Neutral>
3.97951e-06

> <r_epik_State_Penalty>
0.000716588

> <r_epik_Charging_Adjusted_Penalty>
0.00180932

> <i_epik_Tot_Q>
1

> <i_epik_Tot_abs_Q>
1

> <r_epik_Metal_State_Penalty>
-0

> <b_epik_Metal_Only>
0

> <s_lp_Force_Field>
OPLS_2005

> <r_lp_Energy>
35.3262

> <b_lp_Chiralities_Consistent>
1

> <s_lp_Variant>
AV-unprocessed.smi:1536-2

> <Gold.Version>
5.8.1

> <Gold.Id.Protein>
6NUR|6NUR_protein|mol2

> <Gold.PLP.Fitness>
49.6965

> <Gold.PLP.PLP>
-33.1549

> <Gold.PLP.part.hbond>
-5.4500

> <Gold.PLP.part.metal>
0.0000

> <Gold.PLP.part.buried>
0.9602

> <Gold.PLP.part.nonpolar>
-28.9801

> <Gold.PLP.part.repulsive>
0.1416

> <Gold.PLP.ligand.clash>
0.0000

> <Gold.PLP.ligand.torsion>
0.6211

> <Gold.PLP.Chemscore.Hbond>
5.8224

> <Gold.PLP.Chemscore.CHOScore>
0.0000

> <Gold.PLP.Chemscore.Metal>
0.0000

> <Gold.Chemscore.Hbonds>
donor molecule, donor type, donor heavy atom, donor atom, acceptor molecule, acceptor atom, score
      L1  H     5    48       P1  7948  2.00
      L1  H     8    33       P1  7948  0.98
      P1  H  7989  7998       L1    16  1.00
      P1  H  7997  8009       L1    14  1.00
      P1  H 10752 10764       L1    10  0.95

> <Gold.PLP.Chemscore.Internal.Correction>
0.3166

> <Gold.Rescore>
     Score         DG    S(hbond)    S(metal)    S(lipo)     H(rot)  DE(clash)    DE(int)     intcor
     15.07     -16.97       3.47        0.00      59.81       2.77       0.22       1.68       ----

> <Gold.Chemscore.Fitness>
15.0689

> <Gold.Chemscore.DG>
-16.9690

> <Gold.Chemscore.ZeroCoef>
-5.4800

> <Gold.Chemscore.Hbond>
3.4683

> <Gold.Chemscore.Metal>
0.0000

> <Gold.Chemscore.Lipo>
59.8145

> <Gold.Chemscore.Internal_Hbond>
0.0000

> <Gold.Chemscore.DEClash>
0.2159

> <Gold.Chemscore.DEInternal>
1.6842

> <Gold.Chemscore.Rot>
2.7709

> <Gold.Chemscore.Internal.Correction>
   9.000000E+99

> <Gold.Chemscore.Hbonds>
donor molecule, donor type, donor heavy atom, donor atom, acceptor molecule, acceptor atom, score
      L1  H     5    48       P1  7948  0.34
      L1  H     8    33       P1  7948  0.85
      P1  H  7989  7998       L1    16  0.32
      P1  H  7997  8009       L1    14  0.38
      P1  H 10752 10764       L1    10  0.21

> <Gold.Chemscore.Hbond.Weighted>
-11.5843

> <Gold.Chemscore.Metal.Weighted>
-0.0000

> <Gold.Chemscore.Lipo.Weighted>
-6.9983

> <Gold.Chemscore.Internal_Hbond.Weighted>
0.0000

> <Gold.Chemscore.DEClash.Weighted>
0.2159

> <Gold.Chemscore.DEInternal.Weighted>
1.6842

> <Gold.Chemscore.Rot.Weighted>
7.0935

> <Gold.Chemscore.Internal.Correction.Weighted>
   9.000000E+99

> <Gold.Protein.RotatedTorsions>
[ 6907 6896 6895 6894 ] final -101.78 input  -60.11 | X-H torsion
[ 7974 7965 7964 7962 ] final  -63.47 input  175.53 | X-H torsion
[ 8008 7997 7996 7995 ] final  171.43 input   59.86 | X-H torsion
[ 10167 10162 10161 10158 ] final  -95.65 input  -65.29 | X-H torsion
[ 10718 10713 10712 10709 ] final  161.36 input   66.30 | X-H torsion
[ 10763 10752 10751 10750 ] final  -33.57 input  -60.55 | X-H torsion
[ 11005 11000 10999 10996 ] final   24.82 input  -57.11 | X-H torsion

> <Gold.Protein.ActiveResidues>
 VAL166  LYS551  ARG553  GLY616  TRP617  ASP618  TYR619  PRO620  LYS621  CYS622 
 ASP623  PHE694  ASN695  SER759  ASP760  ASP761  ALA762  ILE779  LEU786  VAL792 
 PHE793  MET794  SER795  GLU796  ALA797  LYS798  CYS799  TRP800  GLU811  SER814 

> <Gold.Protein.RotatedAtoms>
  150.7169  134.0681  159.3854 H   0  0  0  0  0  0  0  0  0  0  0  0  # atno 6907 bound_to 6896
  151.8662  135.0504  160.0484 H   0  0  0  0  0  0  0  0  0  0  0  0  # atno 6908 bound_to 6896
  152.2678  133.5319  159.5457 H   0  0  0  0  0  0  0  0  0  0  0  0  # atno 6909 bound_to 6896
  145.7787  140.8774  143.0342 H   0  0  0  0  0  0  0  0  0  0  0  0  # atno 7974 bound_to 7965
  156.1272  140.1512  156.9119 H   0  0  0  0  0  0  0  0  0  0  0  0  # atno 8008 bound_to 7997
  154.4880  140.0859  156.7571 H   0  0  0  0  0  0  0  0  0  0  0  0  # atno 8009 bound_to 7997
  155.4323  140.3427  155.4283 H   0  0  0  0  0  0  0  0  0  0  0  0  # atno 8010 bound_to 7997
  140.3020  143.3156  152.0238 H   0  0  0  0  0  0  0  0  0  0  0  0  # atno 10167 bound_to 10162
  157.1376  131.0532  151.2342 H   0  0  0  0  0  0  0  0  0  0  0  0  # atno 10718 bound_to 10713
  153.8324  135.6865  153.4813 H   0  0  0  0  0  0  0  0  0  0  0  0  # atno 10763 bound_to 10752
  153.1503  135.4621  154.9625 H   0  0  0  0  0  0  0  0  0  0  0  0  # atno 10764 bound_to 10752
  154.7881  135.3292  154.7785 H   0  0  0  0  0  0  0  0  0  0  0  0  # atno 10765 bound_to 10752
  140.3545  134.2192  155.7677 H   0  0  0  0  0  0  0  0  0  0  0  0  # atno 11005 bound_to 11000
  144.6800  139.9958  143.7484 LP  0  0  0  0  0  0  0  0  0  0  0  0  # atno 17320 bound_to 7965
  146.0096  139.3159  143.0878 LP  0  0  0  0  0  0  0  0  0  0  0  0  # atno 17321 bound_to 7965
  139.4913  144.6449  151.6800 LP  0  0  0  0  0  0  0  0  0  0  0  0  # atno 17342 bound_to 10162
  140.5643  144.0217  150.6184 LP  0  0  0  0  0  0  0  0  0  0  0  0  # atno 17343 bound_to 10162
  157.4336  130.7504  149.7010 LP  0  0  0  0  0  0  0  0  0  0  0  0  # atno 17370 bound_to 10713
  155.9795  130.4039  150.3584 LP  0  0  0  0  0  0  0  0  0  0  0  0  # atno 17371 bound_to 10713
  141.2002  133.7992  157.0499 LP  0  0  0  0  0  0  0  0  0  0  0  0  # atno 17394 bound_to 11000
  140.0676  134.9720  157.1412 LP  0  0  0  0  0  0  0  0  0  0  0  0  # atno 17395 bound_to 11000

$$$$
