AV-unprocessed.smi:1051|AV-procd|sdf|4615|dock4
  -GOLD-   22720 3113D 1   1.00000     0.00000
 Structure written by MMmdl.
 45 47  0  0  0  0  0  0  0  0  1 V2000
  144.7204  139.9273  157.5864 C   0  0  0  0  0  0  0  0  0  0  0  0
  145.9216  139.1929  156.9924 C   0  0  0  0  0  0  0  0  0  0  0  0
  146.1706  138.0544  157.3881 O   0  0  0  0  0  0  0  0  0  0  0  0
  146.7315  139.8996  155.9587 C   0  0  0  0  0  0  0  0  0  0  0  0
  146.2030  141.0539  155.3386 C   0  0  0  0  0  0  0  0  0  0  0  0
  146.9450  141.7419  154.3618 C   0  0  0  0  0  0  0  0  0  0  0  0
  148.2217  141.2815  153.9938 C   0  0  0  0  0  0  0  0  0  0  0  0
  148.7712  140.1318  154.5939 C   0  0  0  0  0  0  0  0  0  0  0  0
  150.0265  139.7510  154.1713 O   0  0  0  0  0  0  0  0  0  0  0  0
  150.6805  138.6907  154.8565 C   0  0  0  0  0  0  0  0  0  0  0  0
  151.5516  139.2887  155.9710 C   0  0  1  0  0  0  0  0  0  0  0  0
  152.6243  139.9658  155.3475 O   0  0  0  0  0  0  0  0  0  0  0  0
  150.7729  140.2951  156.8429 C   0  0  0  0  0  0  0  0  0  0  0  0
  151.5967  140.8144  157.9323 N   0  0  0  0  0  0  0  0  0  0  0  0
  152.4048  140.0922  158.7447 C   0  0  0  0  0  0  0  0  0  0  0  0
  152.5740  138.8738  158.6952 O   0  0  0  0  0  0  0  0  0  0  0  0
  152.9951  140.9455  159.6141 N   0  0  0  0  0  0  0  0  0  0  0  0
  153.9363  140.6076  160.6752 C   0  0  0  0  0  0  0  0  0  0  0  0
  152.5587  142.2493  159.3464 C   0  0  0  0  0  0  0  0  0  0  0  0
  152.8807  143.4733  159.9570 C   0  0  0  0  0  0  0  0  0  0  0  0
  152.2619  144.6356  159.4391 C   0  0  0  0  0  0  0  0  0  0  0  0
  151.3571  144.5532  158.3488 C   0  0  0  0  0  0  0  0  0  0  0  0
  151.0512  143.3071  157.7529 C   0  0  0  0  0  0  0  0  0  0  0  0
  151.6788  142.1683  158.2875 C   0  0  0  0  0  0  0  0  0  0  0  0
  148.0180  139.4450  155.5800 C   0  0  0  0  0  0  0  0  0  0  0  0
  145.0382  140.8488  158.0746 H   0  0  0  0  0  0  0  0  0  0  0  0
  144.2216  139.3038  158.3287 H   0  0  0  0  0  0  0  0  0  0  0  0
  143.9986  140.1724  156.8070 H   0  0  0  0  0  0  0  0  0  0  0  0
  145.2241  141.4250  155.6055 H   0  0  0  0  0  0  0  0  0  0  0  0
  146.5337  142.6240  153.8938 H   0  0  0  0  0  0  0  0  0  0  0  0
  148.7846  141.8147  153.2417 H   0  0  0  0  0  0  0  0  0  0  0  0
  149.9308  138.0271  155.2910 H   0  0  0  0  0  0  0  0  0  0  0  0
  151.2972  138.1060  154.1713 H   0  0  0  0  0  0  0  0  0  0  0  0
  151.9559  138.4761  156.5763 H   0  0  0  0  0  0  0  0  0  0  0  0
  152.3042  140.3693  154.5550 H   0  0  0  0  0  0  0  0  0  0  0  0
  150.3590  141.1050  156.2411 H   0  0  0  0  0  0  0  0  0  0  0  0
  149.9097  139.8021  157.2929 H   0  0  0  0  0  0  0  0  0  0  0  0
  153.5036  140.8416  161.6483 H   0  0  0  0  0  0  0  0  0  0  0  0
  154.8559  141.1825  160.5627 H   0  0  0  0  0  0  0  0  0  0  0  0
  154.1988  139.5489  160.6688 H   0  0  0  0  0  0  0  0  0  0  0  0
  153.5718  143.5278  160.7851 H   0  0  0  0  0  0  0  0  0  0  0  0
  152.4816  145.5977  159.8782 H   0  0  0  0  0  0  0  0  0  0  0  0
  150.8962  145.4528  157.9684 H   0  0  0  0  0  0  0  0  0  0  0  0
  150.3654  143.2395  156.9215 H   0  0  0  0  0  0  0  0  0  0  0  0
  148.4281  138.5659  156.0507 H   0  0  0  0  0  0  0  0  0  0  0  0
  1  2  1  0  0  0  0
  1 26  1  0  0  0  0
  1 27  1  0  0  0  0
  1 28  1  0  0  0  0
  2  3  2  0  0  0  0
  2  4  1  0  0  0  0
  4 25  1  0  0  0  0
  4  5  2  0  0  0  0
  5  6  1  0  0  0  0
  5 29  1  0  0  0  0
  6  7  2  0  0  0  0
  6 30  1  0  0  0  0
  7  8  1  0  0  0  0
  7 31  1  0  0  0  0
  8  9  1  0  0  0  0
  8 25  2  0  0  0  0
  9 10  1  0  0  0  0
 10 11  1  0  0  0  0
 10 32  1  0  0  0  0
 10 33  1  0  0  0  0
 11 12  1  0  0  0  0
 11 13  1  0  0  0  0
 11 34  1  0  0  0  0
 12 35  1  0  0  0  0
 13 14  1  0  0  0  0
 13 36  1  0  0  0  0
 13 37  1  0  0  0  0
 14 24  1  0  0  0  0
 14 15  1  0  0  0  0
 15 16  2  0  0  0  0
 15 17  1  0  0  0  0
 17 18  1  0  0  0  0
 17 19  1  0  0  0  0
 18 38  1  0  0  0  0
 18 39  1  0  0  0  0
 18 40  1  0  0  0  0
 19 24  2  0  0  0  0
 19 20  1  0  0  0  0
 20 21  2  0  0  0  0
 20 41  1  0  0  0  0
 21 22  1  0  0  0  0
 21 42  1  0  0  0  0
 22 23  2  0  0  0  0
 22 43  1  0  0  0  0
 23 24  1  0  0  0  0
 23 44  1  0  0  0  0
 25 45  1  0  0  0  0
M  END
> <s_m_source_file>
AV-unprocessed.smi

> <i_m_source_file_index>
1051

> <i_lp_mmshare_version>
43012

> <i_f3d_flags>
0

> <s_epik_input>
W0NIM11DKD1PKWMxW2NIXVtjSF1bY0hdYyhbY0hdMSlPW0NIMl1bQ0BIXShbT0hdKVtDSDJdbihjKD1PKW4yW0NIM10pYyhjMjMpW2NIXVtjSF1bY0hdW2NIXTM=

> <s_epik_cmdline>
J2VwaWtfcHl0aG9uJywgJy1waCcsICc3LjAnLCAnLXRuJywgJzgnLCAnLW1hJywgJzIwMCcsICctbWV0YWxfYmluZGluZycsICctaW1hZScsICc8aW5maWxlLm1hZT4nLCAnLW9tYWUnLCAnPG91dGZpbGUubWFlPic=

> <r_lp_tautomer_probability>
1

> <r_epik_Ionization_Penalty>
2.40143e-06

> <r_epik_Ionization_Penalty_Charging>
2.1343e-09

> <r_epik_Ionization_Penalty_Neutral>
2.3993e-06

> <r_epik_State_Penalty>
-0

> <r_epik_Charging_Adjusted_Penalty>
2.1343e-09

> <i_epik_Tot_Q>
0

> <i_epik_Tot_abs_Q>
0

> <r_epik_Metal_State_Penalty>
-0

> <b_epik_Metal_Only>
0

> <s_lp_Force_Field>
OPLS_2005

> <r_lp_Energy>
51.4738

> <b_lp_Chiralities_Consistent>
1

> <s_lp_Variant>
AV-unprocessed.smi:1051-2

> <Gold.Version>
5.8.1

> <Gold.Id.Protein>
6NUR|6NUR_protein|mol2

> <Gold.PLP.Fitness>
54.0101

> <Gold.PLP.PLP>
-49.0388

> <Gold.PLP.part.hbond>
-3.0000

> <Gold.PLP.part.metal>
0.0000

> <Gold.PLP.part.buried>
-4.4994

> <Gold.PLP.part.nonpolar>
-42.0010

> <Gold.PLP.part.repulsive>
1.3505

> <Gold.PLP.ligand.clash>
0.0000

> <Gold.PLP.ligand.torsion>
0.5919

> <Gold.PLP.Chemscore.Hbond>
2.0000

> <Gold.PLP.Chemscore.CHOScore>
0.0000

> <Gold.PLP.Chemscore.Metal>
0.0000

> <Gold.Chemscore.Hbonds>
donor molecule, donor type, donor heavy atom, donor atom, acceptor molecule, acceptor atom, score
      P1  H  7989  7998       L1     9  0.93
      P1  H  7997  8009       L1    12  1.00

> <Gold.PLP.Chemscore.Internal.Correction>
0.1551

> <Gold.Rescore>
     Score         DG    S(hbond)    S(metal)    S(lipo)     H(rot)  DE(clash)    DE(int)     intcor
     18.06     -20.65       1.79        0.00     128.96       2.30       0.58       2.01       ----

> <Gold.Chemscore.Fitness>
18.0594

> <Gold.Chemscore.DG>
-20.6530

> <Gold.Chemscore.ZeroCoef>
-5.4800

> <Gold.Chemscore.Hbond>
1.7870

> <Gold.Chemscore.Metal>
0.0000

> <Gold.Chemscore.Lipo>
128.9610

> <Gold.Chemscore.Internal_Hbond>
0.0000

> <Gold.Chemscore.DEClash>
0.5827

> <Gold.Chemscore.DEInternal>
2.0109

> <Gold.Chemscore.Rot>
2.2984

> <Gold.Chemscore.Internal.Correction>
   9.000000E+99

> <Gold.Chemscore.Hbonds>
donor molecule, donor type, donor heavy atom, donor atom, acceptor molecule, acceptor atom, score
      P1  H  7989  7998       L1     9  0.30
      P1  H  7997  8009       L1    12  0.99

> <Gold.Chemscore.Hbond.Weighted>
-5.9685

> <Gold.Chemscore.Metal.Weighted>
-0.0000

> <Gold.Chemscore.Lipo.Weighted>
-15.0884

> <Gold.Chemscore.Internal_Hbond.Weighted>
0.0000

> <Gold.Chemscore.DEClash.Weighted>
0.5827

> <Gold.Chemscore.DEInternal.Weighted>
2.0109

> <Gold.Chemscore.Rot.Weighted>
5.8839

> <Gold.Chemscore.Internal.Correction.Weighted>
   9.000000E+99

> <Gold.Protein.RotatedTorsions>
[ 6907 6896 6895 6894 ] final -107.69 input  -60.11 | X-H torsion
[ 7974 7965 7964 7962 ] final  142.54 input  175.53 | X-H torsion
[ 8008 7997 7996 7995 ] final -139.22 input   59.86 | X-H torsion
[ 10167 10162 10161 10158 ] final  -86.47 input  -65.29 | X-H torsion
[ 10718 10713 10712 10709 ] final   32.25 input   66.30 | X-H torsion
[ 10763 10752 10751 10750 ] final  173.44 input  -60.55 | X-H torsion
[ 11005 11000 10999 10996 ] final  178.82 input  -57.11 | X-H torsion

> <Gold.Protein.ActiveResidues>
 VAL166  LYS551  ARG553  GLY616  TRP617  ASP618  TYR619  PRO620  LYS621  CYS622 
 ASP623  PHE694  ASN695  SER759  ASP760  ASP761  ALA762  ILE779  LEU786  VAL792 
 PHE793  MET794  SER795  GLU796  ALA797  LYS798  CYS799  TRP800  GLU811  SER814 

> <Gold.Protein.RotatedAtoms>
  150.7458  133.9789  159.3569 H   0  0  0  0  0  0  0  0  0  0  0  0  # atno 6907 bound_to 6896
  151.7728  135.0780  160.0372 H   0  0  0  0  0  0  0  0  0  0  0  0  # atno 6908 bound_to 6896
  152.3327  133.5940  159.5857 H   0  0  0  0  0  0  0  0  0  0  0  0  # atno 6909 bound_to 6896
  144.8999  139.5438  143.5759 H   0  0  0  0  0  0  0  0  0  0  0  0  # atno 7974 bound_to 7965
  155.4412  140.0532  157.3010 H   0  0  0  0  0  0  0  0  0  0  0  0  # atno 8008 bound_to 7997
  154.4817  140.2084  155.9705 H   0  0  0  0  0  0  0  0  0  0  0  0  # atno 8009 bound_to 7997
  156.1216  140.3187  155.8221 H   0  0  0  0  0  0  0  0  0  0  0  0  # atno 8010 bound_to 7997
  140.3938  143.2693  151.9230 H   0  0  0  0  0  0  0  0  0  0  0  0  # atno 10167 bound_to 10162
  157.2828  130.7263  149.6566 H   0  0  0  0  0  0  0  0  0  0  0  0  # atno 10718 bound_to 10713
  154.4401  135.2762  155.1853 H   0  0  0  0  0  0  0  0  0  0  0  0  # atno 10763 bound_to 10752
  154.3723  135.6106  153.5750 H   0  0  0  0  0  0  0  0  0  0  0  0  # atno 10764 bound_to 10752
  152.9840  135.5860  154.4727 H   0  0  0  0  0  0  0  0  0  0  0  0  # atno 10765 bound_to 10752
  140.3993  134.6791  157.4553 H   0  0  0  0  0  0  0  0  0  0  0  0  # atno 11005 bound_to 11000
  146.3102  139.7720  142.9025 LP  0  0  0  0  0  0  0  0  0  0  0  0  # atno 17320 bound_to 7965
  145.3635  141.0330  143.3271 LP  0  0  0  0  0  0  0  0  0  0  0  0  # atno 17321 bound_to 7965
  139.4787  144.5701  151.8102 LP  0  0  0  0  0  0  0  0  0  0  0  0  # atno 17342 bound_to 10162
  140.4812  144.1447  150.5933 LP  0  0  0  0  0  0  0  0  0  0  0  0  # atno 17343 bound_to 10162
  155.9665  130.4333  150.4999 LP  0  0  0  0  0  0  0  0  0  0  0  0  # atno 17370 bound_to 10713
  157.2946  131.0633  151.2110 LP  0  0  0  0  0  0  0  0  0  0  0  0  # atno 17371 bound_to 10713
  140.0348  134.6353  155.9058 LP  0  0  0  0  0  0  0  0  0  0  0  0  # atno 17394 bound_to 11000
  141.1862  133.6557  156.5231 LP  0  0  0  0  0  0  0  0  0  0  0  0  # atno 17395 bound_to 11000

$$$$
