AV-unprocessed.smi:1040|AV-procd|sdf|4526|dock6
  -GOLD-   22720 2543D 1   1.00000     0.00000
 Structure written by MMmdl.
 55 56  0  0  0  0  0  0  0  0  2 V2000
  150.2799  137.1500  159.1353 C   0  0  0  0  0  0  0  0  0  0  0  0
  148.9487  136.4008  158.9621 C   0  0  2  0  0  0  0  0  0  0  0  0
  148.2339  136.8887  157.7845 N   0  0  0  0  0  0  0  0  0  0  0  0
  148.1151  138.1715  157.4161 C   0  0  0  0  0  0  0  0  0  0  0  0
  148.5717  139.1141  158.0628 O   0  0  0  0  0  0  0  0  0  0  0  0
  147.4578  138.2800  156.2500 N   0  0  0  0  0  0  0  0  0  0  0  0
  147.2193  139.4584  155.4896 C   0  0  0  0  0  0  0  0  0  0  0  0
  147.9333  140.6640  155.7064 C   0  0  0  0  0  0  0  0  0  0  0  0
  147.6340  141.8006  154.9288 C   0  0  0  0  0  0  0  0  0  0  0  0
  146.6218  141.7176  153.9542 C   0  0  0  0  0  0  0  0  0  0  0  0
  145.9499  140.5596  153.7832 N   0  3  0  0  0  0  0  0  0  0  0  0
  146.1992  139.4402  154.5055 C   0  0  0  0  0  0  0  0  0  0  0  0
  145.4385  138.2887  154.2467 N   0  0  0  0  0  0  0  0  0  0  0  0
  144.0914  138.3443  154.8081 C   0  0  0  0  0  0  0  0  0  0  0  0
  143.4001  136.9741  154.6986 C   0  0  0  0  0  0  0  0  0  0  0  0
  143.4134  136.4664  153.2474 C   0  0  0  0  0  0  0  0  0  0  0  0
  144.8496  136.4598  152.6981 C   0  0  0  0  0  0  0  0  0  0  0  0
  145.5057  137.8423  152.8576 C   0  0  0  0  0  0  0  0  0  0  0  0
  148.0522  136.4552  160.2043 C   0  0  0  0  0  0  0  0  0  0  0  0
  147.7098  137.5415  160.6734 O   0  0  0  0  0  0  0  0  0  0  0  0
  147.6979  135.2680  160.7284 N   0  0  0  0  0  0  0  0  0  0  0  0
  146.8623  135.0016  161.9054 C   0  0  0  0  0  0  0  0  0  0  0  0
  146.8017  133.4732  162.0736 C   0  0  0  0  0  0  0  0  0  0  0  0
  145.4312  135.5394  161.6924 C   0  0  0  0  0  0  0  0  0  0  0  0
  147.4925  135.6196  163.1708 C   0  0  0  0  0  0  0  0  0  0  0  0
  150.8246  136.7900  160.0088 H   0  0  0  0  0  0  0  0  0  0  0  0
  150.1183  138.2211  159.2633 H   0  0  0  0  0  0  0  0  0  0  0  0
  150.9271  137.0120  158.2685 H   0  0  0  0  0  0  0  0  0  0  0  0
  149.1828  135.3467  158.7982 H   0  0  0  0  0  0  0  0  0  0  0  0
  147.8269  136.1825  157.1884 H   0  0  0  0  0  0  0  0  0  0  0  0
  147.2136  137.4114  155.7966 H   0  0  0  0  0  0  0  0  0  0  0  0
  148.6966  140.7387  156.4660 H   0  0  0  0  0  0  0  0  0  0  0  0
  148.1710  142.7254  155.0822 H   0  0  0  0  0  0  0  0  0  0  0  0
  146.3270  142.5378  153.3156 H   0  0  0  0  0  0  0  0  0  0  0  0
  144.1396  138.6531  155.8533 H   0  0  0  0  0  0  0  0  0  0  0  0
  143.5073  139.0979  154.2779 H   0  0  0  0  0  0  0  0  0  0  0  0
  143.9108  136.2553  155.3409 H   0  0  0  0  0  0  0  0  0  0  0  0
  142.3749  137.0416  155.0636 H   0  0  0  0  0  0  0  0  0  0  0  0
  142.9841  135.4656  153.1935 H   0  0  0  0  0  0  0  0  0  0  0  0
  142.7866  137.1090  152.6279 H   0  0  0  0  0  0  0  0  0  0  0  0
  145.4404  135.7125  153.2299 H   0  0  0  0  0  0  0  0  0  0  0  0
  144.8490  136.1647  151.6484 H   0  0  0  0  0  0  0  0  0  0  0  0
  145.0011  138.5671  152.2172 H   0  0  0  0  0  0  0  0  0  0  0  0
  146.5467  137.7982  152.5346 H   0  0  0  0  0  0  0  0  0  0  0  0
  148.0493  134.4479  160.2552 H   0  0  0  0  0  0  0  0  0  0  0  0
  146.1945  133.1926  162.9350 H   0  0  0  0  0  0  0  0  0  0  0  0
  147.7958  133.0490  162.2221 H   0  0  0  0  0  0  0  0  0  0  0  0
  146.3664  132.9926  161.1963 H   0  0  0  0  0  0  0  0  0  0  0  0
  144.9872  135.1374  160.7810 H   0  0  0  0  0  0  0  0  0  0  0  0
  145.4073  136.6266  161.6196 H   0  0  0  0  0  0  0  0  0  0  0  0
  144.7804  135.2631  162.5227 H   0  0  0  0  0  0  0  0  0  0  0  0
  146.9258  135.3490  164.0622 H   0  0  0  0  0  0  0  0  0  0  0  0
  147.5175  136.7084  163.1279 H   0  0  0  0  0  0  0  0  0  0  0  0
  148.5159  135.2716  163.3153 H   0  0  0  0  0  0  0  0  0  0  0  0
  145.2174  140.5264  153.0740 H   0  0  0  0  0  0  0  0  0  0  0  0
  1  2  1  0  0  0  0
  1 26  1  0  0  0  0
  1 27  1  0  0  0  0
  1 28  1  0  0  0  0
  2  3  1  0  0  0  0
  2 19  1  0  0  0  0
  2 29  1  0  0  0  0
  3  4  1  0  0  0  0
  3 30  1  0  0  0  0
  4  5  2  0  0  0  0
  4  6  1  0  0  0  0
  6  7  1  0  0  0  0
  6 31  1  0  0  0  0
  7 12  1  0  0  0  0
  7  8  2  0  0  0  0
  8  9  1  0  0  0  0
  8 32  1  0  0  0  0
  9 10  2  0  0  0  0
  9 33  1  0  0  0  0
 10 11  1  0  0  0  0
 10 34  1  0  0  0  0
 11 12  2  0  0  0  0
 11 55  1  0  0  0  0
 12 13  1  0  0  0  0
 13 18  1  0  0  0  0
 13 14  1  0  0  0  0
 14 15  1  0  0  0  0
 14 35  1  0  0  0  0
 14 36  1  0  0  0  0
 15 16  1  0  0  0  0
 15 37  1  0  0  0  0
 15 38  1  0  0  0  0
 16 17  1  0  0  0  0
 16 39  1  0  0  0  0
 16 40  1  0  0  0  0
 17 18  1  0  0  0  0
 17 41  1  0  0  0  0
 17 42  1  0  0  0  0
 18 43  1  0  0  0  0
 18 44  1  0  0  0  0
 19 20  2  0  0  0  0
 19 21  1  0  0  0  0
 21 22  1  0  0  0  0
 21 45  1  0  0  0  0
 22 23  1  0  0  0  0
 22 24  1  0  0  0  0
 22 25  1  0  0  0  0
 23 46  1  0  0  0  0
 23 47  1  0  0  0  0
 23 48  1  0  0  0  0
 24 49  1  0  0  0  0
 24 50  1  0  0  0  0
 24 51  1  0  0  0  0
 25 52  1  0  0  0  0
 25 53  1  0  0  0  0
 25 54  1  0  0  0  0
M  CHG  1  11   1
M  END
> <s_m_source_file>
AV-unprocessed.smi

> <i_m_source_file_index>
1040

> <i_lp_mmshare_version>
43012

> <i_f3d_flags>
0

> <s_epik_input>
W0NIM11DKFtDSDNdKShbQ0gzXSlbTkhdQyg9TylbQ0BIXShbQ0gzXSlbTkhdQyg9TylbTkhdYzFbY0hdW2NIXVtjSF1uYzFOMltDSDJdW0NIMl1bQ0gyXVtDSDJdW0NIMl0y

> <s_epik_cmdline>
J2VwaWtfcHl0aG9uJywgJy1waCcsICc3LjAnLCAnLXRuJywgJzgnLCAnLW1hJywgJzIwMCcsICctbWV0YWxfYmluZGluZycsICctaW1hZScsICc8aW5maWxlLm1hZT4nLCAnLW9tYWUnLCAnPG91dGZpbGUubWFlPic=

> <r_lp_tautomer_probability>
0.999994

> <r_epik_Ionization_Penalty>
1.20468

> <r_epik_Ionization_Penalty_Charging>
1.20466

> <r_epik_Ionization_Penalty_Neutral>
1.88859e-05

> <r_epik_State_Penalty>
1.27057

> <r_epik_Charging_Adjusted_Penalty>
2.47523

> <i_epik_Tot_Q>
1

> <i_epik_Tot_abs_Q>
1

> <r_epik_Metal_State_Penalty>
1.34448

> <b_epik_Metal_Only>
0

> <s_lp_Force_Field>
OPLS_2005

> <r_lp_Energy>
28.5731

> <b_lp_Chiralities_Consistent>
1

> <s_lp_Variant>
AV-unprocessed.smi:1040-3

> <Gold.Version>
5.8.1

> <Gold.Id.Protein>
6NUR|6NUR_protein|mol2

> <Gold.PLP.Fitness>
41.0732

> <Gold.PLP.PLP>
-31.3099

> <Gold.PLP.part.hbond>
-3.5582

> <Gold.PLP.part.metal>
0.0000

> <Gold.PLP.part.buried>
-4.1908

> <Gold.PLP.part.nonpolar>
-25.1397

> <Gold.PLP.part.repulsive>
0.2389

> <Gold.PLP.ligand.clash>
0.0000

> <Gold.PLP.ligand.torsion>
0.6543

> <Gold.PLP.Chemscore.Hbond>
3.5924

> <Gold.PLP.Chemscore.CHOScore>
0.0000

> <Gold.PLP.Chemscore.Metal>
0.0000

> <Gold.Chemscore.Hbonds>
donor molecule, donor type, donor heavy atom, donor atom, acceptor molecule, acceptor atom, score
      L1  H    11    55       P1 10175  2.00
      P1  H  6931  6943       L1    20  0.64
      P1  H  6934  6947       L1    20  0.85

> <Gold.PLP.Chemscore.Internal.Correction>
0.2946

> <Gold.Rescore>
     Score         DG    S(hbond)    S(metal)    S(lipo)     H(rot)  DE(clash)    DE(int)     intcor
     14.94     -18.18       2.57        0.00      71.01       1.64       0.06       3.19       ----

> <Gold.Chemscore.Fitness>
14.9370

> <Gold.Chemscore.DG>
-18.1814

> <Gold.Chemscore.ZeroCoef>
-5.4800

> <Gold.Chemscore.Hbond>
2.5746

> <Gold.Chemscore.Metal>
0.0000

> <Gold.Chemscore.Lipo>
71.0066

> <Gold.Chemscore.Internal_Hbond>
0.0000

> <Gold.Chemscore.DEClash>
0.0553

> <Gold.Chemscore.DEInternal>
3.1892

> <Gold.Chemscore.Rot>
1.6428

> <Gold.Chemscore.Internal.Correction>
   9.000000E+99

> <Gold.Chemscore.Hbonds>
donor molecule, donor type, donor heavy atom, donor atom, acceptor molecule, acceptor atom, score
      L1  H    11    55       P1 10175  0.90
      P1  H  6931  6943       L1    20  0.54
      P1  H  6934  6947       L1    20  0.83

> <Gold.Chemscore.Hbond.Weighted>
-8.5991

> <Gold.Chemscore.Metal.Weighted>
-0.0000

> <Gold.Chemscore.Lipo.Weighted>
-8.3078

> <Gold.Chemscore.Internal_Hbond.Weighted>
0.0000

> <Gold.Chemscore.DEClash.Weighted>
0.0553

> <Gold.Chemscore.DEInternal.Weighted>
3.1892

> <Gold.Chemscore.Rot.Weighted>
4.2055

> <Gold.Chemscore.Internal.Correction.Weighted>
   9.000000E+99

> <Gold.Protein.RotatedTorsions>
[ 6907 6896 6895 6894 ] final -135.68 input  -60.11 | X-H torsion
[ 7974 7965 7964 7962 ] final   52.00 input  175.53 | X-H torsion
[ 8008 7997 7996 7995 ] final  -99.68 input   59.86 | X-H torsion
[ 10167 10162 10161 10158 ] final   31.55 input  -65.29 | X-H torsion
[ 10718 10713 10712 10709 ] final  102.94 input   66.30 | X-H torsion
[ 10763 10752 10751 10750 ] final -178.42 input  -60.55 | X-H torsion
[ 11005 11000 10999 10996 ] final  -43.24 input  -57.11 | X-H torsion

> <Gold.Protein.ActiveResidues>
 VAL166  LYS551  ARG553  GLY616  TRP617  ASP618  TYR619  PRO620  LYS621  CYS622 
 ASP623  PHE694  ASN695  SER759  ASP760  ASP761  ALA762  ILE779  LEU786  VAL792 
 PHE793  MET794  SER795  GLU796  ALA797  LYS798  CYS799  TRP800  GLU811  SER814 

> <Gold.Protein.RotatedAtoms>
  151.0009  133.6057  159.2695 H   0  0  0  0  0  0  0  0  0  0  0  0  # atno 6907 bound_to 6896
  151.3244  135.0825  159.9327 H   0  0  0  0  0  0  0  0  0  0  0  0  # atno 6908 bound_to 6896
  152.5273  133.9650  159.7789 H   0  0  0  0  0  0  0  0  0  0  0  0  # atno 6909 bound_to 6896
  145.9857  139.4288  143.0104 H   0  0  0  0  0  0  0  0  0  0  0  0  # atno 7974 bound_to 7965
  154.8182  140.0446  157.1391 H   0  0  0  0  0  0  0  0  0  0  0  0  # atno 8008 bound_to 7997
  154.9290  140.3037  155.5157 H   0  0  0  0  0  0  0  0  0  0  0  0  # atno 8009 bound_to 7997
  156.2978  140.2326  156.4348 H   0  0  0  0  0  0  0  0  0  0  0  0  # atno 8010 bound_to 7997
  140.4579  144.0951  150.6206 H   0  0  0  0  0  0  0  0  0  0  0  0  # atno 10167 bound_to 10162
  157.6787  131.0766  150.5480 H   0  0  0  0  0  0  0  0  0  0  0  0  # atno 10718 bound_to 10713
  154.5479  135.2811  155.1035 H   0  0  0  0  0  0  0  0  0  0  0  0  # atno 10763 bound_to 10752
  154.2492  135.6342  153.5238 H   0  0  0  0  0  0  0  0  0  0  0  0  # atno 10764 bound_to 10752
  152.9995  135.5578  154.6037 H   0  0  0  0  0  0  0  0  0  0  0  0  # atno 10765 bound_to 10752
  141.0370  133.6795  156.2706 H   0  0  0  0  0  0  0  0  0  0  0  0  # atno 11005 bound_to 11000
  145.7704  140.9899  143.1153 LP  0  0  0  0  0  0  0  0  0  0  0  0  # atno 17320 bound_to 7965
  144.6874  139.9439  143.7476 LP  0  0  0  0  0  0  0  0  0  0  0  0  # atno 17321 bound_to 7965
  140.4129  143.2648  151.9810 LP  0  0  0  0  0  0  0  0  0  0  0  0  # atno 17342 bound_to 10162
  139.4803  144.5899  151.7789 LP  0  0  0  0  0  0  0  0  0  0  0  0  # atno 17343 bound_to 10162
  156.5785  130.4298  149.5987 LP  0  0  0  0  0  0  0  0  0  0  0  0  # atno 17370 bound_to 10713
  156.2681  130.7001  151.1790 LP  0  0  0  0  0  0  0  0  0  0  0  0  # atno 17371 bound_to 10713
  140.6303  134.5270  157.5558 LP  0  0  0  0  0  0  0  0  0  0  0  0  # atno 17394 bound_to 11000
  139.9248  134.8077  156.1101 LP  0  0  0  0  0  0  0  0  0  0  0  0  # atno 17395 bound_to 11000

$$$$
