#       Name:                AV-unprocessed.smi:1554
#       Creating user name   scv26
#       Creation time:       Fri Mar 27 06:42:45 2020


#       File generated by GOLD software.
#

@<TRIPOS>MOLECULE
AV-unprocessed.smi:1554
    53    55     1
SMALL
NO_CHARGES


@<TRIPOS>ATOM
      1 ****        -3.6374   4.8876  -3.0142 C.3            1 S1                 0.0000
      2 ****        -3.2010   3.7921  -2.0576 C.ar           1 S1                 0.0000
      3 ****        -3.2280   4.0425  -0.6670 C.ar           1 S1                 0.0000
      4 ****        -2.8296   3.0504   0.2554 C.ar           1 S1                 0.0000
      5 ****        -2.7727   3.0788   1.6383 N.2            1 S1                 0.0000
      6 ****        -2.3233   1.8580   1.9138 C.2            1 S1                 0.0000
      7 ****        -2.0792   1.0408   0.8713 N.pl3          1 S1                 0.0000
      8 ****        -1.5879  -0.3248   0.9276 C.3            1 S1                 0.0000
      9 ****        -0.0491  -0.3994   0.9611 C.3            1 S1                 0.0000
     10 ****         0.4750   0.1836  -0.2169 O.3            1 S1                 0.0000
     11 ****         0.4467  -1.8565   1.0521 C.3            1 S1                 0.0000
     12 ****         1.9260  -1.9567   1.1411 N.4            1 S1                 1.0000
     13 ****         2.4715  -1.6032   2.4748 C.3            1 S1                 0.0000
     14 ****         4.0065  -1.6860   2.4627 C.3            1 S1                 0.0000
     15 ****         4.4109  -2.9902   2.0654 O.3            1 S1                 0.0000
     16 ****         3.9726  -3.3139   0.7505 C.3            1 S1                 0.0000
     17 ****         4.5331  -4.6931   0.3856 C.3            1 S1                 0.0000
     18 ****         2.4322  -3.2821   0.7108 C.3            1 S1                 0.0000
     19 ****        -2.4019   1.7900  -0.2553 C.ar           1 S1                 0.0000
     20 ****        -2.3699   1.5290  -1.6365 C.ar           1 S1                 0.0000
     21 ****        -2.7687   2.5322  -2.5444 C.ar           1 S1                 0.0000
     22 ****        -2.7266   2.2414  -4.0341 C.3            1 S1                 0.0000
     23 ****        -3.9929   5.7671  -2.4768 H              1 S1                 0.0000
     24 ****        -4.4484   4.5380  -3.6535 H              1 S1                 0.0000
     25 ****        -2.8043   5.1947  -3.6468 H              1 S1                 0.0000
     26 ****        -3.5552   5.0028  -0.2962 H              1 S1                 0.0000
     27 ****        -2.1606   1.5393   2.9332 H              1 S1                 0.0000
     28 ****        -2.0063  -0.8002   1.8158 H              1 S1                 0.0000
     29 ****        -1.9814  -0.8719   0.0696 H              1 S1                 0.0000
     30 ****         0.3054   0.1776   1.8149 H              1 S1                 0.0000
     31 ****         0.1505   1.0695  -0.2840 H              1 S1                 0.0000
     32 ****        -0.0010  -2.3611   1.9097 H              1 S1                 0.0000
     33 ****         0.0994  -2.3933   0.1678 H              1 S1                 0.0000
     34 ****         2.1704  -0.5955   2.7585 H              1 S1                 0.0000
     35 ****         2.0685  -2.2816   3.2284 H              1 S1                 0.0000
     36 ****         4.4326  -0.9384   1.7918 H              1 S1                 0.0000
     37 ****         4.4014  -1.4819   3.4581 H              1 S1                 0.0000
     38 ****         4.3730  -2.5803   0.0485 H              1 S1                 0.0000
     39 ****         4.2322  -4.9864  -0.6206 H              1 S1                 0.0000
     40 ****         4.1804  -5.4589   1.0771 H              1 S1                 0.0000
     41 ****         5.6229  -4.6918   0.4186 H              1 S1                 0.0000
     42 ****         2.0194  -4.0576   1.3585 H              1 S1                 0.0000
     43 ****         2.0890  -3.4944  -0.3027 H              1 S1                 0.0000
     44 ****        -2.0387   0.5654  -1.9944 H              1 S1                 0.0000
     45 ****        -2.3281   1.2464  -4.2337 H              1 S1                 0.0000
     46 ****        -2.0927   2.9643  -4.5482 H              1 S1                 0.0000
     47 ****        -3.7284   2.2931  -4.4610 H              1 S1                 0.0000
     48 ****         2.2942  -1.2858   0.4811 H              1 S1                 0.0000
     49 ****        -3.0077   3.8218   2.2651 LP             1 S1                 0.0000
     50 ****         0.1814  -0.3443  -1.0138 LP             1 S1                 0.0000
     51 ****         1.4740   0.1929  -0.1728 LP             1 S1                 0.0000
     52 ****         4.0263  -3.6552   2.7056 LP             1 S1                 0.0000
     53 ****         5.4093  -3.0398   2.0931 LP             1 S1                 0.0000
@<TRIPOS>BOND
    1    1    2 1     
    2    1   23 1     
    3    1   24 1     
    4    1   25 1     
    5    2   21 ar    
    6    2    3 ar    
    7    3    4 ar    
    8    3   26 1     
    9    4   19 ar    
   10    4    5 1     
   11    5    6 2     
   12    6    7 1     
   13    6   27 1     
   14    7    8 1     
   15    7   19 1     
   16    8    9 1     
   17    8   28 1     
   18    8   29 1     
   19    9   10 1     
   20    9   11 1     
   21    9   30 1     
   22   10   31 1     
   23   11   12 1     
   24   11   32 1     
   25   11   33 1     
   26   12   18 1     
   27   12   13 1     
   28   12   48 1     
   29   13   14 1     
   30   13   34 1     
   31   13   35 1     
   32   14   15 1     
   33   14   36 1     
   34   14   37 1     
   35   15   16 1     
   36   16   17 1     
   37   16   18 1     
   38   16   38 1     
   39   17   39 1     
   40   17   40 1     
   41   17   41 1     
   42   18   42 1     
   43   18   43 1     
   44   19   20 ar    
   45   20   21 ar    
   46   20   44 1     
   47   21   22 1     
   48   22   45 1     
   49   22   46 1     
   50   22   47 1     
   51    5   49 1     
   52   10   50 1     
   53   10   51 1     
   54   15   52 1     
   55   15   53 1     
@<TRIPOS>SUBSTRUCTURE
      1 S1             1
@<TRIPOS>SET
LONE_PAIRS      STATIC     ATOMS    <user>   **** ""
5 49 50 51 52 53
DONOR_HYDROGENS      STATIC     ATOMS    <user>   **** ""
2 31 48
ATOM$BLUE        STATIC     ATOMS    COLORGROUP SYSTEM
5 49 50 51 52 53
ATOM$RED        STATIC     ATOMS    COLORGROUP SYSTEM
2 31 48
