AV-unprocessed.smi:1552|AV-procd|sdf|6234|dock3
  -GOLD-   22720 6413D 1   1.00000     0.00000
 Structure written by MMmdl.
 50 51  0  0  0  0  0  0  0  0  2 V2000
  148.4022  141.5340  156.8729 C   0  0  0  0  0  0  0  0  0  0  0  0
  149.3716  142.0204  155.8624 N   0  3  0  0  0  0  0  0  0  0  0  0
  149.0132  141.5813  154.4935 C   0  0  0  0  0  0  0  0  0  0  0  0
  150.8172  141.8269  156.1980 C   0  0  2  0  0  0  0  0  0  0  0  0
  151.3207  140.3861  155.9021 C   0  0  0  0  0  0  0  0  0  0  0  0
  150.4166  139.3512  156.3975 N   0  0  0  0  0  0  0  0  0  0  0  0
  149.9067  138.3266  155.6965 C   0  0  0  0  0  0  0  0  0  0  0  0
  150.2008  138.1727  154.5122 O   0  0  0  0  0  0  0  0  0  0  0  0
  148.9640  137.3328  156.4027 C   0  0  0  0  0  0  0  0  0  0  0  0
  149.3551  135.9280  156.2123 N   0  0  0  0  0  0  0  0  0  0  0  0
  149.5299  135.4165  154.9340 C   0  0  0  0  0  0  0  0  0  0  0  0
  149.8792  134.1318  154.6860 C   0  0  0  0  0  0  0  0  0  0  0  0
  150.0935  133.1988  155.7869 C   0  0  0  0  0  0  0  0  0  0  0  0
  150.4126  132.0183  155.6643 O   0  0  0  0  0  0  0  0  0  0  0  0
  149.9053  133.7500  157.0573 N   0  0  0  0  0  0  0  0  0  0  0  0
  149.5434  135.0722  157.3199 C   0  0  0  0  0  0  0  0  0  0  0  0
  149.3982  135.4553  158.4802 O   0  0  0  0  0  0  0  0  0  0  0  0
  151.1549  142.3577  157.6243 C   0  0  0  0  0  0  0  0  0  0  0  0
  151.6001  143.8413  157.5976 C   0  0  0  0  0  0  0  0  0  0  0  0
  151.9359  144.3712  159.0007 C   0  0  0  0  0  0  0  0  0  0  0  0
  153.0166  143.5159  159.6742 C   0  0  0  0  0  0  0  0  0  0  0  0
  152.5934  142.0420  159.7202 C   0  0  0  0  0  0  0  0  0  0  0  0
  152.2532  141.5139  158.3172 C   0  0  0  0  0  0  0  0  0  0  0  0
  150.0401  133.1402  157.8508 H   0  0  0  0  0  0  0  0  0  0  0  0
  148.3683  140.4447  156.9023 H   0  0  0  0  0  0  0  0  0  0  0  0
  147.3997  141.8886  156.6317 H   0  0  0  0  0  0  0  0  0  0  0  0
  148.6437  141.9009  157.8700 H   0  0  0  0  0  0  0  0  0  0  0  0
  149.0689  140.4976  154.3908 H   0  0  0  0  0  0  0  0  0  0  0  0
  149.6729  142.0320  153.7516 H   0  0  0  0  0  0  0  0  0  0  0  0
  147.9952  141.8881  154.2520 H   0  0  0  0  0  0  0  0  0  0  0  0
  151.3638  142.4777  155.5136 H   0  0  0  0  0  0  0  0  0  0  0  0
  151.5005  140.2539  154.8354 H   0  0  0  0  0  0  0  0  0  0  0  0
  152.2877  140.2390  156.3847 H   0  0  0  0  0  0  0  0  0  0  0  0
  150.1564  139.4116  157.3714 H   0  0  0  0  0  0  0  0  0  0  0  0
  148.9473  137.5722  157.4671 H   0  0  0  0  0  0  0  0  0  0  0  0
  147.9390  137.4766  156.0563 H   0  0  0  0  0  0  0  0  0  0  0  0
  149.3774  136.0701  154.0870 H   0  0  0  0  0  0  0  0  0  0  0  0
  149.9997  133.7921  153.6673 H   0  0  0  0  0  0  0  0  0  0  0  0
  150.2598  142.2970  158.2439 H   0  0  0  0  0  0  0  0  0  0  0  0
  152.4712  143.9536  156.9506 H   0  0  0  0  0  0  0  0  0  0  0  0
  150.8188  144.4714  157.1727 H   0  0  0  0  0  0  0  0  0  0  0  0
  152.2701  145.4072  158.9366 H   0  0  0  0  0  0  0  0  0  0  0  0
  151.0351  144.3750  159.6158 H   0  0  0  0  0  0  0  0  0  0  0  0
  153.9552  143.6115  159.1267 H   0  0  0  0  0  0  0  0  0  0  0  0
  153.2075  143.8820  160.6835 H   0  0  0  0  0  0  0  0  0  0  0  0
  153.3908  141.4415  160.1594 H   0  0  0  0  0  0  0  0  0  0  0  0
  151.7271  141.9291  160.3736 H   0  0  0  0  0  0  0  0  0  0  0  0
  151.9409  140.4743  158.4126 H   0  0  0  0  0  0  0  0  0  0  0  0
  153.1553  141.5077  157.7041 H   0  0  0  0  0  0  0  0  0  0  0  0
  149.2526  143.0233  155.8450 H   0  0  0  0  0  0  0  0  0  0  0  0
  1  2  1  0  0  0  0
  1 25  1  0  0  0  0
  1 26  1  0  0  0  0
  1 27  1  0  0  0  0
  2  3  1  0  0  0  0
  2  4  1  0  0  0  0
  2 50  1  0  0  0  0
  3 28  1  0  0  0  0
  3 29  1  0  0  0  0
  3 30  1  0  0  0  0
  4  5  1  0  0  0  0
  4 18  1  0  0  0  0
  4 31  1  0  0  0  0
  5  6  1  0  0  0  0
  5 32  1  0  0  0  0
  5 33  1  0  0  0  0
  6  7  1  0  0  0  0
  6 34  1  0  0  0  0
  7  8  2  0  0  0  0
  7  9  1  0  0  0  0
  9 10  1  0  0  0  0
  9 35  1  0  0  0  0
  9 36  1  0  0  0  0
 10 16  1  0  0  0  0
 10 11  1  0  0  0  0
 11 12  2  0  0  0  0
 11 37  1  0  0  0  0
 12 13  1  0  0  0  0
 12 38  1  0  0  0  0
 13 14  2  0  0  0  0
 13 15  1  0  0  0  0
 15 24  1  0  0  0  0
 15 16  1  0  0  0  0
 16 17  2  0  0  0  0
 18 23  1  0  0  0  0
 18 19  1  0  0  0  0
 18 39  1  0  0  0  0
 19 20  1  0  0  0  0
 19 40  1  0  0  0  0
 19 41  1  0  0  0  0
 20 21  1  0  0  0  0
 20 42  1  0  0  0  0
 20 43  1  0  0  0  0
 21 22  1  0  0  0  0
 21 44  1  0  0  0  0
 21 45  1  0  0  0  0
 22 23  1  0  0  0  0
 22 46  1  0  0  0  0
 22 47  1  0  0  0  0
 23 48  1  0  0  0  0
 23 49  1  0  0  0  0
M  CHG  1   2   1
M  END
> <s_m_source_file>
AV-unprocessed.smi

> <i_m_source_file_index>
1552

> <i_lp_mmshare_version>
43012

> <i_f3d_flags>
0

> <s_epik_input>
W0NIMl0xW0NIMl1bQ0gyXVtDSDJdW0NIMl1bQ0hdMVtDQEhdKE4oW0NIM10pW0NIM10pW0NIMl1bTkhdQyg9TylbQ0gyXW4yW2NIXVtjSF1jKD1PKVtuSF1jMj1P

> <s_epik_cmdline>
J2VwaWtfcHl0aG9uJywgJy1waCcsICc3LjAnLCAnLXRuJywgJzgnLCAnLW1hJywgJzIwMCcsICctbWV0YWxfYmluZGluZycsICctaW1hZScsICc8aW5maWxlLm1hZT4nLCAnLW9tYWUnLCAnPG91dGZpbGUubWFlPic=

> <r_lp_tautomer_probability>
1

> <r_epik_Ionization_Penalty>
0.00705217

> <r_epik_Ionization_Penalty_Charging>
0.00705209

> <r_epik_Ionization_Penalty_Neutral>
7.66101e-08

> <r_epik_State_Penalty>
-0

> <r_epik_Charging_Adjusted_Penalty>
0.00705209

> <i_epik_Tot_Q>
1

> <i_epik_Tot_abs_Q>
1

> <r_epik_Metal_State_Penalty>
0.375122

> <b_epik_Metal_Only>
0

> <s_lp_Force_Field>
OPLS_2005

> <r_lp_Energy>
35.9588

> <b_lp_Chiralities_Consistent>
1

> <s_lp_Variant>
AV-unprocessed.smi:1552-1

> <Gold.Version>
5.8.1

> <Gold.Id.Protein>
6NUR|6NUR_protein|mol2

> <Gold.PLP.Fitness>
49.1535

> <Gold.PLP.PLP>
-39.6649

> <Gold.PLP.part.hbond>
-2.0000

> <Gold.PLP.part.metal>
0.0000

> <Gold.PLP.part.buried>
-5.0112

> <Gold.PLP.part.nonpolar>
-33.4191

> <Gold.PLP.part.repulsive>
0.4297

> <Gold.PLP.ligand.clash>
0.0000

> <Gold.PLP.ligand.torsion>
1.4784

> <Gold.PLP.Chemscore.Hbond>
3.0000

> <Gold.PLP.Chemscore.CHOScore>
1.0000

> <Gold.PLP.Chemscore.Metal>
0.0000

> <Gold.Chemscore.Hbonds>
donor molecule, donor type, donor heavy atom, donor atom, acceptor molecule, acceptor atom, score
      L1  H     2    50       P1  8028  2.00
      P1  H  6896  6909       L1    17  1.00
      L1  C    11    37       P1  7948  1.00

> <Gold.PLP.Chemscore.Internal.Correction>
0.4453

> <Gold.Rescore>
     Score         DG    S(hbond)    S(metal)    S(lipo)     H(rot)  DE(clash)    DE(int)     intcor
     13.88     -17.22       1.93        0.00      99.87       2.50       0.00       3.33       ----

> <Gold.Chemscore.Fitness>
13.8784

> <Gold.Chemscore.DG>
-17.2162

> <Gold.Chemscore.ZeroCoef>
-5.4800

> <Gold.Chemscore.Hbond>
1.9291

> <Gold.Chemscore.Metal>
0.0000

> <Gold.Chemscore.Lipo>
99.8703

> <Gold.Chemscore.Internal_Hbond>
0.0000

> <Gold.Chemscore.DEClash>
0.0029

> <Gold.Chemscore.DEInternal>
3.3349

> <Gold.Chemscore.Rot>
2.4968

> <Gold.Chemscore.Internal.Correction>
   9.000000E+99

> <Gold.Chemscore.Hbonds>
donor molecule, donor type, donor heavy atom, donor atom, acceptor molecule, acceptor atom, score
      L1  H     2    50       P1  8028  1.00
      P1  H  6896  6909       L1    17  0.33

> <Gold.Chemscore.Hbond.Weighted>
-6.4431

> <Gold.Chemscore.Metal.Weighted>
-0.0000

> <Gold.Chemscore.Lipo.Weighted>
-11.6848

> <Gold.Chemscore.Internal_Hbond.Weighted>
0.0000

> <Gold.Chemscore.DEClash.Weighted>
0.0029

> <Gold.Chemscore.DEInternal.Weighted>
3.3349

> <Gold.Chemscore.Rot.Weighted>
6.3917

> <Gold.Chemscore.Internal.Correction.Weighted>
   9.000000E+99

> <Gold.Protein.RotatedTorsions>
[ 6907 6896 6895 6894 ] final   31.38 input  -60.11 | X-H torsion
[ 7974 7965 7964 7962 ] final   53.91 input  175.53 | X-H torsion
[ 8008 7997 7996 7995 ] final   25.27 input   59.86 | X-H torsion
[ 10167 10162 10161 10158 ] final  -42.60 input  -65.29 | X-H torsion
[ 10718 10713 10712 10709 ] final -129.25 input   66.30 | X-H torsion
[ 10763 10752 10751 10750 ] final   95.03 input  -60.55 | X-H torsion
[ 11005 11000 10999 10996 ] final -177.54 input  -57.11 | X-H torsion

> <Gold.Protein.ActiveResidues>
 VAL166  LYS551  ARG553  GLY616  TRP617  ASP618  TYR619  PRO620  LYS621  CYS622 
 ASP623  PHE694  ASN695  SER759  ASP760  ASP761  ALA762  ILE779  LEU786  VAL792 
 PHE793  MET794  SER795  GLU796  ALA797  LYS798  CYS799  TRP800  GLU811  SER814 

> <Gold.Protein.RotatedAtoms>
  152.0595  134.9603  160.0574 H   0  0  0  0  0  0  0  0  0  0  0  0  # atno 6907 bound_to 6896
  152.0972  133.4226  159.4579 H   0  0  0  0  0  0  0  0  0  0  0  0  # atno 6908 bound_to 6896
  150.6838  134.2722  159.4636 H   0  0  0  0  0  0  0  0  0  0  0  0  # atno 6909 bound_to 6896
  145.9663  139.4106  143.0217 H   0  0  0  0  0  0  0  0  0  0  0  0  # atno 7974 bound_to 7965
  155.0091  140.3134  155.4837 H   0  0  0  0  0  0  0  0  0  0  0  0  # atno 8008 bound_to 7997
  156.2912  140.2218  156.5146 H   0  0  0  0  0  0  0  0  0  0  0  0  # atno 8009 bound_to 7997
  154.7551  140.0463  157.0914 H   0  0  0  0  0  0  0  0  0  0  0  0  # atno 8010 bound_to 7997
  140.6963  143.3029  151.3232 H   0  0  0  0  0  0  0  0  0  0  0  0  # atno 10167 bound_to 10162
  156.2028  130.6868  151.0559 H   0  0  0  0  0  0  0  0  0  0  0  0  # atno 10718 bound_to 10713
  153.2484  135.4268  155.0772 H   0  0  0  0  0  0  0  0  0  0  0  0  # atno 10763 bound_to 10752
  154.8371  135.3420  154.6547 H   0  0  0  0  0  0  0  0  0  0  0  0  # atno 10764 bound_to 10752
  153.6969  135.7030  153.5130 H   0  0  0  0  0  0  0  0  0  0  0  0  # atno 10765 bound_to 10752
  140.4398  134.6442  157.4752 H   0  0  0  0  0  0  0  0  0  0  0  0  # atno 11005 bound_to 11000
  145.7969  140.9789  143.1019 LP  0  0  0  0  0  0  0  0  0  0  0  0  # atno 17320 bound_to 7965
  144.6826  139.9752  143.7483 LP  0  0  0  0  0  0  0  0  0  0  0  0  # atno 17321 bound_to 7965
  139.6423  144.0516  152.2564 LP  0  0  0  0  0  0  0  0  0  0  0  0  # atno 17342 bound_to 10162
  140.0025  144.6283  150.7717 LP  0  0  0  0  0  0  0  0  0  0  0  0  # atno 17343 bound_to 10162
  157.6995  131.0781  150.6864 LP  0  0  0  0  0  0  0  0  0  0  0  0  # atno 17370 bound_to 10713
  156.6921  130.4598  149.5596 LP  0  0  0  0  0  0  0  0  0  0  0  0  # atno 17371 bound_to 10713
  140.0077  134.6738  155.9429 LP  0  0  0  0  0  0  0  0  0  0  0  0  # atno 17394 bound_to 11000
  141.1710  133.6537  156.4653 LP  0  0  0  0  0  0  0  0  0  0  0  0  # atno 17395 bound_to 11000

$$$$
