AV-unprocessed.smi:333|AV-procd|sdf|2361|dock3
  -GOLD-   2262022273D 1   1.00000     0.00000
 Structure written by MMmdl.
 26 26  0  0  0  0  0  0  0  0  1 V2000
  148.1238  129.7450  152.4910 N   0  0  0  0  0  0  0  0  0  0  0  0
  147.1503  130.3004  153.2234 C   0  0  0  0  0  0  0  0  0  0  0  0
  146.8682  129.8050  154.3143 O   0  0  0  0  0  0  0  0  0  0  0  0
  146.5179  131.4807  152.5964 C   0  0  0  0  0  0  0  0  0  0  0  0
  145.4187  131.4056  151.8032 C   0  0  0  0  0  0  0  0  0  0  0  0
  144.8183  132.5834  151.2017 C   0  0  0  0  0  0  0  0  0  0  0  0
  143.5871  132.4272  150.3181 C   0  0  0  0  0  0  0  0  0  0  0  0
  143.9336  132.1847  148.8396 C   0  0  0  0  0  0  0  0  0  0  0  0
  142.7986  132.3695  148.0204 O   0  0  0  0  0  0  0  0  0  0  0  0
  145.4136  133.7739  151.4459 C   0  0  0  0  0  0  0  0  0  0  0  0
  144.9626  135.1311  150.9096 C   0  0  0  0  0  0  0  0  0  0  0  0
  144.9460  135.1210  149.5768 F   0  0  0  0  0  0  0  0  0  0  0  0
  143.7388  135.4286  151.3448 F   0  0  0  0  0  0  0  0  0  0  0  0
  145.7790  136.1139  151.2966 F   0  0  0  0  0  0  0  0  0  0  0  0
  146.5471  133.8412  152.2687 N   0  0  0  0  0  0  0  0  0  0  0  0
  147.1503  132.7921  152.8701 C   0  0  0  0  0  0  0  0  0  0  0  0
  148.1404  132.9987  153.5721 O   0  0  0  0  0  0  0  0  0  0  0  0
  146.9360  134.7614  152.4177 H   0  0  0  0  0  0  0  0  0  0  0  0
  148.6090  128.9315  152.8409 H   0  0  0  0  0  0  0  0  0  0  0  0
  148.3680  130.1362  151.5932 H   0  0  0  0  0  0  0  0  0  0  0  0
  144.9494  130.4568  151.5893 H   0  0  0  0  0  0  0  0  0  0  0  0
  142.9350  131.6331  150.6778 H   0  0  0  0  0  0  0  0  0  0  0  0
  143.0032  133.3445  150.4008 H   0  0  0  0  0  0  0  0  0  0  0  0
  144.7091  132.8807  148.5190 H   0  0  0  0  0  0  0  0  0  0  0  0
  144.3256  131.1786  148.6887 H   0  0  0  0  0  0  0  0  0  0  0  0
  142.2314  133.0048  148.4302 H   0  0  0  0  0  0  0  0  0  0  0  0
  1  2  1  0  0  0  0
  1 19  1  0  0  0  0
  1 20  1  0  0  0  0
  2  3  2  0  0  0  0
  2  4  1  0  0  0  0
  4 16  1  0  0  0  0
  4  5  2  0  0  0  0
  5  6  1  0  0  0  0
  5 21  1  0  0  0  0
  6  7  1  0  0  0  0
  6 10  2  0  0  0  0
  7  8  1  0  0  0  0
  7 22  1  0  0  0  0
  7 23  1  0  0  0  0
  8  9  1  0  0  0  0
  8 24  1  0  0  0  0
  8 25  1  0  0  0  0
  9 26  1  0  0  0  0
 10 11  1  0  0  0  0
 10 15  1  0  0  0  0
 11 12  1  0  0  0  0
 11 13  1  0  0  0  0
 11 14  1  0  0  0  0
 15 18  1  0  0  0  0
 15 16  1  0  0  0  0
 16 17  2  0  0  0  0
M  END
> <s_m_source_file>
AV-unprocessed.smi

> <i_m_source_file_index>
333

> <i_lp_mmshare_version>
43012

> <i_f3d_flags>
0

> <s_epik_input>
W05IMl1DKD1PKWMxW2NIXWMoW0NIMl1bQ0gyXVtPSF0pYyhDKEYpKEYpRilbbkhdYzE9Tw==

> <s_epik_cmdline>
J2VwaWtfcHl0aG9uJywgJy1waCcsICc3LjAnLCAnLXRuJywgJzgnLCAnLW1hJywgJzIwMCcsICctbWV0YWxfYmluZGluZycsICctaW1hZScsICc8aW5maWxlLm1hZT4nLCAnLW9tYWUnLCAnPG91dGZpbGUubWFlPic=

> <r_lp_tautomer_probability>
0.999

> <r_epik_Ionization_Penalty>
1.33848

> <r_epik_Ionization_Penalty_Charging>
1.33848

> <r_epik_Ionization_Penalty_Neutral>
1.5599e-06

> <r_epik_State_Penalty>
1.41551

> <r_epik_Charging_Adjusted_Penalty>
2.75399

> <i_epik_Tot_Q>
0

> <i_epik_Tot_abs_Q>
0

> <r_epik_Metal_State_Penalty>
1.47649

> <b_epik_Metal_Only>
0

> <s_lp_Force_Field>
OPLS_2005

> <r_lp_Energy>
21.6261

> <b_lp_Chiralities_Consistent>
1

> <s_lp_Variant>
AV-unprocessed.smi:333-2

> <Gold.Version>
5.8.1

> <Gold.Id.Protein>
6NUR|6NUR_protein|mol2

> <Gold.PLP.Fitness>
37.2513

> <Gold.PLP.PLP>
-35.1016

> <Gold.PLP.part.hbond>
-3.5111

> <Gold.PLP.part.metal>
0.0000

> <Gold.PLP.part.buried>
-4.9250

> <Gold.PLP.part.nonpolar>
-25.7088

> <Gold.PLP.part.repulsive>
0.2676

> <Gold.PLP.ligand.clash>
0.0000

> <Gold.PLP.ligand.torsion>
1.9345

> <Gold.PLP.Chemscore.Hbond>
2.0000

> <Gold.PLP.Chemscore.CHOScore>
0.0000

> <Gold.PLP.Chemscore.Metal>
0.0000

> <Gold.Chemscore.Hbonds>
donor molecule, donor type, donor heavy atom, donor atom, acceptor molecule, acceptor atom, score
      L1  H     1    20       P1 10747  1.00
      L1  H     9    26       P1 10186  0.68

> <Gold.PLP.Chemscore.Internal.Correction>
0.0187

> <Gold.Rescore>
     Score         DG    S(hbond)    S(metal)    S(lipo)     H(rot)  DE(clash)    DE(int)     intcor
     11.60     -13.24       1.91        0.00      58.26       2.13       0.09       1.55       ----

> <Gold.Chemscore.Fitness>
11.6042

> <Gold.Chemscore.DG>
-13.2399

> <Gold.Chemscore.ZeroCoef>
-5.4800

> <Gold.Chemscore.Hbond>
1.9146

> <Gold.Chemscore.Metal>
0.0000

> <Gold.Chemscore.Lipo>
58.2579

> <Gold.Chemscore.Internal_Hbond>
0.0000

> <Gold.Chemscore.DEClash>
0.0901

> <Gold.Chemscore.DEInternal>
1.5456

> <Gold.Chemscore.Rot>
2.1294

> <Gold.Chemscore.Internal.Correction>
   9.000000E+99

> <Gold.Chemscore.Hbonds>
donor molecule, donor type, donor heavy atom, donor atom, acceptor molecule, acceptor atom, score
      L1  H     1    20       P1 10747  0.81
      L1  H     9    26       P1 10186  0.67

> <Gold.Chemscore.Hbond.Weighted>
-6.3949

> <Gold.Chemscore.Metal.Weighted>
-0.0000

> <Gold.Chemscore.Lipo.Weighted>
-6.8162

> <Gold.Chemscore.Internal_Hbond.Weighted>
0.0000

> <Gold.Chemscore.DEClash.Weighted>
0.0901

> <Gold.Chemscore.DEInternal.Weighted>
1.5456

> <Gold.Chemscore.Rot.Weighted>
5.4512

> <Gold.Chemscore.Internal.Correction.Weighted>
   9.000000E+99

> <Gold.Protein.RotatedTorsions>
[ 6907 6896 6895 6894 ] final -119.67 input  -60.11 | X-H torsion
[ 7974 7965 7964 7962 ] final   71.24 input  175.53 | X-H torsion
[ 8008 7997 7996 7995 ] final   86.33 input   59.86 | X-H torsion
[ 10167 10162 10161 10158 ] final   24.06 input  -65.29 | X-H torsion
[ 10718 10713 10712 10709 ] final   61.43 input   66.30 | X-H torsion
[ 10763 10752 10751 10750 ] final -170.09 input  -60.55 | X-H torsion
[ 11005 11000 10999 10996 ] final  -43.21 input  -57.11 | X-H torsion

> <Gold.Protein.ActiveResidues>
 VAL166  LYS551  ARG553  GLY616  TRP617  ASP618  TYR619  PRO620  LYS621  CYS622 
 ASP623  PHE694  ASN695  SER759  ASP760  ASP761  ALA762  ILE779  LEU786  VAL792 
 PHE793  MET794  SER795  GLU796  ALA797  LYS798  CYS799  TRP800  GLU811  SER814 

> <Gold.Protein.RotatedAtoms>
  150.8325  133.8067  159.3092 H   0  0  0  0  0  0  0  0  0  0  0  0  # atno 6907 bound_to 6896
  151.5793  135.1057  160.0023 H   0  0  0  0  0  0  0  0  0  0  0  0  # atno 6908 bound_to 6896
  152.4402  133.7393  159.6688 H   0  0  0  0  0  0  0  0  0  0  0  0  # atno 6909 bound_to 6896
  145.7683  139.2831  143.1336 H   0  0  0  0  0  0  0  0  0  0  0  0  # atno 7974 bound_to 7965
  155.9614  140.3393  155.6494 H   0  0  0  0  0  0  0  0  0  0  0  0  # atno 8008 bound_to 7997
  155.6793  140.0736  157.2509 H   0  0  0  0  0  0  0  0  0  0  0  0  # atno 8009 bound_to 7997
  154.4144  140.1677  156.1952 H   0  0  0  0  0  0  0  0  0  0  0  0  # atno 8010 bound_to 7997
  140.5219  143.9988  150.6421 H   0  0  0  0  0  0  0  0  0  0  0  0  # atno 10167 bound_to 10162
  157.5827  130.8994  149.9460 H   0  0  0  0  0  0  0  0  0  0  0  0  # atno 10718 bound_to 10713
  154.6453  135.2904  155.0054 H   0  0  0  0  0  0  0  0  0  0  0  0  # atno 10763 bound_to 10752
  154.1166  135.6554  153.4899 H   0  0  0  0  0  0  0  0  0  0  0  0  # atno 10764 bound_to 10752
  153.0347  135.5278  154.7337 H   0  0  0  0  0  0  0  0  0  0  0  0  # atno 10765 bound_to 10752
  141.0368  133.6796  156.2702 H   0  0  0  0  0  0  0  0  0  0  0  0  # atno 11005 bound_to 11000
  146.0196  140.8361  142.9930 LP  0  0  0  0  0  0  0  0  0  0  0  0  # atno 17320 bound_to 7965
  144.6817  140.2609  143.7319 LP  0  0  0  0  0  0  0  0  0  0  0  0  # atno 17321 bound_to 7965
  140.3339  143.3060  152.0658 LP  0  0  0  0  0  0  0  0  0  0  0  0  # atno 17342 bound_to 10162
  139.4926  144.6490  151.6717 LP  0  0  0  0  0  0  0  0  0  0  0  0  # atno 17343 bound_to 10162
  156.0874  130.3666  150.0460 LP  0  0  0  0  0  0  0  0  0  0  0  0  # atno 17370 bound_to 10713
  156.8597  130.9487  151.3619 LP  0  0  0  0  0  0  0  0  0  0  0  0  # atno 17371 bound_to 10713
  140.6307  134.5267  157.5559 LP  0  0  0  0  0  0  0  0  0  0  0  0  # atno 17394 bound_to 11000
  139.9247  134.8080  156.1105 LP  0  0  0  0  0  0  0  0  0  0  0  0  # atno 17395 bound_to 11000

$$$$
