AV-unprocessed.smi:1697|AV-procd|sdf|6812|dock4
  -GOLD-   22720 7593D 1   1.00000     0.00000
 Structure written by MMmdl.
 53 55  0  0  0  0  0  0  0  0  1 V2000
  143.5557  135.4929  150.8957 C   0  0  0  0  0  0  0  0  0  0  0  0
  144.8432  136.1286  151.4387 C   0  0  0  0  0  0  0  0  0  0  0  0
  144.5705  137.1899  152.3446 O   0  0  0  0  0  0  0  0  0  0  0  0
  145.7129  137.9017  152.8060 C   0  0  0  0  0  0  0  0  0  0  0  0
  145.3131  138.8060  153.9829 C   0  0  0  0  0  0  0  0  0  0  0  0
  146.4887  139.7136  154.3824 C   0  0  0  0  0  0  0  0  0  0  0  0
  146.9664  140.5431  153.2740 N   0  0  0  0  0  0  0  0  0  0  0  0
  148.0402  141.4314  153.7259 C   0  0  0  0  0  0  0  0  0  0  0  0
  149.1328  140.7737  154.5934 C   0  0  1  0  0  0  0  0  0  0  0  0
  149.9394  139.9666  153.7580 O   0  0  0  0  0  0  0  0  0  0  0  0
  150.0159  141.8306  155.2834 C   0  0  0  0  0  0  0  0  0  0  0  0
  150.8198  141.2716  156.3561 N   0  0  0  0  0  0  0  0  0  0  0  0
  151.3006  140.0162  156.4355 C   0  0  0  0  0  0  0  0  0  0  0  0
  152.0162  139.7043  157.5120 N   0  0  0  0  0  0  0  0  0  0  0  0
  151.9974  140.8975  158.2137 C   0  0  0  0  0  0  0  0  0  0  0  0
  152.5765  141.2388  159.4555 C   0  0  0  0  0  0  0  0  0  0  0  0
  152.4261  142.5370  159.9928 C   0  0  0  0  0  0  0  0  0  0  0  0
  153.0638  142.8597  161.3326 C   0  0  0  0  0  0  0  0  0  0  0  0
  151.6879  143.5185  159.2837 C   0  0  0  0  0  0  0  0  0  0  0  0
  151.5129  144.9197  159.8419 C   0  0  0  0  0  0  0  0  0  0  0  0
  151.1038  143.1945  158.0412 C   0  0  0  0  0  0  0  0  0  0  0  0
  151.2579  141.8985  157.5179 C   0  0  0  0  0  0  0  0  0  0  0  0
  147.3840  139.6832  152.1605 C   0  0  0  0  0  0  0  0  0  0  0  0
  146.2524  138.7694  151.6592 C   0  0  0  0  0  0  0  0  0  0  0  0
  143.7863  134.7350  150.1469 H   0  0  0  0  0  0  0  0  0  0  0  0
  142.9187  136.2427  150.4259 H   0  0  0  0  0  0  0  0  0  0  0  0
  142.9803  135.0089  151.6847 H   0  0  0  0  0  0  0  0  0  0  0  0
  145.4855  135.3804  151.9056 H   0  0  0  0  0  0  0  0  0  0  0  0
  145.4101  136.5448  150.6058 H   0  0  0  0  0  0  0  0  0  0  0  0
  146.5067  137.2246  153.1285 H   0  0  0  0  0  0  0  0  0  0  0  0
  144.4563  139.4212  153.7040 H   0  0  0  0  0  0  0  0  0  0  0  0
  144.9990  138.2036  154.8353 H   0  0  0  0  0  0  0  0  0  0  0  0
  146.1698  140.3523  155.2072 H   0  0  0  0  0  0  0  0  0  0  0  0
  147.3062  139.1010  154.7663 H   0  0  0  0  0  0  0  0  0  0  0  0
  148.5281  141.8820  152.8600 H   0  0  0  0  0  0  0  0  0  0  0  0
  147.5985  142.2634  154.2767 H   0  0  0  0  0  0  0  0  0  0  0  0
  148.6940  140.1407  155.3632 H   0  0  0  0  0  0  0  0  0  0  0  0
  149.5568  139.9586  152.8938 H   0  0  0  0  0  0  0  0  0  0  0  0
  150.6772  142.3101  154.5605 H   0  0  0  0  0  0  0  0  0  0  0  0
  149.3934  142.6206  155.7055 H   0  0  0  0  0  0  0  0  0  0  0  0
  151.1144  139.2899  155.6577 H   0  0  0  0  0  0  0  0  0  0  0  0
  153.1389  140.4908  159.9948 H   0  0  0  0  0  0  0  0  0  0  0  0
  152.3037  143.1573  162.0554 H   0  0  0  0  0  0  0  0  0  0  0  0
  153.7814  143.6736  161.2282 H   0  0  0  0  0  0  0  0  0  0  0  0
  153.5929  141.9974  161.7398 H   0  0  0  0  0  0  0  0  0  0  0  0
  150.9229  145.5444  159.1707 H   0  0  0  0  0  0  0  0  0  0  0  0
  152.4816  145.3998  159.9806 H   0  0  0  0  0  0  0  0  0  0  0  0
  151.0012  144.8860  160.8038 H   0  0  0  0  0  0  0  0  0  0  0  0
  150.5413  143.9328  157.4890 H   0  0  0  0  0  0  0  0  0  0  0  0
  147.7227  140.2859  151.3197 H   0  0  0  0  0  0  0  0  0  0  0  0
  148.2353  139.0720  152.4643 H   0  0  0  0  0  0  0  0  0  0  0  0
  146.6126  138.1360  150.8481 H   0  0  0  0  0  0  0  0  0  0  0  0
  145.4481  139.3794  151.2453 H   0  0  0  0  0  0  0  0  0  0  0  0
  1  2  1  0  0  0  0
  1 25  1  0  0  0  0
  1 26  1  0  0  0  0
  1 27  1  0  0  0  0
  2  3  1  0  0  0  0
  2 28  1  0  0  0  0
  2 29  1  0  0  0  0
  3  4  1  0  0  0  0
  4 24  1  0  0  0  0
  4  5  1  0  0  0  0
  4 30  1  0  0  0  0
  5  6  1  0  0  0  0
  5 31  1  0  0  0  0
  5 32  1  0  0  0  0
  6  7  1  0  0  0  0
  6 33  1  0  0  0  0
  6 34  1  0  0  0  0
  7  8  1  0  0  0  0
  7 23  1  0  0  0  0
  8  9  1  0  0  0  0
  8 35  1  0  0  0  0
  8 36  1  0  0  0  0
  9 10  1  0  0  0  0
  9 11  1  0  0  0  0
  9 37  1  0  0  0  0
 10 38  1  0  0  0  0
 11 12  1  0  0  0  0
 11 39  1  0  0  0  0
 11 40  1  0  0  0  0
 12 22  1  0  0  0  0
 12 13  1  0  0  0  0
 13 14  2  0  0  0  0
 13 41  1  0  0  0  0
 14 15  1  0  0  0  0
 15 22  2  0  0  0  0
 15 16  1  0  0  0  0
 16 17  2  0  0  0  0
 16 42  1  0  0  0  0
 17 18  1  0  0  0  0
 17 19  1  0  0  0  0
 18 43  1  0  0  0  0
 18 44  1  0  0  0  0
 18 45  1  0  0  0  0
 19 20  1  0  0  0  0
 19 21  2  0  0  0  0
 20 46  1  0  0  0  0
 20 47  1  0  0  0  0
 20 48  1  0  0  0  0
 21 22  1  0  0  0  0
 21 49  1  0  0  0  0
 23 24  1  0  0  0  0
 23 50  1  0  0  0  0
 23 51  1  0  0  0  0
 24 52  1  0  0  0  0
 24 53  1  0  0  0  0
M  END
> <s_m_source_file>
AV-unprocessed.smi

> <i_m_source_file_index>
1697

> <i_lp_mmshare_version>
43012

> <i_f3d_flags>
0

> <s_epik_input>
W0NIM11bQ0gyXU9bQ0hdMVtDSDJdW0NIMl1OKFtDSDJdW0NIMl0xKVtDSDJdW0NASF0oW09IXSlbQ0gyXW4oW2NIXW4yKWMoYzIzKVtjSF1jKFtDSDNdKWMoW2NIXTMpW0NIM10=

> <s_epik_cmdline>
J2VwaWtfcHl0aG9uJywgJy1waCcsICc3LjAnLCAnLXRuJywgJzgnLCAnLW1hJywgJzIwMCcsICctbWV0YWxfYmluZGluZycsICctaW1hZScsICc8aW5maWxlLm1hZT4nLCAnLW9tYWUnLCAnPG91dGZpbGUubWFlPic=

> <r_epik_Ionization_Penalty>
1.9836

> <r_epik_Ionization_Penalty_Charging>
0

> <r_epik_Ionization_Penalty_Neutral>
1.9836

> <r_epik_State_Penalty>
2.07269

> <r_epik_Charging_Adjusted_Penalty>
2.07269

> <i_epik_Tot_Q>
0

> <i_epik_Tot_abs_Q>
0

> <r_epik_Metal_State_Penalty>
2.00215

> <b_epik_Metal_Only>
0

> <s_lp_Force_Field>
OPLS_2005

> <r_lp_Energy>
35.1996

> <b_lp_Chiralities_Consistent>
1

> <s_lp_Variant>
AV-unprocessed.smi:1697-10

> <Gold.Version>
5.8.1

> <Gold.Id.Protein>
6NUR|6NUR_protein|mol2

> <Gold.PLP.Fitness>
55.7281

> <Gold.PLP.PLP>
-49.1994

> <Gold.PLP.part.hbond>
-2.5080

> <Gold.PLP.part.metal>
0.0000

> <Gold.PLP.part.buried>
2.9851

> <Gold.PLP.part.nonpolar>
-48.9195

> <Gold.PLP.part.repulsive>
0.3897

> <Gold.PLP.ligand.clash>
0.0000

> <Gold.PLP.ligand.torsion>
0.7690

> <Gold.PLP.Chemscore.Hbond>
2.6400

> <Gold.PLP.Chemscore.CHOScore>
0.0000

> <Gold.PLP.Chemscore.Metal>
0.0000

> <Gold.Chemscore.Hbonds>
donor molecule, donor type, donor heavy atom, donor atom, acceptor molecule, acceptor atom, score
      L1  H    10    38       P1  7957  1.00
      P1  H  7989  7998       L1    10  0.80

> <Gold.PLP.Chemscore.Internal.Correction>
0.1467

> <Gold.Rescore>
     Score         DG    S(hbond)    S(metal)    S(lipo)     H(rot)  DE(clash)    DE(int)     intcor
     18.19     -23.52       2.16        0.00     140.37       2.19       2.74       2.58       ----

> <Gold.Chemscore.Fitness>
18.1914

> <Gold.Chemscore.DG>
-23.5153

> <Gold.Chemscore.ZeroCoef>
-5.4800

> <Gold.Chemscore.Hbond>
2.1644

> <Gold.Chemscore.Metal>
0.0000

> <Gold.Chemscore.Lipo>
140.3732

> <Gold.Chemscore.Internal_Hbond>
0.0000

> <Gold.Chemscore.DEClash>
2.7407

> <Gold.Chemscore.DEInternal>
2.5831

> <Gold.Chemscore.Rot>
2.1943

> <Gold.Chemscore.Internal.Correction>
   9.000000E+99

> <Gold.Chemscore.Hbonds>
donor molecule, donor type, donor heavy atom, donor atom, acceptor molecule, acceptor atom, score
      L1  H    10    38       P1  7957  0.98
      P1  H  7989  7998       L1    10  0.19

> <Gold.Chemscore.Hbond.Weighted>
-7.2290

> <Gold.Chemscore.Metal.Weighted>
-0.0000

> <Gold.Chemscore.Lipo.Weighted>
-16.4237

> <Gold.Chemscore.Internal_Hbond.Weighted>
0.0000

> <Gold.Chemscore.DEClash.Weighted>
2.7407

> <Gold.Chemscore.DEInternal.Weighted>
2.5831

> <Gold.Chemscore.Rot.Weighted>
5.6174

> <Gold.Chemscore.Internal.Correction.Weighted>
   9.000000E+99

> <Gold.Protein.RotatedTorsions>
[ 6907 6896 6895 6894 ] final  110.42 input  -60.11 | X-H torsion
[ 7974 7965 7964 7962 ] final  -52.07 input  175.53 | X-H torsion
[ 8008 7997 7996 7995 ] final  -58.61 input   59.86 | X-H torsion
[ 10167 10162 10161 10158 ] final  -25.36 input  -65.29 | X-H torsion
[ 10718 10713 10712 10709 ] final  174.07 input   66.30 | X-H torsion
[ 10763 10752 10751 10750 ] final  -16.51 input  -60.55 | X-H torsion
[ 11005 11000 10999 10996 ] final -104.06 input  -57.11 | X-H torsion

> <Gold.Protein.ActiveResidues>
 VAL166  LYS551  ARG553  GLY616  TRP617  ASP618  TYR619  PRO620  LYS621  CYS622 
 ASP623  PHE694  ASN695  SER759  ASP760  ASP761  ALA762  ILE779  LEU786  VAL792 
 PHE793  MET794  SER795  GLU796  ALA797  LYS798  CYS799  TRP800  GLU811  SER814 

> <Gold.Protein.RotatedAtoms>
  152.5020  133.8802  159.7342 H   0  0  0  0  0  0  0  0  0  0  0  0  # atno 6907 bound_to 6896
  150.9267  133.6807  159.2826 H   0  0  0  0  0  0  0  0  0  0  0  0  # atno 6908 bound_to 6896
  151.4165  135.0997  159.9653 H   0  0  0  0  0  0  0  0  0  0  0  0  # atno 6909 bound_to 6896
  145.9120  140.7907  142.9690 H   0  0  0  0  0  0  0  0  0  0  0  0  # atno 7974 bound_to 7965
  154.4316  140.1080  156.5985 H   0  0  0  0  0  0  0  0  0  0  0  0  # atno 8008 bound_to 7997
  155.5936  140.3492  155.4555 H   0  0  0  0  0  0  0  0  0  0  0  0  # atno 8009 bound_to 7997
  156.0227  140.1243  157.0330 H   0  0  0  0  0  0  0  0  0  0  0  0  # atno 8010 bound_to 7997
  140.7286  143.4271  151.0859 H   0  0  0  0  0  0  0  0  0  0  0  0  # atno 10167 bound_to 10162
  156.9549  131.0043  151.2940 H   0  0  0  0  0  0  0  0  0  0  0  0  # atno 10718 bound_to 10713
  153.5597  135.7010  153.5553 H   0  0  0  0  0  0  0  0  0  0  0  0  # atno 10763 bound_to 10752
  153.3440  135.4013  155.1594 H   0  0  0  0  0  0  0  0  0  0  0  0  # atno 10764 bound_to 10752
  154.8649  135.3749  154.5113 H   0  0  0  0  0  0  0  0  0  0  0  0  # atno 10765 bound_to 10752
  141.1117  133.8692  157.1564 H   0  0  0  0  0  0  0  0  0  0  0  0  # atno 11005 bound_to 11000
  144.6744  140.1841  143.7403 LP  0  0  0  0  0  0  0  0  0  0  0  0  # atno 17320 bound_to 7965
  145.8659  139.2247  143.1689 LP  0  0  0  0  0  0  0  0  0  0  0  0  # atno 17321 bound_to 7965
  139.7924  143.8200  152.3153 LP  0  0  0  0  0  0  0  0  0  0  0  0  # atno 17342 bound_to 10162
  139.8188  144.7304  150.9600 LP  0  0  0  0  0  0  0  0  0  0  0  0  # atno 17343 bound_to 10162
  157.5697  130.8302  149.8374 LP  0  0  0  0  0  0  0  0  0  0  0  0  # atno 17370 bound_to 10713
  156.0347  130.3755  150.1593 LP  0  0  0  0  0  0  0  0  0  0  0  0  # atno 17371 bound_to 10713
  140.0015  135.0026  157.0201 LP  0  0  0  0  0  0  0  0  0  0  0  0  # atno 17394 bound_to 11000
  140.4756  134.1342  155.7209 LP  0  0  0  0  0  0  0  0  0  0  0  0  # atno 17395 bound_to 11000

$$$$
