AV-unprocessed.smi:2468|AV-procd|sdf|9730|dock1
  -GOLD-   2272013373D 1   1.00000     0.00000
 Structure written by MMmdl.
 32 33  0  0  0  0  0  0  0  0  1 V2000
  153.1173  142.3949  161.3290 C   0  0  0  0  0  0  0  0  0  0  0  0
  152.4100  143.2222  160.2719 C   0  0  0  0  0  0  0  0  0  0  0  0
  152.1998  144.5186  160.5879 N   0  0  0  0  0  0  0  0  0  0  0  0
  151.5823  145.3009  159.6793 C   0  0  0  0  0  0  0  0  0  0  0  0
  151.1432  144.8342  158.4259 C   0  0  0  0  0  0  0  0  0  0  0  0
  151.3464  143.4721  158.0978 C   0  0  0  0  0  0  0  0  0  0  0  0
  150.9627  142.8989  156.8533 N   0  0  0  0  0  0  0  0  0  0  0  0
  150.4121  141.6959  156.6078 C   0  0  0  0  0  0  0  0  0  0  0  0
  150.1847  140.8433  157.4664 O   0  0  0  0  0  0  0  0  0  0  0  0
  150.1048  141.3972  155.1303 C   0  0  1  0  0  0  0  0  0  0  0  0
  150.8918  140.2689  154.7440 O   0  0  0  0  0  0  0  0  0  0  0  0
  150.0622  139.1643  154.3913 C   0  0  0  0  0  0  0  0  0  0  0  0
  148.6871  139.4795  154.9693 C   0  0  0  0  0  0  0  0  0  0  0  0
  148.6475  140.9873  154.8275 C   0  0  1  0  0  0  0  0  0  0  0  0
  147.5383  141.6769  155.6424 C   0  0  0  0  0  0  0  0  0  0  0  0
  152.0085  142.6515  159.0413 C   0  0  0  0  0  0  0  0  0  0  0  0
  152.3177  140.9815  158.7004 Cl  0  0  0  0  0  0  0  0  0  0  0  0
  152.4867  141.5629  161.6433 H   0  0  0  0  0  0  0  0  0  0  0  0
  153.3559  142.9894  162.2119 H   0  0  0  0  0  0  0  0  0  0  0  0
  154.0494  141.9911  160.9328 H   0  0  0  0  0  0  0  0  0  0  0  0
  151.4402  146.3349  159.9567 H   0  0  0  0  0  0  0  0  0  0  0  0
  150.6765  145.5284  157.7446 H   0  0  0  0  0  0  0  0  0  0  0  0
  151.1862  143.4532  156.0392 H   0  0  0  0  0  0  0  0  0  0  0  0
  150.3861  142.2552  154.5175 H   0  0  0  0  0  0  0  0  0  0  0  0
  150.0110  139.1019  153.3036 H   0  0  0  0  0  0  0  0  0  0  0  0
  150.4683  138.2245  154.7659 H   0  0  0  0  0  0  0  0  0  0  0  0
  147.8793  138.9779  154.4359 H   0  0  0  0  0  0  0  0  0  0  0  0
  148.6380  139.1853  156.0185 H   0  0  0  0  0  0  0  0  0  0  0  0
  148.4631  141.2144  153.7759 H   0  0  0  0  0  0  0  0  0  0  0  0
  147.5937  141.4304  156.7030 H   0  0  0  0  0  0  0  0  0  0  0  0
  146.5538  141.3692  155.2896 H   0  0  0  0  0  0  0  0  0  0  0  0
  147.5994  142.7612  155.5454 H   0  0  0  0  0  0  0  0  0  0  0  0
  1  2  1  0  0  0  0
  1 18  1  0  0  0  0
  1 19  1  0  0  0  0
  1 20  1  0  0  0  0
  2 16  1  0  0  0  0
  2  3  2  0  0  0  0
  3  4  1  0  0  0  0
  4  5  2  0  0  0  0
  4 21  1  0  0  0  0
  5  6  1  0  0  0  0
  5 22  1  0  0  0  0
  6  7  1  0  0  0  0
  6 16  2  0  0  0  0
  7  8  1  0  0  0  0
  7 23  1  0  0  0  0
  8  9  2  0  0  0  0
  8 10  1  0  0  0  0
 10 14  1  0  0  0  0
 10 11  1  0  0  0  0
 10 24  1  0  0  0  0
 11 12  1  0  0  0  0
 12 13  1  0  0  0  0
 12 25  1  0  0  0  0
 12 26  1  0  0  0  0
 13 14  1  0  0  0  0
 13 27  1  0  0  0  0
 13 28  1  0  0  0  0
 14 15  1  0  0  0  0
 14 29  1  0  0  0  0
 15 30  1  0  0  0  0
 15 31  1  0  0  0  0
 15 32  1  0  0  0  0
 16 17  1  0  0  0  0
M  END
> <s_m_source_file>
AV-unprocessed.smi

> <i_m_source_file_index>
2468

> <i_lp_mmshare_version>
43012

> <i_f3d_flags>
0

> <s_epik_input>
W0NIM11jMW5bY0hdW2NIXWMoYzFDbClbTkhdQyg9TylbQ0BASF0yT1tDSDJdW0NIMl1bQ0BIXTJbQ0gzXQ==

> <s_epik_cmdline>
J2VwaWtfcHl0aG9uJywgJy1waCcsICc3LjAnLCAnLXRuJywgJzgnLCAnLW1hJywgJzIwMCcsICctbWV0YWxfYmluZGluZycsICctaW1hZScsICc8aW5maWxlLm1hZT4nLCAnLW9tYWUnLCAnPG91dGZpbGUubWFlPic=

> <r_epik_Ionization_Penalty>
0.000361027

> <r_epik_Ionization_Penalty_Charging>
0

> <r_epik_Ionization_Penalty_Neutral>
0.000361027

> <r_epik_State_Penalty>
0.000217849

> <r_epik_Charging_Adjusted_Penalty>
0.000217849

> <i_epik_Tot_Q>
0

> <i_epik_Tot_abs_Q>
0

> <r_epik_Metal_State_Penalty>
-0

> <b_epik_Metal_Only>
0

> <s_lp_Force_Field>
OPLS_2005

> <r_lp_Energy>
25.7151

> <b_lp_Chiralities_Consistent>
1

> <s_lp_Variant>
AV-unprocessed.smi:2468-2

> <Gold.Version>
5.8.1

> <Gold.Id.Protein>
6NUR|6NUR_protein|mol2

> <Gold.PLP.Fitness>
36.2504

> <Gold.PLP.PLP>
-37.8675

> <Gold.PLP.part.hbond>
-2.0000

> <Gold.PLP.part.metal>
0.0000

> <Gold.PLP.part.buried>
-4.3377

> <Gold.PLP.part.nonpolar>
-31.3648

> <Gold.PLP.part.repulsive>
0.2463

> <Gold.PLP.ligand.clash>
3.9305

> <Gold.PLP.ligand.torsion>
0.3513

> <Gold.PLP.Chemscore.Hbond>
1.0000

> <Gold.PLP.Chemscore.CHOScore>
0.0000

> <Gold.PLP.Chemscore.Metal>
0.0000

> <Gold.Chemscore.Hbonds>
donor molecule, donor type, donor heavy atom, donor atom, acceptor molecule, acceptor atom, score
      P1  H  7989  7998       L1    11  1.00

> <Gold.PLP.Chemscore.Internal.Correction>
0.0161

> <Gold.Rescore>
     Score         DG    S(hbond)    S(metal)    S(lipo)     H(rot)  DE(clash)    DE(int)     intcor
     13.12     -17.96       0.81        0.00     105.38       1.00       0.38       4.46       ----

> <Gold.Chemscore.Fitness>
13.1226

> <Gold.Chemscore.DG>
-17.9627

> <Gold.Chemscore.ZeroCoef>
-5.4800

> <Gold.Chemscore.Hbond>
0.8123

> <Gold.Chemscore.Metal>
0.0000

> <Gold.Chemscore.Lipo>
105.3831

> <Gold.Chemscore.Internal_Hbond>
0.0000

> <Gold.Chemscore.DEClash>
0.3840

> <Gold.Chemscore.DEInternal>
4.4561

> <Gold.Chemscore.Rot>
1.0000

> <Gold.Chemscore.Internal.Correction>
   9.000000E+99

> <Gold.Chemscore.Hbonds>
donor molecule, donor type, donor heavy atom, donor atom, acceptor molecule, acceptor atom, score
      P1  H  7989  7998       L1    11  0.20

> <Gold.Chemscore.Hbond.Weighted>
-2.7129

> <Gold.Chemscore.Metal.Weighted>
-0.0000

> <Gold.Chemscore.Lipo.Weighted>
-12.3298

> <Gold.Chemscore.Internal_Hbond.Weighted>
0.0000

> <Gold.Chemscore.DEClash.Weighted>
0.3840

> <Gold.Chemscore.DEInternal.Weighted>
4.4561

> <Gold.Chemscore.Rot.Weighted>
2.5600

> <Gold.Chemscore.Internal.Correction.Weighted>
   9.000000E+99

> <Gold.Protein.RotatedTorsions>
[ 6907 6896 6895 6894 ] final    7.56 input  -60.11 | X-H torsion
[ 7974 7965 7964 7962 ] final   52.03 input  175.53 | X-H torsion
[ 8008 7997 7996 7995 ] final -123.81 input   59.86 | X-H torsion
[ 10167 10162 10161 10158 ] final  -32.62 input  -65.29 | X-H torsion
[ 10718 10713 10712 10709 ] final  -45.84 input   66.30 | X-H torsion
[ 10763 10752 10751 10750 ] final  -50.62 input  -60.55 | X-H torsion
[ 11005 11000 10999 10996 ] final -133.76 input  -57.11 | X-H torsion

> <Gold.Protein.ActiveResidues>
 VAL166  LYS551  ARG553  GLY616  TRP617  ASP618  TYR619  PRO620  LYS621  CYS622 
 ASP623  PHE694  ASN695  SER759  ASP760  ASP761  ALA762  ILE779  LEU786  VAL792 
 PHE793  MET794  SER795  GLU796  ALA797  LYS798  CYS799  TRP800  GLU811  SER814 

> <Gold.Protein.RotatedAtoms>
  151.6919  135.0945  160.0234 H   0  0  0  0  0  0  0  0  0  0  0  0  # atno 6907 bound_to 6896
  152.3773  133.6494  159.6142 H   0  0  0  0  0  0  0  0  0  0  0  0  # atno 6908 bound_to 6896
  150.7719  133.9088  159.3404 H   0  0  0  0  0  0  0  0  0  0  0  0  # atno 6909 bound_to 6896
  145.9854  139.4284  143.0106 H   0  0  0  0  0  0  0  0  0  0  0  0  # atno 7974 bound_to 7965
  155.1866  140.0412  157.2892 H   0  0  0  0  0  0  0  0  0  0  0  0  # atno 8008 bound_to 7997
  154.6167  140.2490  155.7573 H   0  0  0  0  0  0  0  0  0  0  0  0  # atno 8009 bound_to 7997
  156.2410  140.2903  156.0455 H   0  0  0  0  0  0  0  0  0  0  0  0  # atno 8010 bound_to 7997
  140.7218  143.3681  151.1831 H   0  0  0  0  0  0  0  0  0  0  0  0  # atno 10167 bound_to 10162
  156.2243  130.4168  149.8954 H   0  0  0  0  0  0  0  0  0  0  0  0  # atno 10718 bound_to 10713
  154.1133  135.6546  153.4889 H   0  0  0  0  0  0  0  0  0  0  0  0  # atno 10763 bound_to 10752
  153.0249  135.5253  154.7170 H   0  0  0  0  0  0  0  0  0  0  0  0  # atno 10764 bound_to 10752
  154.6356  135.2982  155.0134 H   0  0  0  0  0  0  0  0  0  0  0  0  # atno 10765 bound_to 10752
  140.9052  134.1639  157.4431 H   0  0  0  0  0  0  0  0  0  0  0  0  # atno 11005 bound_to 11000
  145.7708  140.9897  143.1150 LP  0  0  0  0  0  0  0  0  0  0  0  0  # atno 17320 bound_to 7965
  144.6873  139.9445  143.7476 LP  0  0  0  0  0  0  0  0  0  0  0  0  # atno 17321 bound_to 7965
  139.7247  143.9167  152.2998 LP  0  0  0  0  0  0  0  0  0  0  0  0  # atno 17342 bound_to 10162
  139.8936  144.6951  150.8743 LP  0  0  0  0  0  0  0  0  0  0  0  0  # atno 17343 bound_to 10162
  156.6589  130.8774  151.3544 LP  0  0  0  0  0  0  0  0  0  0  0  0  # atno 17370 bound_to 10713
  157.7103  130.9432  150.1066 LP  0  0  0  0  0  0  0  0  0  0  0  0  # atno 17371 bound_to 10713
  139.8748  134.9914  156.5547 LP  0  0  0  0  0  0  0  0  0  0  0  0  # atno 17394 bound_to 11000
  140.8180  133.8376  155.8870 LP  0  0  0  0  0  0  0  0  0  0  0  0  # atno 17395 bound_to 11000

$$$$
