AV-unprocessed.smi:2827|AV-procd|sdf|10896|dock3
  -GOLD-   2272015343D 1   1.00000     0.00000
 Structure written by MMmdl.
 48 51  0  0  0  0  0  0  0  0  3 V2000
  149.8234  133.9738  157.5798 O   0  0  0  0  0  0  0  0  0  0  0  0
  148.6584  134.3127  157.3740 C   0  0  0  0  0  0  0  0  0  0  0  0
  147.5138  133.6012  158.0976 C   0  0  0  0  0  0  0  0  0  0  0  0
  147.6071  133.8563  159.5319 N   0  0  0  0  0  0  0  0  0  0  0  0
  147.6087  132.8130  160.4525 C   0  0  0  0  0  0  0  0  0  0  0  0
  147.3854  132.9696  161.7710 C   0  0  0  0  0  0  0  0  0  0  0  0
  147.1127  134.3190  162.3057 C   0  0  0  0  0  0  0  0  0  0  0  0
  146.8595  134.4819  163.4982 O   0  0  0  0  0  0  0  0  0  0  0  0
  147.1484  135.4488  161.3330 C   0  0  0  0  0  0  0  0  0  0  0  0
  146.9318  136.8409  161.6662 N   0  3  0  0  0  0  0  0  0  0  0  0
  147.3338  137.2646  162.7467 O   0  0  0  0  0  0  0  0  0  0  0  0
  146.3529  137.5576  160.8566 O   0  5  0  0  0  0  0  0  0  0  0  0
  147.3981  135.1402  160.0361 C   0  0  0  0  0  0  0  0  0  0  0  0
  148.3001  135.2623  156.4964 N   0  0  0  0  0  0  0  0  0  0  0  0
  149.1873  135.9028  155.5320 C   0  0  0  0  0  0  0  0  0  0  0  0
  149.2546  137.4319  155.7704 C   0  0  2  0  0  0  0  0  0  0  0  0
  149.8250  138.2606  154.5833 C   0  0  2  0  0  0  0  0  0  0  0  0
  151.3362  137.9911  154.3998 C   0  0  0  0  0  0  0  0  0  0  0  0
  152.0886  138.3826  155.6895 C   0  0  1  0  0  0  0  0  0  0  0  0
  151.8720  139.8840  155.9765 C   0  0  0  0  0  0  0  0  0  0  0  0
  150.3632  140.1557  156.1572 C   0  0  1  0  0  0  0  0  0  0  0  0
  149.6130  139.7647  154.8655 C   0  0  0  0  0  0  0  0  0  0  0  0
  149.8275  139.3208  157.3416 C   0  0  0  0  0  0  0  0  0  0  0  0
  150.0400  137.8170  157.0515 C   0  0  2  0  0  0  0  0  0  0  0  0
  151.5538  137.5507  156.8748 C   0  0  0  0  0  0  0  0  0  0  0  0
  146.5592  133.9593  157.7097 H   0  0  0  0  0  0  0  0  0  0  0  0
  147.5447  132.5283  157.9009 H   0  0  0  0  0  0  0  0  0  0  0  0
  147.8084  131.8413  160.0248 H   0  0  0  0  0  0  0  0  0  0  0  0
  147.3953  132.1277  162.4476 H   0  0  0  0  0  0  0  0  0  0  0  0
  147.4477  135.9041  159.2731 H   0  0  0  0  0  0  0  0  0  0  0  0
  147.3172  135.4794  156.4158 H   0  0  0  0  0  0  0  0  0  0  0  0
  150.1795  135.4703  155.6627 H   0  0  0  0  0  0  0  0  0  0  0  0
  148.8907  135.6660  154.5103 H   0  0  0  0  0  0  0  0  0  0  0  0
  148.2204  137.7478  155.9191 H   0  0  0  0  0  0  0  0  0  0  0  0
  149.3024  138.0142  153.6606 H   0  0  0  0  0  0  0  0  0  0  0  0
  151.5167  136.9438  154.1585 H   0  0  0  0  0  0  0  0  0  0  0  0
  151.7178  138.5645  153.5541 H   0  0  0  0  0  0  0  0  0  0  0  0
  153.1540  138.1884  155.5613 H   0  0  0  0  0  0  0  0  0  0  0  0
  152.4194  140.1808  156.8723 H   0  0  0  0  0  0  0  0  0  0  0  0
  152.2695  140.4866  155.1589 H   0  0  0  0  0  0  0  0  0  0  0  0
  150.2076  141.2157  156.3600 H   0  0  0  0  0  0  0  0  0  0  0  0
  149.9712  140.3602  154.0246 H   0  0  0  0  0  0  0  0  0  0  0  0
  148.5497  139.9856  154.9648 H   0  0  0  0  0  0  0  0  0  0  0  0
  150.3382  139.6036  158.2629 H   0  0  0  0  0  0  0  0  0  0  0  0
  148.7691  139.5302  157.5016 H   0  0  0  0  0  0  0  0  0  0  0  0
  149.6664  137.2381  157.8967 H   0  0  0  0  0  0  0  0  0  0  0  0
  151.7468  136.4905  156.7122 H   0  0  0  0  0  0  0  0  0  0  0  0
  152.0884  137.8152  157.7879 H   0  0  0  0  0  0  0  0  0  0  0  0
  1  2  2  0  0  0  0
  2  3  1  0  0  0  0
  2 14  1  0  0  0  0
  3  4  1  0  0  0  0
  3 26  1  0  0  0  0
  3 27  1  0  0  0  0
  4 13  1  0  0  0  0
  4  5  1  0  0  0  0
  5  6  2  0  0  0  0
  5 28  1  0  0  0  0
  6  7  1  0  0  0  0
  6 29  1  0  0  0  0
  7  8  2  0  0  0  0
  7  9  1  0  0  0  0
  9 10  1  0  0  0  0
  9 13  2  0  0  0  0
 10 11  2  0  0  0  0
 10 12  1  0  0  0  0
 13 30  1  0  0  0  0
 14 15  1  0  0  0  0
 14 31  1  0  0  0  0
 15 16  1  0  0  0  0
 15 32  1  0  0  0  0
 15 33  1  0  0  0  0
 16 24  1  0  0  0  0
 16 17  1  0  0  0  0
 16 34  1  0  0  0  0
 17 22  1  0  0  0  0
 17 18  1  0  0  0  0
 17 35  1  0  0  0  0
 18 19  1  0  0  0  0
 18 36  1  0  0  0  0
 18 37  1  0  0  0  0
 19 25  1  0  0  0  0
 19 20  1  0  0  0  0
 19 38  1  0  0  0  0
 20 21  1  0  0  0  0
 20 39  1  0  0  0  0
 20 40  1  0  0  0  0
 21 22  1  0  0  0  0
 21 23  1  0  0  0  0
 21 41  1  0  0  0  0
 22 42  1  0  0  0  0
 22 43  1  0  0  0  0
 23 24  1  0  0  0  0
 23 44  1  0  0  0  0
 23 45  1  0  0  0  0
 24 25  1  0  0  0  0
 24 46  1  0  0  0  0
 25 47  1  0  0  0  0
 25 48  1  0  0  0  0
M  CHG  1  10   1
M  CHG  1  12  -1
M  END
> <s_m_source_file>
AV-unprocessed.smi

> <i_m_source_file_index>
2827

> <i_lp_mmshare_version>
43012

> <i_f3d_flags>
0

> <s_epik_input>
Tz1bTitdKFtPLV0pYyhbY0hdMSljKD1PKVtjSF1bY0hdbjFbQ0gyXUMoPU8pW05IXVtDSDJdW0NASF0oW0NASF0yMylbQ0BASF00W0NIMl1bQ0BIXShbQ0gyXTMpW0NIMl1bQ0BIXShbQ0gyXTIpW0NIMl00

> <s_epik_cmdline>
J2VwaWtfcHl0aG9uJywgJy1waCcsICc3LjAnLCAnLXRuJywgJzgnLCAnLW1hJywgJzIwMCcsICctbWV0YWxfYmluZGluZycsICctaW1hZScsICc8aW5maWxlLm1hZT4nLCAnLW9tYWUnLCAnPG91dGZpbGUubWFlPic=

> <r_lp_tautomer_probability>
1

> <r_epik_Ionization_Penalty>
3.31423e-08

> <r_epik_Ionization_Penalty_Charging>
1.04538e-08

> <r_epik_Ionization_Penalty_Neutral>
2.26885e-08

> <r_epik_State_Penalty>
-0

> <r_epik_Charging_Adjusted_Penalty>
1.04538e-08

> <i_epik_Tot_Q>
0

> <i_epik_Tot_abs_Q>
2

> <r_epik_Metal_State_Penalty>
-0

> <b_epik_Metal_Only>
0

> <s_lp_Force_Field>
OPLS_2005

> <r_lp_Energy>
36.4142

> <b_lp_Chiralities_Consistent>
1

> <s_lp_Variant>
AV-unprocessed.smi:2827-1

> <Gold.Version>
5.8.1

> <Gold.Id.Protein>
6NUR|6NUR_protein|mol2

> <Gold.PLP.Fitness>
45.6233

> <Gold.PLP.PLP>
-38.5429

> <Gold.PLP.part.hbond>
-5.1931

> <Gold.PLP.part.metal>
0.0000

> <Gold.PLP.part.buried>
-4.3120

> <Gold.PLP.part.nonpolar>
-29.4631

> <Gold.PLP.part.repulsive>
0.0230

> <Gold.PLP.ligand.clash>
0.0000

> <Gold.PLP.ligand.torsion>
0.6658

> <Gold.PLP.Chemscore.Hbond>
2.7600

> <Gold.PLP.Chemscore.CHOScore>
0.0000

> <Gold.PLP.Chemscore.Metal>
0.0000

> <Gold.Chemscore.Hbonds>
donor molecule, donor type, donor heavy atom, donor atom, acceptor molecule, acceptor atom, score
      P1  H  6896  6908       L1     1  1.00
      P1  H  6931  6943       L1    11  0.40
      P1  H  6934  6947       L1    12  1.00

> <Gold.PLP.Chemscore.Internal.Correction>
0.1319

> <Gold.Rescore>
     Score         DG    S(hbond)    S(metal)    S(lipo)     H(rot)  DE(clash)    DE(int)     intcor
     14.72     -16.76       1.83        0.00      82.45       1.75       0.20       1.84       ----

> <Gold.Chemscore.Fitness>
14.7206

> <Gold.Chemscore.DG>
-16.7591

> <Gold.Chemscore.ZeroCoef>
-5.4800

> <Gold.Chemscore.Hbond>
1.8331

> <Gold.Chemscore.Metal>
0.0000

> <Gold.Chemscore.Lipo>
82.4517

> <Gold.Chemscore.Internal_Hbond>
0.0000

> <Gold.Chemscore.DEClash>
0.1963

> <Gold.Chemscore.DEInternal>
1.8422

> <Gold.Chemscore.Rot>
1.7540

> <Gold.Chemscore.Internal.Correction>
   9.000000E+99

> <Gold.Chemscore.Hbonds>
donor molecule, donor type, donor heavy atom, donor atom, acceptor molecule, acceptor atom, score
      P1  H  6896  6908       L1     1  0.97
      P1  H  6931  6943       L1    11  0.05
      P1  H  6934  6947       L1    12  0.50

> <Gold.Chemscore.Hbond.Weighted>
-6.1224

> <Gold.Chemscore.Metal.Weighted>
-0.0000

> <Gold.Chemscore.Lipo.Weighted>
-9.6468

> <Gold.Chemscore.Internal_Hbond.Weighted>
0.0000

> <Gold.Chemscore.DEClash.Weighted>
0.1963

> <Gold.Chemscore.DEInternal.Weighted>
1.8422

> <Gold.Chemscore.Rot.Weighted>
4.4902

> <Gold.Chemscore.Internal.Correction.Weighted>
   9.000000E+99

> <Gold.Protein.RotatedTorsions>
[ 6907 6896 6895 6894 ] final  123.08 input  -60.11 | X-H torsion
[ 7974 7965 7964 7962 ] final -165.73 input  175.53 | X-H torsion
[ 8008 7997 7996 7995 ] final  162.84 input   59.86 | X-H torsion
[ 10167 10162 10161 10158 ] final   89.10 input  -65.29 | X-H torsion
[ 10718 10713 10712 10709 ] final  -27.20 input   66.30 | X-H torsion
[ 10763 10752 10751 10750 ] final  145.74 input  -60.55 | X-H torsion
[ 11005 11000 10999 10996 ] final  -35.71 input  -57.11 | X-H torsion

> <Gold.Protein.ActiveResidues>
 VAL166  LYS551  ARG553  GLY616  TRP617  ASP618  TYR619  PRO620  LYS621  CYS622 
 ASP623  PHE694  ASN695  SER759  ASP760  ASP761  ALA762  ILE779  LEU786  VAL792 
 PHE793  MET794  SER795  GLU796  ALA797  LYS798  CYS799  TRP800  GLU811  SER814 

> <Gold.Protein.RotatedAtoms>
  152.4191  133.7086  159.6465 H   0  0  0  0  0  0  0  0  0  0  0  0  # atno 6907 bound_to 6896
  150.8067  133.8486  159.3208 H   0  0  0  0  0  0  0  0  0  0  0  0  # atno 6908 bound_to 6896
  151.6208  135.1034  160.0152 H   0  0  0  0  0  0  0  0  0  0  0  0  # atno 6909 bound_to 6896
  144.7263  140.2771  143.6241 H   0  0  0  0  0  0  0  0  0  0  0  0  # atno 7974 bound_to 7965
  156.2001  140.1739  156.7916 H   0  0  0  0  0  0  0  0  0  0  0  0  # atno 8008 bound_to 7997
  154.5581  140.0705  156.8806 H   0  0  0  0  0  0  0  0  0  0  0  0  # atno 8009 bound_to 7997
  155.2901  140.3354  155.4255 H   0  0  0  0  0  0  0  0  0  0  0  0  # atno 8010 bound_to 7997
  139.8606  144.6546  150.9062 H   0  0  0  0  0  0  0  0  0  0  0  0  # atno 10167 bound_to 10162
  156.4412  130.4464  149.7051 H   0  0  0  0  0  0  0  0  0  0  0  0  # atno 10718 bound_to 10713
  154.0104  135.2915  155.3393 H   0  0  0  0  0  0  0  0  0  0  0  0  # atno 10763 bound_to 10752
  154.7106  135.5151  153.8664 H   0  0  0  0  0  0  0  0  0  0  0  0  # atno 10764 bound_to 10752
  153.0725  135.6652  154.0336 H   0  0  0  0  0  0  0  0  0  0  0  0  # atno 10765 bound_to 10752
  140.9818  133.7052  156.1696 H   0  0  0  0  0  0  0  0  0  0  0  0  # atno 11005 bound_to 11000
  145.7985  139.1955  143.2061 LP  0  0  0  0  0  0  0  0  0  0  0  0  # atno 17320 bound_to 7965
  146.0696  140.7883  142.9694 LP  0  0  0  0  0  0  0  0  0  0  0  0  # atno 17321 bound_to 7965
  140.7775  143.3747  151.1585 LP  0  0  0  0  0  0  0  0  0  0  0  0  # atno 17342 bound_to 10162
  139.7377  143.8973  152.3040 LP  0  0  0  0  0  0  0  0  0  0  0  0  # atno 17343 bound_to 10162
  156.3915  130.7629  151.2631 LP  0  0  0  0  0  0  0  0  0  0  0  0  # atno 17370 bound_to 10713
  157.7506  131.0266  150.3970 LP  0  0  0  0  0  0  0  0  0  0  0  0  # atno 17371 bound_to 10713
  140.7175  134.4394  157.5577 LP  0  0  0  0  0  0  0  0  0  0  0  0  # atno 17394 bound_to 11000
  139.8953  134.8685  156.2137 LP  0  0  0  0  0  0  0  0  0  0  0  0  # atno 17395 bound_to 11000

$$$$
