AV-unprocessed.smi:72|AV-procd|sdf|747|dock1
  -GOLD-   2262017 83D 1   1.00000     0.00000
 Structure written by MMmdl.
 29 30  0  0  0  0  0  0  0  0  1 V2000
  153.1167  139.1235  154.2274 N   0  0  0  0  0  0  0  0  0  0  0  0
  151.7386  139.0853  154.1871 C   0  0  0  0  0  0  0  0  0  0  0  0
  151.1601  137.8813  153.7617 N   0  0  0  0  0  0  0  0  0  0  0  0
  149.8657  137.8392  153.7300 C   0  0  0  0  0  0  0  0  0  0  0  0
  149.0646  138.9820  154.1310 N   0  0  0  0  0  0  0  0  0  0  0  0
  147.5540  138.9480  154.0801 C   0  0  2  0  0  0  0  0  0  0  0  0
  147.1389  137.7088  153.5874 O   0  0  0  0  0  0  0  0  0  0  0  0
  146.0418  137.8952  152.7023 C   0  0  2  0  0  0  0  0  0  0  0  0
  145.8724  136.6919  151.7580 C   0  0  0  0  0  0  0  0  0  0  0  0
  144.6550  136.7957  151.0509 O   0  0  0  0  0  0  0  0  0  0  0  0
  146.3667  139.2319  152.0211 C   0  0  2  0  0  0  0  0  0  0  0  0
  147.2736  139.0546  150.9479 O   0  0  0  0  0  0  0  0  0  0  0  0
  147.0172  140.0400  153.1375 C   0  0  1  0  0  0  0  0  0  0  0  0
  146.0479  140.8394  153.7847 O   0  0  0  0  0  0  0  0  0  0  0  0
  149.7175  140.1817  154.5245 C   0  0  0  0  0  0  0  0  0  0  0  0
  149.0577  141.1773  154.8229 O   0  0  0  0  0  0  0  0  0  0  0  0
  151.1174  140.1722  154.5461 N   0  0  0  0  0  0  0  0  0  0  0  0
  147.2062  139.0421  155.1103 H   0  0  0  0  0  0  0  0  0  0  0  0
  145.1381  138.0327  153.3000 H   0  0  0  0  0  0  0  0  0  0  0  0
  145.4707  139.7113  151.6242 H   0  0  0  0  0  0  0  0  0  0  0  0
  147.8181  140.6866  152.7744 H   0  0  0  0  0  0  0  0  0  0  0  0
  153.6422  139.9360  154.5153 H   0  0  0  0  0  0  0  0  0  0  0  0
  153.7025  138.3422  153.9709 H   0  0  0  0  0  0  0  0  0  0  0  0
  149.3058  136.9622  153.4031 H   0  0  0  0  0  0  0  0  0  0  0  0
  146.6749  136.6783  151.0199 H   0  0  0  0  0  0  0  0  0  0  0  0
  145.9139  135.7484  152.3035 H   0  0  0  0  0  0  0  0  0  0  0  0
  144.6131  137.6490  150.6469 H   0  0  0  0  0  0  0  0  0  0  0  0
  148.0926  139.4671  151.1754 H   0  0  0  0  0  0  0  0  0  0  0  0
  145.2354  140.7700  153.3067 H   0  0  0  0  0  0  0  0  0  0  0  0
  1  2  1  0  0  0  0
  1 22  1  0  0  0  0
  1 23  1  0  0  0  0
  2 17  2  0  0  0  0
  2  3  1  0  0  0  0
  3  4  2  0  0  0  0
  4  5  1  0  0  0  0
  4 24  1  0  0  0  0
  5  6  1  0  0  0  0
  5 15  1  0  0  0  0
  6 18  1  0  0  0  0
  6 13  1  0  0  0  0
  6  7  1  0  0  0  0
  7  8  1  0  0  0  0
  8 19  1  0  0  0  0
  8  9  1  0  0  0  0
  8 11  1  0  0  0  0
  9 10  1  0  0  0  0
  9 25  1  0  0  0  0
  9 26  1  0  0  0  0
 10 27  1  0  0  0  0
 11 20  1  0  0  0  0
 11 12  1  0  0  0  0
 11 13  1  0  0  0  0
 12 28  1  0  0  0  0
 13 21  1  0  0  0  0
 13 14  1  0  0  0  0
 14 29  1  0  0  0  0
 15 16  2  0  0  0  0
 15 17  1  0  0  0  0
M  END
> <s_m_source_file>
AV-unprocessed.smi

> <i_m_source_file_index>
72

> <i_lp_mmshare_version>
43012

> <i_f3d_flags>
0

> <s_epik_input>
W05IMl1jMW5bY0hdbihjKD1PKW4xKVtDQEBIXTJPW0NASF0oW0NIMl1bT0hdKVtDQEBIXShbT0hdKVtDQEhdMltPSF0=

> <s_epik_cmdline>
J2VwaWtfcHl0aG9uJywgJy1waCcsICc3LjAnLCAnLXRuJywgJzgnLCAnLW1hJywgJzIwMCcsICctbWV0YWxfYmluZGluZycsICctaW1hZScsICc8aW5maWxlLm1hZT4nLCAnLW9tYWUnLCAnPG91dGZpbGUubWFlPic=

> <r_lp_tautomer_probability>
4.77166e-05

> <r_epik_Ionization_Penalty>
1.3546

> <r_epik_Ionization_Penalty_Charging>
1.46833e-10

> <r_epik_Ionization_Penalty_Neutral>
1.3546

> <r_epik_State_Penalty>
3.51908

> <r_epik_Charging_Adjusted_Penalty>
3.51908

> <i_epik_Tot_Q>
0

> <i_epik_Tot_abs_Q>
0

> <r_epik_Metal_State_Penalty>
3.44088

> <b_epik_Metal_Only>
1

> <s_epik_Chemistry_Notes>
This compound contains an acetal/aminal-like group ( X-CH(R)-Y where X, Y are N, S, or O) that may be acid/base labile, releasing an aldehyde.

> <s_lp_Force_Field>
OPLS_2005

> <r_lp_Energy>
27.1219

> <b_lp_Chiralities_Consistent>
1

> <s_lp_Variant>
AV-unprocessed.smi:72-85

> <Gold.Version>
5.8.1

> <Gold.Id.Protein>
6NUR|6NUR_protein|mol2

> <Gold.PLP.Fitness>
39.5583

> <Gold.PLP.PLP>
-24.6634

> <Gold.PLP.part.hbond>
-6.0000

> <Gold.PLP.part.metal>
0.0000

> <Gold.PLP.part.buried>
-1.4270

> <Gold.PLP.part.nonpolar>
-17.5791

> <Gold.PLP.part.repulsive>
0.8413

> <Gold.PLP.ligand.clash>
0.0000

> <Gold.PLP.ligand.torsion>
0.0759

> <Gold.PLP.Chemscore.Hbond>
4.3500

> <Gold.PLP.Chemscore.CHOScore>
0.6616

> <Gold.PLP.Chemscore.Metal>
0.0000

> <Gold.Chemscore.Hbonds>
donor molecule, donor type, donor heavy atom, donor atom, acceptor molecule, acceptor atom, score
      L1  H    10    27       P1 10171  0.78
      L1  H    12    28       P1  7957  1.00
      L1  H    14    29       P1 10175  1.00
      P1  H  7954  7966       L1    12  0.32
      P1  H  7989  7998       L1    17  0.34
      L1  C     4    24       P1  7948  0.22

> <Gold.PLP.Chemscore.Internal.Correction>
0.0120

> <Gold.Rescore>
     Score         DG    S(hbond)    S(metal)    S(lipo)     H(rot)  DE(clash)    DE(int)     intcor
      5.99      -7.58       2.92        0.00      23.56       4.06       0.16       1.43       ----

> <Gold.Chemscore.Fitness>
5.9913

> <Gold.Chemscore.DG>
-7.5820

> <Gold.Chemscore.ZeroCoef>
-5.4800

> <Gold.Chemscore.Hbond>
2.9157

> <Gold.Chemscore.Metal>
0.0000

> <Gold.Chemscore.Lipo>
23.5642

> <Gold.Chemscore.Internal_Hbond>
0.0000

> <Gold.Chemscore.DEClash>
0.1567

> <Gold.Chemscore.DEInternal>
1.4339

> <Gold.Chemscore.Rot>
4.0600

> <Gold.Chemscore.Internal.Correction>
   9.000000E+99

> <Gold.Chemscore.Hbonds>
donor molecule, donor type, donor heavy atom, donor atom, acceptor molecule, acceptor atom, score
      L1  H    10    27       P1 10171  0.74
      L1  H    12    28       P1  7957  0.79
      L1  H    14    29       P1 10175  0.82
      P1  H  7954  7966       L1    12  0.01
      P1  H  7989  7998       L1    17  0.02

> <Gold.Chemscore.Hbond.Weighted>
-9.7386

> <Gold.Chemscore.Metal.Weighted>
-0.0000

> <Gold.Chemscore.Lipo.Weighted>
-2.7570

> <Gold.Chemscore.Internal_Hbond.Weighted>
0.0000

> <Gold.Chemscore.DEClash.Weighted>
0.1567

> <Gold.Chemscore.DEInternal.Weighted>
1.4339

> <Gold.Chemscore.Rot.Weighted>
10.3936

> <Gold.Chemscore.Internal.Correction.Weighted>
   9.000000E+99

> <Gold.Protein.RotatedTorsions>
[ 6907 6896 6895 6894 ] final -144.78 input  -60.11 | X-H torsion
[ 7974 7965 7964 7962 ] final -147.41 input  175.53 | X-H torsion
[ 8008 7997 7996 7995 ] final -136.49 input   59.86 | X-H torsion
[ 10167 10162 10161 10158 ] final  137.89 input  -65.29 | X-H torsion
[ 10718 10713 10712 10709 ] final   22.48 input   66.30 | X-H torsion
[ 10763 10752 10751 10750 ] final   33.21 input  -60.55 | X-H torsion
[ 11005 11000 10999 10996 ] final -121.84 input  -57.11 | X-H torsion

> <Gold.Protein.ActiveResidues>
 VAL166  LYS551  ARG553  GLY616  TRP617  ASP618  TYR619  PRO620  LYS621  CYS622 
 ASP623  PHE694  ASN695  SER759  ASP760  ASP761  ALA762  ILE779  LEU786  VAL792 
 PHE793  MET794  SER795  GLU796  ALA797  LYS798  CYS799  TRP800  GLU811  SER814 

> <Gold.Protein.RotatedAtoms>
  151.1187  133.5119  159.2602 H   0  0  0  0  0  0  0  0  0  0  0  0  # atno 6907 bound_to 6896
  151.1885  135.0392  159.8832 H   0  0  0  0  0  0  0  0  0  0  0  0  # atno 6908 bound_to 6896
  152.5454  134.1031  159.8379 H   0  0  0  0  0  0  0  0  0  0  0  0  # atno 6909 bound_to 6896
  144.8095  140.5330  143.5652 H   0  0  0  0  0  0  0  0  0  0  0  0  # atno 7974 bound_to 7965
  155.3961  140.0503  157.3039 H   0  0  0  0  0  0  0  0  0  0  0  0  # atno 8008 bound_to 7997
  154.5013  140.2157  155.9302 H   0  0  0  0  0  0  0  0  0  0  0  0  # atno 8009 bound_to 7997
  156.1470  140.3143  155.8592 H   0  0  0  0  0  0  0  0  0  0  0  0  # atno 8010 bound_to 7997
  139.5129  144.6385  151.5633 H   0  0  0  0  0  0  0  0  0  0  0  0  # atno 10167 bound_to 10162
  157.1529  130.6683  149.6018 H   0  0  0  0  0  0  0  0  0  0  0  0  # atno 10718 bound_to 10713
  153.0223  135.6393  154.1475 H   0  0  0  0  0  0  0  0  0  0  0  0  # atno 10763 bound_to 10752
  154.1208  135.2847  155.3210 H   0  0  0  0  0  0  0  0  0  0  0  0  # atno 10764 bound_to 10752
  154.6265  135.5507  153.7694 H   0  0  0  0  0  0  0  0  0  0  0  0  # atno 10765 bound_to 10752
  141.0040  134.0362  157.3501 H   0  0  0  0  0  0  0  0  0  0  0  0  # atno 11005 bound_to 11000
  145.5357  139.1475  143.3474 LP  0  0  0  0  0  0  0  0  0  0  0  0  # atno 17320 bound_to 7965
  146.2392  140.5498  142.8941 LP  0  0  0  0  0  0  0  0  0  0  0  0  # atno 17321 bound_to 7965
  140.6142  143.9379  150.6476 LP  0  0  0  0  0  0  0  0  0  0  0  0  # atno 17342 bound_to 10162
  140.2632  143.3509  152.1304 LP  0  0  0  0  0  0  0  0  0  0  0  0  # atno 17343 bound_to 10162
  155.9767  130.4738  150.6546 LP  0  0  0  0  0  0  0  0  0  0  0  0  # atno 17370 bound_to 10713
  157.4203  131.0836  151.1137 LP  0  0  0  0  0  0  0  0  0  0  0  0  # atno 17371 bound_to 10713
  139.9053  135.0177  156.7459 LP  0  0  0  0  0  0  0  0  0  0  0  0  # atno 17394 bound_to 11000
  140.6843  133.9446  155.7929 LP  0  0  0  0  0  0  0  0  0  0  0  0  # atno 17395 bound_to 11000

$$$$
