AV-unprocessed.smi:1394|AV-procd|sdf|5665|dock8
  -GOLD-   22720 5283D 1   1.00000     0.00000
 Structure written by MMmdl.
 41 42  0  0  0  0  0  0  0  0  1 V2000
  151.1734  141.6368  157.3810 C   0  0  0  0  0  0  0  0  0  0  0  0
  151.1669  142.4127  158.7107 C   0  0  2  0  0  0  0  0  0  0  0  0
  151.0501  143.9286  158.4523 C   0  0  0  0  0  0  0  0  0  0  0  0
  151.0307  144.7330  159.7605 C   0  0  0  0  0  0  0  0  0  0  0  0
  152.2729  144.4310  160.6088 C   0  0  0  0  0  0  0  0  0  0  0  0
  152.3945  142.9265  160.8904 C   0  0  0  0  0  0  0  0  0  0  0  0
  152.4056  142.0989  159.5870 C   0  0  1  0  0  0  0  0  0  0  0  0
  152.4497  140.6735  159.9062 N   0  0  0  0  0  0  0  0  0  0  0  0
  153.4776  139.8484  159.6574 C   0  0  0  0  0  0  0  0  0  0  0  0
  154.5309  140.2192  159.1370 O   0  0  0  0  0  0  0  0  0  0  0  0
  153.2747  138.3868  160.0820 C   0  0  0  0  0  0  0  0  0  0  0  0
  154.0876  137.9897  161.2448 N   0  0  0  0  0  0  0  0  0  0  0  0
  154.5983  139.0264  162.0460 C   0  0  0  0  0  0  0  0  0  0  0  0
  155.3456  138.7776  163.1298 C   0  0  0  0  0  0  0  0  0  0  0  0
  155.6211  137.4025  163.4672 C   0  0  0  0  0  0  0  0  0  0  0  0
  155.1487  136.3837  162.7121 C   0  0  0  0  0  0  0  0  0  0  0  0
  155.4246  134.9226  163.0600 C   0  0  0  0  0  0  0  0  0  0  0  0
  154.3061  134.3135  163.4559 F   0  0  0  0  0  0  0  0  0  0  0  0
  155.9001  134.2713  161.9981 F   0  0  0  0  0  0  0  0  0  0  0  0
  156.3191  134.8082  164.0431 F   0  0  0  0  0  0  0  0  0  0  0  0
  154.3293  136.6696  161.5165 C   0  0  0  0  0  0  0  0  0  0  0  0
  153.8813  135.7768  160.7948 O   0  0  0  0  0  0  0  0  0  0  0  0
  152.0573  141.8756  156.7888 H   0  0  0  0  0  0  0  0  0  0  0  0
  150.2963  141.8812  156.7815 H   0  0  0  0  0  0  0  0  0  0  0  0
  151.1624  140.5587  157.5420 H   0  0  0  0  0  0  0  0  0  0  0  0
  150.2767  142.1055  159.2626 H   0  0  0  0  0  0  0  0  0  0  0  0
  151.8853  144.2620  157.8350 H   0  0  0  0  0  0  0  0  0  0  0  0
  150.1439  144.1409  157.8840 H   0  0  0  0  0  0  0  0  0  0  0  0
  150.9802  145.7999  159.5408 H   0  0  0  0  0  0  0  0  0  0  0  0
  150.1311  144.4907  160.3276 H   0  0  0  0  0  0  0  0  0  0  0  0
  153.1660  144.7803  160.0891 H   0  0  0  0  0  0  0  0  0  0  0  0
  152.2252  144.9825  161.5481 H   0  0  0  0  0  0  0  0  0  0  0  0
  153.3030  142.7387  161.4639 H   0  0  0  0  0  0  0  0  0  0  0  0
  151.5623  142.6100  161.5209 H   0  0  0  0  0  0  0  0  0  0  0  0
  153.2985  142.3616  159.0158 H   0  0  0  0  0  0  0  0  0  0  0  0
  151.6262  140.2831  160.3410 H   0  0  0  0  0  0  0  0  0  0  0  0
  152.2141  138.2388  160.2898 H   0  0  0  0  0  0  0  0  0  0  0  0
  153.4901  137.7348  159.2333 H   0  0  0  0  0  0  0  0  0  0  0  0
  154.3507  140.0266  161.7212 H   0  0  0  0  0  0  0  0  0  0  0  0
  155.7326  139.5853  163.7337 H   0  0  0  0  0  0  0  0  0  0  0  0
  156.2177  137.1996  164.3441 H   0  0  0  0  0  0  0  0  0  0  0  0
  1  2  1  0  0  0  0
  1 23  1  0  0  0  0
  1 24  1  0  0  0  0
  1 25  1  0  0  0  0
  2  7  1  0  0  0  0
  2  3  1  0  0  0  0
  2 26  1  0  0  0  0
  3  4  1  0  0  0  0
  3 27  1  0  0  0  0
  3 28  1  0  0  0  0
  4  5  1  0  0  0  0
  4 29  1  0  0  0  0
  4 30  1  0  0  0  0
  5  6  1  0  0  0  0
  5 31  1  0  0  0  0
  5 32  1  0  0  0  0
  6  7  1  0  0  0  0
  6 33  1  0  0  0  0
  6 34  1  0  0  0  0
  7  8  1  0  0  0  0
  7 35  1  0  0  0  0
  8  9  1  0  0  0  0
  8 36  1  0  0  0  0
  9 10  2  0  0  0  0
  9 11  1  0  0  0  0
 11 12  1  0  0  0  0
 11 37  1  0  0  0  0
 11 38  1  0  0  0  0
 12 21  1  0  0  0  0
 12 13  1  0  0  0  0
 13 14  2  0  0  0  0
 13 39  1  0  0  0  0
 14 15  1  0  0  0  0
 14 40  1  0  0  0  0
 15 16  2  0  0  0  0
 15 41  1  0  0  0  0
 16 17  1  0  0  0  0
 16 21  1  0  0  0  0
 17 18  1  0  0  0  0
 17 19  1  0  0  0  0
 17 20  1  0  0  0  0
 21 22  2  0  0  0  0
M  END
> <s_m_source_file>
AV-unprocessed.smi

> <i_m_source_file_index>
1394

> <i_lp_mmshare_version>
43012

> <i_f3d_flags>
0

> <s_epik_input>
W0NIM11bQ0BASF0xW0NIMl1bQ0gyXVtDSDJdW0NIMl1bQ0BIXTFbTkhdQyg9TylbQ0gyXW4yW2NIXVtjSF1bY0hdYyhDKEYpKEYpRiljMj1P

> <s_epik_cmdline>
J2VwaWtfcHl0aG9uJywgJy1waCcsICc3LjAnLCAnLXRuJywgJzgnLCAnLW1hJywgJzIwMCcsICctbWV0YWxfYmluZGluZycsICctaW1hZScsICc8aW5maWxlLm1hZT4nLCAnLW9tYWUnLCAnPG91dGZpbGUubWFlPic=

> <r_lp_tautomer_probability>
1

> <r_epik_Ionization_Penalty>
2.11487e-08

> <r_epik_Ionization_Penalty_Charging>
2.10183e-09

> <r_epik_Ionization_Penalty_Neutral>
1.90469e-08

> <r_epik_State_Penalty>
-0

> <r_epik_Charging_Adjusted_Penalty>
2.10183e-09

> <i_epik_Tot_Q>
0

> <i_epik_Tot_abs_Q>
0

> <r_epik_Metal_State_Penalty>
-0

> <b_epik_Metal_Only>
0

> <s_lp_Force_Field>
OPLS_2005

> <r_lp_Energy>
20.2228

> <b_lp_Chiralities_Consistent>
1

> <s_lp_Variant>
AV-unprocessed.smi:1394-1

> <Gold.Version>
5.8.1

> <Gold.Id.Protein>
6NUR|6NUR_protein|mol2

> <Gold.PLP.Fitness>
42.8958

> <Gold.PLP.PLP>
-38.2191

> <Gold.PLP.part.hbond>
-2.0000

> <Gold.PLP.part.metal>
0.0000

> <Gold.PLP.part.buried>
-4.3543

> <Gold.PLP.part.nonpolar>
-31.5906

> <Gold.PLP.part.repulsive>
0.1399

> <Gold.PLP.ligand.clash>
0.0888

> <Gold.PLP.ligand.torsion>
0.6293

> <Gold.PLP.Chemscore.Hbond>
1.8960

> <Gold.PLP.Chemscore.CHOScore>
0.0000

> <Gold.PLP.Chemscore.Metal>
0.0000

> <Gold.Chemscore.Hbonds>
donor molecule, donor type, donor heavy atom, donor atom, acceptor molecule, acceptor atom, score
      P1  H  6896  6908       L1    22  1.00
      P1  H  7997  8010       L1    10  0.91

> <Gold.PLP.Chemscore.Internal.Correction>
0.3362

> <Gold.Rescore>
     Score         DG    S(hbond)    S(metal)    S(lipo)     H(rot)  DE(clash)    DE(int)     intcor
     18.43     -20.74       1.93        0.00     108.74       1.52       0.02       2.29       ----

> <Gold.Chemscore.Fitness>
18.4294

> <Gold.Chemscore.DG>
-20.7382

> <Gold.Chemscore.ZeroCoef>
-5.4800

> <Gold.Chemscore.Hbond>
1.9274

> <Gold.Chemscore.Metal>
0.0000

> <Gold.Chemscore.Lipo>
108.7398

> <Gold.Chemscore.Internal_Hbond>
0.0000

> <Gold.Chemscore.DEClash>
0.0189

> <Gold.Chemscore.DEInternal>
2.2899

> <Gold.Chemscore.Rot>
1.5242

> <Gold.Chemscore.Internal.Correction>
   9.000000E+99

> <Gold.Chemscore.Hbonds>
donor molecule, donor type, donor heavy atom, donor atom, acceptor molecule, acceptor atom, score
      P1  H  6896  6908       L1    22  0.98
      P1  H  7997  8010       L1    10  0.88

> <Gold.Chemscore.Hbond.Weighted>
-6.4375

> <Gold.Chemscore.Metal.Weighted>
-0.0000

> <Gold.Chemscore.Lipo.Weighted>
-12.7226

> <Gold.Chemscore.Internal_Hbond.Weighted>
0.0000

> <Gold.Chemscore.DEClash.Weighted>
0.0189

> <Gold.Chemscore.DEInternal.Weighted>
2.2899

> <Gold.Chemscore.Rot.Weighted>
3.9019

> <Gold.Chemscore.Internal.Correction.Weighted>
   9.000000E+99

> <Gold.Protein.RotatedTorsions>
[ 6907 6896 6895 6894 ] final  -70.34 input  -60.11 | X-H torsion
[ 7974 7965 7964 7962 ] final   84.71 input  175.53 | X-H torsion
[ 8008 7997 7996 7995 ] final   -1.51 input   59.86 | X-H torsion
[ 10167 10162 10161 10158 ] final -150.18 input  -65.29 | X-H torsion
[ 10718 10713 10712 10709 ] final   -8.87 input   66.30 | X-H torsion
[ 10763 10752 10751 10750 ] final   94.05 input  -60.55 | X-H torsion
[ 11005 11000 10999 10996 ] final   74.84 input  -57.11 | X-H torsion

> <Gold.Protein.ActiveResidues>
 VAL166  LYS551  ARG553  GLY616  TRP617  ASP618  TYR619  PRO620  LYS621  CYS622 
 ASP623  PHE694  ASN695  SER759  ASP760  ASP761  ALA762  ILE779  LEU786  VAL792 
 PHE793  MET794  SER795  GLU796  ALA797  LYS798  CYS799  TRP800  GLU811  SER814 

> <Gold.Protein.RotatedAtoms>
  150.7262  134.5467  159.5774 H   0  0  0  0  0  0  0  0  0  0  0  0  # atno 6907 bound_to 6896
  152.2965  134.7658  160.0376 H   0  0  0  0  0  0  0  0  0  0  0  0  # atno 6908 bound_to 6896
  151.8254  133.3365  159.3633 H   0  0  0  0  0  0  0  0  0  0  0  0  # atno 6909 bound_to 6896
  145.5951  139.2344  143.2277 H   0  0  0  0  0  0  0  0  0  0  0  0  # atno 7974 bound_to 7965
  154.6460  140.2557  155.7267 H   0  0  0  0  0  0  0  0  0  0  0  0  # atno 8008 bound_to 7997
  156.2552  140.2877  156.0795 H   0  0  0  0  0  0  0  0  0  0  0  0  # atno 8009 bound_to 7997
  155.1523  140.0382  157.2814 H   0  0  0  0  0  0  0  0  0  0  0  0  # atno 8010 bound_to 7997
  139.7376  143.8711  152.2553 H   0  0  0  0  0  0  0  0  0  0  0  0  # atno 10167 bound_to 10162
  156.6963  130.5080  149.5929 H   0  0  0  0  0  0  0  0  0  0  0  0  # atno 10718 bound_to 10713
  153.2372  135.4303  155.0659 H   0  0  0  0  0  0  0  0  0  0  0  0  # atno 10763 bound_to 10752
  154.8324  135.3394  154.6701 H   0  0  0  0  0  0  0  0  0  0  0  0  # atno 10764 bound_to 10752
  153.7126  135.7022  153.5090 H   0  0  0  0  0  0  0  0  0  0  0  0  # atno 10765 bound_to 10752
  139.9372  134.7467  156.1197 H   0  0  0  0  0  0  0  0  0  0  0  0  # atno 11005 bound_to 11000
  146.1618  140.6776  142.9274 LP  0  0  0  0  0  0  0  0  0  0  0  0  # atno 17320 bound_to 7965
  144.7334  140.4739  143.6921 LP  0  0  0  0  0  0  0  0  0  0  0  0  # atno 17321 bound_to 7965
  139.8652  144.7097  150.9052 LP  0  0  0  0  0  0  0  0  0  0  0  0  # atno 17342 bound_to 10162
  140.7781  143.3784  151.1521 LP  0  0  0  0  0  0  0  0  0  0  0  0  # atno 17343 bound_to 10162
  156.1761  130.6468  151.0896 LP  0  0  0  0  0  0  0  0  0  0  0  0  # atno 17370 bound_to 10713
  157.6990  131.0783  150.6880 LP  0  0  0  0  0  0  0  0  0  0  0  0  # atno 17371 bound_to 10713
  141.0990  133.6684  156.2712 LP  0  0  0  0  0  0  0  0  0  0  0  0  # atno 17394 bound_to 11000
  140.6046  134.5520  157.5523 LP  0  0  0  0  0  0  0  0  0  0  0  0  # atno 17395 bound_to 11000

$$$$
