AV-unprocessed.smi:530|AV-procd|sdf|2842|dock6
  -GOLD-   2262023333D 1   1.00000     0.00000
 Structure written by MMmdl.
 35 37  0  0  0  0  0  0  0  0  1 V2000
  152.5469  139.3196  155.7462 C   0  0  0  0  0  0  0  0  0  0  0  0
  151.2077  139.9776  155.6433 C   0  0  0  0  0  0  0  0  0  0  0  0
  150.5864  140.1458  154.4754 N   0  0  0  0  0  0  0  0  0  0  0  0
  149.4116  140.7725  154.8446 C   0  0  0  0  0  0  0  0  0  0  0  0
  148.3232  141.2203  154.0621 C   0  0  0  0  0  0  0  0  0  0  0  0
  147.2125  141.8397  154.6720 C   0  0  0  0  0  0  0  0  0  0  0  0
  147.1735  142.0193  156.0701 C   0  0  0  0  0  0  0  0  0  0  0  0
  148.2482  141.5822  156.8681 C   0  0  0  0  0  0  0  0  0  0  0  0
  149.3548  140.9662  156.2538 C   0  0  0  0  0  0  0  0  0  0  0  0
  150.5486  140.4391  156.7350 N   0  0  0  0  0  0  0  0  0  0  0  0
  150.9691  140.4061  158.1292 C   0  0  0  0  0  0  0  0  0  0  0  0
  152.3405  141.0759  158.3469 C   0  0  2  0  0  0  0  0  0  0  0  0
  153.3276  140.0905  158.5827 O   0  0  0  0  0  0  0  0  0  0  0  0
  152.2812  142.1103  159.4601 C   0  0  0  0  0  0  0  0  0  0  0  0
  152.9671  141.8794  160.6719 C   0  0  0  0  0  0  0  0  0  0  0  0
  152.9230  142.8341  161.7064 C   0  0  0  0  0  0  0  0  0  0  0  0
  152.1944  144.0265  161.5343 C   0  0  0  0  0  0  0  0  0  0  0  0
  151.5126  144.2651  160.3259 C   0  0  0  0  0  0  0  0  0  0  0  0
  151.5569  143.3108  159.2908 C   0  0  0  0  0  0  0  0  0  0  0  0
  152.9341  139.0823  154.7548 H   0  0  0  0  0  0  0  0  0  0  0  0
  152.4672  138.3929  156.3146 H   0  0  0  0  0  0  0  0  0  0  0  0
  153.2580  139.9797  156.2426 H   0  0  0  0  0  0  0  0  0  0  0  0
  148.3427  141.0865  152.9907 H   0  0  0  0  0  0  0  0  0  0  0  0
  146.3861  142.1781  154.0645 H   0  0  0  0  0  0  0  0  0  0  0  0
  146.3186  142.4933  156.5296 H   0  0  0  0  0  0  0  0  0  0  0  0
  148.2230  141.7189  157.9389 H   0  0  0  0  0  0  0  0  0  0  0  0
  150.2086  140.9207  158.7178 H   0  0  0  0  0  0  0  0  0  0  0  0
  150.9821  139.3763  158.4866 H   0  0  0  0  0  0  0  0  0  0  0  0
  152.6306  141.5870  157.4280 H   0  0  0  0  0  0  0  0  0  0  0  0
  152.9494  139.4106  159.1190 H   0  0  0  0  0  0  0  0  0  0  0  0
  153.5314  140.9691  160.8126 H   0  0  0  0  0  0  0  0  0  0  0  0
  153.4488  142.6520  162.6321 H   0  0  0  0  0  0  0  0  0  0  0  0
  152.1600  144.7585  162.3279 H   0  0  0  0  0  0  0  0  0  0  0  0
  150.9560  145.1809  160.1924 H   0  0  0  0  0  0  0  0  0  0  0  0
  151.0340  143.5046  158.3656 H   0  0  0  0  0  0  0  0  0  0  0  0
  1  2  1  0  0  0  0
  1 20  1  0  0  0  0
  1 21  1  0  0  0  0
  1 22  1  0  0  0  0
  2 10  1  0  0  0  0
  2  3  2  0  0  0  0
  3  4  1  0  0  0  0
  4  9  2  0  0  0  0
  4  5  1  0  0  0  0
  5  6  2  0  0  0  0
  5 23  1  0  0  0  0
  6  7  1  0  0  0  0
  6 24  1  0  0  0  0
  7  8  2  0  0  0  0
  7 25  1  0  0  0  0
  8  9  1  0  0  0  0
  8 26  1  0  0  0  0
  9 10  1  0  0  0  0
 10 11  1  0  0  0  0
 11 12  1  0  0  0  0
 11 27  1  0  0  0  0
 11 28  1  0  0  0  0
 12 13  1  0  0  0  0
 12 14  1  0  0  0  0
 12 29  1  0  0  0  0
 13 30  1  0  0  0  0
 14 19  1  0  0  0  0
 14 15  2  0  0  0  0
 15 16  1  0  0  0  0
 15 31  1  0  0  0  0
 16 17  2  0  0  0  0
 16 32  1  0  0  0  0
 17 18  1  0  0  0  0
 17 33  1  0  0  0  0
 18 19  2  0  0  0  0
 18 34  1  0  0  0  0
 19 35  1  0  0  0  0
M  END
> <s_m_source_file>
AV-unprocessed.smi

> <i_m_source_file_index>
530

> <i_lp_mmshare_version>
43012

> <i_f3d_flags>
0

> <s_epik_input>
W2NIXTFbY0hdW2NIXVtjSF1jKGMxMiluKGMobjIpW0NIM10pW0NIMl1bQ0BIXShbT0hdKWMzW2NIXVtjSF1bY0hdW2NIXVtjSF0z

> <s_epik_cmdline>
J2VwaWtfcHl0aG9uJywgJy1waCcsICc3LjAnLCAnLXRuJywgJzgnLCAnLW1hJywgJzIwMCcsICctbWV0YWxfYmluZGluZycsICctaW1hZScsICc8aW5maWxlLm1hZT4nLCAnLW9tYWUnLCAnPG91dGZpbGUubWFlPic=

> <r_epik_Ionization_Penalty>
0.129663

> <r_epik_Ionization_Penalty_Charging>
0

> <r_epik_Ionization_Penalty_Neutral>
0.129663

> <r_epik_State_Penalty>
0.119073

> <r_epik_Charging_Adjusted_Penalty>
0.119073

> <i_epik_Tot_Q>
0

> <i_epik_Tot_abs_Q>
0

> <r_epik_Metal_State_Penalty>
0.000131867

> <b_epik_Metal_Only>
0

> <s_lp_Force_Field>
OPLS_2005

> <r_lp_Energy>
11.6946

> <b_lp_Chiralities_Consistent>
1

> <s_lp_Variant>
AV-unprocessed.smi:530-1

> <Gold.Version>
5.8.1

> <Gold.Id.Protein>
6NUR|6NUR_protein|mol2

> <Gold.PLP.Fitness>
49.0636

> <Gold.PLP.PLP>
-44.8582

> <Gold.PLP.part.hbond>
-2.0000

> <Gold.PLP.part.metal>
0.0000

> <Gold.PLP.part.buried>
-2.4127

> <Gold.PLP.part.nonpolar>
-40.0549

> <Gold.PLP.part.repulsive>
0.1026

> <Gold.PLP.ligand.clash>
0.0000

> <Gold.PLP.ligand.torsion>
0.9108

> <Gold.PLP.Chemscore.Hbond>
2.0000

> <Gold.PLP.Chemscore.CHOScore>
0.0000

> <Gold.PLP.Chemscore.Metal>
0.0000

> <Gold.Chemscore.Hbonds>
donor molecule, donor type, donor heavy atom, donor atom, acceptor molecule, acceptor atom, score
      P1  H  7989  7998       L1     3  1.00
      P1  H  7997  8009       L1    13  1.00

> <Gold.PLP.Chemscore.Internal.Correction>
0.0271

> <Gold.Rescore>
     Score         DG    S(hbond)    S(metal)    S(lipo)     H(rot)  DE(clash)    DE(int)     intcor
     18.46     -19.19       1.33        0.00     116.51       1.70       0.01       0.72       ----

> <Gold.Chemscore.Fitness>
18.4574

> <Gold.Chemscore.DG>
-19.1895

> <Gold.Chemscore.ZeroCoef>
-5.4800

> <Gold.Chemscore.Hbond>
1.3271

> <Gold.Chemscore.Metal>
0.0000

> <Gold.Chemscore.Lipo>
116.5148

> <Gold.Chemscore.Internal_Hbond>
0.0000

> <Gold.Chemscore.DEClash>
0.0073

> <Gold.Chemscore.DEInternal>
0.7248

> <Gold.Chemscore.Rot>
1.7013

> <Gold.Chemscore.Internal.Correction>
   9.000000E+99

> <Gold.Chemscore.Hbonds>
donor molecule, donor type, donor heavy atom, donor atom, acceptor molecule, acceptor atom, score
      P1  H  7989  7998       L1     3  0.58
      P1  H  7997  8009       L1    13  0.76

> <Gold.Chemscore.Hbond.Weighted>
-4.4326

> <Gold.Chemscore.Metal.Weighted>
-0.0000

> <Gold.Chemscore.Lipo.Weighted>
-13.6322

> <Gold.Chemscore.Internal_Hbond.Weighted>
0.0000

> <Gold.Chemscore.DEClash.Weighted>
0.0073

> <Gold.Chemscore.DEInternal.Weighted>
0.7248

> <Gold.Chemscore.Rot.Weighted>
4.3554

> <Gold.Chemscore.Internal.Correction.Weighted>
   9.000000E+99

> <Gold.Protein.RotatedTorsions>
[ 6907 6896 6895 6894 ] final -133.43 input  -60.11 | X-H torsion
[ 7974 7965 7964 7962 ] final -127.15 input  175.53 | X-H torsion
[ 8008 7997 7996 7995 ] final  146.30 input   59.86 | X-H torsion
[ 10167 10162 10161 10158 ] final  140.22 input  -65.29 | X-H torsion
[ 10718 10713 10712 10709 ] final  174.07 input   66.30 | X-H torsion
[ 10763 10752 10751 10750 ] final   87.55 input  -60.55 | X-H torsion
[ 11005 11000 10999 10996 ] final   28.85 input  -57.11 | X-H torsion

> <Gold.Protein.ActiveResidues>
 VAL166  LYS551  ARG553  GLY616  TRP617  ASP618  TYR619  PRO620  LYS621  CYS622 
 ASP623  PHE694  ASN695  SER759  ASP760  ASP761  ALA762  ILE779  LEU786  VAL792 
 PHE793  MET794  SER795  GLU796  ALA797  LYS798  CYS799  TRP800  GLU811  SER814 

> <Gold.Protein.RotatedAtoms>
  150.9740  133.6314  159.2733 H   0  0  0  0  0  0  0  0  0  0  0  0  # atno 6907 bound_to 6896
  151.3593  135.0899  159.9439 H   0  0  0  0  0  0  0  0  0  0  0  0  # atno 6908 bound_to 6896
  152.5193  133.9316  159.7638 H   0  0  0  0  0  0  0  0  0  0  0  0  # atno 6909 bound_to 6896
  144.9800  140.7631  143.4618 H   0  0  0  0  0  0  0  0  0  0  0  0  # atno 7974 bound_to 7965
  156.2859  140.2186  156.5354 H   0  0  0  0  0  0  0  0  0  0  0  0  # atno 8008 bound_to 7997
  154.7414  140.0487  157.0836 H   0  0  0  0  0  0  0  0  0  0  0  0  # atno 8009 bound_to 7997
  155.0226  140.3126  155.4791 H   0  0  0  0  0  0  0  0  0  0  0  0  # atno 8010 bound_to 7997
  139.5055  144.6247  151.5965 H   0  0  0  0  0  0  0  0  0  0  0  0  # atno 10167 bound_to 10162
  156.9549  131.0043  151.2940 H   0  0  0  0  0  0  0  0  0  0  0  0  # atno 10718 bound_to 10713
  153.1679  135.4539  154.9863 H   0  0  0  0  0  0  0  0  0  0  0  0  # atno 10763 bound_to 10752
  154.7945  135.3232  154.7701 H   0  0  0  0  0  0  0  0  0  0  0  0  # atno 10764 bound_to 10752
  153.8181  135.6949  153.4886 H   0  0  0  0  0  0  0  0  0  0  0  0  # atno 10765 bound_to 10752
  140.3112  134.2648  155.7734 H   0  0  0  0  0  0  0  0  0  0  0  0  # atno 11005 bound_to 11000
  145.2435  139.2062  143.4980 LP  0  0  0  0  0  0  0  0  0  0  0  0  # atno 17320 bound_to 7965
  146.3405  140.2335  142.8594 LP  0  0  0  0  0  0  0  0  0  0  0  0  # atno 17321 bound_to 7965
  140.5961  143.9694  150.6355 LP  0  0  0  0  0  0  0  0  0  0  0  0  # atno 17342 bound_to 10162
  140.2890  143.3337  152.1080 LP  0  0  0  0  0  0  0  0  0  0  0  0  # atno 17343 bound_to 10162
  157.5697  130.8302  149.8374 LP  0  0  0  0  0  0  0  0  0  0  0  0  # atno 17370 bound_to 10713
  156.0347  130.3755  150.1593 LP  0  0  0  0  0  0  0  0  0  0  0  0  # atno 17371 bound_to 10713
  141.2108  133.7709  156.9910 LP  0  0  0  0  0  0  0  0  0  0  0  0  # atno 17394 bound_to 11000
  140.1023  134.9527  157.1942 LP  0  0  0  0  0  0  0  0  0  0  0  0  # atno 17395 bound_to 11000

$$$$
