#       Name:                AV-unprocessed.smi:12
#       Creating user name   scv26
#       Creation time:       Thu Mar 26 15:18:42 2020


#       File generated by GOLD software.
#

@<TRIPOS>MOLECULE
AV-unprocessed.smi:12
    52    55     1
SMALL
NO_CHARGES


@<TRIPOS>ATOM
      1 ****        -3.3359   5.9172  -0.5615 C.3            1 S1                 0.0000
      2 ****        -3.1733   4.4513  -0.9213 C.2            1 S1                 0.0000
      3 ****        -2.8481   3.5222   0.0084 C.2            1 S1                 0.0000
      4 ****        -2.7103   2.2157  -0.3689 N.pl3          1 S1                 0.0000
      5 ****        -2.9239   1.8488  -1.7151 C.2            1 S1                 0.0000
      6 ****        -3.2366   2.6775  -2.6623 N.2            1 S1                 0.0000
      7 ****        -3.3772   4.0395  -2.3331 C.2            1 S1                 0.0000
      8 ****        -3.6652   4.8642  -3.1993 O.2            1 S1                 0.0000
      9 ****        -2.7639   0.5021  -1.8374 O.3            1 S1                 0.0000
     10 ****        -2.4510  -0.0681  -0.5593 C.3            1 S1                 0.0000
     11 ****        -1.0430  -0.6566  -0.5474 C.3            1 S1                 0.0000
     12 ****        -1.0904  -2.0687  -0.5062 O.3            1 S1                 0.0000
     13 ****        -0.4248  -0.0825   0.7312 C.3            1 S1                 0.0000
     14 ****         1.1003   0.0732   0.6847 C.3            1 S1                 0.0000
     15 ****         1.7039  -1.2099   0.7170 O.3            1 S1                 0.0000
     16 ****         3.0456  -1.3273   0.7034 C.2            1 S1                 0.0000
     17 ****         3.8144  -0.3645   0.6661 O.2            1 S1                 0.0000
     18 ****         3.5032  -2.7464   0.7419 C.ar           1 S1                 0.0000
     19 ****         4.8894  -3.0276   0.7688 C.ar           1 S1                 0.0000
     20 ****         5.3510  -4.3576   0.8099 C.ar           1 S1                 0.0000
     21 ****         4.4321  -5.4232   0.8235 C.ar           1 S1                 0.0000
     22 ****         3.0507  -5.1570   0.7941 C.ar           1 S1                 0.0000
     23 ****         2.5872  -3.8274   0.7537 C.ar           1 S1                 0.0000
     24 ****        -1.0351   1.1920   0.8534 O.3            1 S1                 0.0000
     25 ****        -2.3678   1.0715   0.4741 C.3            1 S1                 0.0000
     26 ****        -3.1555   6.0868   0.5006 H              1 S1                 0.0000
     27 ****        -4.3466   6.2565  -0.7902 H              1 S1                 0.0000
     28 ****        -2.6310   6.5292  -1.1249 H              1 S1                 0.0000
     29 ****        -2.6917   3.7983   1.0410 H              1 S1                 0.0000
     30 ****        -3.2173  -0.7779  -0.2437 H              1 S1                 0.0000
     31 ****        -0.4853  -0.3234  -1.4241 H              1 S1                 0.0000
     32 ****        -0.2046  -2.3974  -0.4792 H              1 S1                 0.0000
     33 ****        -0.7212  -0.6729   1.6007 H              1 S1                 0.0000
     34 ****         1.4036   0.6142  -0.2127 H              1 S1                 0.0000
     35 ****         1.4379   0.6511   1.5462 H              1 S1                 0.0000
     36 ****         5.6141  -2.2261   0.7600 H              1 S1                 0.0000
     37 ****         6.4119  -4.5598   0.8316 H              1 S1                 0.0000
     38 ****         4.7863  -6.4431   0.8562 H              1 S1                 0.0000
     39 ****         2.3442  -5.9739   0.8032 H              1 S1                 0.0000
     40 ****         1.5203  -3.6592   0.7323 H              1 S1                 0.0000
     41 ****        -3.0949   1.0397   1.2863 H              1 S1                 0.0000
     42 ****        -3.3740   2.3584  -3.6000 LP             1 S1                 0.0000
     43 ****        -3.7655   5.8293  -2.9573 LP             1 S1                 0.0000
     44 ****        -3.7991   4.5695  -4.1455 LP             1 S1                 0.0000
     45 ****        -2.0186   0.3130  -2.4767 LP             1 S1                 0.0000
     46 ****        -3.6104   0.0973  -2.1833 LP             1 S1                 0.0000
     47 ****        -1.5540  -2.4147  -1.3219 LP             1 S1                 0.0000
     48 ****        -1.5857  -2.3660   0.3100 LP             1 S1                 0.0000
     49 ****         3.4494   0.5662   0.6440 LP             1 S1                 0.0000
     50 ****         4.8031  -0.5142   0.6578 LP             1 S1                 0.0000
     51 ****        -0.5714   1.8483   0.2582 LP             1 S1                 0.0000
     52 ****        -0.9796   1.5048   1.8015 LP             1 S1                 0.0000
@<TRIPOS>BOND
    1    1    2 1     
    2    1   26 1     
    3    1   27 1     
    4    1   28 1     
    5    2    7 1     
    6    2    3 2     
    7    3    4 1     
    8    3   29 1     
    9    4   25 1     
   10    4    5 1     
   11    5    6 2     
   12    5    9 1     
   13    6    7 1     
   14    7    8 2     
   15    9   10 1     
   16   10   25 1     
   17   10   11 1     
   18   10   30 1     
   19   11   12 1     
   20   11   13 1     
   21   11   31 1     
   22   12   32 1     
   23   13   14 1     
   24   13   24 1     
   25   13   33 1     
   26   14   15 1     
   27   14   34 1     
   28   14   35 1     
   29   15   16 1     
   30   16   17 2     
   31   16   18 1     
   32   18   23 ar    
   33   18   19 ar    
   34   19   20 ar    
   35   19   36 1     
   36   20   21 ar    
   37   20   37 1     
   38   21   22 ar    
   39   21   38 1     
   40   22   23 ar    
   41   22   39 1     
   42   23   40 1     
   43   24   25 1     
   44   25   41 1     
   45    6   42 1     
   46    8   43 1     
   47    8   44 1     
   48    9   45 1     
   49    9   46 1     
   50   12   47 1     
   51   12   48 1     
   52   17   49 1     
   53   17   50 1     
   54   24   51 1     
   55   24   52 1     
@<TRIPOS>SUBSTRUCTURE
      1 S1             1
@<TRIPOS>SET
LONE_PAIRS      STATIC     ATOMS    <user>   **** ""
11 42 43 44 45 46 47 48 49 50 51 52
DONOR_HYDROGENS      STATIC     ATOMS    <user>   **** ""
1 32
ATOM$BLUE        STATIC     ATOMS    COLORGROUP SYSTEM
11 42 43 44 45 46 47 48 49 50 51 52
ATOM$RED        STATIC     ATOMS    COLORGROUP SYSTEM
1 32
