#       Name:                AV-unprocessed.smi:609
#       Creating user name   scv26
#       Creation time:       Thu Mar 26 23:57:00 2020


#       File generated by GOLD software.
#

@<TRIPOS>MOLECULE
AV-unprocessed.smi:609
    46    48     1
SMALL
NO_CHARGES


@<TRIPOS>ATOM
      1 ****        -1.0755   4.4113  -2.9680 C.3            1 S1                 0.0000
      2 ****        -1.2616   3.0246  -2.3757 C.ar           1 S1                 0.0000
      3 ****        -1.9449   2.9031  -1.1446 C.ar           1 S1                 0.0000
      4 ****        -2.1023   1.6215  -0.6306 C.ar           1 S1                 0.0000
      5 ****        -2.7249   1.1728   0.5364 N.pl3          1 S1                 1.0000
      6 ****        -2.6273  -0.1836   0.6109 C.2            1 S1                 0.0000
      7 ****        -1.9411  -0.6059  -0.4860 N.pl3          1 S1                 0.0000
      8 ****        -1.5605  -1.9627  -0.8995 C.3            1 S1                 0.0000
      9 ****        -0.0698  -2.2801  -0.6605 C.3            1 S1                 0.0000
     10 ****         0.1527  -3.6198  -1.0487 O.3            1 S1                 0.0000
     11 ****         0.3786  -2.0914   0.8005 C.3            1 S1                 0.0000
     12 ****         2.1594  -2.3729   1.0119 S.3            1 S1                 0.0000
     13 ****         2.4648  -2.1483   2.7363 C.2            1 S1                 0.0000
     14 ****         2.8517  -3.1152   3.5723 N.pl3          1 S1                 1.0000
     15 ****         2.9985  -2.6071   4.8349 C.2            1 S1                 0.0000
     16 ****         2.6935  -1.2714   4.7562 C.2            1 S1                 0.0000
     17 ****         2.3725  -1.0136   3.4474 N.pl3          1 S1                 0.0000
     18 ****         1.9908   0.2840   2.8850 C.3            1 S1                 0.0000
     19 ****        -1.6031   0.4842  -1.2943 C.ar           1 S1                 0.0000
     20 ****        -0.9284   0.5854  -2.5080 C.ar           1 S1                 0.0000
     21 ****        -0.7614   1.8801  -3.0495 C.ar           1 S1                 0.0000
     22 ****        -0.0329   2.0220  -4.3752 C.3            1 S1                 0.0000
     23 ****        -1.4959   5.1816  -2.3209 H              1 S1                 0.0000
     24 ****        -1.5715   4.4827  -3.9363 H              1 S1                 0.0000
     25 ****        -0.0165   4.6321  -3.1034 H              1 S1                 0.0000
     26 ****        -2.3311   3.7695  -0.6279 H              1 S1                 0.0000
     27 ****        -3.0206  -0.8100   1.3987 H              1 S1                 0.0000
     28 ****        -2.1875  -2.6582  -0.3394 H              1 S1                 0.0000
     29 ****        -1.8237  -2.0863  -1.9512 H              1 S1                 0.0000
     30 ****         0.5403  -1.6441  -1.3024 H              1 S1                 0.0000
     31 ****         1.0764  -3.8060  -0.9738 H              1 S1                 0.0000
     32 ****         0.1609  -1.0776   1.1318 H              1 S1                 0.0000
     33 ****        -0.1694  -2.7654   1.4600 H              1 S1                 0.0000
     34 ****         3.3029  -3.2171   5.6730 H              1 S1                 0.0000
     35 ****         2.6853  -0.5037   5.5168 H              1 S1                 0.0000
     36 ****         2.3880   1.0804   3.5150 H              1 S1                 0.0000
     37 ****         0.9037   0.3565   2.8562 H              1 S1                 0.0000
     38 ****         2.3989   0.3916   1.8797 H              1 S1                 0.0000
     39 ****        -0.5493  -0.2863  -3.0209 H              1 S1                 0.0000
     40 ****         0.2491   1.0502  -4.7817 H              1 S1                 0.0000
     41 ****         0.8774   2.6088  -4.2503 H              1 S1                 0.0000
     42 ****        -0.6671   2.5173  -5.1108 H              1 S1                 0.0000
     43 ****         3.0095  -4.0795   3.3077 H              1 S1                 0.0000
     44 ****        -3.1898   1.7471   1.2281 H              1 S1                 0.0000
     45 ****        -0.1414  -3.7495  -1.9956 LP             1 S1                 0.0000
     46 ****        -0.3642  -4.2337  -0.4521 LP             1 S1                 0.0000
@<TRIPOS>BOND
    1    1    2 1     
    2    1   23 1     
    3    1   24 1     
    4    1   25 1     
    5    2   21 ar    
    6    2    3 ar    
    7    3    4 ar    
    8    3   26 1     
    9    4   19 ar    
   10    4    5 1     
   11    5    6 2     
   12    5   44 1     
   13    6    7 1     
   14    6   27 1     
   15    7    8 1     
   16    7   19 1     
   17    8    9 1     
   18    8   28 1     
   19    8   29 1     
   20    9   10 1     
   21    9   11 1     
   22    9   30 1     
   23   10   31 1     
   24   11   12 1     
   25   11   32 1     
   26   11   33 1     
   27   12   13 1     
   28   13   17 1     
   29   13   14 2     
   30   14   15 1     
   31   14   43 1     
   32   15   16 2     
   33   15   34 1     
   34   16   17 1     
   35   16   35 1     
   36   17   18 1     
   37   18   36 1     
   38   18   37 1     
   39   18   38 1     
   40   19   20 ar    
   41   20   21 ar    
   42   20   39 1     
   43   21   22 1     
   44   22   40 1     
   45   22   41 1     
   46   22   42 1     
   47   10   45 1     
   48   10   46 1     
@<TRIPOS>SUBSTRUCTURE
      1 S1             1
@<TRIPOS>SET
LONE_PAIRS      STATIC     ATOMS    <user>   **** ""
2 45 46
DONOR_HYDROGENS      STATIC     ATOMS    <user>   **** ""
3 44 31 43
ATOM$BLUE        STATIC     ATOMS    COLORGROUP SYSTEM
2 45 46
ATOM$RED        STATIC     ATOMS    COLORGROUP SYSTEM
3 44 31 43
