AV-unprocessed.smi:2335|AV-procd|sdf|9326|dock6
  -GOLD-   2272012543D 1   1.00000     0.00000
 Structure written by MMmdl.
 41 42  0  0  0  0  0  0  0  0  2 V2000
  147.6685  131.1939  153.7099 C   0  0  0  0  0  0  0  0  0  0  0  0
  149.1644  131.1150  154.0338 C   0  0  0  0  0  0  0  0  0  0  0  0
  149.5381  131.9413  155.2189 C   0  0  0  0  0  0  0  0  0  0  0  0
  150.0518  131.4176  156.3350 N   0  0  0  0  0  0  0  0  0  0  0  0
  150.3489  132.3892  157.2797 N   0  0  0  0  0  0  0  0  0  0  0  0
  150.0607  133.6309  156.8650 C   0  0  0  0  0  0  0  0  0  0  0  0
  150.2797  134.7156  157.6261 N   0  5  0  0  0  0  0  0  0  0  0  0
  150.4669  135.9222  157.0454 C   0  0  0  0  0  0  0  0  0  0  0  0
  150.5038  136.1524  155.8347 O   0  0  0  0  0  0  0  0  0  0  0  0
  150.6274  136.9215  157.9239 N   0  0  0  0  0  0  0  0  0  0  0  0
  150.8735  138.3251  157.5977 C   0  0  1  0  0  0  0  0  0  0  0  0
  151.1526  139.1409  158.8443 C   0  0  0  0  0  0  0  0  0  0  0  0
  151.9425  140.3396  158.3069 C   0  0  0  0  0  0  0  0  0  0  0  0
  151.0194  141.4980  157.8912 C   0  0  0  0  0  0  0  0  0  0  0  0
  153.0165  140.8195  159.2950 C   0  0  0  0  0  0  0  0  0  0  0  0
  152.5907  139.8676  157.1270 O   0  0  0  0  0  0  0  0  0  0  0  0
  152.1463  138.5627  156.7543 C   0  0  0  0  0  0  0  0  0  0  0  0
  153.3085  137.5987  157.0715 C   0  0  0  0  0  0  0  0  0  0  0  0
  151.8548  138.5826  155.2453 C   0  0  0  0  0  0  0  0  0  0  0  0
  149.4051  133.6918  155.2294 S   0  0  0  0  0  0  0  0  0  0  0  0
  147.4255  130.5787  152.8435 H   0  0  0  0  0  0  0  0  0  0  0  0
  147.3675  132.2181  153.4879 H   0  0  0  0  0  0  0  0  0  0  0  0
  147.0665  130.8425  154.5485 H   0  0  0  0  0  0  0  0  0  0  0  0
  149.4481  130.0802  154.2270 H   0  0  0  0  0  0  0  0  0  0  0  0
  149.7504  131.4441  153.1747 H   0  0  0  0  0  0  0  0  0  0  0  0
  150.5887  136.6831  158.9039 H   0  0  0  0  0  0  0  0  0  0  0  0
  150.0032  138.7569  157.0994 H   0  0  0  0  0  0  0  0  0  0  0  0
  150.2445  139.4274  159.3757 H   0  0  0  0  0  0  0  0  0  0  0  0
  151.7669  138.5628  159.5369 H   0  0  0  0  0  0  0  0  0  0  0  0
  150.4709  141.8921  158.7472 H   0  0  0  0  0  0  0  0  0  0  0  0
  150.2886  141.1804  157.1471 H   0  0  0  0  0  0  0  0  0  0  0  0
  151.5908  142.3192  157.4574 H   0  0  0  0  0  0  0  0  0  0  0  0
  152.5676  141.1703  160.2246 H   0  0  0  0  0  0  0  0  0  0  0  0
  153.5990  141.6404  158.8754 H   0  0  0  0  0  0  0  0  0  0  0  0
  153.7128  140.0175  159.5425 H   0  0  0  0  0  0  0  0  0  0  0  0
  153.0750  136.5765  156.7717 H   0  0  0  0  0  0  0  0  0  0  0  0
  153.5434  137.5884  158.1360 H   0  0  0  0  0  0  0  0  0  0  0  0
  154.2144  137.8930  156.5410 H   0  0  0  0  0  0  0  0  0  0  0  0
  151.5286  137.6046  154.8915 H   0  0  0  0  0  0  0  0  0  0  0  0
  152.7433  138.8585  154.6767 H   0  0  0  0  0  0  0  0  0  0  0  0
  151.0734  139.3029  155.0024 H   0  0  0  0  0  0  0  0  0  0  0  0
  1  2  1  0  0  0  0
  1 21  1  0  0  0  0
  1 22  1  0  0  0  0
  1 23  1  0  0  0  0
  2  3  1  0  0  0  0
  2 24  1  0  0  0  0
  2 25  1  0  0  0  0
  3 20  1  0  0  0  0
  3  4  2  0  0  0  0
  4  5  1  0  0  0  0
  5  6  2  0  0  0  0
  6  7  1  0  0  0  0
  6 20  1  0  0  0  0
  7  8  1  0  0  0  0
  8  9  2  0  0  0  0
  8 10  1  0  0  0  0
 10 11  1  0  0  0  0
 10 26  1  0  0  0  0
 11 17  1  0  0  0  0
 11 12  1  0  0  0  0
 11 27  1  0  0  0  0
 12 13  1  0  0  0  0
 12 28  1  0  0  0  0
 12 29  1  0  0  0  0
 13 14  1  0  0  0  0
 13 15  1  0  0  0  0
 13 16  1  0  0  0  0
 14 30  1  0  0  0  0
 14 31  1  0  0  0  0
 14 32  1  0  0  0  0
 15 33  1  0  0  0  0
 15 34  1  0  0  0  0
 15 35  1  0  0  0  0
 16 17  1  0  0  0  0
 17 18  1  0  0  0  0
 17 19  1  0  0  0  0
 18 36  1  0  0  0  0
 18 37  1  0  0  0  0
 18 38  1  0  0  0  0
 19 39  1  0  0  0  0
 19 40  1  0  0  0  0
 19 41  1  0  0  0  0
M  CHG  1   7  -1
M  END
> <s_m_source_file>
AV-unprocessed.smi

> <i_m_source_file_index>
2335

> <i_lp_mmshare_version>
43012

> <i_f3d_flags>
0

> <s_epik_input>
W0NIM11bQ0gyXWMxbm5jKHMxKVtOSF1DKD1PKVtOSF1bQ0BASF0oQyhPMikoW0NIM10pW0NIM10pW0NIMl1DMihbQ0gzXSlbQ0gzXQ==

> <s_epik_cmdline>
J2VwaWtfcHl0aG9uJywgJy1waCcsICc3LjAnLCAnLXRuJywgJzgnLCAnLW1hJywgJzIwMCcsICctbWV0YWxfYmluZGluZycsICctaW1hZScsICc8aW5maWxlLm1hZT4nLCAnLW9tYWUnLCAnPG91dGZpbGUubWFlPic=

> <r_lp_tautomer_probability>
1

> <r_epik_Ionization_Penalty>
4.33319

> <r_epik_Ionization_Penalty_Charging>
4.17028

> <r_epik_Ionization_Penalty_Neutral>
0.162913

> <r_epik_State_Penalty>
4.16976

> <r_epik_Charging_Adjusted_Penalty>
8.34004

> <i_epik_Tot_Q>
-1

> <i_epik_Tot_abs_Q>
1

> <r_epik_Metal_State_Penalty>
0.677358

> <b_epik_Metal_Only>
1

> <s_lp_Force_Field>
OPLS_2005

> <r_lp_Energy>
10.6877

> <b_lp_Chiralities_Consistent>
1

> <s_lp_Variant>
AV-unprocessed.smi:2335-4

> <Gold.Version>
5.8.1

> <Gold.Id.Protein>
6NUR|6NUR_protein|mol2

> <Gold.PLP.Fitness>
32.1787

> <Gold.PLP.PLP>
-25.4535

> <Gold.PLP.part.hbond>
-2.0000

> <Gold.PLP.part.metal>
0.0000

> <Gold.PLP.part.buried>
-5.1927

> <Gold.PLP.part.nonpolar>
-19.5852

> <Gold.PLP.part.repulsive>
0.1598

> <Gold.PLP.ligand.clash>
0.0000

> <Gold.PLP.ligand.torsion>
0.1648

> <Gold.PLP.Chemscore.Hbond>
2.3440

> <Gold.PLP.Chemscore.CHOScore>
0.0000

> <Gold.PLP.Chemscore.Metal>
0.0000

> <Gold.Chemscore.Hbonds>
donor molecule, donor type, donor heavy atom, donor atom, acceptor molecule, acceptor atom, score
      P1  H  6896  6908       L1     7  1.38
      P1  H  7997  8009       L1    16  1.00

> <Gold.PLP.Chemscore.Internal.Correction>
0.0229

> <Gold.Rescore>
     Score         DG    S(hbond)    S(metal)    S(lipo)     H(rot)  DE(clash)    DE(int)     intcor
     12.68     -15.51       1.69        0.00      63.65       1.19       0.00       2.83       ----

> <Gold.Chemscore.Fitness>
12.6766

> <Gold.Chemscore.DG>
-15.5078

> <Gold.Chemscore.ZeroCoef>
-5.4800

> <Gold.Chemscore.Hbond>
1.6882

> <Gold.Chemscore.Metal>
0.0000

> <Gold.Chemscore.Lipo>
63.6454

> <Gold.Chemscore.Internal_Hbond>
0.0000

> <Gold.Chemscore.DEClash>
0.0000

> <Gold.Chemscore.DEInternal>
2.8312

> <Gold.Chemscore.Rot>
1.1942

> <Gold.Chemscore.Internal.Correction>
   9.000000E+99

> <Gold.Chemscore.Hbonds>
donor molecule, donor type, donor heavy atom, donor atom, acceptor molecule, acceptor atom, score
      P1  H  6896  6908       L1     7  0.46
      P1  H  7997  8009       L1    16  0.69

> <Gold.Chemscore.Hbond.Weighted>
-5.6385

> <Gold.Chemscore.Metal.Weighted>
-0.0000

> <Gold.Chemscore.Lipo.Weighted>
-7.4465

> <Gold.Chemscore.Internal_Hbond.Weighted>
0.0000

> <Gold.Chemscore.DEClash.Weighted>
0.0000

> <Gold.Chemscore.DEInternal.Weighted>
2.8312

> <Gold.Chemscore.Rot.Weighted>
3.0573

> <Gold.Chemscore.Internal.Correction.Weighted>
   9.000000E+99

> <Gold.Protein.RotatedTorsions>
[ 6907 6896 6895 6894 ] final  140.28 input  -60.11 | X-H torsion
[ 7974 7965 7964 7962 ] final   60.49 input  175.53 | X-H torsion
[ 8008 7997 7996 7995 ] final -171.06 input   59.86 | X-H torsion
[ 10167 10162 10161 10158 ] final   59.97 input  -65.29 | X-H torsion
[ 10718 10713 10712 10709 ] final -152.03 input   66.30 | X-H torsion
[ 10763 10752 10751 10750 ] final  -83.48 input  -60.55 | X-H torsion
[ 11005 11000 10999 10996 ] final  -63.58 input  -57.11 | X-H torsion

> <Gold.Protein.ActiveResidues>
 VAL166  LYS551  ARG553  GLY616  TRP617  ASP618  TYR619  PRO620  LYS621  CYS622 
 ASP623  PHE694  ASN695  SER759  ASP760  ASP761  ALA762  ILE779  LEU786  VAL792 
 PHE793  MET794  SER795  GLU796  ALA797  LYS798  CYS799  TRP800  GLU811  SER814 

> <Gold.Protein.RotatedAtoms>
  152.2449  133.5166  159.5291 H   0  0  0  0  0  0  0  0  0  0  0  0  # atno 6907 bound_to 6896
  150.7075  134.1039  159.3984 H   0  0  0  0  0  0  0  0  0  0  0  0  # atno 6908 bound_to 6896
  151.8959  135.0398  160.0553 H   0  0  0  0  0  0  0  0  0  0  0  0  # atno 6909 bound_to 6896
  145.8954  139.3541  143.0624 H   0  0  0  0  0  0  0  0  0  0  0  0  # atno 7974 bound_to 7965
  155.9266  140.1083  157.1165 H   0  0  0  0  0  0  0  0  0  0  0  0  # atno 8008 bound_to 7997
  154.4063  140.1246  156.4813 H   0  0  0  0  0  0  0  0  0  0  0  0  # atno 8009 bound_to 7997
  155.7131  140.3470  155.4985 H   0  0  0  0  0  0  0  0  0  0  0  0  # atno 8010 bound_to 7997
  140.1706  144.4280  150.6663 H   0  0  0  0  0  0  0  0  0  0  0  0  # atno 10167 bound_to 10162
  156.4670  130.8240  151.2470 H   0  0  0  0  0  0  0  0  0  0  0  0  # atno 10718 bound_to 10713
  154.5883  135.5554  153.7253 H   0  0  0  0  0  0  0  0  0  0  0  0  # atno 10763 bound_to 10752
  153.0107  135.6337  154.1885 H   0  0  0  0  0  0  0  0  0  0  0  0  # atno 10764 bound_to 10752
  154.1826  135.2886  155.3027 H   0  0  0  0  0  0  0  0  0  0  0  0  # atno 10765 bound_to 10752
  141.1398  133.6654  156.5703 H   0  0  0  0  0  0  0  0  0  0  0  0  # atno 11005 bound_to 11000
  145.8857  140.9335  143.0578 LP  0  0  0  0  0  0  0  0  0  0  0  0  # atno 17320 bound_to 7965
  144.6732  140.0839  143.7468 LP  0  0  0  0  0  0  0  0  0  0  0  0  # atno 17321 bound_to 7965
  140.6584  143.2244  151.5913 LP  0  0  0  0  0  0  0  0  0  0  0  0  # atno 17342 bound_to 10162
  139.5339  144.2835  152.1210 LP  0  0  0  0  0  0  0  0  0  0  0  0  # atno 17343 bound_to 10162
  157.7494  131.0088  150.3244 LP  0  0  0  0  0  0  0  0  0  0  0  0  # atno 17370 bound_to 10713
  156.3657  130.3855  149.7215 LP  0  0  0  0  0  0  0  0  0  0  0  0  # atno 17371 bound_to 10713
  140.3918  134.7433  157.4726 LP  0  0  0  0  0  0  0  0  0  0  0  0  # atno 17394 bound_to 11000
  140.0560  134.6063  155.8804 LP  0  0  0  0  0  0  0  0  0  0  0  0  # atno 17395 bound_to 11000

$$$$
