AV-unprocessed.smi:2042|AV-procd|sdf|8294|dock9
  -GOLD-   2272010563D 1   1.00000     0.00000
 Structure written by MMmdl.
 30 31  0  0  0  0  0  0  0  0  1 V2000
  146.6181  132.9903  153.9574 O   0  0  0  0  0  0  0  0  0  0  0  0
  147.4637  132.5285  153.1948 C   0  0  0  0  0  0  0  0  0  0  0  0
  147.2399  132.1970  151.9078 N   0  0  0  0  0  0  0  0  0  0  0  0
  146.0247  132.2407  151.1715 C   0  0  0  0  0  0  0  0  0  0  0  0
  145.9441  132.3205  149.7598 C   0  0  0  0  0  0  0  0  0  0  0  0
  144.6743  132.3777  149.1533 C   0  0  0  0  0  0  0  0  0  0  0  0
  143.5329  132.3594  149.9779 C   0  0  0  0  0  0  0  0  0  0  0  0
  143.5947  132.2952  151.3244 N   0  0  0  0  0  0  0  0  0  0  0  0
  144.8154  132.2416  151.8987 C   0  0  0  0  0  0  0  0  0  0  0  0
  148.7331  132.3433  153.5998 N   0  0  0  0  0  0  0  0  0  0  0  0
  149.3126  132.5987  154.9196 C   0  0  2  0  0  0  0  0  0  0  0  0
  150.1670  133.8802  154.9074 C   0  0  0  0  0  0  0  0  0  0  0  0
  151.0262  133.9110  156.1775 C   0  0  0  0  0  0  0  0  0  0  0  0
  151.3700  132.1609  156.6010 S   0  0  0  0  0  0  0  0  0  0  0  0
  152.7478  131.8206  156.2149 O   0  0  0  0  0  0  0  0  0  0  0  0
  150.8763  131.8941  157.9605 O   0  0  0  0  0  0  0  0  0  0  0  0
  150.2108  131.4390  155.3798 C   0  0  0  0  0  0  0  0  0  0  0  0
  148.0520  131.9120  151.3802 H   0  0  0  0  0  0  0  0  0  0  0  0
  146.8206  132.3534  149.1321 H   0  0  0  0  0  0  0  0  0  0  0  0
  144.5782  132.4393  148.0794 H   0  0  0  0  0  0  0  0  0  0  0  0
  142.5446  132.4032  149.5444 H   0  0  0  0  0  0  0  0  0  0  0  0
  144.8260  132.1952  152.9780 H   0  0  0  0  0  0  0  0  0  0  0  0
  149.3783  132.0082  152.8988 H   0  0  0  0  0  0  0  0  0  0  0  0
  148.5207  132.7460  155.6563 H   0  0  0  0  0  0  0  0  0  0  0  0
  150.8291  133.8630  154.0403 H   0  0  0  0  0  0  0  0  0  0  0  0
  149.5525  134.7768  154.8194 H   0  0  0  0  0  0  0  0  0  0  0  0
  151.9593  134.4594  156.0474 H   0  0  0  0  0  0  0  0  0  0  0  0
  150.4742  134.3545  157.0065 H   0  0  0  0  0  0  0  0  0  0  0  0
  149.6556  130.6167  155.8312 H   0  0  0  0  0  0  0  0  0  0  0  0
  150.8032  131.0458  154.5526 H   0  0  0  0  0  0  0  0  0  0  0  0
  1  2  2  0  0  0  0
  2  3  1  0  0  0  0
  2 10  1  0  0  0  0
  3  4  1  0  0  0  0
  3 18  1  0  0  0  0
  4  9  1  0  0  0  0
  4  5  2  0  0  0  0
  5  6  1  0  0  0  0
  5 19  1  0  0  0  0
  6  7  2  0  0  0  0
  6 20  1  0  0  0  0
  7  8  1  0  0  0  0
  7 21  1  0  0  0  0
  8  9  2  0  0  0  0
  9 22  1  0  0  0  0
 10 11  1  0  0  0  0
 10 23  1  0  0  0  0
 11 17  1  0  0  0  0
 11 12  1  0  0  0  0
 11 24  1  0  0  0  0
 12 13  1  0  0  0  0
 12 25  1  0  0  0  0
 12 26  1  0  0  0  0
 13 14  1  0  0  0  0
 13 27  1  0  0  0  0
 13 28  1  0  0  0  0
 14 15  2  0  0  0  0
 14 16  2  0  0  0  0
 14 17  1  0  0  0  0
 17 29  1  0  0  0  0
 17 30  1  0  0  0  0
M  END
> <s_m_source_file>
AV-unprocessed.smi

> <i_m_source_file_index>
2042

> <i_lp_mmshare_version>
43012

> <i_f3d_flags>
0

> <s_epik_input>
Tz1TMSg9TylbQ0gyXVtDSDJdW0NASF0oW0NIMl0xKVtOSF1DKD1PKVtOSF1jMltjSF1bY0hdW2NIXW5bY0hdMg==

> <s_epik_cmdline>
J2VwaWtfcHl0aG9uJywgJy1waCcsICc3LjAnLCAnLXRuJywgJzgnLCAnLW1hJywgJzIwMCcsICctbWV0YWxfYmluZGluZycsICctaW1hZScsICc8aW5maWxlLm1hZT4nLCAnLW9tYWUnLCAnPG91dGZpbGUubWFlPic=

> <r_epik_Ionization_Penalty>
0.00421056

> <r_epik_Ionization_Penalty_Charging>
0

> <r_epik_Ionization_Penalty_Neutral>
0.00421056

> <r_epik_State_Penalty>
0.00300625

> <r_epik_Charging_Adjusted_Penalty>
0.00300625

> <i_epik_Tot_Q>
0

> <i_epik_Tot_abs_Q>
0

> <r_epik_Metal_State_Penalty>
-0

> <b_epik_Metal_Only>
0

> <s_lp_Force_Field>
OPLS_2005

> <r_lp_Energy>
18.6302

> <b_lp_Chiralities_Consistent>
1

> <s_lp_Variant>
AV-unprocessed.smi:2042-1

> <Gold.Version>
5.8.1

> <Gold.Id.Protein>
6NUR|6NUR_protein|mol2

> <Gold.PLP.Fitness>
38.2800

> <Gold.PLP.PLP>
-28.2731

> <Gold.PLP.part.hbond>
-2.0000

> <Gold.PLP.part.metal>
0.0000

> <Gold.PLP.part.buried>
-3.9391

> <Gold.PLP.part.nonpolar>
-23.7514

> <Gold.PLP.part.repulsive>
0.3127

> <Gold.PLP.ligand.clash>
0.0000

> <Gold.PLP.ligand.torsion>
0.2957

> <Gold.PLP.Chemscore.Hbond>
2.0000

> <Gold.PLP.Chemscore.CHOScore>
1.5326

> <Gold.PLP.Chemscore.Metal>
0.0000

> <Gold.Chemscore.Hbonds>
donor molecule, donor type, donor heavy atom, donor atom, acceptor molecule, acceptor atom, score
      L1  H     3    18       P1 10747  1.00
      P1  H  6896  6907       L1    16  1.00
      L1  C     7    21       P1 10186  0.93
      L1  C     7    21       P1 10952  0.57
      L1  C     9    22       P1 10957  0.12

> <Gold.PLP.Chemscore.Internal.Correction>
0.0005

> <Gold.Rescore>
     Score         DG    S(hbond)    S(metal)    S(lipo)     H(rot)  DE(clash)    DE(int)     intcor
     16.28     -17.97       1.99        0.00      71.85       1.00       0.09       1.60       ----

> <Gold.Chemscore.Fitness>
16.2807

> <Gold.Chemscore.DG>
-17.9660

> <Gold.Chemscore.ZeroCoef>
-5.4800

> <Gold.Chemscore.Hbond>
1.9878

> <Gold.Chemscore.Metal>
0.0000

> <Gold.Chemscore.Lipo>
71.8535

> <Gold.Chemscore.Internal_Hbond>
0.0000

> <Gold.Chemscore.DEClash>
0.0858

> <Gold.Chemscore.DEInternal>
1.5995

> <Gold.Chemscore.Rot>
1.0000

> <Gold.Chemscore.Internal.Correction>
   9.000000E+99

> <Gold.Chemscore.Hbonds>
donor molecule, donor type, donor heavy atom, donor atom, acceptor molecule, acceptor atom, score
      L1  H     3    18       P1 10747  0.99
      P1  H  6896  6907       L1    16  0.80

> <Gold.Chemscore.Hbond.Weighted>
-6.6391

> <Gold.Chemscore.Metal.Weighted>
-0.0000

> <Gold.Chemscore.Lipo.Weighted>
-8.4069

> <Gold.Chemscore.Internal_Hbond.Weighted>
0.0000

> <Gold.Chemscore.DEClash.Weighted>
0.0858

> <Gold.Chemscore.DEInternal.Weighted>
1.5995

> <Gold.Chemscore.Rot.Weighted>
2.5600

> <Gold.Chemscore.Internal.Correction.Weighted>
   9.000000E+99

> <Gold.Protein.RotatedTorsions>
[ 6907 6896 6895 6894 ] final -159.81 input  -60.11 | X-H torsion
[ 7974 7965 7964 7962 ] final  156.02 input  175.53 | X-H torsion
[ 8008 7997 7996 7995 ] final  144.07 input   59.86 | X-H torsion
[ 10167 10162 10161 10158 ] final  -34.50 input  -65.29 | X-H torsion
[ 10718 10713 10712 10709 ] final  167.06 input   66.30 | X-H torsion
[ 10763 10752 10751 10750 ] final  173.41 input  -60.55 | X-H torsion
[ 11005 11000 10999 10996 ] final  -13.22 input  -57.11 | X-H torsion

> <Gold.Protein.ActiveResidues>
 VAL166  LYS551  ARG553  GLY616  TRP617  ASP618  TYR619  PRO620  LYS621  CYS622 
 ASP623  PHE694  ASN695  SER759  ASP760  ASP761  ALA762  ILE779  LEU786  VAL792 
 PHE793  MET794  SER795  GLU796  ALA797  LYS798  CYS799  TRP800  GLU811  SER814 

> <Gold.Protein.RotatedAtoms>
  151.3394  133.3968  159.2669 H   0  0  0  0  0  0  0  0  0  0  0  0  # atno 6907 bound_to 6896
  150.9890  134.9230  159.7899 H   0  0  0  0  0  0  0  0  0  0  0  0  # atno 6908 bound_to 6896
  152.5241  134.3358  159.9252 H   0  0  0  0  0  0  0  0  0  0  0  0  # atno 6909 bound_to 6896
  144.7989  139.7146  143.6190 H   0  0  0  0  0  0  0  0  0  0  0  0  # atno 7974 bound_to 7965
  156.2916  140.2245  156.4994 H   0  0  0  0  0  0  0  0  0  0  0  0  # atno 8008 bound_to 7997
  154.7703  140.0467  157.1067 H   0  0  0  0  0  0  0  0  0  0  0  0  # atno 8009 bound_to 7997
  154.9882  140.3087  155.4920 H   0  0  0  0  0  0  0  0  0  0  0  0  # atno 8010 bound_to 7997
  140.7184  143.3543  151.2091 H   0  0  0  0  0  0  0  0  0  0  0  0  # atno 10167 bound_to 10162
  157.0569  131.0329  151.2661 H   0  0  0  0  0  0  0  0  0  0  0  0  # atno 10718 bound_to 10713
  154.4396  135.2762  155.1856 H   0  0  0  0  0  0  0  0  0  0  0  0  # atno 10763 bound_to 10752
  154.3728  135.6105  153.5753 H   0  0  0  0  0  0  0  0  0  0  0  0  # atno 10764 bound_to 10752
  152.9840  135.5861  154.4722 H   0  0  0  0  0  0  0  0  0  0  0  0  # atno 10765 bound_to 10752
  140.7738  133.8417  155.9231 H   0  0  0  0  0  0  0  0  0  0  0  0  # atno 11005 bound_to 11000
  146.2265  139.5732  142.9584 LP  0  0  0  0  0  0  0  0  0  0  0  0  # atno 17320 bound_to 7965
  145.5603  141.0405  143.2230 LP  0  0  0  0  0  0  0  0  0  0  0  0  # atno 17321 bound_to 7965
  139.7081  143.9421  152.2936 LP  0  0  0  0  0  0  0  0  0  0  0  0  # atno 17342 bound_to 10162
  139.9137  144.6841  150.8535 LP  0  0  0  0  0  0  0  0  0  0  0  0  # atno 17343 bound_to 10162
  157.4986  130.7866  149.7581 LP  0  0  0  0  0  0  0  0  0  0  0  0  # atno 17370 bound_to 10713
  155.9990  130.3891  150.2679 LP  0  0  0  0  0  0  0  0  0  0  0  0  # atno 17371 bound_to 10713
  140.9548  134.1732  157.4700 LP  0  0  0  0  0  0  0  0  0  0  0  0  # atno 17394 bound_to 11000
  139.8752  134.9923  156.5589 LP  0  0  0  0  0  0  0  0  0  0  0  0  # atno 17395 bound_to 11000

$$$$
