AV-unprocessed.smi:72|AV-procd|sdf|731|dock2
  -GOLD-   2262017 63D 1   1.00000     0.00000
 Structure written by MMmdl.
 28 29  0  0  0  0  0  0  0  0  2 V2000
  152.5017  140.7578  158.9876 N   0  0  0  0  0  0  0  0  0  0  0  0
  151.8698  140.8134  157.8980 C   0  0  0  0  0  0  0  0  0  0  0  0
  150.7222  141.6832  157.7699 N   0  0  0  0  0  0  0  0  0  0  0  0
  150.0652  141.6554  156.6514 C   0  0  0  0  0  0  0  0  0  0  0  0
  150.4241  140.7504  155.5628 N   0  0  0  0  0  0  0  0  0  0  0  0
  149.6615  140.7453  154.2420 C   0  0  2  0  0  0  0  0  0  0  0  0
  148.9596  141.9515  154.0955 O   0  0  0  0  0  0  0  0  0  0  0  0
  147.5589  141.7811  154.3099 C   0  0  2  0  0  0  0  0  0  0  0  0
  147.2009  141.9580  155.8040 C   0  0  0  0  0  0  0  0  0  0  0  0
  145.8106  141.7960  155.9882 O   0  0  0  0  0  0  0  0  0  0  0  0
  147.3406  140.3716  153.7516 C   0  0  2  0  0  0  0  0  0  0  0  0
  146.1714  139.7479  154.2461 O   0  0  0  0  0  0  0  0  0  0  0  0
  148.5993  139.6212  154.1659 C   0  0  1  0  0  0  0  0  0  0  0  0
  148.9145  138.6636  153.1749 O   0  0  0  0  0  0  0  0  0  0  0  0
  151.6277  139.9995  155.6791 C   0  0  0  0  0  0  0  0  0  0  0  0
  152.0119  139.3555  154.7032 O   0  0  0  0  0  0  0  0  0  0  0  0
  152.3143  140.0331  156.8550 N   0  5  0  0  0  0  0  0  0  0  0  0
  150.4398  140.6784  153.4801 H   0  0  0  0  0  0  0  0  0  0  0  0
  146.9998  142.5061  153.7166 H   0  0  0  0  0  0  0  0  0  0  0  0
  147.2795  140.4357  152.6636 H   0  0  0  0  0  0  0  0  0  0  0  0
  148.4692  139.1542  155.1437 H   0  0  0  0  0  0  0  0  0  0  0  0
  153.2847  140.1216  158.9530 H   0  0  0  0  0  0  0  0  0  0  0  0
  149.2094  142.3043  156.4659 H   0  0  0  0  0  0  0  0  0  0  0  0
  147.6792  141.1857  156.4059 H   0  0  0  0  0  0  0  0  0  0  0  0
  147.5345  142.9138  156.2049 H   0  0  0  0  0  0  0  0  0  0  0  0
  145.5532  140.9684  155.6114 H   0  0  0  0  0  0  0  0  0  0  0  0
  145.4364  140.0516  153.7355 H   0  0  0  0  0  0  0  0  0  0  0  0
  149.0688  139.1227  152.3625 H   0  0  0  0  0  0  0  0  0  0  0  0
  1  2  2  0  0  0  0
  1 22  1  0  0  0  0
  2 17  1  0  0  0  0
  2  3  1  0  0  0  0
  3  4  2  0  0  0  0
  4  5  1  0  0  0  0
  4 23  1  0  0  0  0
  5  6  1  0  0  0  0
  5 15  1  0  0  0  0
  6 18  1  0  0  0  0
  6 13  1  0  0  0  0
  6  7  1  0  0  0  0
  7  8  1  0  0  0  0
  8 19  1  0  0  0  0
  8  9  1  0  0  0  0
  8 11  1  0  0  0  0
  9 10  1  0  0  0  0
  9 24  1  0  0  0  0
  9 25  1  0  0  0  0
 10 26  1  0  0  0  0
 11 20  1  0  0  0  0
 11 12  1  0  0  0  0
 11 13  1  0  0  0  0
 12 27  1  0  0  0  0
 13 21  1  0  0  0  0
 13 14  1  0  0  0  0
 14 28  1  0  0  0  0
 15 16  2  0  0  0  0
 15 17  1  0  0  0  0
M  CHG  1  17  -1
M  END
> <s_m_source_file>
AV-unprocessed.smi

> <i_m_source_file_index>
72

> <i_lp_mmshare_version>
43012

> <i_f3d_flags>
0

> <s_epik_input>
W05IMl1jMW5bY0hdbihjKD1PKW4xKVtDQEBIXTJPW0NASF0oW0NIMl1bT0hdKVtDQEBIXShbT0hdKVtDQEhdMltPSF0=

> <s_epik_cmdline>
J2VwaWtfcHl0aG9uJywgJy1waCcsICc3LjAnLCAnLXRuJywgJzgnLCAnLW1hJywgJzIwMCcsICctbWV0YWxfYmluZGluZycsICctaW1hZScsICc8aW5maWxlLm1hZT4nLCAnLW9tYWUnLCAnPG91dGZpbGUubWFlPic=

> <r_lp_tautomer_probability>
7.17554e-07

> <r_epik_Ionization_Penalty>
12.8705

> <r_epik_Ionization_Penalty_Charging>
5.64144

> <r_epik_Ionization_Penalty_Neutral>
7.22905

> <r_epik_State_Penalty>
3.30104

> <r_epik_Charging_Adjusted_Penalty>
8.94249

> <i_epik_Tot_Q>
-1

> <i_epik_Tot_abs_Q>
1

> <r_epik_Metal_State_Penalty>
0.529074

> <b_epik_Metal_Only>
1

> <s_epik_Chemistry_Notes>
This compound contains an acetal/aminal-like group ( X-CH(R)-Y where X, Y are N, S, or O) that may be acid/base labile, releasing an aldehyde.

> <s_lp_Force_Field>
OPLS_2005

> <r_lp_Energy>
34.678

> <b_lp_Chiralities_Consistent>
1

> <s_lp_Variant>
AV-unprocessed.smi:72-69

> <Gold.Version>
5.8.1

> <Gold.Id.Protein>
6NUR|6NUR_protein|mol2

> <Gold.PLP.Fitness>
41.5470

> <Gold.PLP.PLP>
-26.6063

> <Gold.PLP.part.hbond>
-5.3983

> <Gold.PLP.part.metal>
0.0000

> <Gold.PLP.part.buried>
0.9746

> <Gold.PLP.part.nonpolar>
-20.5984

> <Gold.PLP.part.repulsive>
0.3094

> <Gold.PLP.ligand.clash>
0.0000

> <Gold.PLP.ligand.torsion>
0.6746

> <Gold.PLP.Chemscore.Hbond>
4.3980

> <Gold.PLP.Chemscore.CHOScore>
1.0000

> <Gold.PLP.Chemscore.Metal>
0.0000

> <Gold.Chemscore.Hbonds>
donor molecule, donor type, donor heavy atom, donor atom, acceptor molecule, acceptor atom, score
      L1  H    12    27       P1 10175  0.57
      L1  H    14    28       P1  7957  1.00
      P1  H  7989  7998       L1    16  0.55
      P1  H  7997  8010       L1    17  1.85
      P1  H  8011  8017       L1     7  0.32
      L1  C     4    23       P1  8028  0.91

> <Gold.PLP.Chemscore.Internal.Correction>
0.0960

> <Gold.Rescore>
     Score         DG    S(hbond)    S(metal)    S(lipo)     H(rot)  DE(clash)    DE(int)     intcor
      3.45      -4.22       1.96        0.00      21.70       4.04       0.35       0.43       ----

> <Gold.Chemscore.Fitness>
3.4459

> <Gold.Chemscore.DG>
-4.2243

> <Gold.Chemscore.ZeroCoef>
-5.4800

> <Gold.Chemscore.Hbond>
1.9605

> <Gold.Chemscore.Metal>
0.0000

> <Gold.Chemscore.Lipo>
21.7031

> <Gold.Chemscore.Internal_Hbond>
0.0000

> <Gold.Chemscore.DEClash>
0.3526

> <Gold.Chemscore.DEInternal>
0.4258

> <Gold.Chemscore.Rot>
4.0403

> <Gold.Chemscore.Internal.Correction>
   9.000000E+99

> <Gold.Chemscore.Hbonds>
donor molecule, donor type, donor heavy atom, donor atom, acceptor molecule, acceptor atom, score
      L1  H    12    27       P1 10175  0.58
      L1  H    14    28       P1  7957  0.98
      P1  H  7989  7998       L1    16  0.04
      P1  H  7997  8010       L1    17  0.59
      P1  H  8011  8017       L1     7  0.04

> <Gold.Chemscore.Hbond.Weighted>
-6.5481

> <Gold.Chemscore.Metal.Weighted>
-0.0000

> <Gold.Chemscore.Lipo.Weighted>
-2.5393

> <Gold.Chemscore.Internal_Hbond.Weighted>
0.0000

> <Gold.Chemscore.DEClash.Weighted>
0.3526

> <Gold.Chemscore.DEInternal.Weighted>
0.4258

> <Gold.Chemscore.Rot.Weighted>
10.3431

> <Gold.Chemscore.Internal.Correction.Weighted>
   9.000000E+99

> <Gold.Protein.RotatedTorsions>
[ 6907 6896 6895 6894 ] final   45.42 input  -60.11 | X-H torsion
[ 7974 7965 7964 7962 ] final -114.99 input  175.53 | X-H torsion
[ 8008 7997 7996 7995 ] final   68.71 input   59.86 | X-H torsion
[ 10167 10162 10161 10158 ] final   18.06 input  -65.29 | X-H torsion
[ 10718 10713 10712 10709 ] final  121.13 input   66.30 | X-H torsion
[ 10763 10752 10751 10750 ] final  175.13 input  -60.55 | X-H torsion
[ 11005 11000 10999 10996 ] final  -37.94 input  -57.11 | X-H torsion

> <Gold.Protein.ActiveResidues>
 VAL166  LYS551  ARG553  GLY616  TRP617  ASP618  TYR619  PRO620  LYS621  CYS622 
 ASP623  PHE694  ASN695  SER759  ASP760  ASP761  ALA762  ILE779  LEU786  VAL792 
 PHE793  MET794  SER795  GLU796  ALA797  LYS798  CYS799  TRP800  GLU811  SER814 

> <Gold.Protein.RotatedAtoms>
  152.2444  134.8196  160.0455 H   0  0  0  0  0  0  0  0  0  0  0  0  # atno 6907 bound_to 6896
  151.8899  133.3508  159.3803 H   0  0  0  0  0  0  0  0  0  0  0  0  # atno 6908 bound_to 6896
  150.7064  134.4860  159.5537 H   0  0  0  0  0  0  0  0  0  0  0  0  # atno 6909 bound_to 6896
  145.1137  140.8627  143.3855 H   0  0  0  0  0  0  0  0  0  0  0  0  # atno 7974 bound_to 7965
  155.7124  140.3494  155.4980 H   0  0  0  0  0  0  0  0  0  0  0  0  # atno 8008 bound_to 7997
  155.9343  140.1090  157.1129 H   0  0  0  0  0  0  0  0  0  0  0  0  # atno 8009 bound_to 7997
  154.4091  140.1225  156.4830 H   0  0  0  0  0  0  0  0  0  0  0  0  # atno 8010 bound_to 7997
  140.5680  143.9214  150.6691 H   0  0  0  0  0  0  0  0  0  0  0  0  # atno 10167 bound_to 10162
  157.5840  131.1072  150.8131 H   0  0  0  0  0  0  0  0  0  0  0  0  # atno 10718 bound_to 10713
  154.4633  135.2768  155.1696 H   0  0  0  0  0  0  0  0  0  0  0  0  # atno 10763 bound_to 10752
  154.3475  135.6157  153.5630 H   0  0  0  0  0  0  0  0  0  0  0  0  # atno 10764 bound_to 10752
  152.9857  135.5803  154.5000 H   0  0  0  0  0  0  0  0  0  0  0  0  # atno 10765 bound_to 10752
  140.9990  133.6965  156.1987 H   0  0  0  0  0  0  0  0  0  0  0  0  # atno 11005 bound_to 11000
  145.0818  139.2954  143.5779 LP  0  0  0  0  0  0  0  0  0  0  0  0  # atno 17320 bound_to 7965
  146.3525  140.0327  142.8649 LP  0  0  0  0  0  0  0  0  0  0  0  0  # atno 17321 bound_to 7965
  140.2682  143.3475  152.1262 LP  0  0  0  0  0  0  0  0  0  0  0  0  # atno 17342 bound_to 10162
  139.5103  144.6882  151.5832 LP  0  0  0  0  0  0  0  0  0  0  0  0  # atno 17343 bound_to 10162
  156.8570  130.5100  149.5307 LP  0  0  0  0  0  0  0  0  0  0  0  0  # atno 17370 bound_to 10713
  156.0888  130.5879  150.9696 LP  0  0  0  0  0  0  0  0  0  0  0  0  # atno 17371 bound_to 10713
  140.6920  134.4656  157.5588 LP  0  0  0  0  0  0  0  0  0  0  0  0  # atno 17394 bound_to 11000
  139.9029  134.8515  156.1822 LP  0  0  0  0  0  0  0  0  0  0  0  0  # atno 17395 bound_to 11000

$$$$
