AV-unprocessed.smi:221|AV-procd|sdf|1699|dock6
  -GOLD-   2262020153D 1   1.00000     0.00000
 Structure written by MMmdl.
 50 53  0  0  0  0  0  0  0  0  1 V2000
  150.1482  144.1225  157.9247 N   0  0  0  0  0  0  0  0  0  0  0  0
  150.8384  143.4540  158.8517 C   0  0  0  0  0  0  0  0  0  0  0  0
  150.3643  143.1979  159.9575 O   0  0  0  0  0  0  0  0  0  0  0  0
  152.2655  143.0186  158.4687 C   0  0  1  0  0  0  0  0  0  0  0  0
  153.3073  143.4921  159.4989 C   0  0  0  0  0  0  0  0  0  0  0  0
  153.4380  142.3338  160.4885 C   0  0  1  0  0  0  0  0  0  0  0  0
  152.4853  142.4171  161.4184 F   0  0  0  0  0  0  0  0  0  0  0  0
  153.2058  141.0984  159.6176 C   0  0  0  0  0  0  0  0  0  0  0  0
  152.4284  141.5641  158.4725 N   0  0  0  0  0  0  0  0  0  0  0  0
  152.0016  140.7205  157.4913 C   0  0  0  0  0  0  0  0  0  0  0  0
  152.6095  139.5080  157.3919 N   0  0  0  0  0  0  0  0  0  0  0  0
  152.2401  138.6299  156.4567 C   0  0  0  0  0  0  0  0  0  0  0  0
  151.2963  138.7546  155.5244 N   0  0  0  0  0  0  0  0  0  0  0  0
  150.6795  139.9672  155.6087 C   0  0  0  0  0  0  0  0  0  0  0  0
  150.9648  141.0016  156.5485 C   0  0  0  0  0  0  0  0  0  0  0  0
  150.1255  142.0850  156.3045 N   0  0  0  0  0  0  0  0  0  0  0  0
  149.3938  141.7148  155.2906 C   0  0  0  0  0  0  0  0  0  0  0  0
  149.6638  140.4574  154.8068 N   0  0  0  0  0  0  0  0  0  0  0  0
  149.0062  139.8005  153.6911 C   0  0  0  0  0  0  0  0  0  0  0  0
  147.4639  139.7083  153.8336 C   0  0  1  0  0  0  0  0  0  0  0  0
  146.7980  139.0073  152.6215 C   0  0  0  0  0  0  0  0  0  0  0  0
  146.9585  139.7504  151.4305 O   0  0  0  0  0  0  0  0  0  0  0  0
  147.0864  139.0000  155.1609 C   0  0  1  0  0  0  0  0  0  0  0  0
  145.5990  138.9700  155.4723 C   0  0  0  0  0  0  0  0  0  0  0  0
  145.5113  137.8564  156.5071 C   0  0  0  0  0  0  0  0  0  0  0  0
  146.4787  136.8985  156.1004 O   0  0  0  0  0  0  0  0  0  0  0  0
  147.4133  137.5002  155.2088 C   0  0  0  0  0  0  0  0  0  0  0  0
  152.5257  143.4335  157.4946 H   0  0  0  0  0  0  0  0  0  0  0  0
  154.3965  142.3172  161.0079 H   0  0  0  0  0  0  0  0  0  0  0  0
  149.2064  144.4264  158.1249 H   0  0  0  0  0  0  0  0  0  0  0  0
  150.5669  144.3180  157.0271 H   0  0  0  0  0  0  0  0  0  0  0  0
  154.2636  143.6431  158.9963 H   0  0  0  0  0  0  0  0  0  0  0  0
  153.0492  144.4336  159.9862 H   0  0  0  0  0  0  0  0  0  0  0  0
  154.1577  140.7033  159.2603 H   0  0  0  0  0  0  0  0  0  0  0  0
  152.6940  140.3094  160.1707 H   0  0  0  0  0  0  0  0  0  0  0  0
  152.7779  137.6933  156.4562 H   0  0  0  0  0  0  0  0  0  0  0  0
  148.6368  142.3545  154.8608 H   0  0  0  0  0  0  0  0  0  0  0  0
  149.2660  140.3306  152.7741 H   0  0  0  0  0  0  0  0  0  0  0  0
  149.4438  138.8061  153.6027 H   0  0  0  0  0  0  0  0  0  0  0  0
  147.0705  140.7248  153.8896 H   0  0  0  0  0  0  0  0  0  0  0  0
  147.2006  138.0031  152.4853 H   0  0  0  0  0  0  0  0  0  0  0  0
  145.7247  138.8948  152.7666 H   0  0  0  0  0  0  0  0  0  0  0  0
  147.8581  140.0343  151.3725 H   0  0  0  0  0  0  0  0  0  0  0  0
  147.5975  139.4921  155.9904 H   0  0  0  0  0  0  0  0  0  0  0  0
  145.2172  139.9174  155.8534 H   0  0  0  0  0  0  0  0  0  0  0  0
  145.0263  138.7010  154.5835 H   0  0  0  0  0  0  0  0  0  0  0  0
  145.7837  138.2323  157.4940 H   0  0  0  0  0  0  0  0  0  0  0  0
  144.5151  137.4186  156.5716 H   0  0  0  0  0  0  0  0  0  0  0  0
  147.2884  137.0411  154.2273 H   0  0  0  0  0  0  0  0  0  0  0  0
  148.4343  137.3105  155.5409 H   0  0  0  0  0  0  0  0  0  0  0  0
  1  2  1  0  0  0  0
  1 30  1  0  0  0  0
  1 31  1  0  0  0  0
  2  3  2  0  0  0  0
  2  4  1  0  0  0  0
  4 28  1  0  0  0  0
  4  9  1  0  0  0  0
  4  5  1  0  0  0  0
  5  6  1  0  0  0  0
  5 32  1  0  0  0  0
  5 33  1  0  0  0  0
  6 29  1  0  0  0  0
  6  7  1  0  0  0  0
  6  8  1  0  0  0  0
  8  9  1  0  0  0  0
  8 34  1  0  0  0  0
  8 35  1  0  0  0  0
  9 10  1  0  0  0  0
 10 15  1  0  0  0  0
 10 11  2  0  0  0  0
 11 12  1  0  0  0  0
 12 13  2  0  0  0  0
 12 36  1  0  0  0  0
 13 14  1  0  0  0  0
 14 18  1  0  0  0  0
 14 15  2  0  0  0  0
 15 16  1  0  0  0  0
 16 17  2  0  0  0  0
 17 18  1  0  0  0  0
 17 37  1  0  0  0  0
 18 19  1  0  0  0  0
 19 20  1  0  0  0  0
 19 38  1  0  0  0  0
 19 39  1  0  0  0  0
 20 21  1  0  0  0  0
 20 23  1  0  0  0  0
 20 40  1  0  0  0  0
 21 22  1  0  0  0  0
 21 41  1  0  0  0  0
 21 42  1  0  0  0  0
 22 43  1  0  0  0  0
 23 27  1  0  0  0  0
 23 24  1  0  0  0  0
 23 44  1  0  0  0  0
 24 25  1  0  0  0  0
 24 45  1  0  0  0  0
 24 46  1  0  0  0  0
 25 26  1  0  0  0  0
 25 47  1  0  0  0  0
 25 48  1  0  0  0  0
 26 27  1  0  0  0  0
 27 49  1  0  0  0  0
 27 50  1  0  0  0  0
M  END
> <s_m_source_file>
AV-unprocessed.smi

> <i_m_source_file_index>
221

> <i_lp_mmshare_version>
43012

> <i_f3d_flags>
0

> <s_epik_input>
W05IMl1DKD1PKVtDQEBIXTFbQ0gyXVtDQEBIXShGKVtDSDJdTjFjKG5bY0hdbjIpYyhjMjMpbltjSF1uM1tDSDJdW0NASF0oW0NIMl1bT0hdKVtDQEBIXTRbQ0gyXVtDSDJdT1tDSDJdNA==

> <s_epik_cmdline>
J2VwaWtfcHl0aG9uJywgJy1waCcsICc3LjAnLCAnLXRuJywgJzgnLCAnLW1hJywgJzIwMCcsICctbWV0YWxfYmluZGluZycsICctaW1hZScsICc8aW5maWxlLm1hZT4nLCAnLW9tYWUnLCAnPG91dGZpbGUubWFlPic=

> <r_lp_tautomer_probability>
1

> <r_epik_Ionization_Penalty>
0.000818822

> <r_epik_Ionization_Penalty_Charging>
0

> <r_epik_Ionization_Penalty_Neutral>
0.000818822

> <r_epik_State_Penalty>
0.000440551

> <r_epik_Charging_Adjusted_Penalty>
0.000440551

> <i_epik_Tot_Q>
0

> <i_epik_Tot_abs_Q>
0

> <r_epik_Metal_State_Penalty>
-0

> <b_epik_Metal_Only>
0

> <s_lp_Force_Field>
OPLS_2005

> <r_lp_Energy>
47.9731

> <b_lp_Chiralities_Consistent>
1

> <s_lp_Variant>
AV-unprocessed.smi:221-14

> <Gold.Version>
5.8.1

> <Gold.Id.Protein>
6NUR|6NUR_protein|mol2

> <Gold.PLP.Fitness>
50.7025

> <Gold.PLP.PLP>
-42.0292

> <Gold.PLP.part.hbond>
-5.0000

> <Gold.PLP.part.metal>
0.0000

> <Gold.PLP.part.buried>
-0.6256

> <Gold.PLP.part.nonpolar>
-37.4226

> <Gold.PLP.part.repulsive>
1.1410

> <Gold.PLP.ligand.clash>
0.0000

> <Gold.PLP.ligand.torsion>
0.3122

> <Gold.PLP.Chemscore.Hbond>
2.4295

> <Gold.PLP.Chemscore.CHOScore>
0.6416

> <Gold.PLP.Chemscore.Metal>
0.0000

> <Gold.Chemscore.Hbonds>
donor molecule, donor type, donor heavy atom, donor atom, acceptor molecule, acceptor atom, score
      L1  H     1    30       P1  8029  0.36
      L1  H     1    31       P1  8028  0.07
      L1  H    22    43       P1  7957  1.00
      P1  H  7997  8010       L1    11  1.00
      L1  C    17    37       P1  8028  0.64

> <Gold.PLP.Chemscore.Internal.Correction>
0.0843

> <Gold.Rescore>
     Score         DG    S(hbond)    S(metal)    S(lipo)     H(rot)  DE(clash)    DE(int)     intcor
      6.49     -11.86       1.71        0.00      78.04       3.31       2.02       3.35       ----

> <Gold.Chemscore.Fitness>
6.4852

> <Gold.Chemscore.DG>
-11.8551

> <Gold.Chemscore.ZeroCoef>
-5.4800

> <Gold.Chemscore.Hbond>
1.7113

> <Gold.Chemscore.Metal>
0.0000

> <Gold.Chemscore.Lipo>
78.0368

> <Gold.Chemscore.Internal_Hbond>
0.0000

> <Gold.Chemscore.DEClash>
2.0167

> <Gold.Chemscore.DEInternal>
3.3532

> <Gold.Chemscore.Rot>
3.3089

> <Gold.Chemscore.Internal.Correction>
   9.000000E+99

> <Gold.Chemscore.Hbonds>
donor molecule, donor type, donor heavy atom, donor atom, acceptor molecule, acceptor atom, score
      L1  H     1    30       P1  8029  0.06
      L1  H     1    31       P1  8028  0.08
      L1  H    22    43       P1  7957  1.00
      P1  H  7997  8010       L1    11  0.13

> <Gold.Chemscore.Hbond.Weighted>
-5.7156

> <Gold.Chemscore.Metal.Weighted>
-0.0000

> <Gold.Chemscore.Lipo.Weighted>
-9.1303

> <Gold.Chemscore.Internal_Hbond.Weighted>
0.0000

> <Gold.Chemscore.DEClash.Weighted>
2.0167

> <Gold.Chemscore.DEInternal.Weighted>
3.3532

> <Gold.Chemscore.Rot.Weighted>
8.4709

> <Gold.Chemscore.Internal.Correction.Weighted>
   9.000000E+99

> <Gold.Protein.RotatedTorsions>
[ 6907 6896 6895 6894 ] final  150.65 input  -60.11 | X-H torsion
[ 7974 7965 7964 7962 ] final -164.82 input  175.53 | X-H torsion
[ 8008 7997 7996 7995 ] final   48.57 input   59.86 | X-H torsion
[ 10167 10162 10161 10158 ] final  -51.12 input  -65.29 | X-H torsion
[ 10718 10713 10712 10709 ] final   43.76 input   66.30 | X-H torsion
[ 10763 10752 10751 10750 ] final  121.99 input  -60.55 | X-H torsion
[ 11005 11000 10999 10996 ] final  -34.60 input  -57.11 | X-H torsion

> <Gold.Protein.ActiveResidues>
 VAL166  LYS551  ARG553  GLY616  TRP617  ASP618  TYR619  PRO620  LYS621  CYS622 
 ASP623  PHE694  ASN695  SER759  ASP760  ASP761  ALA762  ILE779  LEU786  VAL792 
 PHE793  MET794  SER795  GLU796  ALA797  LYS798  CYS799  TRP800  GLU811  SER814 

> <Gold.Protein.RotatedAtoms>
  152.1114  133.4303  159.4632 H   0  0  0  0  0  0  0  0  0  0  0  0  # atno 6907 bound_to 6896
  150.6867  134.2643  159.4571 H   0  0  0  0  0  0  0  0  0  0  0  0  # atno 6908 bound_to 6896
  152.0512  134.9652  160.0625 H   0  0  0  0  0  0  0  0  0  0  0  0  # atno 6909 bound_to 6896
  144.7286  140.2904  143.6221 H   0  0  0  0  0  0  0  0  0  0  0  0  # atno 7974 bound_to 7965
  155.3879  140.3432  155.4250 H   0  0  0  0  0  0  0  0  0  0  0  0  # atno 8008 bound_to 7997
  156.1574  140.1590  156.8703 H   0  0  0  0  0  0  0  0  0  0  0  0  # atno 8009 bound_to 7997
  154.5107  140.0790  156.7966 H   0  0  0  0  0  0  0  0  0  0  0  0  # atno 8010 bound_to 7997
  140.6604  143.2631  151.4458 H   0  0  0  0  0  0  0  0  0  0  0  0  # atno 10167 bound_to 10162
  157.4194  130.7960  149.7502 H   0  0  0  0  0  0  0  0  0  0  0  0  # atno 10718 bound_to 10713
  153.6228  135.3410  155.3016 H   0  0  0  0  0  0  0  0  0  0  0  0  # atno 10763 bound_to 10752
  154.8596  135.4277  154.2189 H   0  0  0  0  0  0  0  0  0  0  0  0  # atno 10764 bound_to 10752
  153.3066  135.7028  153.7227 H   0  0  0  0  0  0  0  0  0  0  0  0  # atno 10765 bound_to 10752
  140.9729  133.7099  156.1553 H   0  0  0  0  0  0  0  0  0  0  0  0  # atno 11005 bound_to 11000
  145.7861  139.1909  143.2130 LP  0  0  0  0  0  0  0  0  0  0  0  0  # atno 17320 bound_to 7965
  146.0794  140.7780  142.9649 LP  0  0  0  0  0  0  0  0  0  0  0  0  # atno 17321 bound_to 7965
  139.5836  144.1653  152.2000 LP  0  0  0  0  0  0  0  0  0  0  0  0  # atno 17342 bound_to 10162
  140.0986  144.5559  150.7004 LP  0  0  0  0  0  0  0  0  0  0  0  0  # atno 17343 bound_to 10162
  155.9876  130.3966  150.3158 LP  0  0  0  0  0  0  0  0  0  0  0  0  # atno 17370 bound_to 10713
  157.1305  131.0270  151.2971 LP  0  0  0  0  0  0  0  0  0  0  0  0  # atno 17371 bound_to 10713
  140.7302  134.4263  157.5566 LP  0  0  0  0  0  0  0  0  0  0  0  0  # atno 17394 bound_to 11000
  139.8919  134.8768  156.2297 LP  0  0  0  0  0  0  0  0  0  0  0  0  # atno 17395 bound_to 11000

$$$$
