AV-unprocessed.smi:220|AV-procd|sdf|1683|dock10
  -GOLD-   2262020123D 1   1.00000     0.00000
 Structure written by MMmdl.
 51 55  0  0  0  0  0  0  0  0  1 V2000
  149.5740  138.5913  153.2833 N   0  0  0  0  0  0  0  0  0  0  0  0
  149.9637  139.1845  154.4140 C   0  0  0  0  0  0  0  0  0  0  0  0
  150.4253  140.3247  154.4235 O   0  0  0  0  0  0  0  0  0  0  0  0
  149.8243  138.3606  155.7138 C   0  0  1  0  0  0  0  0  0  0  0  0
  150.6021  138.9053  156.9443 C   0  0  1  0  0  0  0  0  0  0  0  0
  151.8330  139.8260  156.7567 C   0  0  0  0  0  0  0  0  0  0  0  0
  151.6166  140.9840  157.7362 C   0  0  0  0  0  0  0  0  0  0  0  0
  150.0979  141.1415  157.8059 C   0  0  0  0  0  0  0  0  0  0  0  0
  149.5879  139.6980  157.7774 C   0  0  1  0  0  0  0  0  0  0  0  0
  148.2250  139.4587  157.1220 C   0  0  0  0  0  0  0  0  0  0  0  0
  148.4407  138.3512  156.1963 N   0  0  0  0  0  0  0  0  0  0  0  0
  147.4080  137.8247  155.4779 C   0  0  0  0  0  0  0  0  0  0  0  0
  146.3669  138.6369  155.1515 N   0  0  0  0  0  0  0  0  0  0  0  0
  145.3340  138.1744  154.4432 C   0  0  0  0  0  0  0  0  0  0  0  0
  145.1355  136.9461  153.9660 N   0  0  0  0  0  0  0  0  0  0  0  0
  146.1661  136.1167  154.2942 C   0  0  0  0  0  0  0  0  0  0  0  0
  147.3278  136.4664  155.0433 C   0  0  0  0  0  0  0  0  0  0  0  0
  148.1383  135.3447  155.1840 N   0  0  0  0  0  0  0  0  0  0  0  0
  147.5034  134.3985  154.5505 C   0  0  0  0  0  0  0  0  0  0  0  0
  146.3135  134.7773  153.9749 N   0  0  0  0  0  0  0  0  0  0  0  0
  145.4060  133.9332  153.2121 C   0  0  0  0  0  0  0  0  0  0  0  0
  145.5177  134.1227  151.6858 C   0  0  0  0  0  0  0  0  0  0  0  0
  146.8508  133.5533  151.1698 C   0  0  0  0  0  0  0  0  0  0  0  0
  146.9537  132.1685  151.4306 O   0  0  0  0  0  0  0  0  0  0  0  0
  144.2898  133.7024  150.8650 C   0  0  0  0  0  0  0  0  0  0  0  0
  144.2387  134.9731  150.1831 O   0  0  0  0  0  0  0  0  0  0  0  0
  145.1582  135.5168  151.1539 C   0  0  0  0  0  0  0  0  0  0  0  0
  149.6411  139.0899  152.4079 H   0  0  0  0  0  0  0  0  0  0  0  0
  149.2099  137.6498  153.3072 H   0  0  0  0  0  0  0  0  0  0  0  0
  150.1708  137.3439  155.5336 H   0  0  0  0  0  0  0  0  0  0  0  0
  150.9121  138.0482  157.5448 H   0  0  0  0  0  0  0  0  0  0  0  0
  152.7671  139.2997  156.9554 H   0  0  0  0  0  0  0  0  0  0  0  0
  151.9157  140.2390  155.7536 H   0  0  0  0  0  0  0  0  0  0  0  0
  152.0029  140.7128  158.7198 H   0  0  0  0  0  0  0  0  0  0  0  0
  152.1197  141.8989  157.4217 H   0  0  0  0  0  0  0  0  0  0  0  0
  149.7699  141.6853  158.6920 H   0  0  0  0  0  0  0  0  0  0  0  0
  149.7523  141.6896  156.9282 H   0  0  0  0  0  0  0  0  0  0  0  0
  149.5860  139.2973  158.7924 H   0  0  0  0  0  0  0  0  0  0  0  0
  147.4753  139.2073  157.8735 H   0  0  0  0  0  0  0  0  0  0  0  0
  147.8767  140.3385  156.5789 H   0  0  0  0  0  0  0  0  0  0  0  0
  144.5558  138.8915  154.2277 H   0  0  0  0  0  0  0  0  0  0  0  0
  147.8915  133.3928  154.4867 H   0  0  0  0  0  0  0  0  0  0  0  0
  145.6154  132.8976  153.4832 H   0  0  0  0  0  0  0  0  0  0  0  0
  144.3869  134.1207  153.5517 H   0  0  0  0  0  0  0  0  0  0  0  0
  146.9774  133.7261  150.1010 H   0  0  0  0  0  0  0  0  0  0  0  0
  147.6930  134.0463  151.6564 H   0  0  0  0  0  0  0  0  0  0  0  0
  147.7954  131.8664  151.1247 H   0  0  0  0  0  0  0  0  0  0  0  0
  144.4719  132.8677  150.1869 H   0  0  0  0  0  0  0  0  0  0  0  0
  143.3904  133.5328  151.4585 H   0  0  0  0  0  0  0  0  0  0  0  0
  144.6496  136.1514  151.8813 H   0  0  0  0  0  0  0  0  0  0  0  0
  145.9913  136.0473  150.6912 H   0  0  0  0  0  0  0  0  0  0  0  0
  1  2  1  0  0  0  0
  1 28  1  0  0  0  0
  1 29  1  0  0  0  0
  2  3  2  0  0  0  0
  2  4  1  0  0  0  0
  4 11  1  0  0  0  0
  4  5  1  0  0  0  0
  4 30  1  0  0  0  0
  5  9  1  0  0  0  0
  5  6  1  0  0  0  0
  5 31  1  0  0  0  0
  6  7  1  0  0  0  0
  6 32  1  0  0  0  0
  6 33  1  0  0  0  0
  7  8  1  0  0  0  0
  7 34  1  0  0  0  0
  7 35  1  0  0  0  0
  8  9  1  0  0  0  0
  8 36  1  0  0  0  0
  8 37  1  0  0  0  0
  9 10  1  0  0  0  0
  9 38  1  0  0  0  0
 10 11  1  0  0  0  0
 10 39  1  0  0  0  0
 10 40  1  0  0  0  0
 11 12  1  0  0  0  0
 12 17  1  0  0  0  0
 12 13  2  0  0  0  0
 13 14  1  0  0  0  0
 14 15  2  0  0  0  0
 14 41  1  0  0  0  0
 15 16  1  0  0  0  0
 16 20  1  0  0  0  0
 16 17  2  0  0  0  0
 17 18  1  0  0  0  0
 18 19  2  0  0  0  0
 19 20  1  0  0  0  0
 19 42  1  0  0  0  0
 20 21  1  0  0  0  0
 21 22  1  0  0  0  0
 21 43  1  0  0  0  0
 21 44  1  0  0  0  0
 22 27  1  0  0  0  0
 22 23  1  0  0  0  0
 22 25  1  0  0  0  0
 23 24  1  0  0  0  0
 23 45  1  0  0  0  0
 23 46  1  0  0  0  0
 24 47  1  0  0  0  0
 25 26  1  0  0  0  0
 25 48  1  0  0  0  0
 25 49  1  0  0  0  0
 26 27  1  0  0  0  0
 27 50  1  0  0  0  0
 27 51  1  0  0  0  0
M  END
> <s_m_source_file>
AV-unprocessed.smi

> <i_m_source_file_index>
220

> <i_lp_mmshare_version>
43012

> <i_f3d_flags>
0

> <s_epik_input>
W0NIMl0xW0NIMl1bQ0gyXVtDQEhdKFtDQEhdMTIpW0NIMl1OKFtDQEBIXTJDKD1PKVtOSDJdKWMobltjSF1uMyljKGMzNCluW2NIXW40W0NIMl1DNShbQ0gyXVtPSF0pW0NIMl1PW0NIMl01

> <s_epik_cmdline>
J2VwaWtfcHl0aG9uJywgJy1waCcsICc3LjAnLCAnLXRuJywgJzgnLCAnLW1hJywgJzIwMCcsICctbWV0YWxfYmluZGluZycsICctaW1hZScsICc8aW5maWxlLm1hZT4nLCAnLW9tYWUnLCAnPG91dGZpbGUubWFlPic=

> <r_lp_tautomer_probability>
1

> <r_epik_Ionization_Penalty>
0.00118987

> <r_epik_Ionization_Penalty_Charging>
0

> <r_epik_Ionization_Penalty_Neutral>
0.00118987

> <r_epik_State_Penalty>
0.000654261

> <r_epik_Charging_Adjusted_Penalty>
0.000654261

> <i_epik_Tot_Q>
0

> <i_epik_Tot_abs_Q>
0

> <r_epik_Metal_State_Penalty>
-0

> <b_epik_Metal_Only>
0

> <s_lp_Force_Field>
OPLS_2005

> <r_lp_Energy>
61.4398

> <b_lp_Chiralities_Consistent>
1

> <s_lp_Variant>
AV-unprocessed.smi:220-2

> <Gold.Version>
5.8.1

> <Gold.Id.Protein>
6NUR|6NUR_protein|mol2

> <Gold.PLP.Fitness>
40.1705

> <Gold.PLP.PLP>
-28.9696

> <Gold.PLP.part.hbond>
-3.9804

> <Gold.PLP.part.metal>
0.0000

> <Gold.PLP.part.buried>
-7.4891

> <Gold.PLP.part.nonpolar>
-18.4170

> <Gold.PLP.part.repulsive>
0.7029

> <Gold.PLP.ligand.clash>
0.0000

> <Gold.PLP.ligand.torsion>
1.6537

> <Gold.PLP.Chemscore.Hbond>
3.6473

> <Gold.PLP.Chemscore.CHOScore>
1.0000

> <Gold.PLP.Chemscore.Metal>
0.0000

> <Gold.Chemscore.Hbonds>
donor molecule, donor type, donor heavy atom, donor atom, acceptor molecule, acceptor atom, score
      L1  H     1    28       P1  7957  1.00
      L1  H     1    29       P1  7948  0.62
      L1  H    24    47       P1 10747  1.00
      P1  H  7989  7998       L1     3  1.00
      L1  C    14    41       P1 10175  1.00

> <Gold.PLP.Chemscore.Internal.Correction>
0.5665

> <Gold.Rescore>
     Score         DG    S(hbond)    S(metal)    S(lipo)     H(rot)  DE(clash)    DE(int)     intcor
     13.16     -16.36       3.63        0.00      52.48       2.89       0.00       3.20       ----

> <Gold.Chemscore.Fitness>
13.1606

> <Gold.Chemscore.DG>
-16.3590

> <Gold.Chemscore.ZeroCoef>
-5.4800

> <Gold.Chemscore.Hbond>
3.6316

> <Gold.Chemscore.Metal>
0.0000

> <Gold.Chemscore.Lipo>
52.4792

> <Gold.Chemscore.Internal_Hbond>
0.0000

> <Gold.Chemscore.DEClash>
0.0004

> <Gold.Chemscore.DEInternal>
3.1980

> <Gold.Chemscore.Rot>
2.8869

> <Gold.Chemscore.Internal.Correction>
   9.000000E+99

> <Gold.Chemscore.Hbonds>
donor molecule, donor type, donor heavy atom, donor atom, acceptor molecule, acceptor atom, score
      L1  H     1    28       P1  7957  0.81
      L1  H     1    29       P1  7948  0.58
      L1  H    24    47       P1 10747  0.99
      P1  H  7989  7998       L1     3  0.96

> <Gold.Chemscore.Hbond.Weighted>
-12.1295

> <Gold.Chemscore.Metal.Weighted>
-0.0000

> <Gold.Chemscore.Lipo.Weighted>
-6.1401

> <Gold.Chemscore.Internal_Hbond.Weighted>
0.0000

> <Gold.Chemscore.DEClash.Weighted>
0.0004

> <Gold.Chemscore.DEInternal.Weighted>
3.1980

> <Gold.Chemscore.Rot.Weighted>
7.3905

> <Gold.Chemscore.Internal.Correction.Weighted>
   9.000000E+99

> <Gold.Protein.RotatedTorsions>
[ 6907 6896 6895 6894 ] final   46.11 input  -60.11 | X-H torsion
[ 7974 7965 7964 7962 ] final -141.11 input  175.53 | X-H torsion
[ 8008 7997 7996 7995 ] final   93.39 input   59.86 | X-H torsion
[ 10167 10162 10161 10158 ] final  132.47 input  -65.29 | X-H torsion
[ 10718 10713 10712 10709 ] final   39.94 input   66.30 | X-H torsion
[ 10763 10752 10751 10750 ] final -100.42 input  -60.55 | X-H torsion
[ 11005 11000 10999 10996 ] final  123.83 input  -57.11 | X-H torsion

> <Gold.Protein.ActiveResidues>
 VAL166  LYS551  ARG553  GLY616  TRP617  ASP618  TYR619  PRO620  LYS621  CYS622 
 ASP623  PHE694  ASN695  SER759  ASP760  ASP761  ALA762  ILE779  LEU786  VAL792 
 PHE793  MET794  SER795  GLU796  ALA797  LYS798  CYS799  TRP800  GLU811  SER814 

> <Gold.Protein.RotatedAtoms>
  152.2525  134.8117  160.0443 H   0  0  0  0  0  0  0  0  0  0  0  0  # atno 6907 bound_to 6896
  151.8792  133.3486  159.3769 H   0  0  0  0  0  0  0  0  0  0  0  0  # atno 6908 bound_to 6896
  150.7089  134.4962  159.5583 H   0  0  0  0  0  0  0  0  0  0  0  0  # atno 6909 bound_to 6896
  144.8545  140.6120  143.5368 H   0  0  0  0  0  0  0  0  0  0  0  0  # atno 7974 bound_to 7965
  156.0462  140.3313  155.7299 H   0  0  0  0  0  0  0  0  0  0  0  0  # atno 8008 bound_to 7997
  155.5670  140.0624  157.2833 H   0  0  0  0  0  0  0  0  0  0  0  0  # atno 8009 bound_to 7997
  154.4415  140.1867  156.0829 H   0  0  0  0  0  0  0  0  0  0  0  0  # atno 8010 bound_to 7997
  139.5338  144.6660  151.4856 H   0  0  0  0  0  0  0  0  0  0  0  0  # atno 10167 bound_to 10162
  157.3764  130.7729  149.7159 H   0  0  0  0  0  0  0  0  0  0  0  0  # atno 10718 bound_to 10713
  154.7578  135.4935  153.9407 H   0  0  0  0  0  0  0  0  0  0  0  0  # atno 10763 bound_to 10752
  153.1216  135.6733  153.9334 H   0  0  0  0  0  0  0  0  0  0  0  0  # atno 10764 bound_to 10752
  153.9065  135.3104  155.3427 H   0  0  0  0  0  0  0  0  0  0  0  0  # atno 10765 bound_to 10752
  139.9330  134.9641  156.8318 H   0  0  0  0  0  0  0  0  0  0  0  0  # atno 11005 bound_to 11000
  145.4434  139.1533  143.3958 LP  0  0  0  0  0  0  0  0  0  0  0  0  # atno 17320 bound_to 7965
  146.2812  140.4556  142.8776 LP  0  0  0  0  0  0  0  0  0  0  0  0  # atno 17321 bound_to 7965
  140.6533  143.8652  150.6808 LP  0  0  0  0  0  0  0  0  0  0  0  0  # atno 17342 bound_to 10162
  140.2023  143.3949  152.1782 LP  0  0  0  0  0  0  0  0  0  0  0  0  # atno 17343 bound_to 10162
  155.9766  130.4073  150.3767 LP  0  0  0  0  0  0  0  0  0  0  0  0  # atno 17370 bound_to 10713
  157.1865  131.0405  151.2722 LP  0  0  0  0  0  0  0  0  0  0  0  0  # atno 17371 bound_to 10713
  140.6150  134.0047  155.7593 LP  0  0  0  0  0  0  0  0  0  0  0  0  # atno 17394 bound_to 11000
  141.0930  133.9888  157.3207 LP  0  0  0  0  0  0  0  0  0  0  0  0  # atno 17395 bound_to 11000

$$$$
