#       Name:                AV-unprocessed.smi:2798
#       Creating user name   scv26
#       Creation time:       Fri Mar 27 15:22:14 2020


#       File generated by GOLD software.
#

@<TRIPOS>MOLECULE
AV-unprocessed.smi:2798
    33    35     1
SMALL
NO_CHARGES


@<TRIPOS>ATOM
      1 ****        -6.6587  -1.5046  -0.5522 N.1            1 S1                 0.0000
      2 ****        -5.5055  -1.4119  -0.5254 C.1            1 S1                 0.0000
      3 ****        -4.0575  -1.2949  -0.4919 C.ar           1 S1                 0.0000
      4 ****        -3.4590  -0.0234  -0.6141 C.ar           1 S1                 0.0000
      5 ****        -2.0545   0.0693  -0.5781 C.ar           1 S1                 0.0000
      6 ****        -1.2921  -1.1115  -0.4209 C.ar           1 S1                 0.0000
      7 ****         0.1100  -1.1275  -0.3706 N.pl3          1 S1                 0.0000
      8 ****         0.8836   0.1040  -0.2672 C.3            1 S1                 0.0000
      9 ****         0.7587   0.7826   1.1036 C.3            1 S1                 0.0000
     10 ****         2.2243   0.8836   1.5438 C.3            1 S1                 0.0000
     11 ****         3.0193   1.8877   0.6983 C.3            1 S1                 0.0000
     12 ****         3.1713   1.1326  -0.6218 C.3            1 S1                 0.0000
     13 ****         2.3976  -0.1619  -0.3368 C.3            1 S1                 0.0000
     14 ****         2.7195  -0.3411   1.0332 O.3            1 S1                 0.0000
     15 ****        -1.9921  -2.3314  -0.3107 C.ar           1 S1                 0.0000
     16 ****        -3.3384  -2.4284  -0.3432 N.ar           1 S1                 0.0000
     17 ****        -4.0596   0.8670  -0.7335 H              1 S1                 0.0000
     18 ****        -1.5885   1.0387  -0.6713 H              1 S1                 0.0000
     19 ****         0.5860  -2.0023  -0.2006 H              1 S1                 0.0000
     20 ****         0.5953   0.7750  -1.0771 H              1 S1                 0.0000
     21 ****         0.2729   1.7572   1.0474 H              1 S1                 0.0000
     22 ****         0.1987   0.1668   1.8093 H              1 S1                 0.0000
     23 ****         2.3548   1.0077   2.6190 H              1 S1                 0.0000
     24 ****         2.4973   2.8386   0.5863 H              1 S1                 0.0000
     25 ****         3.9966   2.0833   1.1411 H              1 S1                 0.0000
     26 ****         2.7698   1.6813  -1.4743 H              1 S1                 0.0000
     27 ****         4.2221   0.9177  -0.8192 H              1 S1                 0.0000
     28 ****         2.6844  -0.9916  -0.9842 H              1 S1                 0.0000
     29 ****        -1.4566  -3.2618  -0.1899 H              1 S1                 0.0000
     30 ****        -7.6552  -1.5847  -0.5753 LP             1 S1                 0.0000
     31 ****         2.2479  -1.1294   1.4285 LP             1 S1                 0.0000
     32 ****         3.7046  -0.4355   1.1770 LP             1 S1                 0.0000
     33 ****        -3.7911  -3.3161  -0.2593 LP             1 S1                 0.0000
@<TRIPOS>BOND
    1    1    2 3     
    2    2    3 1     
    3    3   16 ar    
    4    3    4 ar    
    5    4    5 ar    
    6    4   17 1     
    7    5    6 ar    
    8    5   18 1     
    9    6    7 1     
   10    6   15 ar    
   11    7    8 1     
   12    7   19 1     
   13    8   13 1     
   14    8    9 1     
   15    8   20 1     
   16    9   10 1     
   17    9   21 1     
   18    9   22 1     
   19   10   14 1     
   20   10   11 1     
   21   10   23 1     
   22   11   12 1     
   23   11   24 1     
   24   11   25 1     
   25   12   13 1     
   26   12   26 1     
   27   12   27 1     
   28   13   14 1     
   29   13   28 1     
   30   15   16 ar    
   31   15   29 1     
   32    1   30 1     
   33   14   31 1     
   34   14   32 1     
   35   16   33 1     
@<TRIPOS>SUBSTRUCTURE
      1 S1             1
@<TRIPOS>SET
LONE_PAIRS      STATIC     ATOMS    <user>   **** ""
4 30 31 32 33
DONOR_HYDROGENS      STATIC     ATOMS    <user>   **** ""
1 19
ATOM$BLUE        STATIC     ATOMS    COLORGROUP SYSTEM
4 30 31 32 33
ATOM$RED        STATIC     ATOMS    COLORGROUP SYSTEM
1 19
