#       Name:                AV-unprocessed.smi:109
#       Creating user name   scv26
#       Creation time:       Thu Mar 26 18:06:00 2020


#       File generated by GOLD software.
#

@<TRIPOS>MOLECULE
AV-unprocessed.smi:109
    71    74     1
SMALL
NO_CHARGES


@<TRIPOS>ATOM
      1 ****        -1.5503   3.2595   4.2567 O.3            1 S1                 0.0000
      2 ****        -1.1891   2.7927   2.9750 C.3            1 S1                 0.0000
      3 ****        -2.4538   2.5059   2.1468 C.3            1 S1                 0.0000
      4 ****        -2.1676   2.0731   0.6880 C.3            1 S1                 0.0000
      5 ****        -1.3857   0.8343   0.6953 N.pl3          1 S1                 0.0000
      6 ****        -0.0490   0.8243   0.4919 C.ar           1 S1                 0.0000
      7 ****         0.6174   1.9381   0.0905 N.ar           1 S1                 0.0000
      8 ****         1.9402   1.8977  -0.0963 C.ar           1 S1                 0.0000
      9 ****         2.7743   0.8670   0.0592 N.ar           1 S1                 0.0000
     10 ****         2.1077  -0.2534   0.4615 C.ar           1 S1                 0.0000
     11 ****         0.7094  -0.3568   0.6976 C.ar           1 S1                 0.0000
     12 ****         0.3963  -1.6483   1.1019 N.2            1 S1                 0.0000
     13 ****         1.5475  -2.2667   1.1056 C.2            1 S1                 0.0000
     14 ****         2.6284  -1.5010   0.7218 N.pl3          1 S1                 0.0000
     15 ****         4.0736  -1.8761   0.6197 C.3            1 S1                 0.0000
     16 ****         4.2619  -3.1256   1.2252 O.3            1 S1                 0.0000
     17 ****         4.7880  -4.0835   0.3047 C.3            1 S1                 0.0000
     18 ****         3.6354  -4.9607  -0.2313 C.3            1 S1                 0.0000
     19 ****         3.3046  -5.9490   0.7206 O.3            1 S1                 0.0000
     20 ****         5.4784  -3.1941  -0.7383 C.3            1 S1                 0.0000
     21 ****         5.7562  -3.8145  -1.9804 O.3            1 S1                 0.0000
     22 ****         4.5662  -1.9823  -0.8379 C.3            1 S1                 0.0000
     23 ****         3.5261  -2.1595  -1.7877 O.3            1 S1                 0.0000
     24 ****        -3.4492   1.8706  -0.1699 C.3            1 S1                 0.0000
     25 ****        -3.0854   1.4920  -1.6287 C.3            1 S1                 0.0000
     26 ****        -4.3258   1.2849  -2.5114 C.3            1 S1                 0.0000
     27 ****        -5.2209   2.5297  -2.5106 C.3            1 S1                 0.0000
     28 ****        -5.6140   2.9088  -1.0780 C.3            1 S1                 0.0000
     29 ****        -4.3765   3.1117  -0.1879 C.3            1 S1                 0.0000
     30 ****         4.5986  -1.1126   1.1954 H              1 S1                 0.0000
     31 ****         5.5291  -4.7138   0.7986 H              1 S1                 0.0000
     32 ****         6.4310  -2.8655  -0.3198 H              1 S1                 0.0000
     33 ****         5.1204  -1.0813  -1.1029 H              1 S1                 0.0000
     34 ****        -2.0529   2.5873   4.6908 H              1 S1                 0.0000
     35 ****        -0.5711   3.5454   2.4846 H              1 S1                 0.0000
     36 ****        -0.5809   1.8960   3.0943 H              1 S1                 0.0000
     37 ****        -3.0565   1.7454   2.6452 H              1 S1                 0.0000
     38 ****        -3.0449   3.4202   2.1519 H              1 S1                 0.0000
     39 ****        -1.6092   2.8811   0.2166 H              1 S1                 0.0000
     40 ****        -1.8961   0.0049   0.9630 H              1 S1                 0.0000
     41 ****         2.3946   2.8238  -0.4158 H              1 S1                 0.0000
     42 ****         1.6342  -3.3040   1.3940 H              1 S1                 0.0000
     43 ****         2.7525  -4.3758  -0.4846 H              1 S1                 0.0000
     44 ****         3.9392  -5.4857  -1.1364 H              1 S1                 0.0000
     45 ****         2.6094  -6.4839   0.3689 H              1 S1                 0.0000
     46 ****         6.3385  -4.5432  -1.8278 H              1 S1                 0.0000
     47 ****         3.9199  -2.3045  -2.6346 H              1 S1                 0.0000
     48 ****        -4.0157   1.0433   0.2609 H              1 S1                 0.0000
     49 ****        -2.4587   2.2724  -2.0630 H              1 S1                 0.0000
     50 ****        -2.4920   0.5780  -1.6541 H              1 S1                 0.0000
     51 ****        -4.0202   1.0488  -3.5311 H              1 S1                 0.0000
     52 ****        -4.8917   0.4252  -2.1507 H              1 S1                 0.0000
     53 ****        -4.6959   3.3619  -2.9814 H              1 S1                 0.0000
     54 ****        -6.1151   2.3476  -3.1074 H              1 S1                 0.0000
     55 ****        -6.2166   3.8176  -1.0875 H              1 S1                 0.0000
     56 ****        -6.2436   2.1258  -0.6532 H              1 S1                 0.0000
     57 ****        -4.7326   3.3442   0.8143 H              1 S1                 0.0000
     58 ****        -3.8184   3.9839  -0.5313 H              1 S1                 0.0000
     59 ****        -2.1012   4.0895   4.1703 LP             1 S1                 0.0000
     60 ****        -0.7265   3.4599   4.7870 LP             1 S1                 0.0000
     61 ****         0.1172   2.7898  -0.0655 LP             1 S1                 0.0000
     62 ****         3.7608   0.9105  -0.0989 LP             1 S1                 0.0000
     63 ****        -0.5024  -2.0192   1.3360 LP             1 S1                 0.0000
     64 ****         3.3826  -3.4552   1.5690 LP             1 S1                 0.0000
     65 ****         4.9009  -3.0236   1.9876 LP             1 S1                 0.0000
     66 ****         2.9993  -5.5130   1.5672 LP             1 S1                 0.0000
     67 ****         4.1054  -6.5177   0.9085 LP             1 S1                 0.0000
     68 ****         6.1919  -3.1576  -2.5957 LP             1 S1                 0.0000
     69 ****         4.9056  -4.1426  -2.3914 LP             1 S1                 0.0000
     70 ****         2.9519  -1.3413  -1.8172 LP             1 S1                 0.0000
     71 ****         2.9678  -2.9496  -1.5345 LP             1 S1                 0.0000
@<TRIPOS>BOND
    1    1    2 1     
    2    1   34 1     
    3    2    3 1     
    4    2   35 1     
    5    2   36 1     
    6    3    4 1     
    7    3   37 1     
    8    3   38 1     
    9    4    5 1     
   10    4   24 1     
   11    4   39 1     
   12    5    6 1     
   13    5   40 1     
   14    6   11 ar    
   15    6    7 ar    
   16    7    8 ar    
   17    8    9 ar    
   18    8   41 1     
   19    9   10 ar    
   20   10   14 1     
   21   10   11 ar    
   22   11   12 1     
   23   12   13 2     
   24   13   14 1     
   25   13   42 1     
   26   14   15 1     
   27   15   30 1     
   28   15   22 1     
   29   15   16 1     
   30   16   17 1     
   31   17   31 1     
   32   17   18 1     
   33   17   20 1     
   34   18   19 1     
   35   18   43 1     
   36   18   44 1     
   37   19   45 1     
   38   20   32 1     
   39   20   21 1     
   40   20   22 1     
   41   21   46 1     
   42   22   33 1     
   43   22   23 1     
   44   23   47 1     
   45   24   29 1     
   46   24   25 1     
   47   24   48 1     
   48   25   26 1     
   49   25   49 1     
   50   25   50 1     
   51   26   27 1     
   52   26   51 1     
   53   26   52 1     
   54   27   28 1     
   55   27   53 1     
   56   27   54 1     
   57   28   29 1     
   58   28   55 1     
   59   28   56 1     
   60   29   57 1     
   61   29   58 1     
   62    1   59 1     
   63    1   60 1     
   64    7   61 1     
   65    9   62 1     
   66   12   63 1     
   67   16   64 1     
   68   16   65 1     
   69   19   66 1     
   70   19   67 1     
   71   21   68 1     
   72   21   69 1     
   73   23   70 1     
   74   23   71 1     
@<TRIPOS>SUBSTRUCTURE
      1 S1             1
@<TRIPOS>SET
LONE_PAIRS      STATIC     ATOMS    <user>   **** ""
13 59 60 61 62 63 64 65 66 67 68 69 70 71
DONOR_HYDROGENS      STATIC     ATOMS    <user>   **** ""
5 34 40 45 46 47
ATOM$BLUE        STATIC     ATOMS    COLORGROUP SYSTEM
13 59 60 61 62 63 64 65 66 67 68 69 70 71
ATOM$RED        STATIC     ATOMS    COLORGROUP SYSTEM
5 34 40 45 46 47
