#       Name:                AV-unprocessed.smi:1686
#       Creating user name   scv26
#       Creation time:       Fri Mar 27 07:52:06 2020


#       File generated by GOLD software.
#

@<TRIPOS>MOLECULE
AV-unprocessed.smi:1686
    46    48     1
SMALL
NO_CHARGES


@<TRIPOS>ATOM
      1 ****        -3.7227  -0.0708   0.9317 C.3            1 S1                 0.0000
      2 ****        -3.2813   0.5705  -0.3526 C.2            1 S1                 0.0000
      3 ****        -3.3641   1.8878  -0.4830 N.2            1 S1                 0.0000
      4 ****        -2.8811   2.1887  -1.7616 O.3            1 S1                 0.0000
      5 ****        -2.5307   1.0166  -2.3386 C.2            1 S1                 0.0000
      6 ****        -1.8657   0.9336  -3.9214 Cl             1 S1                 0.0000
      7 ****        -2.7503  -0.0536  -1.5195 C.2            1 S1                 0.0000
      8 ****        -2.4816  -1.5189  -1.7632 C.3            1 S1                 0.0000
      9 ****        -0.9975  -1.8115  -1.5381 C.2            1 S1                 0.0000
     10 ****        -0.3049  -2.2319  -2.4639 O.2            1 S1                 0.0000
     11 ****        -0.5246  -1.5574  -0.3079 N.am           1 S1                 0.0000
     12 ****         0.8759  -1.5912   0.1020 C.3            1 S1                 0.0000
     13 ****         1.0979  -2.8212   0.9970 C.3            1 S1                 0.0000
     14 ****         1.2294  -0.2633   0.8154 C.3            1 S1                 0.0000
     15 ****         2.7297  -0.1257   1.1702 C.3            1 S1                 0.0000
     16 ****         3.1177   1.2279   0.5493 C.3            1 S1                 0.0000
     17 ****         2.4362   2.3687   1.3272 C.3            1 S1                 0.0000
     18 ****         0.9634   2.2390   0.8968 C.3            1 S1                 0.0000
     19 ****         0.9901   1.0133  -0.0353 C.3            1 S1                 0.0000
     20 ****         2.3234   1.2058  -0.7496 C.3            1 S1                 0.0000
     21 ****        -3.1264  -0.9548   1.1569 H              1 S1                 0.0000
     22 ****        -4.7665  -0.3799   0.8733 H              1 S1                 0.0000
     23 ****        -3.6241   0.6130   1.7755 H              1 S1                 0.0000
     24 ****        -3.0697  -2.1522  -1.0984 H              1 S1                 0.0000
     25 ****        -2.7558  -1.8071  -2.7788 H              1 S1                 0.0000
     26 ****        -1.1827  -1.2261   0.3822 H              1 S1                 0.0000
     27 ****         1.5159  -1.6917  -0.7761 H              1 S1                 0.0000
     28 ****         2.1383  -2.9086   1.3095 H              1 S1                 0.0000
     29 ****         0.8404  -3.7395   0.4681 H              1 S1                 0.0000
     30 ****         0.4844  -2.7733   1.8972 H              1 S1                 0.0000
     31 ****         0.6311  -0.2033   1.7262 H              1 S1                 0.0000
     32 ****         2.9065  -0.1557   2.2459 H              1 S1                 0.0000
     33 ****         3.3227  -0.9207   0.7166 H              1 S1                 0.0000
     34 ****         4.1933   1.3610   0.4295 H              1 S1                 0.0000
     35 ****         2.5654   2.2678   2.4054 H              1 S1                 0.0000
     36 ****         2.8380   3.3381   1.0300 H              1 S1                 0.0000
     37 ****         0.2881   2.1077   1.7431 H              1 S1                 0.0000
     38 ****         0.6445   3.1292   0.3530 H              1 S1                 0.0000
     39 ****         0.1247   0.9719  -0.6964 H              1 S1                 0.0000
     40 ****         2.3834   2.1405  -1.3099 H              1 S1                 0.0000
     41 ****         2.5890   0.3775  -1.4084 H              1 S1                 0.0000
     42 ****        -3.7041   2.5371   0.1973 LP             1 S1                 0.0000
     43 ****        -2.0850   2.7901  -1.6951 LP             1 S1                 0.0000
     44 ****        -3.5937   2.6374  -2.3010 LP             1 S1                 0.0000
     45 ****        -0.7123  -2.3826  -3.3646 LP             1 S1                 0.0000
     46 ****         0.6654  -2.4229  -2.3157 LP             1 S1                 0.0000
@<TRIPOS>BOND
    1    1    2 1     
    2    1   21 1     
    3    1   22 1     
    4    1   23 1     
    5    2    7 1     
    6    2    3 2     
    7    3    4 1     
    8    4    5 1     
    9    5    6 1     
   10    5    7 2     
   11    7    8 1     
   12    8    9 1     
   13    8   24 1     
   14    8   25 1     
   15    9   10 2     
   16    9   11 am    
   17   11   12 1     
   18   11   26 1     
   19   12   13 1     
   20   12   14 1     
   21   12   27 1     
   22   13   28 1     
   23   13   29 1     
   24   13   30 1     
   25   14   19 1     
   26   14   15 1     
   27   14   31 1     
   28   15   16 1     
   29   15   32 1     
   30   15   33 1     
   31   16   20 1     
   32   16   17 1     
   33   16   34 1     
   34   17   18 1     
   35   17   35 1     
   36   17   36 1     
   37   18   19 1     
   38   18   37 1     
   39   18   38 1     
   40   19   20 1     
   41   19   39 1     
   42   20   40 1     
   43   20   41 1     
   44    3   42 1     
   45    4   43 1     
   46    4   44 1     
   47   10   45 1     
   48   10   46 1     
@<TRIPOS>SUBSTRUCTURE
      1 S1             1
@<TRIPOS>SET
LONE_PAIRS      STATIC     ATOMS    <user>   **** ""
5 42 43 44 45 46
DONOR_HYDROGENS      STATIC     ATOMS    <user>   **** ""
1 26
ATOM$BLUE        STATIC     ATOMS    COLORGROUP SYSTEM
5 42 43 44 45 46
ATOM$RED        STATIC     ATOMS    COLORGROUP SYSTEM
1 26
