AV-unprocessed.smi:2889|AV-procd|sdf|11115|dock5
  -GOLD-   2272015583D 1   1.00000     0.00000
 Structure written by MMmdl.
 35 36  0  0  0  0  0  0  0  0  2 V2000
  151.9501  144.0848  157.9498 C   0  0  0  0  0  0  0  0  0  0  0  0
  151.3268  142.3823  157.8790 S   0  0  0  0  0  0  0  0  0  0  0  0
  152.7154  141.4657  158.6262 C   0  0  1  0  0  0  0  0  0  0  0  0
  152.8985  141.9328  160.0960 C   0  0  0  0  0  0  0  0  0  0  0  0
  154.0417  141.2047  160.8311 C   0  0  0  0  0  0  0  0  0  0  0  0
  153.8211  139.6828  160.7362 C   0  0  0  0  0  0  0  0  0  0  0  0
  153.6604  139.2030  159.2739 C   0  0  0  0  0  0  0  0  0  0  0  0
  152.5244  139.9245  158.5034 C   0  0  2  0  0  0  0  0  0  0  0  0
  152.5528  139.5162  157.1058 N   0  5  0  0  0  0  0  0  0  0  0  0
  152.2955  137.9646  156.7100 S   0  0  0  0  0  0  0  0  0  0  0  0
  153.5237  137.1535  156.7517 O   0  0  0  0  0  0  0  0  0  0  0  0
  151.1042  137.4150  157.3772 O   0  0  0  0  0  0  0  0  0  0  0  0
  151.8380  138.1359  154.9289 C   0  0  0  0  0  0  0  0  0  0  0  0
  150.6623  139.0617  154.7687 C   0  0  0  0  0  0  0  0  0  0  0  0
  149.3088  138.7315  154.4780 C   0  0  0  0  0  0  0  0  0  0  0  0
  148.6836  139.9439  154.4447 C   0  0  0  0  0  0  0  0  0  0  0  0
  149.5706  140.9425  154.6826 O   0  0  0  0  0  0  0  0  0  0  0  0
  150.8318  140.3703  154.8846 N   0  0  0  0  0  0  0  0  0  0  0  0
  151.2039  144.7720  157.5520 H   0  0  0  0  0  0  0  0  0  0  0  0
  152.8611  144.1902  157.3610 H   0  0  0  0  0  0  0  0  0  0  0  0
  152.1658  144.3689  158.9797 H   0  0  0  0  0  0  0  0  0  0  0  0
  153.6225  141.7478  158.0893 H   0  0  0  0  0  0  0  0  0  0  0  0
  153.0946  143.0054  160.1124 H   0  0  0  0  0  0  0  0  0  0  0  0
  151.9694  141.7944  160.6531 H   0  0  0  0  0  0  0  0  0  0  0  0
  154.9986  141.4684  160.3789 H   0  0  0  0  0  0  0  0  0  0  0  0
  154.0867  141.5196  161.8739 H   0  0  0  0  0  0  0  0  0  0  0  0
  154.6630  139.1655  161.1967 H   0  0  0  0  0  0  0  0  0  0  0  0
  152.9433  139.4036  161.3225 H   0  0  0  0  0  0  0  0  0  0  0  0
  154.6070  139.3565  158.7531 H   0  0  0  0  0  0  0  0  0  0  0  0
  153.4861  138.1266  159.2698 H   0  0  0  0  0  0  0  0  0  0  0  0
  151.5764  139.6680  158.9787 H   0  0  0  0  0  0  0  0  0  0  0  0
  152.7100  138.5248  154.4029 H   0  0  0  0  0  0  0  0  0  0  0  0
  151.6288  137.1458  154.5249 H   0  0  0  0  0  0  0  0  0  0  0  0
  148.8681  137.7570  154.3278 H   0  0  0  0  0  0  0  0  0  0  0  0
  147.6619  140.2469  154.2709 H   0  0  0  0  0  0  0  0  0  0  0  0
  1  2  1  0  0  0  0
  1 19  1  0  0  0  0
  1 20  1  0  0  0  0
  1 21  1  0  0  0  0
  2  3  1  0  0  0  0
  3  8  1  0  0  0  0
  3  4  1  0  0  0  0
  3 22  1  0  0  0  0
  4  5  1  0  0  0  0
  4 23  1  0  0  0  0
  4 24  1  0  0  0  0
  5  6  1  0  0  0  0
  5 25  1  0  0  0  0
  5 26  1  0  0  0  0
  6  7  1  0  0  0  0
  6 27  1  0  0  0  0
  6 28  1  0  0  0  0
  7  8  1  0  0  0  0
  7 29  1  0  0  0  0
  7 30  1  0  0  0  0
  8  9  1  0  0  0  0
  8 31  1  0  0  0  0
  9 10  1  0  0  0  0
 10 11  2  0  0  0  0
 10 12  2  0  0  0  0
 10 13  1  0  0  0  0
 13 14  1  0  0  0  0
 13 32  1  0  0  0  0
 13 33  1  0  0  0  0
 14 18  2  0  0  0  0
 14 15  1  0  0  0  0
 15 16  2  0  0  0  0
 15 34  1  0  0  0  0
 16 17  1  0  0  0  0
 16 35  1  0  0  0  0
 17 18  1  0  0  0  0
M  CHG  1   9  -1
M  END
> <s_m_source_file>
AV-unprocessed.smi

> <i_m_source_file_index>
2889

> <i_lp_mmshare_version>
43012

> <i_f3d_flags>
0

> <s_epik_input>
W0NIM11TW0NAQEhdMVtDSDJdW0NIMl1bQ0gyXVtDSDJdW0NASF0xW05IXVMoPU8pKD1PKVtDSDJdYzJbY0hdW2NIXW9uMg==

> <s_epik_cmdline>
J2VwaWtfcHl0aG9uJywgJy1waCcsICc3LjAnLCAnLXRuJywgJzgnLCAnLW1hJywgJzIwMCcsICctbWV0YWxfYmluZGluZycsICctaW1hZScsICc8aW5maWxlLm1hZT4nLCAnLW9tYWUnLCAnPG91dGZpbGUubWFlPic=

> <r_lp_tautomer_probability>
1

> <r_epik_Ionization_Penalty>
4.65467

> <r_epik_Ionization_Penalty_Charging>
4.65467

> <r_epik_Ionization_Penalty_Neutral>
2.71476e-10

> <r_epik_State_Penalty>
4.65444

> <r_epik_Charging_Adjusted_Penalty>
9.30911

> <i_epik_Tot_Q>
-1

> <i_epik_Tot_abs_Q>
1

> <r_epik_Metal_State_Penalty>
0.901484

> <b_epik_Metal_Only>
1

> <s_lp_Force_Field>
OPLS_2005

> <r_lp_Energy>
9.1096

> <b_lp_Chiralities_Consistent>
1

> <s_lp_Variant>
AV-unprocessed.smi:2889-8

> <Gold.Version>
5.8.1

> <Gold.Id.Protein>
6NUR|6NUR_protein|mol2

> <Gold.PLP.Fitness>
44.3426

> <Gold.PLP.PLP>
-35.1560

> <Gold.PLP.part.hbond>
-3.8659

> <Gold.PLP.part.metal>
0.0000

> <Gold.PLP.part.buried>
-3.8459

> <Gold.PLP.part.nonpolar>
-28.6338

> <Gold.PLP.part.repulsive>
0.2178

> <Gold.PLP.ligand.clash>
0.0000

> <Gold.PLP.ligand.torsion>
0.8644

> <Gold.PLP.Chemscore.Hbond>
3.3016

> <Gold.PLP.Chemscore.CHOScore>
0.0000

> <Gold.PLP.Chemscore.Metal>
0.0000

> <Gold.Chemscore.Hbonds>
donor molecule, donor type, donor heavy atom, donor atom, acceptor molecule, acceptor atom, score
      P1  H  7989  7998       L1    18  1.00
      P1  H  7997  8009       L1     9  2.00
      P1  H 10752 10764       L1    11  0.29

> <Gold.PLP.Chemscore.Internal.Correction>
1.0107

> <Gold.Rescore>
     Score         DG    S(hbond)    S(metal)    S(lipo)     H(rot)  DE(clash)    DE(int)     intcor
     16.96     -17.99       1.66        0.00      93.06       1.53       0.02       1.00       ----

> <Gold.Chemscore.Fitness>
16.9594

> <Gold.Chemscore.DG>
-17.9862

> <Gold.Chemscore.ZeroCoef>
-5.4800

> <Gold.Chemscore.Hbond>
1.6583

> <Gold.Chemscore.Metal>
0.0000

> <Gold.Chemscore.Lipo>
93.0601

> <Gold.Chemscore.Internal_Hbond>
0.0000

> <Gold.Chemscore.DEClash>
0.0234

> <Gold.Chemscore.DEInternal>
1.0033

> <Gold.Chemscore.Rot>
1.5314

> <Gold.Chemscore.Internal.Correction>
   9.000000E+99

> <Gold.Chemscore.Hbonds>
donor molecule, donor type, donor heavy atom, donor atom, acceptor molecule, acceptor atom, score
      P1  H  7989  7998       L1    18  0.18
      P1  H  7997  8009       L1     9  0.30
      P1  H 10752 10764       L1    11  0.25

> <Gold.Chemscore.Hbond.Weighted>
-5.5386

> <Gold.Chemscore.Metal.Weighted>
-0.0000

> <Gold.Chemscore.Lipo.Weighted>
-10.8880

> <Gold.Chemscore.Internal_Hbond.Weighted>
0.0000

> <Gold.Chemscore.DEClash.Weighted>
0.0234

> <Gold.Chemscore.DEInternal.Weighted>
1.0033

> <Gold.Chemscore.Rot.Weighted>
3.9205

> <Gold.Chemscore.Internal.Correction.Weighted>
   9.000000E+99

> <Gold.Protein.RotatedTorsions>
[ 6907 6896 6895 6894 ] final   16.92 input  -60.11 | X-H torsion
[ 7974 7965 7964 7962 ] final   63.99 input  175.53 | X-H torsion
[ 8008 7997 7996 7995 ] final -170.35 input   59.86 | X-H torsion
[ 10167 10162 10161 10158 ] final  139.16 input  -65.29 | X-H torsion
[ 10718 10713 10712 10709 ] final  173.39 input   66.30 | X-H torsion
[ 10763 10752 10751 10750 ] final   -6.42 input  -60.55 | X-H torsion
[ 11005 11000 10999 10996 ] final   25.93 input  -57.11 | X-H torsion

> <Gold.Protein.ActiveResidues>
 VAL166  LYS551  ARG553  GLY616  TRP617  ASP618  TYR619  PRO620  LYS621  CYS622 
 ASP623  PHE694  ASN695  SER759  ASP760  ASP761  ALA762  ILE779  LEU786  VAL792 
 PHE793  MET794  SER795  GLU796  ALA797  LYS798  CYS799  TRP800  GLU811  SER814 

> <Gold.Protein.RotatedAtoms>
  151.8416  135.0588  160.0448 H   0  0  0  0  0  0  0  0  0  0  0  0  # atno 6907 bound_to 6896
  152.2805  133.5461  159.5503 H   0  0  0  0  0  0  0  0  0  0  0  0  # atno 6908 bound_to 6896
  150.7187  134.0487  159.3833 H   0  0  0  0  0  0  0  0  0  0  0  0  # atno 6909 bound_to 6896
  145.8554  139.3280  143.0850 H   0  0  0  0  0  0  0  0  0  0  0  0  # atno 7974 bound_to 7965
  155.9172  140.1068  157.1235 H   0  0  0  0  0  0  0  0  0  0  0  0  # atno 8008 bound_to 7997
  154.4048  140.1263  156.4698 H   0  0  0  0  0  0  0  0  0  0  0  0  # atno 8009 bound_to 7997
  155.7240  140.3469  155.5031 H   0  0  0  0  0  0  0  0  0  0  0  0  # atno 8010 bound_to 7997
  139.5087  144.6311  151.5815 H   0  0  0  0  0  0  0  0  0  0  0  0  # atno 10167 bound_to 10162
  156.9649  131.0072  151.2919 H   0  0  0  0  0  0  0  0  0  0  0  0  # atno 10718 bound_to 10713
  153.4122  135.7008  153.6351 H   0  0  0  0  0  0  0  0  0  0  0  0  # atno 10763 bound_to 10752
  153.4841  135.3687  155.2458 H   0  0  0  0  0  0  0  0  0  0  0  0  # atno 10764 bound_to 10752
  154.8717  135.4073  154.3476 H   0  0  0  0  0  0  0  0  0  0  0  0  # atno 10765 bound_to 10752
  140.3425  134.2318  155.7688 H   0  0  0  0  0  0  0  0  0  0  0  0  # atno 11005 bound_to 11000
  145.9310  140.9048  143.0356 LP  0  0  0  0  0  0  0  0  0  0  0  0  # atno 17320 bound_to 7965
  144.6728  140.1418  143.7436 LP  0  0  0  0  0  0  0  0  0  0  0  0  # atno 17321 bound_to 7965
  140.6044  143.9551  150.6408 LP  0  0  0  0  0  0  0  0  0  0  0  0  # atno 17342 bound_to 10162
  140.2773  143.3413  152.1183 LP  0  0  0  0  0  0  0  0  0  0  0  0  # atno 17343 bound_to 10162
  157.5632  130.8260  149.8293 LP  0  0  0  0  0  0  0  0  0  0  0  0  # atno 17370 bound_to 10713
  156.0307  130.3765  150.1697 LP  0  0  0  0  0  0  0  0  0  0  0  0  # atno 17371 bound_to 10713
  141.2035  133.7911  157.0338 LP  0  0  0  0  0  0  0  0  0  0  0  0  # atno 17394 bound_to 11000
  140.0769  134.9670  157.1561 LP  0  0  0  0  0  0  0  0  0  0  0  0  # atno 17395 bound_to 11000

$$$$
