AV-unprocessed.smi:2492|AV-procd|sdf|9815|dock5
  -GOLD-   2272013443D 1   1.00000     0.00000
 Structure written by MMmdl.
 32 33  0  0  0  0  0  0  0  0  2 V2000
  151.8417  144.5728  157.8868 C   0  0  0  0  0  0  0  0  0  0  0  0
  152.0075  144.7913  159.6782 S   0  0  0  0  0  0  0  0  0  0  0  0
  152.4662  143.1022  160.1624 C   0  0  2  0  0  0  0  0  0  0  0  0
  152.8318  142.9936  161.6402 C   0  0  0  0  0  0  0  0  0  0  0  0
  153.6297  141.6917  161.7361 C   0  0  0  0  0  0  0  0  0  0  0  0
  154.3190  141.5111  160.3697 C   0  0  1  0  0  0  0  0  0  0  0  0
  154.0957  140.1632  159.8506 N   0  0  0  0  0  0  0  0  0  0  0  0
  154.9906  139.4165  159.1872 C   0  0  0  0  0  0  0  0  0  0  0  0
  156.1182  139.8627  158.9635 O   0  0  0  0  0  0  0  0  0  0  0  0
  154.5222  138.2012  158.8229 N   0  5  0  0  0  0  0  0  0  0  0  0
  153.9068  138.0467  157.6390 C   0  0  0  0  0  0  0  0  0  0  0  0
  153.5467  139.0266  156.8090 N   0  0  0  0  0  0  0  0  0  0  0  0
  152.9905  138.3318  155.7810 C   0  0  0  0  0  0  0  0  0  0  0  0
  152.4202  138.9901  154.5718 C   0  0  0  0  0  0  0  0  0  0  0  0
  152.9898  137.0133  155.9088 N   0  0  0  0  0  0  0  0  0  0  0  0
  153.6071  136.8144  157.1518 O   0  0  0  0  0  0  0  0  0  0  0  0
  153.7138  142.5842  159.4425 C   0  0  0  0  0  0  0  0  0  0  0  0
  151.5318  145.5088  157.4222 H   0  0  0  0  0  0  0  0  0  0  0  0
  151.0938  143.8118  157.6635 H   0  0  0  0  0  0  0  0  0  0  0  0
  152.7914  144.2685  157.4468 H   0  0  0  0  0  0  0  0  0  0  0  0
  151.6276  142.4347  159.9580 H   0  0  0  0  0  0  0  0  0  0  0  0
  153.4673  143.8316  161.9307 H   0  0  0  0  0  0  0  0  0  0  0  0
  151.9571  142.9971  162.2911 H   0  0  0  0  0  0  0  0  0  0  0  0
  154.3456  141.7138  162.5584 H   0  0  0  0  0  0  0  0  0  0  0  0
  152.9414  140.8678  161.9324 H   0  0  0  0  0  0  0  0  0  0  0  0
  155.3913  141.6846  160.4777 H   0  0  0  0  0  0  0  0  0  0  0  0
  153.1854  139.7579  160.0120 H   0  0  0  0  0  0  0  0  0  0  0  0
  153.1056  138.8878  153.7304 H   0  0  0  0  0  0  0  0  0  0  0  0
  152.2531  140.0520  154.7552 H   0  0  0  0  0  0  0  0  0  0  0  0
  151.4671  138.5340  154.3030 H   0  0  0  0  0  0  0  0  0  0  0  0
  153.4853  142.2129  158.4426 H   0  0  0  0  0  0  0  0  0  0  0  0
  154.4336  143.3952  159.3242 H   0  0  0  0  0  0  0  0  0  0  0  0
  1  2  1  0  0  0  0
  1 18  1  0  0  0  0
  1 19  1  0  0  0  0
  1 20  1  0  0  0  0
  2  3  1  0  0  0  0
  3 17  1  0  0  0  0
  3  4  1  0  0  0  0
  3 21  1  0  0  0  0
  4  5  1  0  0  0  0
  4 22  1  0  0  0  0
  4 23  1  0  0  0  0
  5  6  1  0  0  0  0
  5 24  1  0  0  0  0
  5 25  1  0  0  0  0
  6  7  1  0  0  0  0
  6 17  1  0  0  0  0
  6 26  1  0  0  0  0
  7  8  1  0  0  0  0
  7 27  1  0  0  0  0
  8  9  2  0  0  0  0
  8 10  1  0  0  0  0
 10 11  1  0  0  0  0
 11 16  1  0  0  0  0
 11 12  2  0  0  0  0
 12 13  1  0  0  0  0
 13 14  1  0  0  0  0
 13 15  2  0  0  0  0
 14 28  1  0  0  0  0
 14 29  1  0  0  0  0
 14 30  1  0  0  0  0
 15 16  1  0  0  0  0
 17 31  1  0  0  0  0
 17 32  1  0  0  0  0
M  CHG  1  10  -1
M  END
> <s_m_source_file>
AV-unprocessed.smi

> <i_m_source_file_index>
2492

> <i_lp_mmshare_version>
43012

> <i_f3d_flags>
0

> <s_epik_input>
W0NIM11TW0NAQEhdMVtDSDJdW0NIMl1bQ0BIXShbQ0gyXTEpW05IXUMoPU8pW05IXWMybmMoW0NIM10pbm8y

> <s_epik_cmdline>
J2VwaWtfcHl0aG9uJywgJy1waCcsICc3LjAnLCAnLXRuJywgJzgnLCAnLW1hJywgJzIwMCcsICctbWV0YWxfYmluZGluZycsICctaW1hZScsICc8aW5maWxlLm1hZT4nLCAnLW9tYWUnLCAnPG91dGZpbGUubWFlPic=

> <r_lp_tautomer_probability>
1

> <r_epik_Ionization_Penalty>
6.26454

> <r_epik_Ionization_Penalty_Charging>
6.26445

> <r_epik_Ionization_Penalty_Neutral>
9.05726e-05

> <r_epik_State_Penalty>
6.26444

> <r_epik_Charging_Adjusted_Penalty>
12.5289

> <i_epik_Tot_Q>
-1

> <i_epik_Tot_abs_Q>
1

> <r_epik_Metal_State_Penalty>
2.20125

> <b_epik_Metal_Only>
1

> <s_lp_Force_Field>
OPLS_2005

> <r_lp_Energy>
10.5247

> <b_lp_Chiralities_Consistent>
1

> <s_lp_Variant>
AV-unprocessed.smi:2492-5

> <Gold.Version>
5.8.1

> <Gold.Id.Protein>
6NUR|6NUR_protein|mol2

> <Gold.PLP.Fitness>
44.0796

> <Gold.PLP.PLP>
-38.2037

> <Gold.PLP.part.hbond>
-3.0000

> <Gold.PLP.part.metal>
0.0000

> <Gold.PLP.part.buried>
-3.4669

> <Gold.PLP.part.nonpolar>
-30.8987

> <Gold.PLP.part.repulsive>
0.0823

> <Gold.PLP.ligand.clash>
0.0000

> <Gold.PLP.ligand.torsion>
1.0738

> <Gold.PLP.Chemscore.Hbond>
2.6720

> <Gold.PLP.Chemscore.CHOScore>
0.0000

> <Gold.PLP.Chemscore.Metal>
0.0000

> <Gold.Chemscore.Hbonds>
donor molecule, donor type, donor heavy atom, donor atom, acceptor molecule, acceptor atom, score
      P1  H  7997  8008       L1    12  0.59
      P1  H  7997  8010       L1     9  0.70
      P1  H 10752 10764       L1    15  0.43

> <Gold.PLP.Chemscore.Internal.Correction>
0.0075

> <Gold.Rescore>
     Score         DG    S(hbond)    S(metal)    S(lipo)     H(rot)  DE(clash)    DE(int)     intcor
     19.61     -20.65       2.38        0.00      89.40       1.27       0.07       0.97       ----

> <Gold.Chemscore.Fitness>
19.6112

> <Gold.Chemscore.DG>
-20.6461

> <Gold.Chemscore.ZeroCoef>
-5.4800

> <Gold.Chemscore.Hbond>
2.3833

> <Gold.Chemscore.Metal>
0.0000

> <Gold.Chemscore.Lipo>
89.4013

> <Gold.Chemscore.Internal_Hbond>
0.0000

> <Gold.Chemscore.DEClash>
0.0694

> <Gold.Chemscore.DEInternal>
0.9655

> <Gold.Chemscore.Rot>
1.2712

> <Gold.Chemscore.Internal.Correction>
   9.000000E+99

> <Gold.Chemscore.Hbonds>
donor molecule, donor type, donor heavy atom, donor atom, acceptor molecule, acceptor atom, score
      P1  H  7997  8008       L1    12  0.48
      P1  H  7997  8010       L1     9  0.07
      P1  H 10752 10764       L1    15  0.39

> <Gold.Chemscore.Hbond.Weighted>
-7.9603

> <Gold.Chemscore.Metal.Weighted>
-0.0000

> <Gold.Chemscore.Lipo.Weighted>
-10.4600

> <Gold.Chemscore.Internal_Hbond.Weighted>
0.0000

> <Gold.Chemscore.DEClash.Weighted>
0.0694

> <Gold.Chemscore.DEInternal.Weighted>
0.9655

> <Gold.Chemscore.Rot.Weighted>
3.2542

> <Gold.Chemscore.Internal.Correction.Weighted>
   9.000000E+99

> <Gold.Protein.RotatedTorsions>
[ 6907 6896 6895 6894 ] final  170.40 input  -60.11 | X-H torsion
[ 7974 7965 7964 7962 ] final  156.81 input  175.53 | X-H torsion
[ 8008 7997 7996 7995 ] final  -42.32 input   59.86 | X-H torsion
[ 10167 10162 10161 10158 ] final  -22.45 input  -65.29 | X-H torsion
[ 10718 10713 10712 10709 ] final  131.54 input   66.30 | X-H torsion
[ 10763 10752 10751 10750 ] final  -51.29 input  -60.55 | X-H torsion
[ 11005 11000 10999 10996 ] final   61.48 input  -57.11 | X-H torsion

> <Gold.Protein.ActiveResidues>
 VAL166  LYS551  ARG553  GLY616  TRP617  ASP618  TYR619  PRO620  LYS621  CYS622 
 ASP623  PHE694  ASN695  SER759  ASP760  ASP761  ALA762  ILE779  LEU786  VAL792 
 PHE793  MET794  SER795  GLU796  ALA797  LYS798  CYS799  TRP800  GLU811  SER814 

> <Gold.Protein.RotatedAtoms>
  151.8167  133.3389  159.3571 H   0  0  0  0  0  0  0  0  0  0  0  0  # atno 6907 bound_to 6896
  150.7308  134.5613  159.5853 H   0  0  0  0  0  0  0  0  0  0  0  0  # atno 6908 bound_to 6896
  152.3036  134.7583  160.0403 H   0  0  0  0  0  0  0  0  0  0  0  0  # atno 6909 bound_to 6896
  144.7940  139.7255  143.6209 H   0  0  0  0  0  0  0  0  0  0  0  0  # atno 7974 bound_to 7965
  154.3999  140.1476  156.3336 H   0  0  0  0  0  0  0  0  0  0  0  0  # atno 8008 bound_to 7997
  155.8420  140.3461  155.5617 H   0  0  0  0  0  0  0  0  0  0  0  0  # atno 8009 bound_to 7997
  155.8076  140.0879  157.1912 H   0  0  0  0  0  0  0  0  0  0  0  0  # atno 8010 bound_to 7997
  140.7286  143.4534  151.0484 H   0  0  0  0  0  0  0  0  0  0  0  0  # atno 10167 bound_to 10162
  157.4957  131.1092  150.9496 H   0  0  0  0  0  0  0  0  0  0  0  0  # atno 10718 bound_to 10713
  154.1241  135.6530  153.4909 H   0  0  0  0  0  0  0  0  0  0  0  0  # atno 10763 bound_to 10752
  153.0216  135.5277  154.7067 H   0  0  0  0  0  0  0  0  0  0  0  0  # atno 10764 bound_to 10752
  154.6283  135.2973  155.0217 H   0  0  0  0  0  0  0  0  0  0  0  0  # atno 10765 bound_to 10752
  140.0158  134.6227  155.9712 H   0  0  0  0  0  0  0  0  0  0  0  0  # atno 11005 bound_to 11000
  146.2203  139.5623  142.9623 LP  0  0  0  0  0  0  0  0  0  0  0  0  # atno 17320 bound_to 7965
  145.5720  141.0393  143.2169 LP  0  0  0  0  0  0  0  0  0  0  0  0  # atno 17321 bound_to 7965
  139.8212  143.7817  152.3177 LP  0  0  0  0  0  0  0  0  0  0  0  0  # atno 17342 bound_to 10162
  139.7901  144.7413  150.9967 LP  0  0  0  0  0  0  0  0  0  0  0  0  # atno 17343 bound_to 10162
  157.0183  130.5663  149.5328 LP  0  0  0  0  0  0  0  0  0  0  0  0  # atno 17370 bound_to 10713
  156.0199  130.5294  150.8246 LP  0  0  0  0  0  0  0  0  0  0  0  0  # atno 17371 bound_to 10713
  141.1742  133.6539  156.4764 LP  0  0  0  0  0  0  0  0  0  0  0  0  # atno 17394 bound_to 11000
  140.4473  134.6960  157.5022 LP  0  0  0  0  0  0  0  0  0  0  0  0  # atno 17395 bound_to 11000

$$$$
