AV-unprocessed.smi:1856|AV-procd|sdf|7533|dock7
  -GOLD-   22720 9243D 1   1.00000     0.00000
 Structure written by MMmdl.
 44 45  0  0  0  0  0  0  0  0  1 V2000
  147.0816  134.7299  162.3722 C   0  0  0  0  0  0  0  0  0  0  0  0
  147.6263  134.9526  160.9521 C   0  0  0  0  0  0  0  0  0  0  0  0
  148.1467  136.3811  160.6983 C   0  0  0  0  0  0  0  0  0  0  0  0
  148.9671  136.4970  159.4112 C   0  0  0  0  0  0  0  0  0  0  0  0
  149.1257  135.5129  158.6889 O   0  0  0  0  0  0  0  0  0  0  0  0
  149.4604  137.7120  159.1251 N   0  0  0  0  0  0  0  0  0  0  0  0
  150.1468  138.0709  157.8870 C   0  0  2  0  0  0  0  0  0  0  0  0
  151.1696  136.9888  157.5120 C   0  0  0  0  0  0  0  0  0  0  0  0
  150.7867  139.4229  158.0915 C   0  0  0  0  0  0  0  0  0  0  0  0
  151.8069  139.5858  158.9394 N   0  0  0  0  0  0  0  0  0  0  0  0
  152.0661  140.9380  158.8573 C   0  0  0  0  0  0  0  0  0  0  0  0
  153.0369  141.7280  159.5133 C   0  0  0  0  0  0  0  0  0  0  0  0
  153.1119  143.1148  159.2688 C   0  0  0  0  0  0  0  0  0  0  0  0
  152.2193  143.7294  158.3671 C   0  0  0  0  0  0  0  0  0  0  0  0
  151.2444  142.9595  157.7040 C   0  0  0  0  0  0  0  0  0  0  0  0
  151.1733  141.5753  157.9518 C   0  0  0  0  0  0  0  0  0  0  0  0
  150.3486  140.5578  157.4815 N   0  0  0  0  0  0  0  0  0  0  0  0
  149.2529  140.7383  156.5363 C   0  0  0  0  0  0  0  0  0  0  0  0
  149.7367  141.1840  155.1438 C   0  0  2  0  0  0  0  0  0  0  0  0
  148.5687  141.4409  154.1838 C   0  0  0  0  0  0  0  0  0  0  0  0
  150.5774  140.2017  154.5735 O   0  0  0  0  0  0  0  0  0  0  0  0
  146.7843  133.6907  162.5133 H   0  0  0  0  0  0  0  0  0  0  0  0
  146.2065  135.3499  162.5710 H   0  0  0  0  0  0  0  0  0  0  0  0
  147.8354  134.9646  163.1240 H   0  0  0  0  0  0  0  0  0  0  0  0
  148.4398  134.2487  160.7747 H   0  0  0  0  0  0  0  0  0  0  0  0
  146.8533  134.7025  160.2242 H   0  0  0  0  0  0  0  0  0  0  0  0
  147.3084  137.0790  160.6729 H   0  0  0  0  0  0  0  0  0  0  0  0
  148.7794  136.6913  161.5304 H   0  0  0  0  0  0  0  0  0  0  0  0
  149.2800  138.4620  159.7764 H   0  0  0  0  0  0  0  0  0  0  0  0
  149.4187  138.1053  157.0791 H   0  0  0  0  0  0  0  0  0  0  0  0
  151.6927  137.2482  156.5912 H   0  0  0  0  0  0  0  0  0  0  0  0
  150.6808  136.0270  157.3540 H   0  0  0  0  0  0  0  0  0  0  0  0
  151.9190  136.8557  158.2930 H   0  0  0  0  0  0  0  0  0  0  0  0
  153.7244  141.2661  160.2062 H   0  0  0  0  0  0  0  0  0  0  0  0
  153.8572  143.7100  159.7759 H   0  0  0  0  0  0  0  0  0  0  0  0
  152.2824  144.7924  158.1858 H   0  0  0  0  0  0  0  0  0  0  0  0
  150.5589  143.4278  157.0135 H   0  0  0  0  0  0  0  0  0  0  0  0
  148.6537  139.8314  156.4760 H   0  0  0  0  0  0  0  0  0  0  0  0
  148.5817  141.4945  156.9447 H   0  0  0  0  0  0  0  0  0  0  0  0
  150.3186  142.1011  155.2435 H   0  0  0  0  0  0  0  0  0  0  0  0
  147.9104  142.2192  154.5701 H   0  0  0  0  0  0  0  0  0  0  0  0
  147.9697  140.5410  154.0378 H   0  0  0  0  0  0  0  0  0  0  0  0
  148.9255  141.7670  153.2063 H   0  0  0  0  0  0  0  0  0  0  0  0
  150.1299  139.3699  154.6039 H   0  0  0  0  0  0  0  0  0  0  0  0
  1  2  1  0  0  0  0
  1 22  1  0  0  0  0
  1 23  1  0  0  0  0
  1 24  1  0  0  0  0
  2  3  1  0  0  0  0
  2 25  1  0  0  0  0
  2 26  1  0  0  0  0
  3  4  1  0  0  0  0
  3 27  1  0  0  0  0
  3 28  1  0  0  0  0
  4  5  2  0  0  0  0
  4  6  1  0  0  0  0
  6  7  1  0  0  0  0
  6 29  1  0  0  0  0
  7  8  1  0  0  0  0
  7  9  1  0  0  0  0
  7 30  1  0  0  0  0
  8 31  1  0  0  0  0
  8 32  1  0  0  0  0
  8 33  1  0  0  0  0
  9 17  1  0  0  0  0
  9 10  2  0  0  0  0
 10 11  1  0  0  0  0
 11 16  2  0  0  0  0
 11 12  1  0  0  0  0
 12 13  2  0  0  0  0
 12 34  1  0  0  0  0
 13 14  1  0  0  0  0
 13 35  1  0  0  0  0
 14 15  2  0  0  0  0
 14 36  1  0  0  0  0
 15 16  1  0  0  0  0
 15 37  1  0  0  0  0
 16 17  1  0  0  0  0
 17 18  1  0  0  0  0
 18 19  1  0  0  0  0
 18 38  1  0  0  0  0
 18 39  1  0  0  0  0
 19 20  1  0  0  0  0
 19 21  1  0  0  0  0
 19 40  1  0  0  0  0
 20 41  1  0  0  0  0
 20 42  1  0  0  0  0
 20 43  1  0  0  0  0
 21 44  1  0  0  0  0
M  END
> <s_m_source_file>
AV-unprocessed.smi

> <i_m_source_file_index>
1856

> <i_lp_mmshare_version>
43012

> <i_f3d_flags>
0

> <s_epik_input>
W0NIM11bQ0gyXVtDSDJdQyg9TylbTkhdW0NASF0oW0NIM10pYyhuMSluKFtDSDJdW0NASF0oW0NIM10pW09IXSljKGMxMilbY0hdW2NIXVtjSF1bY0hdMg==

> <s_epik_cmdline>
J2VwaWtfcHl0aG9uJywgJy1waCcsICc3LjAnLCAnLXRuJywgJzgnLCAnLW1hJywgJzIwMCcsICctbWV0YWxfYmluZGluZycsICctaW1hZScsICc8aW5maWxlLm1hZT4nLCAnLW9tYWUnLCAnPG91dGZpbGUubWFlPic=

> <r_epik_Ionization_Penalty>
0.134222

> <r_epik_Ionization_Penalty_Charging>
0

> <r_epik_Ionization_Penalty_Neutral>
0.134222

> <r_epik_State_Penalty>
0.123585

> <r_epik_Charging_Adjusted_Penalty>
0.123585

> <i_epik_Tot_Q>
0

> <i_epik_Tot_abs_Q>
0

> <r_epik_Metal_State_Penalty>
0.100548

> <b_epik_Metal_Only>
0

> <s_lp_Force_Field>
OPLS_2005

> <r_lp_Energy>
0.748352

> <b_lp_Chiralities_Consistent>
1

> <s_lp_Variant>
AV-unprocessed.smi:1856-1

> <Gold.Version>
5.8.1

> <Gold.Id.Protein>
6NUR|6NUR_protein|mol2

> <Gold.PLP.Fitness>
48.2795

> <Gold.PLP.PLP>
-42.8842

> <Gold.PLP.part.hbond>
-2.0000

> <Gold.PLP.part.metal>
0.0000

> <Gold.PLP.part.buried>
-4.7365

> <Gold.PLP.part.nonpolar>
-36.6849

> <Gold.PLP.part.repulsive>
0.5040

> <Gold.PLP.ligand.clash>
0.0000

> <Gold.PLP.ligand.torsion>
0.3654

> <Gold.PLP.Chemscore.Hbond>
2.0000

> <Gold.PLP.Chemscore.CHOScore>
0.0000

> <Gold.PLP.Chemscore.Metal>
0.0000

> <Gold.Chemscore.Hbonds>
donor molecule, donor type, donor heavy atom, donor atom, acceptor molecule, acceptor atom, score
      P1  H  6896  6908       L1     5  1.00
      P1  H  7989  7998       L1    21  1.00

> <Gold.PLP.Chemscore.Internal.Correction>
0.1260

> <Gold.Rescore>
     Score         DG    S(hbond)    S(metal)    S(lipo)     H(rot)  DE(clash)    DE(int)     intcor
     16.52     -18.48       1.93        0.00     109.48       2.45       0.19       1.77       ----

> <Gold.Chemscore.Fitness>
16.5179

> <Gold.Chemscore.DG>
-18.4786

> <Gold.Chemscore.ZeroCoef>
-5.4800

> <Gold.Chemscore.Hbond>
1.9313

> <Gold.Chemscore.Metal>
0.0000

> <Gold.Chemscore.Lipo>
109.4816

> <Gold.Chemscore.Internal_Hbond>
0.0000

> <Gold.Chemscore.DEClash>
0.1871

> <Gold.Chemscore.DEInternal>
1.7736

> <Gold.Chemscore.Rot>
2.4459

> <Gold.Chemscore.Internal.Correction>
   9.000000E+99

> <Gold.Chemscore.Hbonds>
donor molecule, donor type, donor heavy atom, donor atom, acceptor molecule, acceptor atom, score
      P1  H  6896  6908       L1     5  0.53
      P1  H  7989  7998       L1    21  0.78

> <Gold.Chemscore.Hbond.Weighted>
-6.4507

> <Gold.Chemscore.Metal.Weighted>
-0.0000

> <Gold.Chemscore.Lipo.Weighted>
-12.8093

> <Gold.Chemscore.Internal_Hbond.Weighted>
0.0000

> <Gold.Chemscore.DEClash.Weighted>
0.1871

> <Gold.Chemscore.DEInternal.Weighted>
1.7736

> <Gold.Chemscore.Rot.Weighted>
6.2614

> <Gold.Chemscore.Internal.Correction.Weighted>
   9.000000E+99

> <Gold.Protein.RotatedTorsions>
[ 6907 6896 6895 6894 ] final  161.62 input  -60.11 | X-H torsion
[ 7974 7965 7964 7962 ] final  154.85 input  175.53 | X-H torsion
[ 8008 7997 7996 7995 ] final   22.27 input   59.86 | X-H torsion
[ 10167 10162 10161 10158 ] final   64.55 input  -65.29 | X-H torsion
[ 10718 10713 10712 10709 ] final  103.27 input   66.30 | X-H torsion
[ 10763 10752 10751 10750 ] final -110.33 input  -60.55 | X-H torsion
[ 11005 11000 10999 10996 ] final  152.16 input  -57.11 | X-H torsion

> <Gold.Protein.ActiveResidues>
 VAL166  LYS551  ARG553  GLY616  TRP617  ASP618  TYR619  PRO620  LYS621  CYS622 
 ASP623  PHE694  ASN695  SER759  ASP760  ASP761  ALA762  ILE779  LEU786  VAL792 
 PHE793  MET794  SER795  GLU796  ALA797  LYS798  CYS799  TRP800  GLU811  SER814 

> <Gold.Protein.RotatedAtoms>
  151.9529  133.3671  159.4006 H   0  0  0  0  0  0  0  0  0  0  0  0  # atno 6907 bound_to 6896
  150.6977  134.4322  159.5263 H   0  0  0  0  0  0  0  0  0  0  0  0  # atno 6908 bound_to 6896
  152.1998  134.8598  160.0560 H   0  0  0  0  0  0  0  0  0  0  0  0  # atno 6909 bound_to 6896
  144.8062  139.6989  143.6161 H   0  0  0  0  0  0  0  0  0  0  0  0  # atno 7974 bound_to 7965
  154.9632  140.3080  155.5021 H   0  0  0  0  0  0  0  0  0  0  0  0  # atno 8008 bound_to 7997
  156.2974  140.2297  156.4657 H   0  0  0  0  0  0  0  0  0  0  0  0  # atno 8009 bound_to 7997
  154.7946  140.0438  157.1215 H   0  0  0  0  0  0  0  0  0  0  0  0  # atno 8010 bound_to 7997
  140.1209  144.4732  150.6921 H   0  0  0  0  0  0  0  0  0  0  0  0  # atno 10167 bound_to 10162
  157.6777  131.0774  150.5529 H   0  0  0  0  0  0  0  0  0  0  0  0  # atno 10718 bound_to 10713
  154.8242  135.4568  154.0869 H   0  0  0  0  0  0  0  0  0  0  0  0  # atno 10763 bound_to 10752
  153.2197  135.6892  153.8021 H   0  0  0  0  0  0  0  0  0  0  0  0  # atno 10764 bound_to 10752
  153.7443  135.3308  155.3286 H   0  0  0  0  0  0  0  0  0  0  0  0  # atno 10765 bound_to 10752
  140.1283  134.8819  157.2168 H   0  0  0  0  0  0  0  0  0  0  0  0  # atno 11005 bound_to 11000
  146.2354  139.5894  142.9527 LP  0  0  0  0  0  0  0  0  0  0  0  0  # atno 17320 bound_to 7965
  145.5432  141.0419  143.2319 LP  0  0  0  0  0  0  0  0  0  0  0  0  # atno 17321 bound_to 7965
  140.6872  143.2356  151.5227 LP  0  0  0  0  0  0  0  0  0  0  0  0  # atno 17342 bound_to 10162
  139.5569  144.2253  152.1627 LP  0  0  0  0  0  0  0  0  0  0  0  0  # atno 17343 bound_to 10162
  156.5833  130.4310  149.5968 LP  0  0  0  0  0  0  0  0  0  0  0  0  # atno 17370 bound_to 10713
  156.2643  130.6980  151.1759 LP  0  0  0  0  0  0  0  0  0  0  0  0  # atno 17371 bound_to 10713
  140.2875  134.3278  155.7324 LP  0  0  0  0  0  0  0  0  0  0  0  0  # atno 17394 bound_to 11000
  141.2165  133.7515  156.9455 LP  0  0  0  0  0  0  0  0  0  0  0  0  # atno 17395 bound_to 11000

$$$$
