AV-unprocessed.smi:1893|AV-procd|sdf|7676|dock8
  -GOLD-   22720 9413D 1   1.00000     0.00000
 Structure written by MMmdl.
 43 44  0  0  0  0  0  0  0  0  2 V2000
  153.4729  142.1773  159.5490 C   0  0  0  0  0  0  0  0  0  0  0  0
  152.0070  142.5951  159.7974 C   0  0  1  0  0  0  0  0  0  0  0  0
  151.8990  143.9117  160.5952 C   0  0  0  0  0  0  0  0  0  0  0  0
  152.2770  145.1337  159.7452 C   0  0  0  0  0  0  0  0  0  0  0  0
  151.4399  145.1597  158.4608 C   0  0  0  0  0  0  0  0  0  0  0  0
  151.5630  143.8359  157.6881 C   0  0  0  0  0  0  0  0  0  0  0  0
  151.1933  142.6772  158.5470 N   0  3  1  0  0  0  0  0  0  0  0  0
  151.1015  141.3897  157.8108 C   0  0  0  0  0  0  0  0  0  0  0  0
  150.7409  141.5890  156.3267 C   0  0  0  0  0  0  0  0  0  0  0  0
  149.3018  141.5024  156.1101 N   0  0  0  0  0  0  0  0  0  0  0  0
  148.7106  141.3933  154.9089 C   0  0  0  0  0  0  0  0  0  0  0  0
  149.3455  141.3901  153.8534 O   0  0  0  0  0  0  0  0  0  0  0  0
  147.1753  141.2814  154.9076 C   0  0  1  0  0  0  0  0  0  0  0  0
  146.4830  142.4792  154.2262 C   0  0  0  0  0  0  0  0  0  0  0  0
  146.7491  140.0142  154.3252 N   0  0  0  0  0  0  0  0  0  0  0  0
  146.9191  139.5346  153.0912 C   0  0  0  0  0  0  0  0  0  0  0  0
  146.3641  138.3470  152.8938 N   0  0  0  0  0  0  0  0  0  0  0  0
  145.8267  138.1374  154.1322 C   0  0  0  0  0  0  0  0  0  0  0  0
  146.0214  139.1079  155.0247 N   0  0  0  0  0  0  0  0  0  0  0  0
  154.0185  142.1126  160.4907 H   0  0  0  0  0  0  0  0  0  0  0  0
  154.0065  142.8856  158.9161 H   0  0  0  0  0  0  0  0  0  0  0  0
  153.5401  141.1969  159.0778 H   0  0  0  0  0  0  0  0  0  0  0  0
  151.5584  141.8187  160.4189 H   0  0  0  0  0  0  0  0  0  0  0  0
  150.8747  144.0312  160.9514 H   0  0  0  0  0  0  0  0  0  0  0  0
  152.5245  143.8674  161.4875 H   0  0  0  0  0  0  0  0  0  0  0  0
  152.1185  146.0499  160.3147 H   0  0  0  0  0  0  0  0  0  0  0  0
  153.3382  145.1053  159.4968 H   0  0  0  0  0  0  0  0  0  0  0  0
  150.3935  145.3405  158.7106 H   0  0  0  0  0  0  0  0  0  0  0  0
  151.7538  145.9910  157.8290 H   0  0  0  0  0  0  0  0  0  0  0  0
  150.9102  143.8828  156.8174 H   0  0  0  0  0  0  0  0  0  0  0  0
  152.5764  143.7123  157.3050 H   0  0  0  0  0  0  0  0  0  0  0  0
  152.0373  140.8373  157.9077 H   0  0  0  0  0  0  0  0  0  0  0  0
  150.3287  140.7728  158.2717 H   0  0  0  0  0  0  0  0  0  0  0  0
  151.1150  142.5490  155.9671 H   0  0  0  0  0  0  0  0  0  0  0  0
  151.2059  140.8240  155.7060 H   0  0  0  0  0  0  0  0  0  0  0  0
  148.7136  141.4982  156.9311 H   0  0  0  0  0  0  0  0  0  0  0  0
  146.8608  141.2765  155.9524 H   0  0  0  0  0  0  0  0  0  0  0  0
  146.7493  143.4187  154.7118 H   0  0  0  0  0  0  0  0  0  0  0  0
  145.3981  142.3824  154.2799 H   0  0  0  0  0  0  0  0  0  0  0  0
  146.7546  142.5617  153.1730 H   0  0  0  0  0  0  0  0  0  0  0  0
  147.4563  140.0667  152.3199 H   0  0  0  0  0  0  0  0  0  0  0  0
  145.2708  137.2458  154.3817 H   0  0  0  0  0  0  0  0  0  0  0  0
  150.2536  142.8648  158.8664 H   0  0  0  0  0  0  0  0  0  0  0  0
  1  2  1  0  0  0  0
  1 20  1  0  0  0  0
  1 21  1  0  0  0  0
  1 22  1  0  0  0  0
  2  7  1  0  0  0  0
  2  3  1  0  0  0  0
  2 23  1  0  0  0  0
  3  4  1  0  0  0  0
  3 24  1  0  0  0  0
  3 25  1  0  0  0  0
  4  5  1  0  0  0  0
  4 26  1  0  0  0  0
  4 27  1  0  0  0  0
  5  6  1  0  0  0  0
  5 28  1  0  0  0  0
  5 29  1  0  0  0  0
  6  7  1  0  0  0  0
  6 30  1  0  0  0  0
  6 31  1  0  0  0  0
  7  8  1  0  0  0  0
  7 43  1  0  0  0  0
  8  9  1  0  0  0  0
  8 32  1  0  0  0  0
  8 33  1  0  0  0  0
  9 10  1  0  0  0  0
  9 34  1  0  0  0  0
  9 35  1  0  0  0  0
 10 11  1  0  0  0  0
 10 36  1  0  0  0  0
 11 12  2  0  0  0  0
 11 13  1  0  0  0  0
 13 14  1  0  0  0  0
 13 15  1  0  0  0  0
 13 37  1  0  0  0  0
 14 38  1  0  0  0  0
 14 39  1  0  0  0  0
 14 40  1  0  0  0  0
 15 19  1  0  0  0  0
 15 16  1  0  0  0  0
 16 17  2  0  0  0  0
 16 41  1  0  0  0  0
 17 18  1  0  0  0  0
 18 19  2  0  0  0  0
 18 42  1  0  0  0  0
M  CHG  1   7   1
M  END
> <s_m_source_file>
AV-unprocessed.smi

> <i_m_source_file_index>
1893

> <i_lp_mmshare_version>
43012

> <i_f3d_flags>
0

> <s_epik_input>
W0NIM11bQ0BASF0xW0NIMl1bQ0gyXVtDSDJdW0NIMl1OMVtDSDJdW0NIMl1bTkhdQyg9TylbQ0BIXShbQ0gzXSluMltjSF1uW2NIXW4y

> <s_epik_cmdline>
J2VwaWtfcHl0aG9uJywgJy1waCcsICc3LjAnLCAnLXRuJywgJzgnLCAnLW1hJywgJzIwMCcsICctbWV0YWxfYmluZGluZycsICctaW1hZScsICc8aW5maWxlLm1hZT4nLCAnLW9tYWUnLCAnPG91dGZpbGUubWFlPic=

> <r_lp_tautomer_probability>
1

> <r_epik_Ionization_Penalty>
0.00266409

> <r_epik_Ionization_Penalty_Charging>
0.00265606

> <r_epik_Ionization_Penalty_Neutral>
8.02794e-06

> <r_epik_State_Penalty>
0.00184955

> <r_epik_Charging_Adjusted_Penalty>
0.00450561

> <i_epik_Tot_Q>
1

> <i_epik_Tot_abs_Q>
1

> <r_epik_Metal_State_Penalty>
-0

> <b_epik_Metal_Only>
0

> <s_lp_Force_Field>
OPLS_2005

> <r_lp_Energy>
24.9679

> <b_lp_Chiralities_Consistent>
1

> <s_lp_Variant>
AV-unprocessed.smi:1893-6

> <Gold.Version>
5.8.1

> <Gold.Id.Protein>
6NUR|6NUR_protein|mol2

> <Gold.PLP.Fitness>
44.4666

> <Gold.PLP.PLP>
-39.8522

> <Gold.PLP.part.hbond>
-2.1930

> <Gold.PLP.part.metal>
0.0000

> <Gold.PLP.part.buried>
-4.5244

> <Gold.PLP.part.nonpolar>
-33.9241

> <Gold.PLP.part.repulsive>
1.8068

> <Gold.PLP.ligand.clash>
0.0000

> <Gold.PLP.ligand.torsion>
0.6649

> <Gold.PLP.Chemscore.Hbond>
0.9318

> <Gold.PLP.Chemscore.CHOScore>
1.0000

> <Gold.PLP.Chemscore.Metal>
0.0000

> <Gold.Chemscore.Hbonds>
donor molecule, donor type, donor heavy atom, donor atom, acceptor molecule, acceptor atom, score
      P1  H  7989  7998       L1    12  0.05
      P1  H  8011  8017       L1    12  0.78
      L1  C    16    41       P1  7957  1.00

> <Gold.PLP.Chemscore.Internal.Correction>
0.1489

> <Gold.Rescore>
     Score         DG    S(hbond)    S(metal)    S(lipo)     H(rot)  DE(clash)    DE(int)     intcor
     12.16     -13.17       0.93        0.00      94.81       2.54       0.29       0.72       ----

> <Gold.Chemscore.Fitness>
12.1609

> <Gold.Chemscore.DG>
-13.1716

> <Gold.Chemscore.ZeroCoef>
-5.4800

> <Gold.Chemscore.Hbond>
0.9267

> <Gold.Chemscore.Metal>
0.0000

> <Gold.Chemscore.Lipo>
94.8116

> <Gold.Chemscore.Internal_Hbond>
0.0000

> <Gold.Chemscore.DEClash>
0.2893

> <Gold.Chemscore.DEInternal>
0.7214

> <Gold.Chemscore.Rot>
2.5377

> <Gold.Chemscore.Internal.Correction>
   9.000000E+99

> <Gold.Chemscore.Hbonds>
donor molecule, donor type, donor heavy atom, donor atom, acceptor molecule, acceptor atom, score
      P1  H  7989  7998       L1    12  0.06
      P1  H  8011  8017       L1    12  0.78

> <Gold.Chemscore.Hbond.Weighted>
-3.0952

> <Gold.Chemscore.Metal.Weighted>
-0.0000

> <Gold.Chemscore.Lipo.Weighted>
-11.0930

> <Gold.Chemscore.Internal_Hbond.Weighted>
0.0000

> <Gold.Chemscore.DEClash.Weighted>
0.2893

> <Gold.Chemscore.DEInternal.Weighted>
0.7214

> <Gold.Chemscore.Rot.Weighted>
6.4966

> <Gold.Chemscore.Internal.Correction.Weighted>
   9.000000E+99

> <Gold.Protein.RotatedTorsions>
[ 6907 6896 6895 6894 ] final  137.55 input  -60.11 | X-H torsion
[ 7974 7965 7964 7962 ] final   24.50 input  175.53 | X-H torsion
[ 8008 7997 7996 7995 ] final  171.27 input   59.86 | X-H torsion
[ 10167 10162 10161 10158 ] final   29.27 input  -65.29 | X-H torsion
[ 10718 10713 10712 10709 ] final  113.94 input   66.30 | X-H torsion
[ 10763 10752 10751 10750 ] final  156.36 input  -60.55 | X-H torsion
[ 11005 11000 10999 10996 ] final  -59.49 input  -57.11 | X-H torsion

> <Gold.Protein.ActiveResidues>
 VAL166  LYS551  ARG553  GLY616  TRP617  ASP618  TYR619  PRO620  LYS621  CYS622 
 ASP623  PHE694  ASN695  SER759  ASP760  ASP761  ALA762  ILE779  LEU786  VAL792 
 PHE793  MET794  SER795  GLU796  ALA797  LYS798  CYS799  TRP800  GLU811  SER814 

> <Gold.Protein.RotatedAtoms>
  152.2768  133.5433  159.5472 H   0  0  0  0  0  0  0  0  0  0  0  0  # atno 6907 bound_to 6896
  150.7180  134.0621  159.3843 H   0  0  0  0  0  0  0  0  0  0  0  0  # atno 6908 bound_to 6896
  151.8533  135.0550  160.0512 H   0  0  0  0  0  0  0  0  0  0  0  0  # atno 6909 bound_to 6896
  146.1934  139.7596  142.8815 H   0  0  0  0  0  0  0  0  0  0  0  0  # atno 7974 bound_to 7965
  156.1287  140.1516  156.9098 H   0  0  0  0  0  0  0  0  0  0  0  0  # atno 8008 bound_to 7997
  154.4892  140.0856  156.7596 H   0  0  0  0  0  0  0  0  0  0  0  0  # atno 8009 bound_to 7997
  155.4296  140.3426  155.4281 H   0  0  0  0  0  0  0  0  0  0  0  0  # atno 8010 bound_to 7997
  140.4780  144.0660  150.6256 H   0  0  0  0  0  0  0  0  0  0  0  0  # atno 10167 bound_to 10162
  157.6310  131.0991  150.7113 H   0  0  0  0  0  0  0  0  0  0  0  0  # atno 10718 bound_to 10713
  154.1832  135.2798  155.3045 H   0  0  0  0  0  0  0  0  0  0  0  0  # atno 10763 bound_to 10752
  154.5986  135.5537  153.7355 H   0  0  0  0  0  0  0  0  0  0  0  0  # atno 10764 bound_to 10752
  153.0132  135.6386  154.1971 H   0  0  0  0  0  0  0  0  0  0  0  0  # atno 10765 bound_to 10752
  141.1250  133.6616  156.5079 H   0  0  0  0  0  0  0  0  0  0  0  0  # atno 11005 bound_to 11000
  145.3720  141.0344  143.3225 LP  0  0  0  0  0  0  0  0  0  0  0  0  # atno 17320 bound_to 7965
  144.8532  139.5290  143.6847 LP  0  0  0  0  0  0  0  0  0  0  0  0  # atno 17321 bound_to 7965
  140.3894  143.2760  152.0078 LP  0  0  0  0  0  0  0  0  0  0  0  0  # atno 17342 bound_to 10162
  139.4829  144.6090  151.7468 LP  0  0  0  0  0  0  0  0  0  0  0  0  # atno 17343 bound_to 10162
  156.7453  130.4752  149.5468 LP  0  0  0  0  0  0  0  0  0  0  0  0  # atno 17370 bound_to 10713
  156.1513  130.6312  151.0599 LP  0  0  0  0  0  0  0  0  0  0  0  0  # atno 17371 bound_to 10713
  140.4392  134.7031  157.4983 LP  0  0  0  0  0  0  0  0  0  0  0  0  # atno 17394 bound_to 11000
  140.0240  134.6504  155.9199 LP  0  0  0  0  0  0  0  0  0  0  0  0  # atno 17395 bound_to 11000

$$$$
