AV-unprocessed.smi:1598|AV-procd|sdf|6422|dock9
  -GOLD-   22720 7 63D 1   1.00000     0.00000
 Structure written by MMmdl.
 39 39  0  0  0  0  0  0  0  0  1 V2000
  145.8164  143.0690  160.1444 C   0  0  0  0  0  0  0  0  0  0  0  0
  146.3656  142.2745  159.1080 O   0  0  0  0  0  0  0  0  0  0  0  0
  145.7262  142.4904  157.8608 C   0  0  0  0  0  0  0  0  0  0  0  0
  146.4560  141.6978  156.7652 C   0  0  1  0  0  0  0  0  0  0  0  0
  145.8070  141.8890  155.3840 C   0  0  0  0  0  0  0  0  0  0  0  0
  147.8516  142.1209  156.7240 N   0  0  0  0  0  0  0  0  0  0  0  0
  148.9074  141.3935  157.1281 C   0  0  0  0  0  0  0  0  0  0  0  0
  148.7988  140.2545  157.5803 O   0  0  0  0  0  0  0  0  0  0  0  0
  150.3102  142.0204  157.0108 C   0  0  0  0  0  0  0  0  0  0  0  0
  151.2397  141.7150  158.1306 N   0  0  0  0  0  0  0  0  0  0  0  0
  151.6800  142.7611  159.0014 C   0  0  0  0  0  0  0  0  0  0  0  0
  151.1377  144.1846  158.8066 C   0  0  0  0  0  0  0  0  0  0  0  0
  151.6356  145.0188  159.7205 F   0  0  0  0  0  0  0  0  0  0  0  0
  151.4867  144.6655  157.6131 F   0  0  0  0  0  0  0  0  0  0  0  0
  149.8118  144.2357  158.9307 F   0  0  0  0  0  0  0  0  0  0  0  0
  152.5344  142.4823  160.0032 C   0  0  0  0  0  0  0  0  0  0  0  0
  153.0112  141.1406  160.1951 C   0  0  0  0  0  0  0  0  0  0  0  0
  152.6008  140.1390  159.3847 C   0  0  0  0  0  0  0  0  0  0  0  0
  153.0608  138.7404  159.5450 C   0  0  0  0  0  0  0  0  0  0  0  0
  154.0190  138.5780  160.4662 N   0  0  0  0  0  0  0  0  0  0  0  0
  152.6554  137.7523  158.9333 O   0  0  0  0  0  0  0  0  0  0  0  0
  151.6522  140.4082  158.2734 C   0  0  0  0  0  0  0  0  0  0  0  0
  151.2279  139.5392  157.5057 O   0  0  0  0  0  0  0  0  0  0  0  0
  146.3429  142.8684  161.0773 H   0  0  0  0  0  0  0  0  0  0  0  0
  144.7607  142.8414  160.2982 H   0  0  0  0  0  0  0  0  0  0  0  0
  145.9177  144.1322  159.9229 H   0  0  0  0  0  0  0  0  0  0  0  0
  144.6786  142.1887  157.9145 H   0  0  0  0  0  0  0  0  0  0  0  0
  145.7470  143.5562  157.6253 H   0  0  0  0  0  0  0  0  0  0  0  0
  146.4155  140.6401  157.0322 H   0  0  0  0  0  0  0  0  0  0  0  0
  144.7653  141.5678  155.3909 H   0  0  0  0  0  0  0  0  0  0  0  0
  146.3227  141.3054  154.6208 H   0  0  0  0  0  0  0  0  0  0  0  0
  145.8304  142.9347  155.0759 H   0  0  0  0  0  0  0  0  0  0  0  0
  148.0298  143.0473  156.3652 H   0  0  0  0  0  0  0  0  0  0  0  0
  150.7406  141.6908  156.0632 H   0  0  0  0  0  0  0  0  0  0  0  0
  150.1869  143.0870  156.8492 H   0  0  0  0  0  0  0  0  0  0  0  0
  152.8716  143.2541  160.6791 H   0  0  0  0  0  0  0  0  0  0  0  0
  153.7027  140.9751  161.0079 H   0  0  0  0  0  0  0  0  0  0  0  0
  154.3973  137.6600  160.6477 H   0  0  0  0  0  0  0  0  0  0  0  0
  154.3599  139.3792  160.9775 H   0  0  0  0  0  0  0  0  0  0  0  0
  1  2  1  0  0  0  0
  1 24  1  0  0  0  0
  1 25  1  0  0  0  0
  1 26  1  0  0  0  0
  2  3  1  0  0  0  0
  3  4  1  0  0  0  0
  3 27  1  0  0  0  0
  3 28  1  0  0  0  0
  4  5  1  0  0  0  0
  4  6  1  0  0  0  0
  4 29  1  0  0  0  0
  5 30  1  0  0  0  0
  5 31  1  0  0  0  0
  5 32  1  0  0  0  0
  6  7  1  0  0  0  0
  6 33  1  0  0  0  0
  7  8  2  0  0  0  0
  7  9  1  0  0  0  0
  9 10  1  0  0  0  0
  9 34  1  0  0  0  0
  9 35  1  0  0  0  0
 10 22  1  0  0  0  0
 10 11  1  0  0  0  0
 11 12  1  0  0  0  0
 11 16  2  0  0  0  0
 12 13  1  0  0  0  0
 12 14  1  0  0  0  0
 12 15  1  0  0  0  0
 16 17  1  0  0  0  0
 16 36  1  0  0  0  0
 17 18  2  0  0  0  0
 17 37  1  0  0  0  0
 18 19  1  0  0  0  0
 18 22  1  0  0  0  0
 19 20  1  0  0  0  0
 19 21  2  0  0  0  0
 20 38  1  0  0  0  0
 20 39  1  0  0  0  0
 22 23  2  0  0  0  0
M  END
> <s_m_source_file>
AV-unprocessed.smi

> <i_m_source_file_index>
1598

> <i_lp_mmshare_version>
43012

> <i_f3d_flags>
0

> <s_epik_input>
W0NIM11PW0NIMl1bQ0BIXShbQ0gzXSlbTkhdQyg9TylbQ0gyXW4xYyhDKEYpKEYpRilbY0hdW2NIXWMoYzE9TylDKD1PKVtOSDJd

> <s_epik_cmdline>
J2VwaWtfcHl0aG9uJywgJy1waCcsICc3LjAnLCAnLXRuJywgJzgnLCAnLW1hJywgJzIwMCcsICctbWV0YWxfYmluZGluZycsICctaW1hZScsICc8aW5maWxlLm1hZT4nLCAnLW9tYWUnLCAnPG91dGZpbGUubWFlPic=

> <r_lp_tautomer_probability>
1

> <r_epik_Ionization_Penalty>
2.07884e-06

> <r_epik_Ionization_Penalty_Charging>
8.00383e-10

> <r_epik_Ionization_Penalty_Neutral>
2.07804e-06

> <r_epik_State_Penalty>
-0

> <r_epik_Charging_Adjusted_Penalty>
8.00383e-10

> <i_epik_Tot_Q>
0

> <i_epik_Tot_abs_Q>
0

> <r_epik_Metal_State_Penalty>
-0

> <b_epik_Metal_Only>
0

> <s_lp_Force_Field>
OPLS_2005

> <r_lp_Energy>
25.2492

> <b_lp_Chiralities_Consistent>
1

> <s_lp_Variant>
AV-unprocessed.smi:1598-2

> <Gold.Version>
5.8.1

> <Gold.Id.Protein>
6NUR|6NUR_protein|mol2

> <Gold.PLP.Fitness>
49.3336

> <Gold.PLP.PLP>
-44.1664

> <Gold.PLP.part.hbond>
-2.3606

> <Gold.PLP.part.metal>
0.0000

> <Gold.PLP.part.buried>
-7.9480

> <Gold.PLP.part.nonpolar>
-34.1391

> <Gold.PLP.part.repulsive>
0.0933

> <Gold.PLP.ligand.clash>
3.8924

> <Gold.PLP.ligand.torsion>
0.4714

> <Gold.PLP.Chemscore.Hbond>
1.9920

> <Gold.PLP.Chemscore.CHOScore>
0.0000

> <Gold.PLP.Chemscore.Metal>
0.0000

> <Gold.Chemscore.Hbonds>
donor molecule, donor type, donor heavy atom, donor atom, acceptor molecule, acceptor atom, score
      L1  H     6    33       P1  8028  1.00
      P1  H  6934  6946       L1     2  0.17

> <Gold.PLP.Chemscore.Internal.Correction>
4.0265

> <Gold.Rescore>
     Score         DG    S(hbond)    S(metal)    S(lipo)     H(rot)  DE(clash)    DE(int)     intcor
      2.48     -11.31       1.56        0.00      58.29       2.43       0.12       8.71       ----

> <Gold.Chemscore.Fitness>
2.4792

> <Gold.Chemscore.DG>
-11.3072

> <Gold.Chemscore.ZeroCoef>
-5.4800

> <Gold.Chemscore.Hbond>
1.5643

> <Gold.Chemscore.Metal>
0.0000

> <Gold.Chemscore.Lipo>
58.2943

> <Gold.Chemscore.Internal_Hbond>
0.0000

> <Gold.Chemscore.DEClash>
0.1223

> <Gold.Chemscore.DEInternal>
8.7057

> <Gold.Chemscore.Rot>
2.4289

> <Gold.Chemscore.Internal.Correction>
   9.000000E+99

> <Gold.Chemscore.Hbonds>
donor molecule, donor type, donor heavy atom, donor atom, acceptor molecule, acceptor atom, score
      L1  H     6    33       P1  8028  0.39

> <Gold.Chemscore.Hbond.Weighted>
-5.2248

> <Gold.Chemscore.Metal.Weighted>
-0.0000

> <Gold.Chemscore.Lipo.Weighted>
-6.8204

> <Gold.Chemscore.Internal_Hbond.Weighted>
0.0000

> <Gold.Chemscore.DEClash.Weighted>
0.1223

> <Gold.Chemscore.DEInternal.Weighted>
8.7057

> <Gold.Chemscore.Rot.Weighted>
6.2180

> <Gold.Chemscore.Internal.Correction.Weighted>
   9.000000E+99

> <Gold.Protein.RotatedTorsions>
[ 6907 6896 6895 6894 ] final   -6.72 input  -60.11 | X-H torsion
[ 7974 7965 7964 7962 ] final   60.53 input  175.53 | X-H torsion
[ 8008 7997 7996 7995 ] final   47.39 input   59.86 | X-H torsion
[ 10167 10162 10161 10158 ] final -120.35 input  -65.29 | X-H torsion
[ 10718 10713 10712 10709 ] final -142.99 input   66.30 | X-H torsion
[ 10763 10752 10751 10750 ] final   -7.53 input  -60.55 | X-H torsion
[ 11005 11000 10999 10996 ] final  -49.40 input  -57.11 | X-H torsion

> <Gold.Protein.ActiveResidues>
 VAL166  LYS551  ARG553  GLY616  TRP617  ASP618  TYR619  PRO620  LYS621  CYS622 
 ASP623  PHE694  ASN695  SER759  ASP760  ASP761  ALA762  ILE779  LEU786  VAL792 
 PHE793  MET794  SER795  GLU796  ALA797  LYS798  CYS799  TRP800  GLU811  SER814 

> <Gold.Protein.RotatedAtoms>
  151.4611  135.1038  159.9724 H   0  0  0  0  0  0  0  0  0  0  0  0  # atno 6907 bound_to 6896
  152.4853  133.8352  159.7134 H   0  0  0  0  0  0  0  0  0  0  0  0  # atno 6908 bound_to 6896
  150.8957  133.7124  159.2919 H   0  0  0  0  0  0  0  0  0  0  0  0  # atno 6909 bound_to 6896
  145.8950  139.3538  143.0627 H   0  0  0  0  0  0  0  0  0  0  0  0  # atno 7974 bound_to 7965
  155.3682  140.3422  155.4242 H   0  0  0  0  0  0  0  0  0  0  0  0  # atno 8008 bound_to 7997
  156.1677  140.1621  156.8537 H   0  0  0  0  0  0  0  0  0  0  0  0  # atno 8009 bound_to 7997
  154.5201  140.0769  156.8138 H   0  0  0  0  0  0  0  0  0  0  0  0  # atno 8010 bound_to 7997
  140.0367  143.5193  152.2150 H   0  0  0  0  0  0  0  0  0  0  0  0  # atno 10167 bound_to 10162
  156.3526  130.7696  151.1851 H   0  0  0  0  0  0  0  0  0  0  0  0  # atno 10718 bound_to 10713
  153.4277  135.7011  153.6252 H   0  0  0  0  0  0  0  0  0  0  0  0  # atno 10763 bound_to 10752
  153.4680  135.3721  155.2375 H   0  0  0  0  0  0  0  0  0  0  0  0  # atno 10764 bound_to 10752
  154.8724  135.4036  154.3655 H   0  0  0  0  0  0  0  0  0  0  0  0  # atno 10765 bound_to 10752
  141.0757  133.6666  156.3580 H   0  0  0  0  0  0  0  0  0  0  0  0  # atno 11005 bound_to 11000
  145.8862  140.9332  143.0576 LP  0  0  0  0  0  0  0  0  0  0  0  0  # atno 17320 bound_to 7965
  144.6732  140.0845  143.7468 LP  0  0  0  0  0  0  0  0  0  0  0  0  # atno 17321 bound_to 7965
  139.6040  144.7591  151.3105 LP  0  0  0  0  0  0  0  0  0  0  0  0  # atno 17342 bound_to 10162
  140.7278  143.6953  150.7889 LP  0  0  0  0  0  0  0  0  0  0  0  0  # atno 17343 bound_to 10162
  157.7463  131.0423  150.4689 LP  0  0  0  0  0  0  0  0  0  0  0  0  # atno 17370 bound_to 10713
  156.4886  130.4090  149.6419 LP  0  0  0  0  0  0  0  0  0  0  0  0  # atno 17371 bound_to 10713
  140.5579  134.5963  157.5426 LP  0  0  0  0  0  0  0  0  0  0  0  0  # atno 17394 bound_to 11000
  139.9569  134.7519  156.0322 LP  0  0  0  0  0  0  0  0  0  0  0  0  # atno 17395 bound_to 11000

$$$$
