AV-unprocessed.smi:3028|AV-procd|sdf|11522|dock8
  -GOLD-   2272016463D 1   1.00000     0.00000
 Structure written by MMmdl.
 47 48  0  0  0  0  0  0  0  0  1 V2000
  149.2474  140.7162  154.4495 C   0  0  0  0  0  0  0  0  0  0  0  0
  150.1405  141.0334  155.6136 C   0  0  0  0  0  0  0  0  0  0  0  0
  150.7666  140.1216  156.5097 C   0  0  0  0  0  0  0  0  0  0  0  0
  151.4907  140.7265  157.4364 N   0  0  0  0  0  0  0  0  0  0  0  0
  151.3599  142.0433  157.1660 N   0  0  0  0  0  0  0  0  0  0  0  0
  152.0354  143.0276  158.0039 C   0  0  1  0  0  0  0  0  0  0  0  0
  151.5713  144.4389  157.5963 C   0  0  0  0  0  0  0  0  0  0  0  0
  151.8402  142.7277  159.5180 C   0  0  2  0  0  0  0  0  0  0  0  0
  152.4287  143.8194  160.4288 C   0  0  0  0  0  0  0  0  0  0  0  0
  152.5303  141.4921  159.8829 N   0  0  0  0  0  0  0  0  0  0  0  0
  153.9933  141.6253  159.8558 C   0  0  0  0  0  0  0  0  0  0  0  0
  154.7142  140.3434  160.3008 C   0  0  0  0  0  0  0  0  0  0  0  0
  155.5327  139.8048  159.5566 O   0  0  0  0  0  0  0  0  0  0  0  0
  154.4513  139.8280  161.5140 N   0  0  0  0  0  0  0  0  0  0  0  0
  155.0257  138.6280  162.1183 C   0  0  0  0  0  0  0  0  0  0  0  0
  153.9552  137.5311  162.2184 C   0  0  0  0  0  0  0  0  0  0  0  0
  154.4955  136.3152  162.9887 C   0  0  0  0  0  0  0  0  0  0  0  0
  154.9474  136.7150  164.2783 O   0  0  0  0  0  0  0  0  0  0  0  0
  156.0215  137.6475  164.2255 C   0  0  0  0  0  0  0  0  0  0  0  0
  155.5638  138.9366  163.5256 C   0  0  0  0  0  0  0  0  0  0  0  0
  150.5480  142.2548  156.0692 C   0  0  0  0  0  0  0  0  0  0  0  0
  148.8042  139.7244  154.5385 H   0  0  0  0  0  0  0  0  0  0  0  0
  149.7931  140.7415  153.5064 H   0  0  0  0  0  0  0  0  0  0  0  0
  148.4250  141.4271  154.3662 H   0  0  0  0  0  0  0  0  0  0  0  0
  150.7128  139.0430  156.5161 H   0  0  0  0  0  0  0  0  0  0  0  0
  153.1034  142.9719  157.7834 H   0  0  0  0  0  0  0  0  0  0  0  0
  152.1815  145.2132  158.0608 H   0  0  0  0  0  0  0  0  0  0  0  0
  150.5331  144.6158  157.8785 H   0  0  0  0  0  0  0  0  0  0  0  0
  151.6512  144.5792  156.5178 H   0  0  0  0  0  0  0  0  0  0  0  0
  150.7750  142.6544  159.7448 H   0  0  0  0  0  0  0  0  0  0  0  0
  151.8967  144.7641  160.3177 H   0  0  0  0  0  0  0  0  0  0  0  0
  153.4815  143.9999  160.2081 H   0  0  0  0  0  0  0  0  0  0  0  0
  152.3526  143.5393  161.4803 H   0  0  0  0  0  0  0  0  0  0  0  0
  152.2284  140.7535  159.2636 H   0  0  0  0  0  0  0  0  0  0  0  0
  154.3187  141.8665  158.8432 H   0  0  0  0  0  0  0  0  0  0  0  0
  154.2897  142.4502  160.4999 H   0  0  0  0  0  0  0  0  0  0  0  0
  153.7822  140.3284  162.0810 H   0  0  0  0  0  0  0  0  0  0  0  0
  155.8364  138.2420  161.4990 H   0  0  0  0  0  0  0  0  0  0  0  0
  153.0731  137.9161  162.7322 H   0  0  0  0  0  0  0  0  0  0  0  0
  153.6299  137.2275  161.2229 H   0  0  0  0  0  0  0  0  0  0  0  0
  153.7104  135.5683  163.1072 H   0  0  0  0  0  0  0  0  0  0  0  0
  155.3084  135.8375  162.4395 H   0  0  0  0  0  0  0  0  0  0  0  0
  156.3468  137.8690  165.2420 H   0  0  0  0  0  0  0  0  0  0  0  0
  156.8742  137.2064  163.7074 H   0  0  0  0  0  0  0  0  0  0  0  0
  156.3892  139.6455  163.4746 H   0  0  0  0  0  0  0  0  0  0  0  0
  154.7855  139.4114  164.1249 H   0  0  0  0  0  0  0  0  0  0  0  0
  150.3274  143.2488  155.7092 H   0  0  0  0  0  0  0  0  0  0  0  0
  1  2  1  0  0  0  0
  1 22  1  0  0  0  0
  1 23  1  0  0  0  0
  1 24  1  0  0  0  0
  2 21  2  0  0  0  0
  2  3  1  0  0  0  0
  3  4  2  0  0  0  0
  3 25  1  0  0  0  0
  4  5  1  0  0  0  0
  5  6  1  0  0  0  0
  5 21  1  0  0  0  0
  6  7  1  0  0  0  0
  6  8  1  0  0  0  0
  6 26  1  0  0  0  0
  7 27  1  0  0  0  0
  7 28  1  0  0  0  0
  7 29  1  0  0  0  0
  8  9  1  0  0  0  0
  8 10  1  0  0  0  0
  8 30  1  0  0  0  0
  9 31  1  0  0  0  0
  9 32  1  0  0  0  0
  9 33  1  0  0  0  0
 10 11  1  0  0  0  0
 10 34  1  0  0  0  0
 11 12  1  0  0  0  0
 11 35  1  0  0  0  0
 11 36  1  0  0  0  0
 12 13  2  0  0  0  0
 12 14  1  0  0  0  0
 14 15  1  0  0  0  0
 14 37  1  0  0  0  0
 15 20  1  0  0  0  0
 15 16  1  0  0  0  0
 15 38  1  0  0  0  0
 16 17  1  0  0  0  0
 16 39  1  0  0  0  0
 16 40  1  0  0  0  0
 17 18  1  0  0  0  0
 17 41  1  0  0  0  0
 17 42  1  0  0  0  0
 18 19  1  0  0  0  0
 19 20  1  0  0  0  0
 19 43  1  0  0  0  0
 19 44  1  0  0  0  0
 20 45  1  0  0  0  0
 20 46  1  0  0  0  0
 21 47  1  0  0  0  0
M  END
> <s_m_source_file>
AV-unprocessed.smi

> <i_m_source_file_index>
3028

> <i_lp_mmshare_version>
43012

> <i_f3d_flags>
0

> <s_epik_input>
W0NIM11jMVtjSF1ubihbY0hdMSlbQ0BIXShbQ0gzXSlbQ0BIXShbQ0gzXSlbTkhdW0NIMl1DKD1PKVtOSF1bQ0hdMltDSDJdW0NIMl1PW0NIMl1bQ0gyXTI=

> <s_epik_cmdline>
J2VwaWtfcHl0aG9uJywgJy1waCcsICc3LjAnLCAnLXRuJywgJzgnLCAnLW1hJywgJzIwMCcsICctbWV0YWxfYmluZGluZycsICctaW1hZScsICc8aW5maWxlLm1hZT4nLCAnLW9tYWUnLCAnPG91dGZpbGUubWFlPic=

> <r_lp_tautomer_probability>
1

> <r_epik_Ionization_Penalty>
0.88617

> <r_epik_Ionization_Penalty_Charging>
0

> <r_epik_Ionization_Penalty_Neutral>
0.88617

> <r_epik_State_Penalty>
0.921066

> <r_epik_Charging_Adjusted_Penalty>
0.921066

> <i_epik_Tot_Q>
0

> <i_epik_Tot_abs_Q>
0

> <r_epik_Metal_State_Penalty>
0.917309

> <b_epik_Metal_Only>
0

> <s_lp_Force_Field>
OPLS_2005

> <r_lp_Energy>
17.6671

> <b_lp_Chiralities_Consistent>
1

> <s_lp_Variant>
AV-unprocessed.smi:3028-6

> <Gold.Version>
5.8.1

> <Gold.Id.Protein>
6NUR|6NUR_protein|mol2

> <Gold.PLP.Fitness>
43.9774

> <Gold.PLP.PLP>
-39.9199

> <Gold.PLP.part.hbond>
-0.5821

> <Gold.PLP.part.metal>
0.0000

> <Gold.PLP.part.buried>
-4.3452

> <Gold.PLP.part.nonpolar>
-34.0881

> <Gold.PLP.part.repulsive>
0.0747

> <Gold.PLP.ligand.clash>
0.0000

> <Gold.PLP.ligand.torsion>
0.4143

> <Gold.PLP.Chemscore.Hbond>
0.6012

> <Gold.PLP.Chemscore.CHOScore>
1.0000

> <Gold.PLP.Chemscore.Metal>
0.0000

> <Gold.Chemscore.Hbonds>
donor molecule, donor type, donor heavy atom, donor atom, acceptor molecule, acceptor atom, score
      P1  H  7997  8008       L1    13  0.57
      L1  C    21    47       P1  8028  1.00

> <Gold.PLP.Chemscore.Internal.Correction>
0.0823

> <Gold.Rescore>
     Score         DG    S(hbond)    S(metal)    S(lipo)     H(rot)  DE(clash)    DE(int)     intcor
     16.33     -16.97       0.94        0.00     113.50       1.92       0.33       0.32       ----

> <Gold.Chemscore.Fitness>
16.3278

> <Gold.Chemscore.DG>
-16.9728

> <Gold.Chemscore.ZeroCoef>
-5.4800

> <Gold.Chemscore.Hbond>
0.9392

> <Gold.Chemscore.Metal>
0.0000

> <Gold.Chemscore.Lipo>
113.4987

> <Gold.Chemscore.Internal_Hbond>
0.0000

> <Gold.Chemscore.DEClash>
0.3299

> <Gold.Chemscore.DEInternal>
0.3151

> <Gold.Chemscore.Rot>
1.9233

> <Gold.Chemscore.Internal.Correction>
   9.000000E+99

> <Gold.Chemscore.Hbonds>
donor molecule, donor type, donor heavy atom, donor atom, acceptor molecule, acceptor atom, score
      P1  H  7997  8008       L1    13  0.55

> <Gold.Chemscore.Hbond.Weighted>
-3.1370

> <Gold.Chemscore.Metal.Weighted>
-0.0000

> <Gold.Chemscore.Lipo.Weighted>
-13.2793

> <Gold.Chemscore.Internal_Hbond.Weighted>
0.0000

> <Gold.Chemscore.DEClash.Weighted>
0.3299

> <Gold.Chemscore.DEInternal.Weighted>
0.3151

> <Gold.Chemscore.Rot.Weighted>
4.9235

> <Gold.Chemscore.Internal.Correction.Weighted>
   9.000000E+99

> <Gold.Protein.RotatedTorsions>
[ 6907 6896 6895 6894 ] final -122.17 input  -60.11 | X-H torsion
[ 7974 7965 7964 7962 ] final  117.80 input  175.53 | X-H torsion
[ 8008 7997 7996 7995 ] final -139.43 input   59.86 | X-H torsion
[ 10167 10162 10161 10158 ] final  -75.89 input  -65.29 | X-H torsion
[ 10718 10713 10712 10709 ] final   52.80 input   66.30 | X-H torsion
[ 10763 10752 10751 10750 ] final    4.10 input  -60.55 | X-H torsion
[ 11005 11000 10999 10996 ] final  121.60 input  -57.11 | X-H torsion

> <Gold.Protein.ActiveResidues>
 VAL166  LYS551  ARG553  GLY616  TRP617  ASP618  TYR619  PRO620  LYS621  CYS622 
 ASP623  PHE694  ASN695  SER759  ASP760  ASP761  ALA762  ILE779  LEU786  VAL792 
 PHE793  MET794  SER795  GLU796  ALA797  LYS798  CYS799  TRP800  GLU811  SER814 

> <Gold.Protein.RotatedAtoms>
  150.8551  133.7727  159.3011 H   0  0  0  0  0  0  0  0  0  0  0  0  # atno 6907 bound_to 6896
  151.5387  135.1067  159.9930 H   0  0  0  0  0  0  0  0  0  0  0  0  # atno 6908 bound_to 6896
  152.4583  133.7726  159.6863 H   0  0  0  0  0  0  0  0  0  0  0  0  # atno 6909 bound_to 6896
  145.1629  139.3145  143.4508 H   0  0  0  0  0  0  0  0  0  0  0  0  # atno 7974 bound_to 7965
  155.4448  140.0534  157.3007 H   0  0  0  0  0  0  0  0  0  0  0  0  # atno 8008 bound_to 7997
  154.4802  140.2078  155.9737 H   0  0  0  0  0  0  0  0  0  0  0  0  # atno 8009 bound_to 7997
  156.1195  140.3191  155.8192 H   0  0  0  0  0  0  0  0  0  0  0  0  # atno 8010 bound_to 7997
  140.4904  143.2381  151.7916 H   0  0  0  0  0  0  0  0  0  0  0  0  # atno 10167 bound_to 10162
  157.5108  130.8499  149.8433 H   0  0  0  0  0  0  0  0  0  0  0  0  # atno 10718 bound_to 10713
  153.2754  135.6936  153.7439 H   0  0  0  0  0  0  0  0  0  0  0  0  # atno 10763 bound_to 10752
  153.6446  135.3387  155.3082 H   0  0  0  0  0  0  0  0  0  0  0  0  # atno 10764 bound_to 10752
  154.8478  135.4440  154.1790 H   0  0  0  0  0  0  0  0  0  0  0  0  # atno 10765 bound_to 10752
  139.9232  134.9639  156.7982 H   0  0  0  0  0  0  0  0  0  0  0  0  # atno 11005 bound_to 11000
  146.3480  140.1746  142.8589 LP  0  0  0  0  0  0  0  0  0  0  0  0  # atno 17320 bound_to 7965
  145.0312  140.8872  143.5108 LP  0  0  0  0  0  0  0  0  0  0  0  0  # atno 17321 bound_to 7965
  139.4850  144.4657  151.9487 LP  0  0  0  0  0  0  0  0  0  0  0  0  # atno 17342 bound_to 10162
  140.3743  144.2816  150.5916 LP  0  0  0  0  0  0  0  0  0  0  0  0  # atno 17343 bound_to 10162
  156.0288  130.3771  150.1747 LP  0  0  0  0  0  0  0  0  0  0  0  0  # atno 17370 bound_to 10713
  156.9936  130.9901  151.3408 LP  0  0  0  0  0  0  0  0  0  0  0  0  # atno 17371 bound_to 10713
  140.6411  133.9817  155.7708 LP  0  0  0  0  0  0  0  0  0  0  0  0  # atno 17394 bound_to 11000
  141.0770  134.0119  157.3442 LP  0  0  0  0  0  0  0  0  0  0  0  0  # atno 17395 bound_to 11000

$$$$
