AV-unprocessed.smi:497|AV-procd|sdf|2725|dock7
  -GOLD-   2262023173D 1   1.00000     0.00000
 Structure written by MMmdl.
 40 42  0  0  0  0  0  0  0  0  2 V2000
  147.8190  141.3405  153.7763 C   0  0  0  0  0  0  0  0  0  0  0  0
  149.2073  141.4480  154.0368 O   0  0  0  0  0  0  0  0  0  0  0  0
  149.5999  140.7335  155.1978 C   0  0  0  0  0  0  0  0  0  0  0  0
  149.6233  141.6837  156.4031 C   0  0  0  0  0  0  0  0  0  0  0  0
  150.5153  141.2061  157.4706 N   0  0  0  0  0  0  0  0  0  0  0  0
  150.7263  139.9480  157.9576 C   0  0  0  0  0  0  0  0  0  0  0  0
  150.0758  138.6771  157.5063 C   0  0  0  0  0  0  0  0  0  0  0  0
  149.2995  138.0336  158.5589 N   0  0  0  0  0  0  0  0  0  0  0  0
  149.4819  136.7772  158.9947 C   0  0  0  0  0  0  0  0  0  0  0  0
  150.3453  136.0231  158.5468 O   0  0  0  0  0  0  0  0  0  0  0  0
  148.5654  136.3269  160.0593 C   0  0  0  0  0  0  0  0  0  0  0  0
  147.9915  135.1070  160.3062 C   0  0  0  0  0  0  0  0  0  0  0  0
  147.1889  135.2626  161.4701 C   0  0  0  0  0  0  0  0  0  0  0  0
  147.3274  136.5666  161.8504 C   0  0  0  0  0  0  0  0  0  0  0  0
  148.1591  137.2283  161.0006 O   0  0  0  0  0  0  0  0  0  0  0  0
  151.6537  140.0520  158.9514 N   0  3  0  0  0  0  0  0  0  0  0  0
  152.0334  141.3853  159.1073 C   0  0  0  0  0  0  0  0  0  0  0  0
  152.9359  141.9794  159.9841 C   0  0  0  0  0  0  0  0  0  0  0  0
  153.0866  143.3783  159.8852 C   0  0  0  0  0  0  0  0  0  0  0  0
  152.3558  144.1307  158.9427 C   0  0  0  0  0  0  0  0  0  0  0  0
  151.4447  143.5165  158.0580 C   0  0  0  0  0  0  0  0  0  0  0  0
  151.3032  142.1330  158.1614 C   0  0  0  0  0  0  0  0  0  0  0  0
  147.5714  141.9010  152.8747 H   0  0  0  0  0  0  0  0  0  0  0  0
  147.2309  141.7492  154.5991 H   0  0  0  0  0  0  0  0  0  0  0  0
  147.5265  140.3017  153.6179 H   0  0  0  0  0  0  0  0  0  0  0  0
  148.9050  139.9141  155.3877 H   0  0  0  0  0  0  0  0  0  0  0  0
  150.5877  140.2947  155.0476 H   0  0  0  0  0  0  0  0  0  0  0  0
  149.9647  142.6711  156.0942 H   0  0  0  0  0  0  0  0  0  0  0  0
  148.6224  141.8247  156.8116 H   0  0  0  0  0  0  0  0  0  0  0  0
  149.4062  138.9049  156.6768 H   0  0  0  0  0  0  0  0  0  0  0  0
  150.8215  137.9848  157.1147 H   0  0  0  0  0  0  0  0  0  0  0  0
  148.5599  138.5770  158.9798 H   0  0  0  0  0  0  0  0  0  0  0  0
  148.1302  134.2090  159.7222 H   0  0  0  0  0  0  0  0  0  0  0  0
  146.5865  134.5157  161.9659 H   0  0  0  0  0  0  0  0  0  0  0  0
  146.9251  137.1601  162.6583 H   0  0  0  0  0  0  0  0  0  0  0  0
  153.4957  141.4053  160.7079 H   0  0  0  0  0  0  0  0  0  0  0  0
  153.7754  143.8845  160.5462 H   0  0  0  0  0  0  0  0  0  0  0  0
  152.4965  145.2009  158.8972 H   0  0  0  0  0  0  0  0  0  0  0  0
  150.8887  144.1020  157.3410 H   0  0  0  0  0  0  0  0  0  0  0  0
  151.9986  139.2646  159.4849 H   0  0  0  0  0  0  0  0  0  0  0  0
  1  2  1  0  0  0  0
  1 23  1  0  0  0  0
  1 24  1  0  0  0  0
  1 25  1  0  0  0  0
  2  3  1  0  0  0  0
  3  4  1  0  0  0  0
  3 26  1  0  0  0  0
  3 27  1  0  0  0  0
  4  5  1  0  0  0  0
  4 28  1  0  0  0  0
  4 29  1  0  0  0  0
  5 22  1  0  0  0  0
  5  6  1  0  0  0  0
  6  7  1  0  0  0  0
  6 16  2  0  0  0  0
  7  8  1  0  0  0  0
  7 30  1  0  0  0  0
  7 31  1  0  0  0  0
  8  9  1  0  0  0  0
  8 32  1  0  0  0  0
  9 10  2  0  0  0  0
  9 11  1  0  0  0  0
 11 15  1  0  0  0  0
 11 12  2  0  0  0  0
 12 13  1  0  0  0  0
 12 33  1  0  0  0  0
 13 14  2  0  0  0  0
 13 34  1  0  0  0  0
 14 15  1  0  0  0  0
 14 35  1  0  0  0  0
 16 17  1  0  0  0  0
 16 40  1  0  0  0  0
 17 22  2  0  0  0  0
 17 18  1  0  0  0  0
 18 19  2  0  0  0  0
 18 36  1  0  0  0  0
 19 20  1  0  0  0  0
 19 37  1  0  0  0  0
 20 21  2  0  0  0  0
 20 38  1  0  0  0  0
 21 22  1  0  0  0  0
 21 39  1  0  0  0  0
M  CHG  1  16   1
M  END
> <s_m_source_file>
AV-unprocessed.smi

> <i_m_source_file_index>
497

> <i_lp_mmshare_version>
43012

> <i_f3d_flags>
0

> <s_epik_input>
W2NIXTFbY0hdW2NIXVtjSF1jKGMxMiluKFtDSDJdW0NIMl1PW0NIM10pYyhuMilbQ0gyXVtOSF1DKD1PKWMzW2NIXVtjSF1bY0hdbzM=

> <s_epik_cmdline>
J2VwaWtfcHl0aG9uJywgJy1waCcsICc3LjAnLCAnLXRuJywgJzgnLCAnLW1hJywgJzIwMCcsICctbWV0YWxfYmluZGluZycsICctaW1hZScsICc8aW5maWxlLm1hZT4nLCAnLW9tYWUnLCAnPG91dGZpbGUubWFlPic=

> <r_epik_Ionization_Penalty>
1.26486

> <r_epik_Ionization_Penalty_Charging>
1.26483

> <r_epik_Ionization_Penalty_Neutral>
2.77772e-05

> <r_epik_State_Penalty>
1.33577

> <r_epik_Charging_Adjusted_Penalty>
2.6006

> <i_epik_Tot_Q>
1

> <i_epik_Tot_abs_Q>
1

> <r_epik_Metal_State_Penalty>
1.44158

> <b_epik_Metal_Only>
0

> <s_lp_Force_Field>
OPLS_2005

> <r_lp_Energy>
9.51778

> <b_lp_Chiralities_Consistent>
1

> <s_lp_Variant>
AV-unprocessed.smi:497-2

> <Gold.Version>
5.8.1

> <Gold.Id.Protein>
6NUR|6NUR_protein|mol2

> <Gold.PLP.Fitness>
52.9426

> <Gold.PLP.PLP>
-45.4942

> <Gold.PLP.part.hbond>
-4.9085

> <Gold.PLP.part.metal>
0.0000

> <Gold.PLP.part.buried>
-5.3746

> <Gold.PLP.part.nonpolar>
-36.8094

> <Gold.PLP.part.repulsive>
0.5191

> <Gold.PLP.ligand.clash>
0.0000

> <Gold.PLP.ligand.torsion>
1.1578

> <Gold.PLP.Chemscore.Hbond>
3.2407

> <Gold.PLP.Chemscore.CHOScore>
0.0000

> <Gold.PLP.Chemscore.Metal>
0.0000

> <Gold.Chemscore.Hbonds>
donor molecule, donor type, donor heavy atom, donor atom, acceptor molecule, acceptor atom, score
      P1  H  6896  6907       L1    10  0.96
      P1  H  6931  6943       L1    15  0.94
      P1  H  6934  6947       L1    15  0.65
      P1  H  8011  8017       L1     2  0.69

> <Gold.PLP.Chemscore.Internal.Correction>
0.0420

> <Gold.Rescore>
     Score         DG    S(hbond)    S(metal)    S(lipo)     H(rot)  DE(clash)    DE(int)     intcor
     19.88     -21.16       2.36        0.00     109.57       1.96       0.05       1.23       ----

> <Gold.Chemscore.Fitness>
19.8758

> <Gold.Chemscore.DG>
-21.1568

> <Gold.Chemscore.ZeroCoef>
-5.4800

> <Gold.Chemscore.Hbond>
2.3555

> <Gold.Chemscore.Metal>
0.0000

> <Gold.Chemscore.Lipo>
109.5745

> <Gold.Chemscore.Internal_Hbond>
0.0000

> <Gold.Chemscore.DEClash>
0.0476

> <Gold.Chemscore.DEInternal>
1.2334

> <Gold.Chemscore.Rot>
1.9573

> <Gold.Chemscore.Internal.Correction>
   9.000000E+99

> <Gold.Chemscore.Hbonds>
donor molecule, donor type, donor heavy atom, donor atom, acceptor molecule, acceptor atom, score
      P1  H  6896  6907       L1    10  0.79
      P1  H  6931  6943       L1    15  0.54
      P1  H  6934  6947       L1    15  0.15
      P1  H  8011  8017       L1     2  0.16

> <Gold.Chemscore.Hbond.Weighted>
-7.8672

> <Gold.Chemscore.Metal.Weighted>
-0.0000

> <Gold.Chemscore.Lipo.Weighted>
-12.8202

> <Gold.Chemscore.Internal_Hbond.Weighted>
0.0000

> <Gold.Chemscore.DEClash.Weighted>
0.0476

> <Gold.Chemscore.DEInternal.Weighted>
1.2334

> <Gold.Chemscore.Rot.Weighted>
5.0107

> <Gold.Chemscore.Internal.Correction.Weighted>
   9.000000E+99

> <Gold.Protein.RotatedTorsions>
[ 6907 6896 6895 6894 ] final  -50.31 input  -60.11 | X-H torsion
[ 7974 7965 7964 7962 ] final  121.88 input  175.53 | X-H torsion
[ 8008 7997 7996 7995 ] final  -19.82 input   59.86 | X-H torsion
[ 10167 10162 10161 10158 ] final  143.73 input  -65.29 | X-H torsion
[ 10718 10713 10712 10709 ] final -124.10 input   66.30 | X-H torsion
[ 10763 10752 10751 10750 ] final  166.03 input  -60.55 | X-H torsion
[ 11005 11000 10999 10996 ] final   -5.05 input  -57.11 | X-H torsion

> <Gold.Protein.ActiveResidues>
 VAL166  LYS551  ARG553  GLY616  TRP617  ASP618  TYR619  PRO620  LYS621  CYS622 
 ASP623  PHE694  ASN695  SER759  ASP760  ASP761  ALA762  ILE779  LEU786  VAL792 
 PHE793  MET794  SER795  GLU796  ALA797  LYS798  CYS799  TRP800  GLU811  SER814 

> <Gold.Protein.RotatedAtoms>
  150.8719  134.8095  159.7161 H   0  0  0  0  0  0  0  0  0  0  0  0  # atno 6907 bound_to 6896
  152.4721  134.4932  159.9712 H   0  0  0  0  0  0  0  0  0  0  0  0  # atno 6908 bound_to 6896
  151.5020  133.3464  159.2906 H   0  0  0  0  0  0  0  0  0  0  0  0  # atno 6909 bound_to 6896
  145.1141  139.3433  143.4748 H   0  0  0  0  0  0  0  0  0  0  0  0  # atno 7974 bound_to 7965
  154.4811  140.2078  155.9762 H   0  0  0  0  0  0  0  0  0  0  0  0  # atno 8008 bound_to 7997
  156.1166  140.3220  155.8118 H   0  0  0  0  0  0  0  0  0  0  0  0  # atno 8009 bound_to 7997
  155.4542  140.0519  157.2989 H   0  0  0  0  0  0  0  0  0  0  0  0  # atno 8010 bound_to 7997
  139.4963  144.6020  151.6459 H   0  0  0  0  0  0  0  0  0  0  0  0  # atno 10167 bound_to 10162
  156.1558  130.6567  150.9980 H   0  0  0  0  0  0  0  0  0  0  0  0  # atno 10718 bound_to 10713
  154.3329  135.2754  155.2462 H   0  0  0  0  0  0  0  0  0  0  0  0  # atno 10763 bound_to 10752
  154.4766  135.5869  153.6363 H   0  0  0  0  0  0  0  0  0  0  0  0  # atno 10764 bound_to 10752
  152.9865  135.6101  154.3523 H   0  0  0  0  0  0  0  0  0  0  0  0  # atno 10765 bound_to 10752
  140.6869  133.9105  155.8592 H   0  0  0  0  0  0  0  0  0  0  0  0  # atno 11005 bound_to 11000
  146.3525  140.1072  142.8605 LP  0  0  0  0  0  0  0  0  0  0  0  0  # atno 17320 bound_to 7965
  145.0814  140.9223  143.4823 LP  0  0  0  0  0  0  0  0  0  0  0  0  # atno 17321 bound_to 7965
  140.5673  144.0169  150.6199 LP  0  0  0  0  0  0  0  0  0  0  0  0  # atno 17342 bound_to 10162
  140.3274  143.3098  152.0722 LP  0  0  0  0  0  0  0  0  0  0  0  0  # atno 17343 bound_to 10162
  157.6694  131.0865  150.7650 LP  0  0  0  0  0  0  0  0  0  0  0  0  # atno 17370 bound_to 10713
  156.7715  130.4830  149.5417 LP  0  0  0  0  0  0  0  0  0  0  0  0  # atno 17371 bound_to 10713
  141.0272  134.0806  157.4055 LP  0  0  0  0  0  0  0  0  0  0  0  0  # atno 17394 bound_to 11000
  139.8935  135.0130  156.6901 LP  0  0  0  0  0  0  0  0  0  0  0  0  # atno 17395 bound_to 11000

$$$$
