AV-unprocessed.smi:2441|AV-procd|sdf|9621|dock1
  -GOLD-   2272013253D 1   1.00000     0.00000
 Structure written by MMmdl.
 40 41  0  0  0  0  0  0  0  0  1 V2000
  148.2526  140.7205  154.0916 C   0  0  0  0  0  0  0  0  0  0  0  0
  146.9248  141.2804  154.6304 C   0  0  2  0  0  0  0  0  0  0  0  0
  146.5232  142.5836  153.9088 C   0  0  0  0  0  0  0  0  0  0  0  0
  145.1713  143.1159  154.4109 C   0  0  0  0  0  0  0  0  0  0  0  0
  145.1764  143.3139  155.9341 C   0  0  0  0  0  0  0  0  0  0  0  0
  145.5760  142.0194  156.6634 C   0  0  0  0  0  0  0  0  0  0  0  0
  146.9272  141.4642  156.1693 C   0  0  2  0  0  0  0  0  0  0  0  0
  148.0157  142.3415  156.6062 N   0  0  0  0  0  0  0  0  0  0  0  0
  148.8431  142.1267  157.6393 C   0  0  0  0  0  0  0  0  0  0  0  0
  148.7880  141.1295  158.3584 O   0  0  0  0  0  0  0  0  0  0  0  0
  149.7074  143.1495  157.7749 N   0  0  0  0  0  0  0  0  0  0  0  0
  150.7442  143.3277  158.7077 C   0  0  0  0  0  0  0  0  0  0  0  0
  151.0111  144.4917  159.3519 C   0  0  0  0  0  0  0  0  0  0  0  0
  152.0935  144.5820  160.3017 C   0  0  0  0  0  0  0  0  0  0  0  0
  152.8228  143.4837  160.5410 C   0  0  0  0  0  0  0  0  0  0  0  0
  152.5585  142.2644  159.8969 N   0  0  0  0  0  0  0  0  0  0  0  0
  153.4386  141.1493  160.2586 C   0  0  0  0  0  0  0  0  0  0  0  0
  151.5499  142.1213  158.9839 C   0  0  0  0  0  0  0  0  0  0  0  0
  151.3334  141.0429  158.4262 O   0  0  0  0  0  0  0  0  0  0  0  0
  149.0727  141.4267  154.2229 H   0  0  0  0  0  0  0  0  0  0  0  0
  148.1788  140.4972  153.0271 H   0  0  0  0  0  0  0  0  0  0  0  0
  148.5236  139.7963  154.6024 H   0  0  0  0  0  0  0  0  0  0  0  0
  146.1587  140.5379  154.4008 H   0  0  0  0  0  0  0  0  0  0  0  0
  147.2923  143.3432  154.0549 H   0  0  0  0  0  0  0  0  0  0  0  0
  146.4662  142.4099  152.8337 H   0  0  0  0  0  0  0  0  0  0  0  0
  144.9359  144.0581  153.9151 H   0  0  0  0  0  0  0  0  0  0  0  0
  144.3804  142.4162  154.1376 H   0  0  0  0  0  0  0  0  0  0  0  0
  145.8666  144.1162  156.1978 H   0  0  0  0  0  0  0  0  0  0  0  0
  144.1901  143.6367  156.2685 H   0  0  0  0  0  0  0  0  0  0  0  0
  145.6097  142.1919  157.7401 H   0  0  0  0  0  0  0  0  0  0  0  0
  144.8014  141.2685  156.5023 H   0  0  0  0  0  0  0  0  0  0  0  0
  147.0538  140.4787  156.6207 H   0  0  0  0  0  0  0  0  0  0  0  0
  148.1417  143.1907  156.0754 H   0  0  0  0  0  0  0  0  0  0  0  0
  149.5800  143.9262  157.1423 H   0  0  0  0  0  0  0  0  0  0  0  0
  150.4227  145.3804  159.1926 H   0  0  0  0  0  0  0  0  0  0  0  0
  152.3108  145.5119  160.8062 H   0  0  0  0  0  0  0  0  0  0  0  0
  153.6511  143.4634  161.2351 H   0  0  0  0  0  0  0  0  0  0  0  0
  153.1564  140.1930  159.8168 H   0  0  0  0  0  0  0  0  0  0  0  0
  153.4436  141.0118  161.3407 H   0  0  0  0  0  0  0  0  0  0  0  0
  154.4602  141.3654  159.9443 H   0  0  0  0  0  0  0  0  0  0  0  0
  1  2  1  0  0  0  0
  1 20  1  0  0  0  0
  1 21  1  0  0  0  0
  1 22  1  0  0  0  0
  2  7  1  0  0  0  0
  2  3  1  0  0  0  0
  2 23  1  0  0  0  0
  3  4  1  0  0  0  0
  3 24  1  0  0  0  0
  3 25  1  0  0  0  0
  4  5  1  0  0  0  0
  4 26  1  0  0  0  0
  4 27  1  0  0  0  0
  5  6  1  0  0  0  0
  5 28  1  0  0  0  0
  5 29  1  0  0  0  0
  6  7  1  0  0  0  0
  6 30  1  0  0  0  0
  6 31  1  0  0  0  0
  7  8  1  0  0  0  0
  7 32  1  0  0  0  0
  8  9  1  0  0  0  0
  8 33  1  0  0  0  0
  9 10  2  0  0  0  0
  9 11  1  0  0  0  0
 11 12  1  0  0  0  0
 11 34  1  0  0  0  0
 12 18  1  0  0  0  0
 12 13  2  0  0  0  0
 13 14  1  0  0  0  0
 13 35  1  0  0  0  0
 14 15  2  0  0  0  0
 14 36  1  0  0  0  0
 15 16  1  0  0  0  0
 15 37  1  0  0  0  0
 16 17  1  0  0  0  0
 16 18  1  0  0  0  0
 17 38  1  0  0  0  0
 17 39  1  0  0  0  0
 17 40  1  0  0  0  0
 18 19  2  0  0  0  0
M  END
> <s_m_source_file>
AV-unprocessed.smi

> <i_m_source_file_index>
2441

> <i_lp_mmshare_version>
43012

> <i_f3d_flags>
0

> <s_epik_input>
W0NIM11bQ0BASF0xW0NIMl1bQ0gyXVtDSDJdW0NIMl1bQ0BIXTFbTkhdQyg9TylbTkhdYzJbY0hdW2NIXVtjSF1uKFtDSDNdKWMyPU8=

> <s_epik_cmdline>
J2VwaWtfcHl0aG9uJywgJy1waCcsICc3LjAnLCAnLXRuJywgJzgnLCAnLW1hJywgJzIwMCcsICctbWV0YWxfYmluZGluZycsICctaW1hZScsICc8aW5maWxlLm1hZT4nLCAnLW9tYWUnLCAnPG91dGZpbGUubWFlPic=

> <r_lp_tautomer_probability>
1

> <r_epik_Ionization_Penalty>
2.64999e-05

> <r_epik_Ionization_Penalty_Charging>
5.09663e-06

> <r_epik_Ionization_Penalty_Neutral>
2.14032e-05

> <r_epik_State_Penalty>
-0

> <r_epik_Charging_Adjusted_Penalty>
5.09663e-06

> <i_epik_Tot_Q>
0

> <i_epik_Tot_abs_Q>
0

> <r_epik_Metal_State_Penalty>
-0

> <b_epik_Metal_Only>
0

> <s_lp_Force_Field>
OPLS_2005

> <r_lp_Energy>
23.2252

> <b_lp_Chiralities_Consistent>
1

> <s_lp_Variant>
AV-unprocessed.smi:2441-3

> <Gold.Version>
5.8.1

> <Gold.Id.Protein>
6NUR|6NUR_protein|mol2

> <Gold.PLP.Fitness>
44.3940

> <Gold.PLP.PLP>
-39.5043

> <Gold.PLP.part.hbond>
-2.7026

> <Gold.PLP.part.metal>
0.0000

> <Gold.PLP.part.buried>
-4.7520

> <Gold.PLP.part.nonpolar>
-32.2441

> <Gold.PLP.part.repulsive>
0.0781

> <Gold.PLP.ligand.clash>
0.0000

> <Gold.PLP.ligand.torsion>
0.5610

> <Gold.PLP.Chemscore.Hbond>
2.0000

> <Gold.PLP.Chemscore.CHOScore>
0.0000

> <Gold.PLP.Chemscore.Metal>
0.0000

> <Gold.Chemscore.Hbonds>
donor molecule, donor type, donor heavy atom, donor atom, acceptor molecule, acceptor atom, score
      L1  H     8    33       P1  8028  1.00
      L1  H    11    34       P1  8028  1.00

> <Gold.PLP.Chemscore.Internal.Correction>
0.0118

> <Gold.Rescore>
     Score         DG    S(hbond)    S(metal)    S(lipo)     H(rot)  DE(clash)    DE(int)     intcor
     16.45     -19.07       1.76        0.00      87.71       1.00       0.06       2.56       ----

> <Gold.Chemscore.Fitness>
16.4513

> <Gold.Chemscore.DG>
-19.0746

> <Gold.Chemscore.ZeroCoef>
-5.4800

> <Gold.Chemscore.Hbond>
1.7643

> <Gold.Chemscore.Metal>
0.0000

> <Gold.Chemscore.Lipo>
87.7083

> <Gold.Chemscore.Internal_Hbond>
0.0000

> <Gold.Chemscore.DEClash>
0.0601

> <Gold.Chemscore.DEInternal>
2.5632

> <Gold.Chemscore.Rot>
1.0000

> <Gold.Chemscore.Internal.Correction>
   9.000000E+99

> <Gold.Chemscore.Hbonds>
donor molecule, donor type, donor heavy atom, donor atom, acceptor molecule, acceptor atom, score
      L1  H     8    33       P1  8028  0.60
      L1  H    11    34       P1  8028  0.69

> <Gold.Chemscore.Hbond.Weighted>
-5.8928

> <Gold.Chemscore.Metal.Weighted>
-0.0000

> <Gold.Chemscore.Lipo.Weighted>
-10.2619

> <Gold.Chemscore.Internal_Hbond.Weighted>
0.0000

> <Gold.Chemscore.DEClash.Weighted>
0.0601

> <Gold.Chemscore.DEInternal.Weighted>
2.5632

> <Gold.Chemscore.Rot.Weighted>
2.5600

> <Gold.Chemscore.Internal.Correction.Weighted>
   9.000000E+99

> <Gold.Protein.RotatedTorsions>
[ 6907 6896 6895 6894 ] final -118.87 input  -60.11 | X-H torsion
[ 7974 7965 7964 7962 ] final  152.07 input  175.53 | X-H torsion
[ 8008 7997 7996 7995 ] final  -23.31 input   59.86 | X-H torsion
[ 10167 10162 10161 10158 ] final  -16.05 input  -65.29 | X-H torsion
[ 10718 10713 10712 10709 ] final   54.11 input   66.30 | X-H torsion
[ 10763 10752 10751 10750 ] final   40.53 input  -60.55 | X-H torsion
[ 11005 11000 10999 10996 ] final    2.99 input  -57.11 | X-H torsion

> <Gold.Protein.ActiveResidues>
 VAL166  LYS551  ARG553  GLY616  TRP617  ASP618  TYR619  PRO620  LYS621  CYS622 
 ASP623  PHE694  ASN695  SER759  ASP760  ASP761  ALA762  ILE779  LEU786  VAL792 
 PHE793  MET794  SER795  GLU796  ALA797  LYS798  CYS799  TRP800  GLU811  SER814 

> <Gold.Protein.RotatedAtoms>
  150.8256  133.8177  159.3119 H   0  0  0  0  0  0  0  0  0  0  0  0  # atno 6907 bound_to 6896
  151.5922  135.1051  160.0051 H   0  0  0  0  0  0  0  0  0  0  0  0  # atno 6908 bound_to 6896
  152.4341  133.7289  159.6632 H   0  0  0  0  0  0  0  0  0  0  0  0  # atno 6909 bound_to 6896
  144.8248  139.6621  143.6085 H   0  0  0  0  0  0  0  0  0  0  0  0  # atno 7974 bound_to 7965
  154.4592  140.1984  156.0291 H   0  0  0  0  0  0  0  0  0  0  0  0  # atno 8008 bound_to 7997
  156.0808  140.3272  155.7663 H   0  0  0  0  0  0  0  0  0  0  0  0  # atno 8009 bound_to 7997
  155.5115  140.0562  157.2913 H   0  0  0  0  0  0  0  0  0  0  0  0  # atno 8010 bound_to 7997
  140.7228  143.5156  150.9696 H   0  0  0  0  0  0  0  0  0  0  0  0  # atno 10167 bound_to 10162
  157.5227  130.8576  149.8580 H   0  0  0  0  0  0  0  0  0  0  0  0  # atno 10718 bound_to 10713
  152.9934  135.6189  154.2641 H   0  0  0  0  0  0  0  0  0  0  0  0  # atno 10763 bound_to 10752
  154.2376  135.2790  155.2868 H   0  0  0  0  0  0  0  0  0  0  0  0  # atno 10764 bound_to 10752
  154.5397  135.5764  153.6886 H   0  0  0  0  0  0  0  0  0  0  0  0  # atno 10765 bound_to 10752
  140.5981  133.9861  155.8119 H   0  0  0  0  0  0  0  0  0  0  0  0  # atno 11005 bound_to 11000
  146.2553  139.6289  142.9399 LP  0  0  0  0  0  0  0  0  0  0  0  0  # atno 17320 bound_to 7965
  145.5025  141.0437  143.2532 LP  0  0  0  0  0  0  0  0  0  0  0  0  # atno 17321 bound_to 7965
  139.8871  143.6999  152.3150 LP  0  0  0  0  0  0  0  0  0  0  0  0  # atno 17342 bound_to 10162
  139.7302  144.7584  151.0814 LP  0  0  0  0  0  0  0  0  0  0  0  0  # atno 17343 bound_to 10162
  156.0365  130.3750  150.1547 LP  0  0  0  0  0  0  0  0  0  0  0  0  # atno 17370 bound_to 10713
  156.9734  130.9842  151.3453 LP  0  0  0  0  0  0  0  0  0  0  0  0  # atno 17371 bound_to 10713
  141.0890  133.9945  157.3267 LP  0  0  0  0  0  0  0  0  0  0  0  0  # atno 17394 bound_to 11000
  139.9244  135.0201  156.8183 LP  0  0  0  0  0  0  0  0  0  0  0  0  # atno 17395 bound_to 11000

$$$$
