AV-unprocessed.smi:34|AV-procd|sdf|235|dock10
  -GOLD-   2262015573D 1   1.00000     0.00000
 Structure written by MMmdl.
 54 58  0  0  0  0  0  0  0  0  2 V2000
  141.0601  139.9747  157.0167 O   0  0  0  0  0  0  0  0  0  0  0  0
  141.4255  139.0558  156.2802 C   0  0  0  0  0  0  0  0  0  0  0  0
  142.6625  138.5052  156.1846 N   0  5  0  0  0  0  0  0  0  0  0  0
  143.7397  139.3006  156.0987 C   0  0  0  0  0  0  0  0  0  0  0  0
  143.5980  140.6511  156.0930 N   0  0  0  0  0  0  0  0  0  0  0  0
  144.6730  141.4441  156.0145 C   0  0  0  0  0  0  0  0  0  0  0  0
  145.9635  141.1052  155.9316 N   0  0  0  0  0  0  0  0  0  0  0  0
  146.1173  139.7489  155.9230 C   0  0  0  0  0  0  0  0  0  0  0  0
  145.0635  138.7920  155.9964 C   0  0  0  0  0  0  0  0  0  0  0  0
  145.5688  137.5004  155.9553 N   0  0  0  0  0  0  0  0  0  0  0  0
  146.8778  137.7265  155.8647 C   0  0  0  0  0  0  0  0  0  0  0  0
  147.2861  139.0118  155.8520 N   0  0  0  0  0  0  0  0  0  0  0  0
  148.6782  139.5418  155.7671 C   0  0  2  0  0  0  0  0  0  0  0  0
  148.7540  140.6451  156.6186 O   0  0  0  0  0  0  0  0  0  0  0  0
  149.5102  141.6830  156.0075 C   0  0  1  0  0  0  0  0  0  0  0  0
  151.0027  141.4754  156.3140 C   0  0  0  0  0  0  0  0  0  0  0  0
  151.3104  142.0506  157.5731 O   0  0  0  0  0  0  0  0  0  0  0  0
  152.1894  141.4417  158.3942 C   0  0  0  0  0  0  0  0  0  0  0  0
  152.7669  140.3888  158.1149 O   0  0  0  0  0  0  0  0  0  0  0  0
  152.3860  142.1712  159.6801 C   0  0  0  0  0  0  0  0  0  0  0  0
  153.0940  141.5432  160.7313 C   0  0  0  0  0  0  0  0  0  0  0  0
  153.2928  142.2055  161.9583 C   0  0  0  0  0  0  0  0  0  0  0  0
  152.7875  143.5048  162.1485 C   0  0  0  0  0  0  0  0  0  0  0  0
  152.0829  144.1411  161.1100 C   0  0  0  0  0  0  0  0  0  0  0  0
  151.8820  143.4798  159.8826 C   0  0  0  0  0  0  0  0  0  0  0  0
  149.1791  141.5259  154.5230 C   0  0  2  0  0  0  0  0  0  0  0  0
  148.0361  142.1601  154.2578 F   0  0  0  0  0  0  0  0  0  0  0  0
  148.9830  140.0266  154.3388 C   0  0  1  0  0  0  0  0  0  0  0  0
  150.1572  139.4363  153.8179 O   0  0  0  0  0  0  0  0  0  0  0  0
  140.4400  138.4791  155.2999 C   0  0  0  0  0  0  0  0  0  0  0  0
  140.6865  138.5902  153.9124 C   0  0  0  0  0  0  0  0  0  0  0  0
  139.7639  138.0812  152.9778 C   0  0  0  0  0  0  0  0  0  0  0  0
  138.5789  137.4646  153.4212 C   0  0  0  0  0  0  0  0  0  0  0  0
  138.3161  137.3601  154.7999 C   0  0  0  0  0  0  0  0  0  0  0  0
  139.2391  137.8675  155.7353 C   0  0  0  0  0  0  0  0  0  0  0  0
  144.4694  142.5046  156.0202 H   0  0  0  0  0  0  0  0  0  0  0  0
  147.5825  136.9100  155.8089 H   0  0  0  0  0  0  0  0  0  0  0  0
  149.3264  138.7343  156.1102 H   0  0  0  0  0  0  0  0  0  0  0  0
  149.1922  142.6591  156.3769 H   0  0  0  0  0  0  0  0  0  0  0  0
  151.2536  140.4138  156.3050 H   0  0  0  0  0  0  0  0  0  0  0  0
  151.6119  141.9619  155.5513 H   0  0  0  0  0  0  0  0  0  0  0  0
  153.4907  140.5456  160.6089 H   0  0  0  0  0  0  0  0  0  0  0  0
  153.8340  141.7151  162.7543 H   0  0  0  0  0  0  0  0  0  0  0  0
  152.9401  144.0124  163.0895 H   0  0  0  0  0  0  0  0  0  0  0  0
  151.6954  145.1388  161.2543 H   0  0  0  0  0  0  0  0  0  0  0  0
  151.3370  143.9966  159.1062 H   0  0  0  0  0  0  0  0  0  0  0  0
  149.9320  141.9573  153.8618 H   0  0  0  0  0  0  0  0  0  0  0  0
  148.1590  139.8073  153.6578 H   0  0  0  0  0  0  0  0  0  0  0  0
  149.9881  139.1602  152.9303 H   0  0  0  0  0  0  0  0  0  0  0  0
  141.5903  139.0634  153.5563 H   0  0  0  0  0  0  0  0  0  0  0  0
  139.9653  138.1662  151.9205 H   0  0  0  0  0  0  0  0  0  0  0  0
  137.8704  137.0764  152.7046 H   0  0  0  0  0  0  0  0  0  0  0  0
  137.4040  136.8936  155.1414 H   0  0  0  0  0  0  0  0  0  0  0  0
  139.0137  137.7872  156.7890 H   0  0  0  0  0  0  0  0  0  0  0  0
  1  2  2  0  0  0  0
  2  3  1  0  0  0  0
  2 30  1  0  0  0  0
  3  4  1  0  0  0  0
  4  9  1  0  0  0  0
  4  5  2  0  0  0  0
  5  6  1  0  0  0  0
  6  7  2  0  0  0  0
  6 36  1  0  0  0  0
  7  8  1  0  0  0  0
  8 12  1  0  0  0  0
  8  9  2  0  0  0  0
  9 10  1  0  0  0  0
 10 11  2  0  0  0  0
 11 12  1  0  0  0  0
 11 37  1  0  0  0  0
 12 13  1  0  0  0  0
 13 28  1  0  0  0  0
 13 14  1  0  0  0  0
 13 38  1  0  0  0  0
 14 15  1  0  0  0  0
 15 16  1  0  0  0  0
 15 26  1  0  0  0  0
 15 39  1  0  0  0  0
 16 17  1  0  0  0  0
 16 40  1  0  0  0  0
 16 41  1  0  0  0  0
 17 18  1  0  0  0  0
 18 19  2  0  0  0  0
 18 20  1  0  0  0  0
 20 25  1  0  0  0  0
 20 21  2  0  0  0  0
 21 22  1  0  0  0  0
 21 42  1  0  0  0  0
 22 23  2  0  0  0  0
 22 43  1  0  0  0  0
 23 24  1  0  0  0  0
 23 44  1  0  0  0  0
 24 25  2  0  0  0  0
 24 45  1  0  0  0  0
 25 46  1  0  0  0  0
 26 27  1  0  0  0  0
 26 28  1  0  0  0  0
 26 47  1  0  0  0  0
 28 29  1  0  0  0  0
 28 48  1  0  0  0  0
 29 49  1  0  0  0  0
 30 35  1  0  0  0  0
 30 31  2  0  0  0  0
 31 32  1  0  0  0  0
 31 50  1  0  0  0  0
 32 33  2  0  0  0  0
 32 51  1  0  0  0  0
 33 34  1  0  0  0  0
 33 52  1  0  0  0  0
 34 35  2  0  0  0  0
 34 53  1  0  0  0  0
 35 54  1  0  0  0  0
M  CHG  1   3  -1
M  END
> <s_m_source_file>
AV-unprocessed.smi

> <i_m_source_file_index>
34

> <i_lp_mmshare_version>
43012

> <i_f3d_flags>
0

> <s_epik_input>
W2NIXTFbY0hdW2NIXVtjSF1bY0hdYzFDKD1PKVtOSF1jKG5bY0hdbjIpYyhjMjMpbltjSF1uM1tDQEBIXTRPW0NASF0oW0NAQEhdKEYpW0NASF00W09IXSlbQ0gyXU9DKD1PKWM1W2NIXVtjSF1bY0hdW2NIXVtjSF01

> <s_epik_cmdline>
J2VwaWtfcHl0aG9uJywgJy1waCcsICc3LjAnLCAnLXRuJywgJzgnLCAnLW1hJywgJzIwMCcsICctbWV0YWxfYmluZGluZycsICctaW1hZScsICc8aW5maWxlLm1hZT4nLCAnLW9tYWUnLCAnPG91dGZpbGUubWFlPic=

> <r_lp_tautomer_probability>
1

> <r_epik_Ionization_Penalty>
4.33227

> <r_epik_Ionization_Penalty_Charging>
3.41027

> <r_epik_Ionization_Penalty_Neutral>
0.922001

> <r_epik_State_Penalty>
3.41358

> <r_epik_Charging_Adjusted_Penalty>
6.82385

> <i_epik_Tot_Q>
-1

> <i_epik_Tot_abs_Q>
1

> <r_epik_Metal_State_Penalty>
0.496292

> <b_epik_Metal_Only>
1

> <s_epik_Chemistry_Notes>
This compound has an ester and may undergo hydrolysis at high or low pH. This compound contains an acetal/aminal-like group ( X-CH(R)-Y where X, Y are N, S, or O) that may be acid/base labile, releasing an aldehyde.

> <s_lp_Force_Field>
OPLS_2005

> <r_lp_Energy>
42.8672

> <b_lp_Chiralities_Consistent>
1

> <s_lp_Variant>
AV-unprocessed.smi:34-21

> <Gold.Version>
5.8.1

> <Gold.Id.Protein>
6NUR|6NUR_protein|mol2

> <Gold.PLP.Fitness>
55.2065

> <Gold.PLP.PLP>
-52.0565

> <Gold.PLP.part.hbond>
-3.0000

> <Gold.PLP.part.metal>
0.0000

> <Gold.PLP.part.buried>
-3.2622

> <Gold.PLP.part.nonpolar>
-44.6026

> <Gold.PLP.part.repulsive>
0.2384

> <Gold.PLP.ligand.clash>
0.0000

> <Gold.PLP.ligand.torsion>
2.6199

> <Gold.PLP.Chemscore.Hbond>
2.6880

> <Gold.PLP.Chemscore.CHOScore>
0.0000

> <Gold.PLP.Chemscore.Metal>
0.0000

> <Gold.Chemscore.Hbonds>
donor molecule, donor type, donor heavy atom, donor atom, acceptor molecule, acceptor atom, score
      L1  H    29    49       P1  7957  0.75
      P1  H  7989  7998       L1    29  0.83
      P1  H  7997  8009       L1    19  0.67

> <Gold.PLP.Chemscore.Internal.Correction>
0.3258

> <Gold.Rescore>
     Score         DG    S(hbond)    S(metal)    S(lipo)     H(rot)  DE(clash)    DE(int)     intcor
     13.57     -20.25       1.94        0.00     129.86       2.69       0.25       6.43       ----

> <Gold.Chemscore.Fitness>
13.5724

> <Gold.Chemscore.DG>
-20.2528

> <Gold.Chemscore.ZeroCoef>
-5.4800

> <Gold.Chemscore.Hbond>
1.9390

> <Gold.Chemscore.Metal>
0.0000

> <Gold.Chemscore.Lipo>
129.8630

> <Gold.Chemscore.Internal_Hbond>
0.0000

> <Gold.Chemscore.DEClash>
0.2492

> <Gold.Chemscore.DEInternal>
6.4312

> <Gold.Chemscore.Rot>
2.6944

> <Gold.Chemscore.Internal.Correction>
   9.000000E+99

> <Gold.Chemscore.Hbonds>
donor molecule, donor type, donor heavy atom, donor atom, acceptor molecule, acceptor atom, score
      L1  H    29    49       P1  7957  0.67
      P1  H  7989  7998       L1    29  0.14
      P1  H  7997  8009       L1    19  0.66

> <Gold.Chemscore.Hbond.Weighted>
-6.4764

> <Gold.Chemscore.Metal.Weighted>
-0.0000

> <Gold.Chemscore.Lipo.Weighted>
-15.1940

> <Gold.Chemscore.Internal_Hbond.Weighted>
0.0000

> <Gold.Chemscore.DEClash.Weighted>
0.2492

> <Gold.Chemscore.DEInternal.Weighted>
6.4312

> <Gold.Chemscore.Rot.Weighted>
6.8975

> <Gold.Chemscore.Internal.Correction.Weighted>
   9.000000E+99

> <Gold.Protein.RotatedTorsions>
[ 6907 6896 6895 6894 ] final   27.17 input  -60.11 | X-H torsion
[ 7974 7965 7964 7962 ] final   72.60 input  175.53 | X-H torsion
[ 8008 7997 7996 7995 ] final  162.89 input   59.86 | X-H torsion
[ 10167 10162 10161 10158 ] final  104.37 input  -65.29 | X-H torsion
[ 10718 10713 10712 10709 ] final  -57.31 input   66.30 | X-H torsion
[ 10763 10752 10751 10750 ] final  -80.35 input  -60.55 | X-H torsion
[ 11005 11000 10999 10996 ] final -104.55 input  -57.11 | X-H torsion

> <Gold.Protein.ActiveResidues>
 VAL166  LYS551  ARG553  GLY616  TRP617  ASP618  TYR619  PRO620  LYS621  CYS622 
 ASP623  PHE694  ASN695  SER759  ASP760  ASP761  ALA762  ILE779  LEU786  VAL792 
 PHE793  MET794  SER795  GLU796  ALA797  LYS798  CYS799  TRP800  GLU811  SER814 

> <Gold.Protein.RotatedAtoms>
  151.9982  134.9942  160.0563 H   0  0  0  0  0  0  0  0  0  0  0  0  # atno 6907 bound_to 6896
  152.1544  133.4537  159.4838 H   0  0  0  0  0  0  0  0  0  0  0  0  # atno 6908 bound_to 6896
  150.6879  134.2067  159.4386 H   0  0  0  0  0  0  0  0  0  0  0  0  # atno 6909 bound_to 6896
  145.7514  139.2761  143.1429 H   0  0  0  0  0  0  0  0  0  0  0  0  # atno 7974 bound_to 7965
  156.1998  140.1738  156.7924 H   0  0  0  0  0  0  0  0  0  0  0  0  # atno 8008 bound_to 7997
  154.5576  140.0705  156.8799 H   0  0  0  0  0  0  0  0  0  0  0  0  # atno 8009 bound_to 7997
  155.2909  140.3355  155.4255 H   0  0  0  0  0  0  0  0  0  0  0  0  # atno 8010 bound_to 7997
  139.7183  144.7063  151.0914 H   0  0  0  0  0  0  0  0  0  0  0  0  # atno 10167 bound_to 10162
  156.1220  130.4165  150.0424 H   0  0  0  0  0  0  0  0  0  0  0  0  # atno 10718 bound_to 10713
  154.5501  135.5664  153.6915 H   0  0  0  0  0  0  0  0  0  0  0  0  # atno 10763 bound_to 10752
  152.9987  135.6249  154.2385 H   0  0  0  0  0  0  0  0  0  0  0  0  # atno 10764 bound_to 10752
  154.2320  135.2865  155.2866 H   0  0  0  0  0  0  0  0  0  0  0  0  # atno 10765 bound_to 10752
  141.1095  133.8733  157.1625 H   0  0  0  0  0  0  0  0  0  0  0  0  # atno 11005 bound_to 11000
  146.0353  140.8218  142.9855 LP  0  0  0  0  0  0  0  0  0  0  0  0  # atno 17320 bound_to 7965
  144.6849  140.2830  143.7289 LP  0  0  0  0  0  0  0  0  0  0  0  0  # atno 17321 bound_to 7965
  140.7748  143.5200  150.9548 LP  0  0  0  0  0  0  0  0  0  0  0  0  # atno 17342 bound_to 10162
  139.8886  143.6981  152.3148 LP  0  0  0  0  0  0  0  0  0  0  0  0  # atno 17343 bound_to 10162
  156.8359  130.9409  151.3634 LP  0  0  0  0  0  0  0  0  0  0  0  0  # atno 17370 bound_to 10713
  157.6403  130.8800  149.9436 LP  0  0  0  0  0  0  0  0  0  0  0  0  # atno 17371 bound_to 10713
  139.9981  135.0038  157.0129 LP  0  0  0  0  0  0  0  0  0  0  0  0  # atno 17394 bound_to 11000
  140.4814  134.1286  155.7217 LP  0  0  0  0  0  0  0  0  0  0  0  0  # atno 17395 bound_to 11000

$$$$
