AV-unprocessed.smi:148|AV-procd|sdf|1226|dock1
  -GOLD-   2262018423D 1   1.00000     0.00000
 Structure written by MMmdl.
 63 67  0  0  0  0  0  0  0  0  1 V2000
  152.0909  139.7816  155.4916 O   0  0  0  0  0  0  0  0  0  0  0  0
  151.8153  140.9272  156.2714 C   0  0  0  0  0  0  0  0  0  0  0  0
  151.9880  140.6375  157.7827 C   0  0  2  0  0  0  0  0  0  0  0  0
  150.6750  140.1643  158.4547 C   0  0  0  0  0  0  0  0  0  0  0  0
  150.6414  138.7338  158.7059 N   0  0  0  0  0  0  0  0  0  0  0  0
  151.4762  138.0271  159.5422 C   0  0  0  0  0  0  0  0  0  0  0  0
  151.2463  136.7436  159.6051 N   0  0  0  0  0  0  0  0  0  0  0  0
  150.1660  136.5558  158.7530 C   0  0  0  0  0  0  0  0  0  0  0  0
  149.4014  135.4250  158.3646 C   0  0  0  0  0  0  0  0  0  0  0  0
  149.6654  134.1877  158.8380 N   0  0  0  0  0  0  0  0  0  0  0  0
  149.9930  133.2896  157.7280 C   0  0  0  0  0  0  0  0  0  0  0  0
  150.5760  131.9658  158.2312 C   0  0  0  0  0  0  0  0  0  0  0  0
  149.6029  131.3132  159.2139 C   0  0  0  0  0  0  0  0  0  0  0  0
  149.2867  132.2857  160.3574 C   0  0  0  0  0  0  0  0  0  0  0  0
  148.7376  133.6490  159.8547 C   0  0  1  0  0  0  0  0  0  0  0  0
  148.4920  134.6181  161.0650 C   0  0  2  0  0  0  0  0  0  0  0  0
  147.6920  134.0144  162.2351 C   0  0  0  0  0  0  0  0  0  0  0  0
  147.2004  135.1943  163.0800 C   0  0  0  0  0  0  0  0  0  0  0  0
  147.2972  136.4319  162.1811 C   0  0  0  0  0  0  0  0  0  0  0  0
  147.7072  135.9233  160.7943 C   0  0  2  0  0  0  0  0  0  0  0  0
  146.5388  135.6738  160.0354 O   0  0  0  0  0  0  0  0  0  0  0  0
  148.3810  135.6137  157.4863 N   0  0  0  0  0  0  0  0  0  0  0  0
  148.1206  136.8404  157.0235 C   0  0  0  0  0  0  0  0  0  0  0  0
  148.7432  137.9879  157.3031 N   0  0  0  0  0  0  0  0  0  0  0  0
  149.7699  137.7961  158.1806 C   0  0  0  0  0  0  0  0  0  0  0  0
  152.6176  141.8346  158.5388 C   0  0  1  0  0  0  0  0  0  0  0  0
  151.7490  143.0784  158.6055 C   0  0  0  0  0  0  0  0  0  0  0  0
  152.3951  143.8557  159.7462 C   0  0  0  0  0  0  0  0  0  0  0  0
  152.8637  142.8695  160.6581 O   0  0  0  0  0  0  0  0  0  0  0  0
  152.8713  141.5903  160.0307 C   0  0  0  0  0  0  0  0  0  0  0  0
  152.5740  139.1654  156.0208 H   0  0  0  0  0  0  0  0  0  0  0  0
  152.4716  141.7357  155.9492 H   0  0  0  0  0  0  0  0  0  0  0  0
  150.8011  141.2615  156.0535 H   0  0  0  0  0  0  0  0  0  0  0  0
  152.6930  139.8081  157.8550 H   0  0  0  0  0  0  0  0  0  0  0  0
  150.5301  140.6670  159.4110 H   0  0  0  0  0  0  0  0  0  0  0  0
  149.8177  140.4314  157.8353 H   0  0  0  0  0  0  0  0  0  0  0  0
  152.2687  138.4979  160.1060 H   0  0  0  0  0  0  0  0  0  0  0  0
  149.0945  133.0906  157.1415 H   0  0  0  0  0  0  0  0  0  0  0  0
  150.7096  133.7688  157.0587 H   0  0  0  0  0  0  0  0  0  0  0  0
  150.7696  131.2979  157.3917 H   0  0  0  0  0  0  0  0  0  0  0  0
  151.5349  132.1446  158.7194 H   0  0  0  0  0  0  0  0  0  0  0  0
  148.6824  131.0374  158.6977 H   0  0  0  0  0  0  0  0  0  0  0  0
  150.0291  130.3913  159.6101 H   0  0  0  0  0  0  0  0  0  0  0  0
  148.5700  131.7973  161.0168 H   0  0  0  0  0  0  0  0  0  0  0  0
  150.1893  132.4505  160.9479 H   0  0  0  0  0  0  0  0  0  0  0  0
  147.7859  133.4484  159.3615 H   0  0  0  0  0  0  0  0  0  0  0  0
  149.4669  134.8971  161.4693 H   0  0  0  0  0  0  0  0  0  0  0  0
  146.8283  133.4695  161.8506 H   0  0  0  0  0  0  0  0  0  0  0  0
  148.2824  133.3174  162.8309 H   0  0  0  0  0  0  0  0  0  0  0  0
  146.1796  135.0262  163.4249 H   0  0  0  0  0  0  0  0  0  0  0  0
  147.8271  135.3235  163.9634 H   0  0  0  0  0  0  0  0  0  0  0  0
  146.3719  137.0097  162.1634 H   0  0  0  0  0  0  0  0  0  0  0  0
  148.0762  137.0906  162.5672 H   0  0  0  0  0  0  0  0  0  0  0  0
  148.2965  136.6835  160.2861 H   0  0  0  0  0  0  0  0  0  0  0  0
  146.6034  136.1517  159.2222 H   0  0  0  0  0  0  0  0  0  0  0  0
  147.2936  136.9135  156.3328 H   0  0  0  0  0  0  0  0  0  0  0  0
  153.5634  142.1072  158.0672 H   0  0  0  0  0  0  0  0  0  0  0  0
  151.7335  143.6448  157.6740 H   0  0  0  0  0  0  0  0  0  0  0  0
  150.7222  142.8162  158.8654 H   0  0  0  0  0  0  0  0  0  0  0  0
  153.2505  144.4254  159.3806 H   0  0  0  0  0  0  0  0  0  0  0  0
  151.7041  144.5498  160.2251 H   0  0  0  0  0  0  0  0  0  0  0  0
  152.0699  140.9935  160.4685 H   0  0  0  0  0  0  0  0  0  0  0  0
  153.8135  141.0723  160.2119 H   0  0  0  0  0  0  0  0  0  0  0  0
  1  2  1  0  0  0  0
  1 31  1  0  0  0  0
  2  3  1  0  0  0  0
  2 32  1  0  0  0  0
  2 33  1  0  0  0  0
  3  4  1  0  0  0  0
  3 26  1  0  0  0  0
  3 34  1  0  0  0  0
  4  5  1  0  0  0  0
  4 35  1  0  0  0  0
  4 36  1  0  0  0  0
  5 25  1  0  0  0  0
  5  6  1  0  0  0  0
  6  7  2  0  0  0  0
  6 37  1  0  0  0  0
  7  8  1  0  0  0  0
  8 25  2  0  0  0  0
  8  9  1  0  0  0  0
  9 10  1  0  0  0  0
  9 22  2  0  0  0  0
 10 15  1  0  0  0  0
 10 11  1  0  0  0  0
 11 12  1  0  0  0  0
 11 38  1  0  0  0  0
 11 39  1  0  0  0  0
 12 13  1  0  0  0  0
 12 40  1  0  0  0  0
 12 41  1  0  0  0  0
 13 14  1  0  0  0  0
 13 42  1  0  0  0  0
 13 43  1  0  0  0  0
 14 15  1  0  0  0  0
 14 44  1  0  0  0  0
 14 45  1  0  0  0  0
 15 16  1  0  0  0  0
 15 46  1  0  0  0  0
 16 20  1  0  0  0  0
 16 17  1  0  0  0  0
 16 47  1  0  0  0  0
 17 18  1  0  0  0  0
 17 48  1  0  0  0  0
 17 49  1  0  0  0  0
 18 19  1  0  0  0  0
 18 50  1  0  0  0  0
 18 51  1  0  0  0  0
 19 20  1  0  0  0  0
 19 52  1  0  0  0  0
 19 53  1  0  0  0  0
 20 21  1  0  0  0  0
 20 54  1  0  0  0  0
 21 55  1  0  0  0  0
 22 23  1  0  0  0  0
 23 24  2  0  0  0  0
 23 56  1  0  0  0  0
 24 25  1  0  0  0  0
 26 30  1  0  0  0  0
 26 27  1  0  0  0  0
 26 57  1  0  0  0  0
 27 28  1  0  0  0  0
 27 58  1  0  0  0  0
 27 59  1  0  0  0  0
 28 29  1  0  0  0  0
 28 60  1  0  0  0  0
 28 61  1  0  0  0  0
 29 30  1  0  0  0  0
 30 62  1  0  0  0  0
 30 63  1  0  0  0  0
M  END
> <s_m_source_file>
AV-unprocessed.smi

> <i_m_source_file_index>
148

> <i_lp_mmshare_version>
43012

> <i_f3d_flags>
0

> <s_epik_input>
W0NIMl0xT1tDSDJdW0NIMl1bQ0BIXTFbQ0BIXShbQ0gyXVtPSF0pW0NIMl1uKFtjSF1uMiljKGMyMyluW2NIXW5jM040W0NIMl1bQ0gyXVtDSDJdW0NIMl1bQ0BIXTRbQ0BASF01W0NIMl1bQ0gyXVtDSDJdW0NASF01W09IXQ==

> <s_epik_cmdline>
J2VwaWtfcHl0aG9uJywgJy1waCcsICc3LjAnLCAnLXRuJywgJzgnLCAnLW1hJywgJzIwMCcsICctbWV0YWxfYmluZGluZycsICctaW1hZScsICc8aW5maWxlLm1hZT4nLCAnLW9tYWUnLCAnPG91dGZpbGUubWFlPic=

> <r_lp_tautomer_probability>
1

> <r_epik_Ionization_Penalty>
0.00556303

> <r_epik_Ionization_Penalty_Charging>
0

> <r_epik_Ionization_Penalty_Neutral>
0.00556303

> <r_epik_State_Penalty>
0.00401767

> <r_epik_Charging_Adjusted_Penalty>
0.00401767

> <i_epik_Tot_Q>
0

> <i_epik_Tot_abs_Q>
0

> <r_epik_Metal_State_Penalty>
-0

> <b_epik_Metal_Only>
0

> <s_lp_Force_Field>
OPLS_2005

> <r_lp_Energy>
70.5735

> <b_lp_Chiralities_Consistent>
1

> <s_lp_Variant>
AV-unprocessed.smi:148-25

> <Gold.Version>
5.8.1

> <Gold.Id.Protein>
6NUR|6NUR_protein|mol2

> <Gold.PLP.Fitness>
48.2630

> <Gold.PLP.PLP>
-43.3206

> <Gold.PLP.part.hbond>
-3.0000

> <Gold.PLP.part.metal>
0.0000

> <Gold.PLP.part.buried>
-7.8577

> <Gold.PLP.part.nonpolar>
-32.6306

> <Gold.PLP.part.repulsive>
0.0044

> <Gold.PLP.ligand.clash>
0.0000

> <Gold.PLP.ligand.torsion>
1.4302

> <Gold.PLP.Chemscore.Hbond>
2.3839

> <Gold.PLP.Chemscore.CHOScore>
0.0000

> <Gold.PLP.Chemscore.Metal>
0.0000

> <Gold.Chemscore.Hbonds>
donor molecule, donor type, donor heavy atom, donor atom, acceptor molecule, acceptor atom, score
      P1  H  6896  6907       L1     7  1.00
      P1  H  6896  6909       L1    10  0.06
      P1  H  7989  7998       L1     1  0.18

> <Gold.PLP.Chemscore.Internal.Correction>
0.6512

> <Gold.Rescore>
     Score         DG    S(hbond)    S(metal)    S(lipo)     H(rot)  DE(clash)    DE(int)     intcor
     14.74     -16.51       1.80        0.00     115.41       3.32       0.00       1.77       ----

> <Gold.Chemscore.Fitness>
14.7385

> <Gold.Chemscore.DG>
-16.5111

> <Gold.Chemscore.ZeroCoef>
-5.4800

> <Gold.Chemscore.Hbond>
1.8049

> <Gold.Chemscore.Metal>
0.0000

> <Gold.Chemscore.Lipo>
115.4071

> <Gold.Chemscore.Internal_Hbond>
0.0000

> <Gold.Chemscore.DEClash>
0.0048

> <Gold.Chemscore.DEInternal>
1.7678

> <Gold.Chemscore.Rot>
3.3203

> <Gold.Chemscore.Internal.Correction>
   9.000000E+99

> <Gold.Chemscore.Hbonds>
donor molecule, donor type, donor heavy atom, donor atom, acceptor molecule, acceptor atom, score
      P1  H  6896  6907       L1     7  0.29
      P1  H  7989  7998       L1     1  0.02

> <Gold.Chemscore.Hbond.Weighted>
-6.0285

> <Gold.Chemscore.Metal.Weighted>
-0.0000

> <Gold.Chemscore.Lipo.Weighted>
-13.5026

> <Gold.Chemscore.Internal_Hbond.Weighted>
0.0000

> <Gold.Chemscore.DEClash.Weighted>
0.0048

> <Gold.Chemscore.DEInternal.Weighted>
1.7678

> <Gold.Chemscore.Rot.Weighted>
8.5000

> <Gold.Chemscore.Internal.Correction.Weighted>
   9.000000E+99

> <Gold.Protein.RotatedTorsions>
[ 6907 6896 6895 6894 ] final    3.29 input  -60.11 | X-H torsion
[ 7974 7965 7964 7962 ] final  -72.45 input  175.53 | X-H torsion
[ 8008 7997 7996 7995 ] final -147.12 input   59.86 | X-H torsion
[ 10167 10162 10161 10158 ] final   -6.14 input  -65.29 | X-H torsion
[ 10718 10713 10712 10709 ] final   99.33 input   66.30 | X-H torsion
[ 10763 10752 10751 10750 ] final  -46.64 input  -60.55 | X-H torsion
[ 11005 11000 10999 10996 ] final -128.71 input  -57.11 | X-H torsion

> <Gold.Protein.ActiveResidues>
 VAL166  LYS551  ARG553  GLY616  TRP617  ASP618  TYR619  PRO620  LYS621  CYS622 
 ASP623  PHE694  ASN695  SER759  ASP760  ASP761  ALA762  ILE779  LEU786  VAL792 
 PHE793  MET794  SER795  GLU796  ALA797  LYS798  CYS799  TRP800  GLU811  SER814 

> <Gold.Protein.RotatedAtoms>
  151.6226  135.1030  160.0104 H   0  0  0  0  0  0  0  0  0  0  0  0  # atno 6907 bound_to 6896
  152.4149  133.7018  159.6439 H   0  0  0  0  0  0  0  0  0  0  0  0  # atno 6908 bound_to 6896
  150.8038  133.8475  159.3237 H   0  0  0  0  0  0  0  0  0  0  0  0  # atno 6909 bound_to 6896
  145.6650  140.9240  143.0913 H   0  0  0  0  0  0  0  0  0  0  0  0  # atno 7974 bound_to 7965
  155.5704  140.0634  157.2808 H   0  0  0  0  0  0  0  0  0  0  0  0  # atno 8008 bound_to 7997
  154.4362  140.1870  156.0919 H   0  0  0  0  0  0  0  0  0  0  0  0  # atno 8009 bound_to 7997
  156.0380  140.3299  155.7216 H   0  0  0  0  0  0  0  0  0  0  0  0  # atno 8010 bound_to 7997
  140.6987  143.6228  150.8596 H   0  0  0  0  0  0  0  0  0  0  0  0  # atno 10167 bound_to 10162
  157.6878  131.0666  150.4932 H   0  0  0  0  0  0  0  0  0  0  0  0  # atno 10718 bound_to 10713
  154.0483  135.6634  153.4797 H   0  0  0  0  0  0  0  0  0  0  0  0  # atno 10763 bound_to 10752
  153.0474  135.5106  154.7775 H   0  0  0  0  0  0  0  0  0  0  0  0  # atno 10764 bound_to 10752
  154.6773  135.3039  154.9627 H   0  0  0  0  0  0  0  0  0  0  0  0  # atno 10765 bound_to 10752
  140.9493  134.1087  157.4077 H   0  0  0  0  0  0  0  0  0  0  0  0  # atno 11005 bound_to 11000
  144.7076  139.8498  143.7425 LP  0  0  0  0  0  0  0  0  0  0  0  0  # atno 17320 bound_to 7965
  146.1094  139.4097  143.0297 LP  0  0  0  0  0  0  0  0  0  0  0  0  # atno 17321 bound_to 7965
  139.9948  143.5807  152.2897 LP  0  0  0  0  0  0  0  0  0  0  0  0  # atno 17342 bound_to 10162
  139.6476  144.7659  151.2213 LP  0  0  0  0  0  0  0  0  0  0  0  0  # atno 17343 bound_to 10162
  156.5258  130.4173  149.6227 LP  0  0  0  0  0  0  0  0  0  0  0  0  # atno 17370 bound_to 10713
  156.3114  130.7231  151.2124 LP  0  0  0  0  0  0  0  0  0  0  0  0  # atno 17371 bound_to 10713
  139.8843  135.0061  156.6357 LP  0  0  0  0  0  0  0  0  0  0  0  0  # atno 17394 bound_to 11000
  140.7625  133.8806  155.8429 LP  0  0  0  0  0  0  0  0  0  0  0  0  # atno 17395 bound_to 11000

$$$$
