AV-unprocessed.smi:1403|AV-procd|sdf|5700|dock4
  -GOLD-   22720 5333D 1   1.00000     0.00000
 Structure written by MMmdl.
 36 37  0  0  0  0  0  0  0  0  1 V2000
  152.5224  138.3566  154.4310 C   0  0  0  0  0  0  0  0  0  0  0  0
  151.0562  138.0182  154.7408 C   0  0  1  0  0  0  0  0  0  0  0  0
  150.8799  138.0009  156.1908 N   0  0  0  0  0  0  0  0  0  0  0  0
  151.5377  137.2085  157.0512 C   0  0  0  0  0  0  0  0  0  0  0  0
  152.4150  136.4156  156.7060 O   0  0  0  0  0  0  0  0  0  0  0  0
  151.1473  137.3511  158.5292 C   0  0  0  0  0  0  0  0  0  0  0  0
  152.0743  138.2032  159.2885 N   0  0  0  0  0  0  0  0  0  0  0  0
  152.1029  139.5736  159.0726 C   0  0  0  0  0  0  0  0  0  0  0  0
  152.9403  140.4140  159.7254 C   0  0  0  0  0  0  0  0  0  0  0  0
  153.8796  139.8991  160.7158 C   0  0  0  0  0  0  0  0  0  0  0  0
  154.6757  140.5793  161.3591 O   0  0  0  0  0  0  0  0  0  0  0  0
  153.8220  138.5155  160.9035 N   0  0  0  0  0  0  0  0  0  0  0  0
  152.9624  137.6436  160.2333 C   0  0  0  0  0  0  0  0  0  0  0  0
  152.9961  136.4369  160.4721 O   0  0  0  0  0  0  0  0  0  0  0  0
  150.0739  139.0274  154.1109 C   0  0  1  0  0  0  0  0  0  0  0  0
  148.6072  138.8229  154.4957 C   0  0  0  0  0  0  0  0  0  0  0  0
  147.9950  140.2074  154.3445 C   0  0  0  0  0  0  0  0  0  0  0  0
  149.2027  141.1409  154.2329 C   0  0  0  0  0  0  0  0  0  0  0  0
  150.3181  140.3403  154.5926 O   0  0  0  0  0  0  0  0  0  0  0  0
  154.4565  138.1126  161.5776 H   0  0  0  0  0  0  0  0  0  0  0  0
  152.7182  138.3318  153.3590 H   0  0  0  0  0  0  0  0  0  0  0  0
  153.1963  137.6387  154.8992 H   0  0  0  0  0  0  0  0  0  0  0  0
  152.7871  139.3496  154.7956 H   0  0  0  0  0  0  0  0  0  0  0  0
  150.8531  137.0266  154.3322 H   0  0  0  0  0  0  0  0  0  0  0  0
  150.1807  138.6238  156.5675 H   0  0  0  0  0  0  0  0  0  0  0  0
  150.1349  137.7554  158.5745 H   0  0  0  0  0  0  0  0  0  0  0  0
  151.0843  136.3641  158.9923 H   0  0  0  0  0  0  0  0  0  0  0  0
  151.4274  139.9991  158.3443 H   0  0  0  0  0  0  0  0  0  0  0  0
  152.9157  141.4731  159.5124 H   0  0  0  0  0  0  0  0  0  0  0  0
  150.1740  139.0284  153.0235 H   0  0  0  0  0  0  0  0  0  0  0  0
  148.1123  138.0737  153.8771 H   0  0  0  0  0  0  0  0  0  0  0  0
  148.5301  138.5036  155.5360 H   0  0  0  0  0  0  0  0  0  0  0  0
  147.3707  140.2765  153.4531 H   0  0  0  0  0  0  0  0  0  0  0  0
  147.3765  140.4532  155.2083 H   0  0  0  0  0  0  0  0  0  0  0  0
  149.3274  141.4874  153.2060 H   0  0  0  0  0  0  0  0  0  0  0  0
  149.1198  142.0144  154.8799 H   0  0  0  0  0  0  0  0  0  0  0  0
  1  2  1  0  0  0  0
  1 21  1  0  0  0  0
  1 22  1  0  0  0  0
  1 23  1  0  0  0  0
  2  3  1  0  0  0  0
  2 15  1  0  0  0  0
  2 24  1  0  0  0  0
  3  4  1  0  0  0  0
  3 25  1  0  0  0  0
  4  5  2  0  0  0  0
  4  6  1  0  0  0  0
  6  7  1  0  0  0  0
  6 26  1  0  0  0  0
  6 27  1  0  0  0  0
  7 13  1  0  0  0  0
  7  8  1  0  0  0  0
  8  9  2  0  0  0  0
  8 28  1  0  0  0  0
  9 10  1  0  0  0  0
  9 29  1  0  0  0  0
 10 11  2  0  0  0  0
 10 12  1  0  0  0  0
 12 20  1  0  0  0  0
 12 13  1  0  0  0  0
 13 14  2  0  0  0  0
 15 19  1  0  0  0  0
 15 16  1  0  0  0  0
 15 30  1  0  0  0  0
 16 17  1  0  0  0  0
 16 31  1  0  0  0  0
 16 32  1  0  0  0  0
 17 18  1  0  0  0  0
 17 33  1  0  0  0  0
 17 34  1  0  0  0  0
 18 19  1  0  0  0  0
 18 35  1  0  0  0  0
 18 36  1  0  0  0  0
M  END
> <s_m_source_file>
AV-unprocessed.smi

> <i_m_source_file_index>
1403

> <i_lp_mmshare_version>
43012

> <i_f3d_flags>
0

> <s_epik_input>
TzFbQ0gyXVtDSDJdW0NIMl1bQ0BIXTFbQ0BIXShbQ0gzXSlbTkhdQyg9TylbQ0gyXW4yW2NIXVtjSF1jKD1PKVtuSF1jMj1P

> <s_epik_cmdline>
J2VwaWtfcHl0aG9uJywgJy1waCcsICc3LjAnLCAnLXRuJywgJzgnLCAnLW1hJywgJzIwMCcsICctbWV0YWxfYmluZGluZycsICctaW1hZScsICc8aW5maWxlLm1hZT4nLCAnLW9tYWUnLCAnPG91dGZpbGUubWFlPic=

> <r_lp_tautomer_probability>
0.999537

> <r_epik_Ionization_Penalty>
0.00331407

> <r_epik_Ionization_Penalty_Charging>
0.00331405

> <r_epik_Ionization_Penalty_Neutral>
2.30132e-08

> <r_epik_State_Penalty>
0.00234266

> <r_epik_Charging_Adjusted_Penalty>
0.00565671

> <i_epik_Tot_Q>
0

> <i_epik_Tot_abs_Q>
0

> <r_epik_Metal_State_Penalty>
0.365604

> <b_epik_Metal_Only>
0

> <s_lp_Force_Field>
OPLS_2005

> <r_lp_Energy>
17.8488

> <b_lp_Chiralities_Consistent>
1

> <s_lp_Variant>
AV-unprocessed.smi:1403-4

> <Gold.Version>
5.8.1

> <Gold.Id.Protein>
6NUR|6NUR_protein|mol2

> <Gold.PLP.Fitness>
38.7478

> <Gold.PLP.PLP>
-31.0291

> <Gold.PLP.part.hbond>
-3.7604

> <Gold.PLP.part.metal>
0.0000

> <Gold.PLP.part.buried>
-4.3197

> <Gold.PLP.part.nonpolar>
-23.0622

> <Gold.PLP.part.repulsive>
0.1458

> <Gold.PLP.ligand.clash>
0.0000

> <Gold.PLP.ligand.torsion>
0.4334

> <Gold.PLP.Chemscore.Hbond>
2.8450

> <Gold.PLP.Chemscore.CHOScore>
0.0000

> <Gold.PLP.Chemscore.Metal>
0.0000

> <Gold.Chemscore.Hbonds>
donor molecule, donor type, donor heavy atom, donor atom, acceptor molecule, acceptor atom, score
      P1  H  6896  6908       L1    14  1.00
      P1  H  7989  7998       L1    19  1.00
      P1  H 10752 10763       L1     5  0.90

> <Gold.PLP.Chemscore.Internal.Correction>
0.0505

> <Gold.Rescore>
     Score         DG    S(hbond)    S(metal)    S(lipo)     H(rot)  DE(clash)    DE(int)     intcor
     13.53     -15.07       2.36        0.00      59.32       2.04       0.12       1.42       ----

> <Gold.Chemscore.Fitness>
13.5303

> <Gold.Chemscore.DG>
-15.0683

> <Gold.Chemscore.ZeroCoef>
-5.4800

> <Gold.Chemscore.Hbond>
2.3560

> <Gold.Chemscore.Metal>
0.0000

> <Gold.Chemscore.Lipo>
59.3194

> <Gold.Chemscore.Internal_Hbond>
0.0000

> <Gold.Chemscore.DEClash>
0.1195

> <Gold.Chemscore.DEInternal>
1.4184

> <Gold.Chemscore.Rot>
2.0395

> <Gold.Chemscore.Internal.Correction>
   9.000000E+99

> <Gold.Chemscore.Hbonds>
donor molecule, donor type, donor heavy atom, donor atom, acceptor molecule, acceptor atom, score
      P1  H  6896  6908       L1    14  1.00
      P1  H  7989  7998       L1    19  0.13
      P1  H 10752 10763       L1     5  0.82

> <Gold.Chemscore.Hbond.Weighted>
-7.8690

> <Gold.Chemscore.Metal.Weighted>
-0.0000

> <Gold.Chemscore.Lipo.Weighted>
-6.9404

> <Gold.Chemscore.Internal_Hbond.Weighted>
0.0000

> <Gold.Chemscore.DEClash.Weighted>
0.1195

> <Gold.Chemscore.DEInternal.Weighted>
1.4184

> <Gold.Chemscore.Rot.Weighted>
5.2211

> <Gold.Chemscore.Internal.Correction.Weighted>
   9.000000E+99

> <Gold.Protein.RotatedTorsions>
[ 6907 6896 6895 6894 ] final  -96.10 input  -60.11 | X-H torsion
[ 7974 7965 7964 7962 ] final  156.51 input  175.53 | X-H torsion
[ 8008 7997 7996 7995 ] final  101.35 input   59.86 | X-H torsion
[ 10167 10162 10161 10158 ] final  142.64 input  -65.29 | X-H torsion
[ 10718 10713 10712 10709 ] final  113.93 input   66.30 | X-H torsion
[ 10763 10752 10751 10750 ] final  121.60 input  -60.55 | X-H torsion
[ 11005 11000 10999 10996 ] final  167.52 input  -57.11 | X-H torsion

> <Gold.Protein.ActiveResidues>
 VAL166  LYS551  ARG553  GLY616  TRP617  ASP618  TYR619  PRO620  LYS621  CYS622 
 ASP623  PHE694  ASN695  SER759  ASP760  ASP761  ALA762  ILE779  LEU786  VAL792 
 PHE793  MET794  SER795  GLU796  ALA797  LYS798  CYS799  TRP800  GLU811  SER814 

> <Gold.Protein.RotatedAtoms>
  150.6980  134.1555  159.4156 H   0  0  0  0  0  0  0  0  0  0  0  0  # atno 6907 bound_to 6896
  151.9537  135.0154  160.0553 H   0  0  0  0  0  0  0  0  0  0  0  0  # atno 6908 bound_to 6896
  152.1988  133.4791  159.5084 H   0  0  0  0  0  0  0  0  0  0  0  0  # atno 6909 bound_to 6896
  144.7959  139.7213  143.6202 H   0  0  0  0  0  0  0  0  0  0  0  0  # atno 7974 bound_to 7965
  156.1291  140.3199  155.8321 H   0  0  0  0  0  0  0  0  0  0  0  0  # atno 8008 bound_to 7997
  155.4366  140.0522  157.3031 H   0  0  0  0  0  0  0  0  0  0  0  0  # atno 8009 bound_to 7997
  154.4885  140.2082  155.9614 H   0  0  0  0  0  0  0  0  0  0  0  0  # atno 8010 bound_to 7997
  139.4989  144.6093  151.6307 H   0  0  0  0  0  0  0  0  0  0  0  0  # atno 10167 bound_to 10162
  157.6310  131.0991  150.7112 H   0  0  0  0  0  0  0  0  0  0  0  0  # atno 10718 bound_to 10713
  153.6167  135.3420  155.2997 H   0  0  0  0  0  0  0  0  0  0  0  0  # atno 10763 bound_to 10752
  154.8608  135.4263  154.2251 H   0  0  0  0  0  0  0  0  0  0  0  0  # atno 10764 bound_to 10752
  153.3115  135.7032  153.7184 H   0  0  0  0  0  0  0  0  0  0  0  0  # atno 10765 bound_to 10752
  140.2776  134.7776  157.3730 H   0  0  0  0  0  0  0  0  0  0  0  0  # atno 11005 bound_to 11000
  146.2226  139.5664  142.9608 LP  0  0  0  0  0  0  0  0  0  0  0  0  # atno 17320 bound_to 7965
  145.5675  141.0398  143.2192 LP  0  0  0  0  0  0  0  0  0  0  0  0  # atno 17321 bound_to 7965
  140.5764  144.0022  150.6244 LP  0  0  0  0  0  0  0  0  0  0  0  0  # atno 17342 bound_to 10162
  140.3156  143.3170  152.0835 LP  0  0  0  0  0  0  0  0  0  0  0  0  # atno 17343 bound_to 10162
  156.7451  130.4751  149.5469 LP  0  0  0  0  0  0  0  0  0  0  0  0  # atno 17370 bound_to 10713
  156.1514  130.6312  151.0601 LP  0  0  0  0  0  0  0  0  0  0  0  0  # atno 17371 bound_to 10713
  140.1313  134.5091  155.8103 LP  0  0  0  0  0  0  0  0  0  0  0  0  # atno 17394 bound_to 11000
  141.2168  133.6791  156.7045 LP  0  0  0  0  0  0  0  0  0  0  0  0  # atno 17395 bound_to 11000

$$$$
