#       Name:                AV-unprocessed.smi:2592
#       Creating user name   scv26
#       Creation time:       Fri Mar 27 14:17:22 2020


#       File generated by GOLD software.
#

@<TRIPOS>MOLECULE
AV-unprocessed.smi:2592
    48    49     1
SMALL
NO_CHARGES


@<TRIPOS>ATOM
      1 ****        -4.8878   4.1729   0.0235 C.3            1 S1                 0.0000
      2 ****        -4.6930   2.9073  -0.7539 C.2            1 S1                 0.0000
      3 ****        -3.4111   2.3631  -0.8769 N.2            1 S1                 0.0000
      4 ****        -3.4057   1.2383  -1.5992 C.2            1 S1                 0.0000
      5 ****        -2.2435   0.4758  -1.8872 N.am           1 S1                 0.0000
      6 ****        -0.9788   0.7074  -1.4942 C.2            1 S1                 0.0000
      7 ****        -0.6123   1.6517  -0.7938 O.2            1 S1                 0.0000
      8 ****        -0.1452  -0.2328  -1.9624 N.am           1 S1                 0.0000
      9 ****         1.2912  -0.2777  -1.7136 C.3            1 S1                 0.0000
     10 ****         1.6096  -0.9050  -0.3470 C.3            1 S1                 0.0000
     11 ****         3.1232  -0.9905  -0.0869 C.3            1 S1                 0.0000
     12 ****         3.4970  -1.4533   1.2490 N.3            1 S1                 0.0000
     13 ****         3.1420  -2.8521   1.4803 C.3            1 S1                 0.0000
     14 ****         3.5718  -3.3309   2.8783 C.3            1 S1                 0.0000
     15 ****         4.9707  -3.1264   3.0467 O.3            1 S1                 0.0000
     16 ****         5.3492  -1.7645   2.8776 C.3            1 S1                 0.0000
     17 ****         4.9283  -1.2843   1.4778 C.3            1 S1                 0.0000
     18 ****        -4.9931   0.7684  -2.1823 S.3            1 S1                 0.0000
     19 ****        -5.6655   2.1740  -1.3939 C.2            1 S1                 0.0000
     20 ****        -7.1278   2.4645  -1.4639 C.3            1 S1                 0.0000
     21 ****        -5.4381   4.9114  -0.5598 H              1 S1                 0.0000
     22 ****        -3.9360   4.6235   0.3078 H              1 S1                 0.0000
     23 ****        -5.4507   3.9874   0.9383 H              1 S1                 0.0000
     24 ****        -2.3936  -0.3430  -2.4577 H              1 S1                 0.0000
     25 ****        -0.5316  -0.9723  -2.5305 H              1 S1                 0.0000
     26 ****         1.7523  -0.8657  -2.5074 H              1 S1                 0.0000
     27 ****         1.7162   0.7251  -1.7838 H              1 S1                 0.0000
     28 ****         1.1425  -0.3167   0.4440 H              1 S1                 0.0000
     29 ****         1.1619  -1.8977  -0.3030 H              1 S1                 0.0000
     30 ****         3.5884  -1.6265  -0.8415 H              1 S1                 0.0000
     31 ****         3.5396   0.0064  -0.2386 H              1 S1                 0.0000
     32 ****         2.0660  -2.9917   1.3825 H              1 S1                 0.0000
     33 ****         3.6105  -3.4832   0.7233 H              1 S1                 0.0000
     34 ****         3.0228  -2.7963   3.6553 H              1 S1                 0.0000
     35 ****         3.3495  -4.3910   3.0005 H              1 S1                 0.0000
     36 ****         4.8868  -1.1512   3.6527 H              1 S1                 0.0000
     37 ****         6.4287  -1.6765   3.0002 H              1 S1                 0.0000
     38 ****         5.4911  -1.8374   0.7239 H              1 S1                 0.0000
     39 ****         5.2007  -0.2347   1.3618 H              1 S1                 0.0000
     40 ****        -7.5286   2.6790  -0.4729 H              1 S1                 0.0000
     41 ****        -7.6797   1.6174  -1.8715 H              1 S1                 0.0000
     42 ****        -7.3185   3.3286  -2.1005 H              1 S1                 0.0000
     43 ****        -2.5921   2.7688  -0.4711 LP             1 S1                 0.0000
     44 ****        -1.2793   2.3229  -0.4706 LP             1 S1                 0.0000
     45 ****         0.3524   1.7472  -0.5483 LP             1 S1                 0.0000
     46 ****         2.9788  -0.8895   1.8920 LP             1 S1                 0.0000
     47 ****         5.4589  -3.6806   2.3724 LP             1 S1                 0.0000
     48 ****         5.2285  -3.4185   3.9677 LP             1 S1                 0.0000
@<TRIPOS>BOND
    1    1    2 1     
    2    1   21 1     
    3    1   22 1     
    4    1   23 1     
    5    2   19 2     
    6    2    3 1     
    7    3    4 2     
    8    4    5 1     
    9    4   18 1     
   10    5    6 am    
   11    5   24 1     
   12    6    7 2     
   13    6    8 am    
   14    8    9 1     
   15    8   25 1     
   16    9   10 1     
   17    9   26 1     
   18    9   27 1     
   19   10   11 1     
   20   10   28 1     
   21   10   29 1     
   22   11   12 1     
   23   11   30 1     
   24   11   31 1     
   25   12   17 1     
   26   12   13 1     
   27   13   14 1     
   28   13   32 1     
   29   13   33 1     
   30   14   15 1     
   31   14   34 1     
   32   14   35 1     
   33   15   16 1     
   34   16   17 1     
   35   16   36 1     
   36   16   37 1     
   37   17   38 1     
   38   17   39 1     
   39   18   19 1     
   40   19   20 1     
   41   20   40 1     
   42   20   41 1     
   43   20   42 1     
   44    3   43 1     
   45    7   44 1     
   46    7   45 1     
   47   12   46 1     
   48   15   47 1     
   49   15   48 1     
@<TRIPOS>SUBSTRUCTURE
      1 S1             1
@<TRIPOS>SET
LONE_PAIRS      STATIC     ATOMS    <user>   **** ""
6 43 44 45 46 47 48
DONOR_HYDROGENS      STATIC     ATOMS    <user>   **** ""
2 24 25
ATOM$BLUE        STATIC     ATOMS    COLORGROUP SYSTEM
6 43 44 45 46 47 48
ATOM$RED        STATIC     ATOMS    COLORGROUP SYSTEM
2 24 25
