AV-unprocessed.smi:37|AV-procd|sdf|325|dock6
  -GOLD-   2262016153D 1   1.00000     0.00000
 Structure written by MMmdl.
 43 44  0  0  0  0  0  0  0  0  2 V2000
  148.9812  133.2136  153.9439 C   0  0  0  0  0  0  0  0  0  0  0  0
  148.9650  134.6143  154.5712 C   0  0  0  0  0  0  0  0  0  0  0  0
  150.0506  134.7648  155.6322 C   0  0  0  0  0  0  0  0  0  0  0  0
  150.8125  133.8368  155.9040 O   0  0  0  0  0  0  0  0  0  0  0  0
  150.0354  135.9789  156.2145 O   0  0  0  0  0  0  0  0  0  0  0  0
  151.2242  136.5414  156.7546 C   0  0  0  0  0  0  0  0  0  0  0  0
  150.8762  137.4472  157.9468 C   0  0  2  0  0  0  0  0  0  0  0  0
  150.4298  136.6199  159.0186 O   0  0  0  0  0  0  0  0  0  0  0  0
  149.1804  137.0496  159.4573 C   0  0  2  0  0  0  0  0  0  0  0  0
  148.3687  135.8892  159.9972 N   0  0  0  0  0  0  0  0  0  0  0  0
  147.9340  135.9543  161.3087 C   0  0  0  0  0  0  0  0  0  0  0  0
  147.2190  134.9554  161.8647 C   0  0  0  0  0  0  0  0  0  0  0  0
  146.8069  135.0566  163.1401 F   0  0  0  0  0  0  0  0  0  0  0  0
  146.8979  133.7702  161.0732 C   0  0  0  0  0  0  0  0  0  0  0  0
  146.2330  132.8679  161.5799 O   0  0  0  0  0  0  0  0  0  0  0  0
  147.3586  133.7177  159.7905 N   0  5  0  0  0  0  0  0  0  0  0  0
  148.0905  134.7223  159.2252 C   0  0  0  0  0  0  0  0  0  0  0  0
  148.5245  134.6581  158.0757 O   0  0  0  0  0  0  0  0  0  0  0  0
  148.5239  137.8610  158.3295 C   0  0  2  0  0  0  0  0  0  0  0  0
  147.5052  136.8036  156.9770 Br  0  0  0  0  0  0  0  0  0  0  0  0
  149.7477  138.4532  157.6541 C   0  0  1  0  0  0  0  0  0  0  0  0
  150.0890  139.7036  158.2421 O   0  0  0  0  0  0  0  0  0  0  0  0
  151.3086  140.2402  158.0488 C   0  0  0  0  0  0  0  0  0  0  0  0
  152.0182  140.0893  157.0544 O   0  0  0  0  0  0  0  0  0  0  0  0
  151.7696  141.0903  159.2301 C   0  0  0  0  0  0  0  0  0  0  0  0
  151.9415  142.5668  158.8492 C   0  0  0  0  0  0  0  0  0  0  0  0
  148.2066  133.1240  153.1826 H   0  0  0  0  0  0  0  0  0  0  0  0
  148.8030  132.4380  154.6899 H   0  0  0  0  0  0  0  0  0  0  0  0
  149.9395  133.0051  153.4670 H   0  0  0  0  0  0  0  0  0  0  0  0
  149.1135  135.3707  153.8000 H   0  0  0  0  0  0  0  0  0  0  0  0
  147.9938  134.8102  155.0264 H   0  0  0  0  0  0  0  0  0  0  0  0
  151.9577  135.7852  157.0367 H   0  0  0  0  0  0  0  0  0  0  0  0
  151.6878  137.1414  155.9713 H   0  0  0  0  0  0  0  0  0  0  0  0
  151.7808  137.9644  158.2706 H   0  0  0  0  0  0  0  0  0  0  0  0
  149.3745  137.6850  160.3230 H   0  0  0  0  0  0  0  0  0  0  0  0
  148.1634  136.8262  161.9036 H   0  0  0  0  0  0  0  0  0  0  0  0
  147.8449  138.6091  158.7392 H   0  0  0  0  0  0  0  0  0  0  0  0
  149.5848  138.5732  156.5837 H   0  0  0  0  0  0  0  0  0  0  0  0
  151.0446  140.9935  160.0383 H   0  0  0  0  0  0  0  0  0  0  0  0
  152.7136  140.6921  159.6033 H   0  0  0  0  0  0  0  0  0  0  0  0
  152.3080  143.1418  159.6997 H   0  0  0  0  0  0  0  0  0  0  0  0
  150.9972  143.0116  158.5335 H   0  0  0  0  0  0  0  0  0  0  0  0
  152.6588  142.6856  158.0366 H   0  0  0  0  0  0  0  0  0  0  0  0
  1  2  1  0  0  0  0
  1 27  1  0  0  0  0
  1 28  1  0  0  0  0
  1 29  1  0  0  0  0
  2  3  1  0  0  0  0
  2 30  1  0  0  0  0
  2 31  1  0  0  0  0
  3  4  2  0  0  0  0
  3  5  1  0  0  0  0
  5  6  1  0  0  0  0
  6  7  1  0  0  0  0
  6 32  1  0  0  0  0
  6 33  1  0  0  0  0
  7 21  1  0  0  0  0
  7  8  1  0  0  0  0
  7 34  1  0  0  0  0
  8  9  1  0  0  0  0
  9 10  1  0  0  0  0
  9 19  1  0  0  0  0
  9 35  1  0  0  0  0
 10 17  1  0  0  0  0
 10 11  1  0  0  0  0
 11 12  2  0  0  0  0
 11 36  1  0  0  0  0
 12 13  1  0  0  0  0
 12 14  1  0  0  0  0
 14 15  2  0  0  0  0
 14 16  1  0  0  0  0
 16 17  1  0  0  0  0
 17 18  2  0  0  0  0
 19 20  1  0  0  0  0
 19 21  1  0  0  0  0
 19 37  1  0  0  0  0
 21 22  1  0  0  0  0
 21 38  1  0  0  0  0
 22 23  1  0  0  0  0
 23 24  2  0  0  0  0
 23 25  1  0  0  0  0
 25 26  1  0  0  0  0
 25 39  1  0  0  0  0
 25 40  1  0  0  0  0
 26 41  1  0  0  0  0
 26 42  1  0  0  0  0
 26 43  1  0  0  0  0
M  CHG  1  16  -1
M  END
> <s_m_source_file>
AV-unprocessed.smi

> <i_m_source_file_index>
37

> <i_lp_mmshare_version>
43012

> <i_f3d_flags>
0

> <s_epik_input>
W0NIM11bQ0gyXUMoPU8pT1tDSDJdW0NAQEhdMU9bQ0BASF0objJbY0hdYyhGKWMoPU8pW25IXWMyPU8pW0NAQEhdKEJyKVtDQEhdMU9DKD1PKVtDSDJdW0NIM10=

> <s_epik_cmdline>
J2VwaWtfcHl0aG9uJywgJy1waCcsICc3LjAnLCAnLXRuJywgJzgnLCAnLW1hJywgJzIwMCcsICctbWV0YWxfYmluZGluZycsICctaW1hZScsICc8aW5maWxlLm1hZT4nLCAnLW9tYWUnLCAnPG91dGZpbGUubWFlPic=

> <r_epik_Ionization_Penalty>
1.08158

> <r_epik_Ionization_Penalty_Charging>
9.05154e-09

> <r_epik_Ionization_Penalty_Neutral>
1.08158

> <r_epik_State_Penalty>
1.13706

> <r_epik_Charging_Adjusted_Penalty>
1.13706

> <i_epik_Tot_Q>
-1

> <i_epik_Tot_abs_Q>
1

> <r_epik_Metal_State_Penalty>
0.00343535

> <b_epik_Metal_Only>
0

> <s_epik_Chemistry_Notes>
This compound has an ester and may undergo hydrolysis at high or low pH. This compound contains an acetal/aminal-like group ( X-CH(R)-Y where X, Y are N, S, or O) that may be acid/base labile, releasing an aldehyde.

> <s_lp_Force_Field>
OPLS_2005

> <r_lp_Energy>
32.7064

> <b_lp_Chiralities_Consistent>
1

> <s_lp_Variant>
AV-unprocessed.smi:37-23

> <Gold.Version>
5.8.1

> <Gold.Id.Protein>
6NUR|6NUR_protein|mol2

> <Gold.PLP.Fitness>
40.8339

> <Gold.PLP.PLP>
-36.9767

> <Gold.PLP.part.hbond>
-2.2890

> <Gold.PLP.part.metal>
0.0000

> <Gold.PLP.part.buried>
-5.3665

> <Gold.PLP.part.nonpolar>
-29.3676

> <Gold.PLP.part.repulsive>
0.0287

> <Gold.PLP.ligand.clash>
0.0000

> <Gold.PLP.ligand.torsion>
1.1678

> <Gold.PLP.Chemscore.Hbond>
2.0000

> <Gold.PLP.Chemscore.CHOScore>
0.0000

> <Gold.PLP.Chemscore.Metal>
0.0000

> <Gold.Chemscore.Hbonds>
donor molecule, donor type, donor heavy atom, donor atom, acceptor molecule, acceptor atom, score
      P1  H  6896  6908       L1     8  1.00
      P1  H  7997  8010       L1    24  0.11

> <Gold.PLP.Chemscore.Internal.Correction>
0.1927

> <Gold.Rescore>
     Score         DG    S(hbond)    S(metal)    S(lipo)     H(rot)  DE(clash)    DE(int)     intcor
      4.40     -10.60       1.96        0.00      59.28       3.27       0.16       6.05       ----

> <Gold.Chemscore.Fitness>
4.3989

> <Gold.Chemscore.DG>
-10.6040

> <Gold.Chemscore.ZeroCoef>
-5.4800

> <Gold.Chemscore.Hbond>
1.9617

> <Gold.Chemscore.Metal>
0.0000

> <Gold.Chemscore.Lipo>
59.2757

> <Gold.Chemscore.Internal_Hbond>
0.0000

> <Gold.Chemscore.DEClash>
0.1592

> <Gold.Chemscore.DEInternal>
6.0459

> <Gold.Chemscore.Rot>
3.2669

> <Gold.Chemscore.Internal.Correction>
   9.000000E+99

> <Gold.Chemscore.Hbonds>
donor molecule, donor type, donor heavy atom, donor atom, acceptor molecule, acceptor atom, score
      P1  H  6896  6908       L1     8  0.88
      P1  H  7997  8010       L1    24  0.14

> <Gold.Chemscore.Hbond.Weighted>
-6.5521

> <Gold.Chemscore.Metal.Weighted>
-0.0000

> <Gold.Chemscore.Lipo.Weighted>
-6.9353

> <Gold.Chemscore.Internal_Hbond.Weighted>
0.0000

> <Gold.Chemscore.DEClash.Weighted>
0.1592

> <Gold.Chemscore.DEInternal.Weighted>
6.0459

> <Gold.Chemscore.Rot.Weighted>
8.3634

> <Gold.Chemscore.Internal.Correction.Weighted>
   9.000000E+99

> <Gold.Protein.RotatedTorsions>
[ 6907 6896 6895 6894 ] final -160.77 input  -60.11 | X-H torsion
[ 7974 7965 7964 7962 ] final  117.05 input  175.53 | X-H torsion
[ 8008 7997 7996 7995 ] final   64.06 input   59.86 | X-H torsion
[ 10167 10162 10161 10158 ] final  125.81 input  -65.29 | X-H torsion
[ 10718 10713 10712 10709 ] final  -92.38 input   66.30 | X-H torsion
[ 10763 10752 10751 10750 ] final  -61.94 input  -60.55 | X-H torsion
[ 11005 11000 10999 10996 ] final  -64.36 input  -57.11 | X-H torsion

> <Gold.Protein.ActiveResidues>
 VAL166  LYS551  ARG553  GLY616  TRP617  ASP618  TYR619  PRO620  LYS621  CYS622 
 ASP623  PHE694  ASN695  SER759  ASP760  ASP761  ALA762  ILE779  LEU786  VAL792 
 PHE793  MET794  SER795  GLU796  ALA797  LYS798  CYS799  TRP800  GLU811  SER814 

> <Gold.Protein.RotatedAtoms>
  151.3542  133.3914  159.2682 H   0  0  0  0  0  0  0  0  0  0  0  0  # atno 6907 bound_to 6896
  150.9777  134.9139  159.7836 H   0  0  0  0  0  0  0  0  0  0  0  0  # atno 6908 bound_to 6896
  152.5206  134.3505  159.9302 H   0  0  0  0  0  0  0  0  0  0  0  0  # atno 6909 bound_to 6896
  145.1721  139.3095  143.4462 H   0  0  0  0  0  0  0  0  0  0  0  0  # atno 7974 bound_to 7965
  155.6401  140.3497  155.4712 H   0  0  0  0  0  0  0  0  0  0  0  0  # atno 8008 bound_to 7997
  155.9933  140.1198  157.0641 H   0  0  0  0  0  0  0  0  0  0  0  0  # atno 8009 bound_to 7997
  154.4225  140.1115  156.5581 H   0  0  0  0  0  0  0  0  0  0  0  0  # atno 8010 bound_to 7997
  139.5665  144.6914  151.3895 H   0  0  0  0  0  0  0  0  0  0  0  0  # atno 10167 bound_to 10162
  156.0002  130.4985  150.5617 H   0  0  0  0  0  0  0  0  0  0  0  0  # atno 10718 bound_to 10713
  154.2923  135.6251  153.5390 H   0  0  0  0  0  0  0  0  0  0  0  0  # atno 10763 bound_to 10752
  152.9851  135.5658  154.5376 H   0  0  0  0  0  0  0  0  0  0  0  0  # atno 10764 bound_to 10752
  154.4990  135.2871  155.1412 H   0  0  0  0  0  0  0  0  0  0  0  0  # atno 10765 bound_to 10752
  141.1422  133.6665  156.5822 H   0  0  0  0  0  0  0  0  0  0  0  0  # atno 11005 bound_to 11000
  146.3467  140.1871  142.8589 LP  0  0  0  0  0  0  0  0  0  0  0  0  # atno 17320 bound_to 7965
  145.0222  140.8803  143.5160 LP  0  0  0  0  0  0  0  0  0  0  0  0  # atno 17321 bound_to 7965
  140.6949  143.7773  150.7311 LP  0  0  0  0  0  0  0  0  0  0  0  0  # atno 17342 bound_to 10162
  140.1267  143.4563  152.2280 LP  0  0  0  0  0  0  0  0  0  0  0  0  # atno 17343 bound_to 10162
  157.3525  131.0736  151.1701 LP  0  0  0  0  0  0  0  0  0  0  0  0  # atno 17370 bound_to 10713
  157.2513  130.6615  149.5932 LP  0  0  0  0  0  0  0  0  0  0  0  0  # atno 17371 bound_to 10713
  140.3829  134.7508  157.4672 LP  0  0  0  0  0  0  0  0  0  0  0  0  # atno 17394 bound_to 11000
  140.0624  134.5977  155.8734 LP  0  0  0  0  0  0  0  0  0  0  0  0  # atno 17395 bound_to 11000

$$$$
