#       Name:                AV-unprocessed.smi:2784
#       Creating user name   scv26
#       Creation time:       Fri Mar 27 15:17:21 2020


#       File generated by GOLD software.
#

@<TRIPOS>MOLECULE
AV-unprocessed.smi:2784
    38    39     1
SMALL
NO_CHARGES


@<TRIPOS>ATOM
      1 ****        -1.4758   1.0158   1.9887 C.3            1 S1                 0.0000
      2 ****        -0.9595  -0.3040   2.0432 O.3            1 S1                 0.0000
      3 ****         0.4616  -0.3621   2.1349 C.3            1 S1                 0.0000
      4 ****         0.7886  -1.3728   3.2357 C.3            1 S1                 0.0000
      5 ****         0.7049  -2.7280   2.5396 C.3            1 S1                 0.0000
      6 ****         1.2695  -2.4765   1.1395 C.3            1 S1                 0.0000
      7 ****         1.0837  -0.9725   0.8562 C.3            1 S1                 0.0000
      8 ****         0.2651  -0.7626  -0.3369 N.am           1 S1                 0.0000
      9 ****         0.3265   0.3039  -1.1476 C.2            1 S1                 0.0000
     10 ****         1.1173   1.2292  -0.9378 O.2            1 S1                 0.0000
     11 ****        -0.6034   0.1761  -2.1698 N.2            1 S1                 0.0000
     12 ****        -0.7370   1.1196  -3.0512 C.2            1 S1                 0.0000
     13 ****        -0.1054   2.3473  -3.2318 N.pl3          1 S1                 0.0000
     14 ****        -0.6430   2.9451  -4.3371 C.2            1 S1                 0.0000
     15 ****        -1.5730   2.1344  -4.8324 C.2            1 S1                 0.0000
     16 ****        -1.6532   1.0099  -4.0669 O.3            1 S1                 0.0000
     17 ****        -2.5599   0.9808   1.8821 H              1 S1                 0.0000
     18 ****        -1.0715   1.5680   1.1401 H              1 S1                 0.0000
     19 ****        -1.2447   1.5628   2.9036 H              1 S1                 0.0000
     20 ****         0.8935   0.6137   2.3668 H              1 S1                 0.0000
     21 ****         1.8067  -1.2094   3.5915 H              1 S1                 0.0000
     22 ****         0.1218  -1.2965   4.0954 H              1 S1                 0.0000
     23 ****         1.2434  -3.5099   3.0754 H              1 S1                 0.0000
     24 ****        -0.3389  -3.0356   2.4643 H              1 S1                 0.0000
     25 ****         2.3323  -2.7202   1.1224 H              1 S1                 0.0000
     26 ****         0.7847  -3.1153   0.3996 H              1 S1                 0.0000
     27 ****         2.0755  -0.5423   0.7042 H              1 S1                 0.0000
     28 ****        -0.4110  -1.4805  -0.5544 H              1 S1                 0.0000
     29 ****         0.6275   2.7602  -2.6727 H              1 S1                 0.0000
     30 ****        -0.2920   3.9141  -4.6601 H              1 S1                 0.0000
     31 ****        -2.2332   2.2088  -5.6838 H              1 S1                 0.0000
     32 ****        -1.2421  -0.7877   1.2148 LP             1 S1                 0.0000
     33 ****        -1.3462  -0.7611   2.8442 LP             1 S1                 0.0000
     34 ****         1.7306   1.1935  -0.1488 LP             1 S1                 0.0000
     35 ****         1.1442   2.0140  -1.5570 LP             1 S1                 0.0000
     36 ****        -1.1718  -0.6447  -2.2275 LP             1 S1                 0.0000
     37 ****        -2.5737   0.9244  -3.6854 LP             1 S1                 0.0000
     38 ****        -1.4472   0.2052  -4.6238 LP             1 S1                 0.0000
@<TRIPOS>BOND
    1    1    2 1     
    2    1   17 1     
    3    1   18 1     
    4    1   19 1     
    5    2    3 1     
    6    3    7 1     
    7    3    4 1     
    8    3   20 1     
    9    4    5 1     
   10    4   21 1     
   11    4   22 1     
   12    5    6 1     
   13    5   23 1     
   14    5   24 1     
   15    6    7 1     
   16    6   25 1     
   17    6   26 1     
   18    7    8 1     
   19    7   27 1     
   20    8   28 1     
   21    8    9 am    
   22    9   11 1     
   23    9   10 2     
   24   11   12 2     
   25   12   16 1     
   26   12   13 1     
   27   13   29 1     
   28   13   14 1     
   29   14   30 1     
   30   14   15 2     
   31   15   31 1     
   32   15   16 1     
   33    2   32 1     
   34    2   33 1     
   35   10   34 1     
   36   10   35 1     
   37   11   36 1     
   38   16   37 1     
   39   16   38 1     
@<TRIPOS>SUBSTRUCTURE
      1 S1             1
@<TRIPOS>SET
LONE_PAIRS      STATIC     ATOMS    <user>   **** ""
7 32 33 34 35 36 37 38
DONOR_HYDROGENS      STATIC     ATOMS    <user>   **** ""
2 28 29
ATOM$BLUE        STATIC     ATOMS    COLORGROUP SYSTEM
7 32 33 34 35 36 37 38
ATOM$RED        STATIC     ATOMS    COLORGROUP SYSTEM
2 28 29
