AV-unprocessed.smi:1983|AV-procd|sdf|8030|dock10
  -GOLD-   2272010223D 1   1.00000     0.00000
 Structure written by MMmdl.
 49 50  0  0  0  0  0  0  0  0  1 V2000
  145.5588  138.0784  153.8097 C   0  0  0  0  0  0  0  0  0  0  0  0
  146.7810  138.7511  153.1577 C   0  0  2  0  0  0  0  0  0  0  0  0
  146.6110  138.9996  151.6475 C   0  0  0  0  0  0  0  0  0  0  0  0
  146.8052  137.8148  150.9016 O   0  0  0  0  0  0  0  0  0  0  0  0
  148.0060  137.9934  153.3996 N   0  0  0  0  0  0  0  0  0  0  0  0
  148.7464  138.0476  154.5152 C   0  0  0  0  0  0  0  0  0  0  0  0
  148.4858  138.7615  155.4842 O   0  0  0  0  0  0  0  0  0  0  0  0
  149.7994  137.2207  154.4535 N   0  0  0  0  0  0  0  0  0  0  0  0
  150.7563  137.0161  155.5352 C   0  0  0  0  0  0  0  0  0  0  0  0
  151.0662  138.2876  156.3081 C   0  0  0  0  0  0  0  0  0  0  0  0
  151.4389  139.4751  155.6463 C   0  0  0  0  0  0  0  0  0  0  0  0
  151.7213  140.6226  156.4110 C   0  0  0  0  0  0  0  0  0  0  0  0
  151.6229  140.5529  157.8207 C   0  0  0  0  0  0  0  0  0  0  0  0
  151.9061  141.6917  158.6035 N   0  0  0  0  0  0  0  0  0  0  0  0
  152.2692  141.4913  160.0032 C   0  0  0  0  0  0  0  0  0  0  0  0
  152.8734  142.7804  160.5868 C   0  0  2  0  0  0  0  0  0  0  0  0
  153.1523  142.6521  162.0880 C   0  0  0  0  0  0  0  0  0  0  0  0
  151.9634  143.8632  160.3958 O   0  0  0  0  0  0  0  0  0  0  0  0
  151.6015  144.1088  159.0347 C   0  0  1  0  0  0  0  0  0  0  0  0
  152.7589  144.7221  158.2267 C   0  0  0  0  0  0  0  0  0  0  0  0
  151.0186  142.8320  158.3969 C   0  0  0  0  0  0  0  0  0  0  0  0
  151.2644  139.4082  158.4531 N   0  0  0  0  0  0  0  0  0  0  0  0
  150.9917  138.3117  157.7150 C   0  0  0  0  0  0  0  0  0  0  0  0
  144.6492  138.6453  153.6098 H   0  0  0  0  0  0  0  0  0  0  0  0
  145.6730  138.0161  154.8924 H   0  0  0  0  0  0  0  0  0  0  0  0
  145.4094  137.0651  153.4358 H   0  0  0  0  0  0  0  0  0  0  0  0
  146.9050  139.7317  153.6209 H   0  0  0  0  0  0  0  0  0  0  0  0
  145.6050  139.3673  151.4429 H   0  0  0  0  0  0  0  0  0  0  0  0
  147.3046  139.7656  151.2983 H   0  0  0  0  0  0  0  0  0  0  0  0
  147.0976  137.1348  151.4893 H   0  0  0  0  0  0  0  0  0  0  0  0
  148.3007  137.3692  152.6629 H   0  0  0  0  0  0  0  0  0  0  0  0
  149.9336  136.6779  153.6131 H   0  0  0  0  0  0  0  0  0  0  0  0
  150.3383  136.2861  156.2284 H   0  0  0  0  0  0  0  0  0  0  0  0
  151.6749  136.5774  155.1415 H   0  0  0  0  0  0  0  0  0  0  0  0
  151.5122  139.5085  154.5691 H   0  0  0  0  0  0  0  0  0  0  0  0
  152.0236  141.5326  155.9145 H   0  0  0  0  0  0  0  0  0  0  0  0
  151.3812  141.2010  160.5665 H   0  0  0  0  0  0  0  0  0  0  0  0
  152.9927  140.6799  160.0922 H   0  0  0  0  0  0  0  0  0  0  0  0
  153.8169  143.0007  160.0872 H   0  0  0  0  0  0  0  0  0  0  0  0
  153.8508  141.8393  162.2891 H   0  0  0  0  0  0  0  0  0  0  0  0
  152.2361  142.4519  162.6441 H   0  0  0  0  0  0  0  0  0  0  0  0
  153.5882  143.5700  162.4828 H   0  0  0  0  0  0  0  0  0  0  0  0
  150.8077  144.8558  159.0627 H   0  0  0  0  0  0  0  0  0  0  0  0
  152.4190  145.0248  157.2360 H   0  0  0  0  0  0  0  0  0  0  0  0
  153.5816  144.0217  158.0846 H   0  0  0  0  0  0  0  0  0  0  0  0
  153.1543  145.6077  158.7244 H   0  0  0  0  0  0  0  0  0  0  0  0
  150.8216  143.0101  157.3403 H   0  0  0  0  0  0  0  0  0  0  0  0
  150.0574  142.6006  158.8577 H   0  0  0  0  0  0  0  0  0  0  0  0
  150.7123  137.4266  158.2674 H   0  0  0  0  0  0  0  0  0  0  0  0
  1  2  1  0  0  0  0
  1 24  1  0  0  0  0
  1 25  1  0  0  0  0
  1 26  1  0  0  0  0
  2  3  1  0  0  0  0
  2  5  1  0  0  0  0
  2 27  1  0  0  0  0
  3  4  1  0  0  0  0
  3 28  1  0  0  0  0
  3 29  1  0  0  0  0
  4 30  1  0  0  0  0
  5  6  1  0  0  0  0
  5 31  1  0  0  0  0
  6  7  2  0  0  0  0
  6  8  1  0  0  0  0
  8  9  1  0  0  0  0
  8 32  1  0  0  0  0
  9 10  1  0  0  0  0
  9 33  1  0  0  0  0
  9 34  1  0  0  0  0
 10 23  1  0  0  0  0
 10 11  2  0  0  0  0
 11 12  1  0  0  0  0
 11 35  1  0  0  0  0
 12 13  2  0  0  0  0
 12 36  1  0  0  0  0
 13 14  1  0  0  0  0
 13 22  1  0  0  0  0
 14 21  1  0  0  0  0
 14 15  1  0  0  0  0
 15 16  1  0  0  0  0
 15 37  1  0  0  0  0
 15 38  1  0  0  0  0
 16 17  1  0  0  0  0
 16 18  1  0  0  0  0
 16 39  1  0  0  0  0
 17 40  1  0  0  0  0
 17 41  1  0  0  0  0
 17 42  1  0  0  0  0
 18 19  1  0  0  0  0
 19 20  1  0  0  0  0
 19 21  1  0  0  0  0
 19 43  1  0  0  0  0
 20 44  1  0  0  0  0
 20 45  1  0  0  0  0
 20 46  1  0  0  0  0
 21 47  1  0  0  0  0
 21 48  1  0  0  0  0
 22 23  2  0  0  0  0
 23 49  1  0  0  0  0
M  END
> <s_m_source_file>
AV-unprocessed.smi

> <i_m_source_file_index>
1983

> <i_lp_mmshare_version>
43012

> <i_f3d_flags>
0

> <s_epik_input>
W09IXVtDSDJdW0NAQEhdKFtDSDNdKVtOSF1DKD1PKVtOSF1bQ0gyXWMxW2NIXVtjSF1jKG5bY0hdMSlOMltDSDJdW0NAQEhdKFtDSDNdKU9bQ0BASF0oW0NIM10pW0NIMl0y

> <s_epik_cmdline>
J2VwaWtfcHl0aG9uJywgJy1waCcsICc3LjAnLCAnLXRuJywgJzgnLCAnLW1hJywgJzIwMCcsICctbWV0YWxfYmluZGluZycsICctaW1hZScsICc8aW5maWxlLm1hZT4nLCAnLW9tYWUnLCAnPG91dGZpbGUubWFlPic=

> <r_lp_tautomer_probability>
1

> <r_epik_Ionization_Penalty>
0.00801967

> <r_epik_Ionization_Penalty_Charging>
0

> <r_epik_Ionization_Penalty_Neutral>
0.00801967

> <r_epik_State_Penalty>
0.00598289

> <r_epik_Charging_Adjusted_Penalty>
0.00598289

> <i_epik_Tot_Q>
0

> <i_epik_Tot_abs_Q>
0

> <r_epik_Metal_State_Penalty>
0.00590297

> <b_epik_Metal_Only>
0

> <s_lp_Force_Field>
OPLS_2005

> <r_lp_Energy>
17.398

> <b_lp_Chiralities_Consistent>
1

> <s_lp_Variant>
AV-unprocessed.smi:1983-3

> <Gold.Version>
5.8.1

> <Gold.Id.Protein>
6NUR|6NUR_protein|mol2

> <Gold.PLP.Fitness>
52.9385

> <Gold.PLP.PLP>
-44.4485

> <Gold.PLP.part.hbond>
-4.3199

> <Gold.PLP.part.metal>
0.0000

> <Gold.PLP.part.buried>
-6.5539

> <Gold.PLP.part.nonpolar>
-34.9275

> <Gold.PLP.part.repulsive>
0.1694

> <Gold.PLP.ligand.clash>
0.0034

> <Gold.PLP.ligand.torsion>
1.0154

> <Gold.PLP.Chemscore.Hbond>
3.3809

> <Gold.PLP.Chemscore.CHOScore>
0.0000

> <Gold.PLP.Chemscore.Metal>
0.0000

> <Gold.Chemscore.Hbonds>
donor molecule, donor type, donor heavy atom, donor atom, acceptor molecule, acceptor atom, score
      L1  H     4    30       P1  7948  0.60
      L1  H     5    31       P1  7948  0.99
      L1  H     8    32       P1  7948  0.83
      P1  H  7954  7966       L1     4  0.90

> <Gold.PLP.Chemscore.Internal.Correction>
0.3816

> <Gold.Rescore>
     Score         DG    S(hbond)    S(metal)    S(lipo)     H(rot)  DE(clash)    DE(int)     intcor
     17.11     -19.44       2.26        0.00     111.96       2.61       0.04       2.29       ----

> <Gold.Chemscore.Fitness>
17.1071

> <Gold.Chemscore.DG>
-19.4381

> <Gold.Chemscore.ZeroCoef>
-5.4800

> <Gold.Chemscore.Hbond>
2.2573

> <Gold.Chemscore.Metal>
0.0000

> <Gold.Chemscore.Lipo>
111.9618

> <Gold.Chemscore.Internal_Hbond>
0.0000

> <Gold.Chemscore.DEClash>
0.0411

> <Gold.Chemscore.DEInternal>
2.2899

> <Gold.Chemscore.Rot>
2.6097

> <Gold.Chemscore.Internal.Correction>
   9.000000E+99

> <Gold.Chemscore.Hbonds>
donor molecule, donor type, donor heavy atom, donor atom, acceptor molecule, acceptor atom, score
      L1  H     4    30       P1  7948  0.58
      L1  H     5    31       P1  7948  0.92
      L1  H     8    32       P1  7948  0.20
      P1  H  7954  7966       L1     4  0.16

> <Gold.Chemscore.Hbond.Weighted>
-7.5395

> <Gold.Chemscore.Metal.Weighted>
-0.0000

> <Gold.Chemscore.Lipo.Weighted>
-13.0995

> <Gold.Chemscore.Internal_Hbond.Weighted>
0.0000

> <Gold.Chemscore.DEClash.Weighted>
0.0411

> <Gold.Chemscore.DEInternal.Weighted>
2.2899

> <Gold.Chemscore.Rot.Weighted>
6.6809

> <Gold.Chemscore.Internal.Correction.Weighted>
   9.000000E+99

> <Gold.Protein.RotatedTorsions>
[ 6907 6896 6895 6894 ] final   36.09 input  -60.11 | X-H torsion
[ 7974 7965 7964 7962 ] final -138.17 input  175.53 | X-H torsion
[ 8008 7997 7996 7995 ] final   50.92 input   59.86 | X-H torsion
[ 10167 10162 10161 10158 ] final  135.73 input  -65.29 | X-H torsion
[ 10718 10713 10712 10709 ] final -142.05 input   66.30 | X-H torsion
[ 10763 10752 10751 10750 ] final  -38.63 input  -60.55 | X-H torsion
[ 11005 11000 10999 10996 ] final   67.28 input  -57.11 | X-H torsion

> <Gold.Protein.ActiveResidues>
 VAL166  LYS551  ARG553  GLY616  TRP617  ASP618  TYR619  PRO620  LYS621  CYS622 
 ASP623  PHE694  ASN695  SER759  ASP760  ASP761  ALA762  ILE779  LEU786  VAL792 
 PHE793  MET794  SER795  GLU796  ALA797  LYS798  CYS799  TRP800  GLU811  SER814 

> <Gold.Protein.RotatedAtoms>
  152.1250  134.9177  160.0561 H   0  0  0  0  0  0  0  0  0  0  0  0  # atno 6907 bound_to 6896
  152.0304  133.3930  159.4303 H   0  0  0  0  0  0  0  0  0  0  0  0  # atno 6908 bound_to 6896
  150.6852  134.3449  159.4927 H   0  0  0  0  0  0  0  0  0  0  0  0  # atno 6909 bound_to 6896
  144.8780  140.6466  143.5224 H   0  0  0  0  0  0  0  0  0  0  0  0  # atno 7974 bound_to 7965
  155.4268  140.3449  155.4276 H   0  0  0  0  0  0  0  0  0  0  0  0  # atno 8008 bound_to 7997
  156.1360  140.1528  156.9024 H   0  0  0  0  0  0  0  0  0  0  0  0  # atno 8009 bound_to 7997
  154.4932  140.0835  156.7620 H   0  0  0  0  0  0  0  0  0  0  0  0  # atno 8010 bound_to 7997
  139.5206  144.6502  151.5325 H   0  0  0  0  0  0  0  0  0  0  0  0  # atno 10167 bound_to 10162
  156.3412  130.7638  151.1775 H   0  0  0  0  0  0  0  0  0  0  0  0  # atno 10718 bound_to 10713
  153.9160  135.6787  153.4749 H   0  0  0  0  0  0  0  0  0  0  0  0  # atno 10763 bound_to 10752
  153.1053  135.4808  154.8938 H   0  0  0  0  0  0  0  0  0  0  0  0  # atno 10764 bound_to 10752
  154.7503  135.3183  154.8526 H   0  0  0  0  0  0  0  0  0  0  0  0  # atno 10765 bound_to 10752
  139.9780  134.6790  156.0316 H   0  0  0  0  0  0  0  0  0  0  0  0  # atno 11005 bound_to 11000
  145.4006  139.1598  143.4179 LP  0  0  0  0  0  0  0  0  0  0  0  0  # atno 17320 bound_to 7965
  146.2976  140.4103  142.8716 LP  0  0  0  0  0  0  0  0  0  0  0  0  # atno 17321 bound_to 7965
  140.6303  143.9088  150.6600 LP  0  0  0  0  0  0  0  0  0  0  0  0  # atno 17342 bound_to 10162
  140.2390  143.3678  152.1502 LP  0  0  0  0  0  0  0  0  0  0  0  0  # atno 17343 bound_to 10162
  157.7447  131.0454  150.4840 LP  0  0  0  0  0  0  0  0  0  0  0  0  # atno 17370 bound_to 10713
  156.5021  130.4119  149.6347 LP  0  0  0  0  0  0  0  0  0  0  0  0  # atno 17371 bound_to 10713
  141.1456  133.6556  156.3856 LP  0  0  0  0  0  0  0  0  0  0  0  0  # atno 17394 bound_to 11000
  140.5154  134.6355  157.5299 LP  0  0  0  0  0  0  0  0  0  0  0  0  # atno 17395 bound_to 11000

$$$$
