AV-unprocessed.smi:1406|AV-procd|sdf|5723|dock1
  -GOLD-   22720 5353D 1   1.00000     0.00000
 Structure written by MMmdl.
 41 43  0  0  0  0  0  0  0  0  2 V2000
  152.5068  137.5561  156.5135 C   0  0  0  0  0  0  0  0  0  0  0  0
  152.0930  139.0369  156.3952 C   0  0  2  0  0  0  0  0  0  0  0  0
  151.7385  139.6737  157.7495 C   0  0  0  0  0  0  0  0  0  0  0  0
  150.6800  139.4053  158.3184 O   0  0  0  0  0  0  0  0  0  0  0  0
  152.6418  140.5269  158.2568 N   0  0  0  0  0  0  0  0  0  0  0  0
  152.4767  141.2773  159.4959 C   0  0  1  0  0  0  0  0  0  0  0  0
  153.5483  141.0041  160.5470 C   0  0  0  0  0  0  0  0  0  0  0  0
  153.4279  142.2325  161.4510 C   0  0  0  0  0  0  0  0  0  0  0  0
  153.0617  143.3576  160.5601 N   0  3  2  0  0  0  0  0  0  0  0  0
  152.1658  144.3695  161.1711 C   0  0  0  0  0  0  0  0  0  0  0  0
  151.8533  145.4938  160.1657 C   0  0  0  0  0  0  0  0  0  0  0  0
  151.3602  144.9671  158.8010 C   0  0  0  0  0  0  0  0  0  0  0  0
  151.2863  143.4328  158.7557 C   0  0  0  0  0  0  0  0  0  0  0  0
  152.5961  142.7898  159.2634 C   0  0  2  0  0  0  0  0  0  0  0  0
  151.0011  139.2243  155.4470 N   0  0  0  0  0  0  0  0  0  0  0  0
  150.3402  140.3332  155.1066 C   0  0  0  0  0  0  0  0  0  0  0  0
  149.3564  140.1299  154.2419 N   0  0  0  0  0  0  0  0  0  0  0  0
  149.4696  138.7780  154.0811 C   0  0  0  0  0  0  0  0  0  0  0  0
  150.4307  138.1846  154.7884 N   0  0  0  0  0  0  0  0  0  0  0  0
  153.3650  137.4388  157.1761 H   0  0  0  0  0  0  0  0  0  0  0  0
  152.7899  137.1537  155.5406 H   0  0  0  0  0  0  0  0  0  0  0  0
  151.6997  136.9351  156.9048 H   0  0  0  0  0  0  0  0  0  0  0  0
  152.9538  139.5817  156.0042 H   0  0  0  0  0  0  0  0  0  0  0  0
  153.4874  140.6906  157.7299 H   0  0  0  0  0  0  0  0  0  0  0  0
  151.4990  141.0554  159.9297 H   0  0  0  0  0  0  0  0  0  0  0  0
  153.3915  140.0673  161.0831 H   0  0  0  0  0  0  0  0  0  0  0  0
  154.5370  140.9719  160.0861 H   0  0  0  0  0  0  0  0  0  0  0  0
  152.6352  142.0636  162.1819 H   0  0  0  0  0  0  0  0  0  0  0  0
  154.3472  142.4403  161.9990 H   0  0  0  0  0  0  0  0  0  0  0  0
  151.2411  143.8934  161.5018 H   0  0  0  0  0  0  0  0  0  0  0  0
  152.6406  144.7846  162.0608 H   0  0  0  0  0  0  0  0  0  0  0  0
  151.1119  146.1696  160.5932 H   0  0  0  0  0  0  0  0  0  0  0  0
  152.7504  146.0947  160.0110 H   0  0  0  0  0  0  0  0  0  0  0  0
  150.3827  145.3896  158.5659 H   0  0  0  0  0  0  0  0  0  0  0  0
  152.0352  145.3162  158.0184 H   0  0  0  0  0  0  0  0  0  0  0  0
  150.4448  143.0992  159.3645 H   0  0  0  0  0  0  0  0  0  0  0  0
  151.0728  143.0974  157.7400 H   0  0  0  0  0  0  0  0  0  0  0  0
  153.3939  142.9874  158.5454 H   0  0  0  0  0  0  0  0  0  0  0  0
  150.5780  141.3082  155.5057 H   0  0  0  0  0  0  0  0  0  0  0  0
  148.8187  138.2132  153.4300 H   0  0  0  0  0  0  0  0  0  0  0  0
  153.9223  143.8402  160.3443 H   0  0  0  0  0  0  0  0  0  0  0  0
  1  2  1  0  0  0  0
  1 20  1  0  0  0  0
  1 21  1  0  0  0  0
  1 22  1  0  0  0  0
  2  3  1  0  0  0  0
  2 15  1  0  0  0  0
  2 23  1  0  0  0  0
  3  4  2  0  0  0  0
  3  5  1  0  0  0  0
  5  6  1  0  0  0  0
  5 24  1  0  0  0  0
  6 14  1  0  0  0  0
  6  7  1  0  0  0  0
  6 25  1  0  0  0  0
  7  8  1  0  0  0  0
  7 26  1  0  0  0  0
  7 27  1  0  0  0  0
  8  9  1  0  0  0  0
  8 28  1  0  0  0  0
  8 29  1  0  0  0  0
  9 14  1  0  0  0  0
  9 10  1  0  0  0  0
  9 41  1  0  0  0  0
 10 11  1  0  0  0  0
 10 30  1  0  0  0  0
 10 31  1  0  0  0  0
 11 12  1  0  0  0  0
 11 32  1  0  0  0  0
 11 33  1  0  0  0  0
 12 13  1  0  0  0  0
 12 34  1  0  0  0  0
 12 35  1  0  0  0  0
 13 14  1  0  0  0  0
 13 36  1  0  0  0  0
 13 37  1  0  0  0  0
 14 38  1  0  0  0  0
 15 19  1  0  0  0  0
 15 16  1  0  0  0  0
 16 17  2  0  0  0  0
 16 39  1  0  0  0  0
 17 18  1  0  0  0  0
 18 19  2  0  0  0  0
 18 40  1  0  0  0  0
M  CHG  1   9   1
M  END
> <s_m_source_file>
AV-unprocessed.smi

> <i_m_source_file_index>
1406

> <i_lp_mmshare_version>
43012

> <i_f3d_flags>
0

> <s_epik_input>
bjFbY0hdbltjSF1uMVtDQEhdKFtDSDNdKUMoPU8pW05IXVtDQEhdKFtDSDJdW0NIMl0yKVtDQEBIXShOMjMpW0NIMl1bQ0gyXVtDSDJdW0NIMl0z

> <s_epik_cmdline>
J2VwaWtfcHl0aG9uJywgJy1waCcsICc3LjAnLCAnLXRuJywgJzgnLCAnLW1hJywgJzIwMCcsICctbWV0YWxfYmluZGluZycsICctaW1hZScsICc8aW5maWxlLm1hZT4nLCAnLW9tYWUnLCAnPG91dGZpbGUubWFlPic=

> <r_lp_tautomer_probability>
1

> <r_epik_Ionization_Penalty>
0.00197066

> <r_epik_Ionization_Penalty_Charging>
0.00196223

> <r_epik_Ionization_Penalty_Neutral>
8.43107e-06

> <r_epik_State_Penalty>
0.00133866

> <r_epik_Charging_Adjusted_Penalty>
0.00330089

> <i_epik_Tot_Q>
1

> <i_epik_Tot_abs_Q>
1

> <r_epik_Metal_State_Penalty>
-0

> <b_epik_Metal_Only>
0

> <s_lp_Force_Field>
OPLS_2005

> <r_lp_Energy>
45.2549

> <b_lp_Chiralities_Consistent>
1

> <s_lp_Variant>
AV-unprocessed.smi:1406-15

> <Gold.Version>
5.8.1

> <Gold.Id.Protein>
6NUR|6NUR_protein|mol2

> <Gold.PLP.Fitness>
41.8257

> <Gold.PLP.PLP>
-39.2988

> <Gold.PLP.part.hbond>
0.0000

> <Gold.PLP.part.metal>
0.0000

> <Gold.PLP.part.buried>
-4.2140

> <Gold.PLP.part.nonpolar>
-35.0865

> <Gold.PLP.part.repulsive>
0.6793

> <Gold.PLP.ligand.clash>
0.0000

> <Gold.PLP.ligand.torsion>
0.2932

> <Gold.PLP.Chemscore.Hbond>
0.0000

> <Gold.PLP.Chemscore.CHOScore>
1.0000

> <Gold.PLP.Chemscore.Metal>
0.0000

> <Gold.Chemscore.Hbonds>
donor molecule, donor type, donor heavy atom, donor atom, acceptor molecule, acceptor atom, score
      L1  C    18    40       P1  7948  1.00

> <Gold.PLP.Chemscore.Internal.Correction>
0.1132

> <Gold.Rescore>
     Score         DG    S(hbond)    S(metal)    S(lipo)     H(rot)  DE(clash)    DE(int)     intcor
     12.07     -12.23       0.00        0.00      98.94       1.89       0.02       0.13       ----

> <Gold.Chemscore.Fitness>
12.0740

> <Gold.Chemscore.DG>
-12.2261

> <Gold.Chemscore.ZeroCoef>
-5.4800

> <Gold.Chemscore.Hbond>
0.0000

> <Gold.Chemscore.Metal>
0.0000

> <Gold.Chemscore.Lipo>
98.9370

> <Gold.Chemscore.Internal_Hbond>
0.0000

> <Gold.Chemscore.DEClash>
0.0171

> <Gold.Chemscore.DEInternal>
0.1350

> <Gold.Chemscore.Rot>
1.8865

> <Gold.Chemscore.Internal.Correction>
   9.000000E+99

> <Gold.Chemscore.Hbond.Weighted>
-0.0000

> <Gold.Chemscore.Metal.Weighted>
-0.0000

> <Gold.Chemscore.Lipo.Weighted>
-11.5756

> <Gold.Chemscore.Internal_Hbond.Weighted>
0.0000

> <Gold.Chemscore.DEClash.Weighted>
0.0171

> <Gold.Chemscore.DEInternal.Weighted>
0.1350

> <Gold.Chemscore.Rot.Weighted>
4.8295

> <Gold.Chemscore.Internal.Correction.Weighted>
   9.000000E+99

> <Gold.Protein.RotatedTorsions>
[ 6907 6896 6895 6894 ] final -155.62 input  -60.11 | X-H torsion
[ 7974 7965 7964 7962 ] final   51.83 input  175.53 | X-H torsion
[ 8008 7997 7996 7995 ] final   31.08 input   59.86 | X-H torsion
[ 10167 10162 10161 10158 ] final   60.66 input  -65.29 | X-H torsion
[ 10718 10713 10712 10709 ] final -141.30 input   66.30 | X-H torsion
[ 10763 10752 10751 10750 ] final   45.37 input  -60.55 | X-H torsion
[ 11005 11000 10999 10996 ] final   56.54 input  -57.11 | X-H torsion

> <Gold.Protein.ActiveResidues>
 VAL166  LYS551  ARG553  GLY616  TRP617  ASP618  TYR619  PRO620  LYS621  CYS622 
 ASP623  PHE694  ASN695  SER759  ASP760  ASP761  ALA762  ILE779  LEU786  VAL792 
 PHE793  MET794  SER795  GLU796  ALA797  LYS798  CYS799  TRP800  GLU811  SER814 

> <Gold.Protein.RotatedAtoms>
  151.2752  133.4236  159.2623 H   0  0  0  0  0  0  0  0  0  0  0  0  # atno 6907 bound_to 6896
  151.0409  134.9607  159.8171 H   0  0  0  0  0  0  0  0  0  0  0  0  # atno 6908 bound_to 6896
  152.5365  134.2710  159.9024 H   0  0  0  0  0  0  0  0  0  0  0  0  # atno 6909 bound_to 6896
  145.9874  139.4303  143.0095 H   0  0  0  0  0  0  0  0  0  0  0  0  # atno 7974 bound_to 7965
  155.1006  140.3229  155.4548 H   0  0  0  0  0  0  0  0  0  0  0  0  # atno 8008 bound_to 7997
  156.2718  140.2061  156.6079 H   0  0  0  0  0  0  0  0  0  0  0  0  # atno 8009 bound_to 7997
  154.6832  140.0524  157.0274 H   0  0  0  0  0  0  0  0  0  0  0  0  # atno 8010 bound_to 7997
  140.1631  144.4350  150.6699 H   0  0  0  0  0  0  0  0  0  0  0  0  # atno 10167 bound_to 10162
  156.3325  130.7593  151.1714 H   0  0  0  0  0  0  0  0  0  0  0  0  # atno 10718 bound_to 10713
  152.9825  135.6041  154.3426 H   0  0  0  0  0  0  0  0  0  0  0  0  # atno 10763 bound_to 10752
  154.3121  135.2771  155.2563 H   0  0  0  0  0  0  0  0  0  0  0  0  # atno 10764 bound_to 10752
  154.4767  135.5927  153.6416 H   0  0  0  0  0  0  0  0  0  0  0  0  # atno 10765 bound_to 10752
  140.0521  134.5722  155.9251 H   0  0  0  0  0  0  0  0  0  0  0  0  # atno 11005 bound_to 11000
  145.7681  140.9908  143.1164 LP  0  0  0  0  0  0  0  0  0  0  0  0  # atno 17320 bound_to 7965
  144.6879  139.9413  143.7475 LP  0  0  0  0  0  0  0  0  0  0  0  0  # atno 17321 bound_to 7965
  140.6630  143.2258  151.5810 LP  0  0  0  0  0  0  0  0  0  0  0  0  # atno 17342 bound_to 10162
  139.5372  144.2749  152.1275 LP  0  0  0  0  0  0  0  0  0  0  0  0  # atno 17343 bound_to 10162
  157.7433  131.0477  150.4959 LP  0  0  0  0  0  0  0  0  0  0  0  0  # atno 17370 bound_to 10713
  156.5127  130.4143  149.6292 LP  0  0  0  0  0  0  0  0  0  0  0  0  # atno 17371 bound_to 10713
  141.1935  133.6579  156.5551 LP  0  0  0  0  0  0  0  0  0  0  0  0  # atno 17394 bound_to 11000
  140.3901  134.7448  157.4716 LP  0  0  0  0  0  0  0  0  0  0  0  0  # atno 17395 bound_to 11000

$$$$
