#       Name:                AV-unprocessed.smi:480
#       Creating user name   scv26
#       Creation time:       Thu Mar 26 23:10:22 2020


#       File generated by GOLD software.
#

@<TRIPOS>MOLECULE
AV-unprocessed.smi:480
    52    54     1
SMALL
NO_CHARGES


@<TRIPOS>ATOM
      1 ****        -3.0518   3.0810  -3.0310 C.3            1 S1                 0.0000
      2 ****        -3.2410   1.5896  -2.7337 C.3            1 S1                 0.0000
      3 ****        -3.5103   1.3502  -1.2835 C.2            1 S1                 0.0000
      4 ****        -4.7424   1.2738  -0.7054 N.pl3          1 S1                 1.0000
      5 ****        -4.6084   1.0609   0.6671 C.ar           1 S1                 0.0000
      6 ****        -5.5669   0.9147   1.6651 C.ar           1 S1                 0.0000
      7 ****        -5.0890   0.7104   2.9763 C.ar           1 S1                 0.0000
      8 ****        -3.7076   0.6583   3.2548 C.ar           1 S1                 0.0000
      9 ****        -2.7453   0.8081   2.2344 C.ar           1 S1                 0.0000
     10 ****        -3.2266   1.0092   0.9412 C.ar           1 S1                 0.0000
     11 ****        -2.5881   1.1933  -0.2898 N.pl3          1 S1                 0.0000
     12 ****        -1.1173   1.1919  -0.3402 C.3            1 S1                 0.0000
     13 ****        -0.5163  -0.2283  -0.3302 C.3            1 S1                 0.0000
     14 ****        -1.0165  -0.9457  -1.4415 O.3            1 S1                 0.0000
     15 ****         1.0178  -0.2012  -0.4137 C.3            1 S1                 0.0000
     16 ****         1.5259  -1.4310   0.0866 O.3            1 S1                 0.0000
     17 ****         2.8927  -1.6076   0.1227 C.ar           1 S1                 0.0000
     18 ****         3.8342  -0.6423  -0.3159 C.ar           1 S1                 0.0000
     19 ****         5.2156  -0.9074  -0.2402 C.ar           1 S1                 0.0000
     20 ****         5.6762  -2.1362   0.2720 C.ar           1 S1                 0.0000
     21 ****         7.1618  -2.4196   0.3551 C.3            1 S1                 0.0000
     22 ****         7.7129  -2.0936   1.6791 C.1            1 S1                 0.0000
     23 ****         8.1466  -1.8373   2.7206 N.1            1 S1                 0.0000
     24 ****         4.7467  -3.0997   0.7092 C.ar           1 S1                 0.0000
     25 ****         3.3659  -2.8338   0.6334 C.ar           1 S1                 0.0000
     26 ****        -2.8568   3.2437  -4.0912 H              1 S1                 0.0000
     27 ****        -2.2107   3.4919  -2.4717 H              1 S1                 0.0000
     28 ****        -3.9421   3.6516  -2.7646 H              1 S1                 0.0000
     29 ****        -4.0713   1.1950  -3.3202 H              1 S1                 0.0000
     30 ****        -2.3545   1.0308  -3.0343 H              1 S1                 0.0000
     31 ****        -6.6255   0.9543   1.4541 H              1 S1                 0.0000
     32 ****        -5.7962   0.5917   3.7845 H              1 S1                 0.0000
     33 ****        -3.3789   0.4999   4.2719 H              1 S1                 0.0000
     34 ****        -1.6894   0.7658   2.4574 H              1 S1                 0.0000
     35 ****        -0.8126   1.7261  -1.2407 H              1 S1                 0.0000
     36 ****        -0.7458   1.7785   0.5011 H              1 S1                 0.0000
     37 ****        -0.8213  -0.7397   0.5832 H              1 S1                 0.0000
     38 ****        -0.6482  -1.8161  -1.4254 H              1 S1                 0.0000
     39 ****         1.3479  -0.0127  -1.4372 H              1 S1                 0.0000
     40 ****         1.3972   0.6067   0.2141 H              1 S1                 0.0000
     41 ****         3.5229   0.3115  -0.7139 H              1 S1                 0.0000
     42 ****         5.9218  -0.1622  -0.5759 H              1 S1                 0.0000
     43 ****         7.3528  -3.4737   0.1518 H              1 S1                 0.0000
     44 ****         7.6988  -1.8383  -0.3948 H              1 S1                 0.0000
     45 ****         5.0903  -4.0442   1.1051 H              1 S1                 0.0000
     46 ****         2.6621  -3.5797   0.9725 H              1 S1                 0.0000
     47 ****        -5.6111   1.3616  -1.2167 H              1 S1                 0.0000
     48 ****        -0.7532  -0.4833  -2.2882 LP             1 S1                 0.0000
     49 ****        -2.0135  -0.9999  -1.3875 LP             1 S1                 0.0000
     50 ****         1.1481  -2.1610  -0.4830 LP             1 S1                 0.0000
     51 ****         1.1897  -1.5311   1.0230 LP             1 S1                 0.0000
     52 ****         8.5215  -1.6158   3.6208 LP             1 S1                 0.0000
@<TRIPOS>BOND
    1    1    2 1     
    2    1   26 1     
    3    1   27 1     
    4    1   28 1     
    5    2    3 1     
    6    2   29 1     
    7    2   30 1     
    8    3   11 1     
    9    3    4 2     
   10    4    5 1     
   11    4   47 1     
   12    5   10 ar    
   13    5    6 ar    
   14    6    7 ar    
   15    6   31 1     
   16    7    8 ar    
   17    7   32 1     
   18    8    9 ar    
   19    8   33 1     
   20    9   10 ar    
   21    9   34 1     
   22   10   11 1     
   23   11   12 1     
   24   12   13 1     
   25   12   35 1     
   26   12   36 1     
   27   13   14 1     
   28   13   15 1     
   29   13   37 1     
   30   14   38 1     
   31   15   16 1     
   32   15   39 1     
   33   15   40 1     
   34   16   17 1     
   35   17   25 ar    
   36   17   18 ar    
   37   18   19 ar    
   38   18   41 1     
   39   19   20 ar    
   40   19   42 1     
   41   20   21 1     
   42   20   24 ar    
   43   21   22 1     
   44   21   43 1     
   45   21   44 1     
   46   22   23 3     
   47   24   25 ar    
   48   24   45 1     
   49   25   46 1     
   50   14   48 1     
   51   14   49 1     
   52   16   50 1     
   53   16   51 1     
   54   23   52 1     
@<TRIPOS>SUBSTRUCTURE
      1 S1             1
@<TRIPOS>SET
LONE_PAIRS      STATIC     ATOMS    <user>   **** ""
5 48 49 50 51 52
DONOR_HYDROGENS      STATIC     ATOMS    <user>   **** ""
2 47 38
ATOM$BLUE        STATIC     ATOMS    COLORGROUP SYSTEM
5 48 49 50 51 52
ATOM$RED        STATIC     ATOMS    COLORGROUP SYSTEM
2 47 38
