AV-unprocessed.smi:2451|AV-procd|sdf|9681|dock2
  -GOLD-   2272013323D 1   1.00000     0.00000
 Structure written by MMmdl.
 37 38  0  0  0  0  0  0  0  0  2 V2000
  152.3084  143.1616  161.1449 C   0  0  0  0  0  0  0  0  0  0  0  0
  153.0998  143.0804  159.8182 C   0  0  2  0  0  0  0  0  0  0  0  0
  152.2923  143.6855  158.6438 C   0  0  0  0  0  0  0  0  0  0  0  0
  151.2046  142.7006  158.1692 C   0  0  0  0  0  0  0  0  0  0  0  0
  151.7873  141.3171  157.7979 C   0  0  0  0  0  0  0  0  0  0  0  0
  152.5991  140.6590  158.9398 C   0  0  1  0  0  0  0  0  0  0  0  0
  153.2299  139.4455  158.4383 N   0  5  0  0  0  0  0  0  0  0  0  0
  152.3385  138.1065  158.2397 S   0  0  0  0  0  0  0  0  0  0  0  0
  152.7339  137.0200  159.1512 O   0  0  0  0  0  0  0  0  0  0  0  0
  150.8994  138.3985  158.1345 O   0  0  0  0  0  0  0  0  0  0  0  0
  152.8825  137.5852  156.5573 C   0  0  0  0  0  0  0  0  0  0  0  0
  151.9483  138.1373  155.5179 C   0  0  0  0  0  0  0  0  0  0  0  0
  151.1991  137.4303  154.5367 C   0  0  0  0  0  0  0  0  0  0  0  0
  150.5303  138.4177  153.8730 C   0  0  0  0  0  0  0  0  0  0  0  0
  150.8277  139.6316  154.4009 O   0  0  0  0  0  0  0  0  0  0  0  0
  151.7311  139.4422  155.4529 N   0  0  0  0  0  0  0  0  0  0  0  0
  153.6753  141.6632  159.4710 C   0  0  2  0  0  0  0  0  0  0  0  0
  154.5283  141.1006  160.6341 C   0  0  0  0  0  0  0  0  0  0  0  0
  151.4313  142.5148  161.1443 H   0  0  0  0  0  0  0  0  0  0  0  0
  151.9613  144.1787  161.3270 H   0  0  0  0  0  0  0  0  0  0  0  0
  152.9249  142.8826  161.9989 H   0  0  0  0  0  0  0  0  0  0  0  0
  153.9600  143.7366  159.9584 H   0  0  0  0  0  0  0  0  0  0  0  0
  151.8475  144.6397  158.9275 H   0  0  0  0  0  0  0  0  0  0  0  0
  152.9673  143.8972  157.8135 H   0  0  0  0  0  0  0  0  0  0  0  0
  150.4366  142.5950  158.9375 H   0  0  0  0  0  0  0  0  0  0  0  0
  150.6951  143.1198  157.3013 H   0  0  0  0  0  0  0  0  0  0  0  0
  150.9764  140.6537  157.4941 H   0  0  0  0  0  0  0  0  0  0  0  0
  152.4247  141.4366  156.9203 H   0  0  0  0  0  0  0  0  0  0  0  0
  151.9094  140.4476  159.7579 H   0  0  0  0  0  0  0  0  0  0  0  0
  153.8989  137.9451  156.4005 H   0  0  0  0  0  0  0  0  0  0  0  0
  152.9078  136.4955  156.5317 H   0  0  0  0  0  0  0  0  0  0  0  0
  151.1662  136.3677  154.3474 H   0  0  0  0  0  0  0  0  0  0  0  0
  149.8376  138.4172  153.0445 H   0  0  0  0  0  0  0  0  0  0  0  0
  154.3716  141.8292  158.6466 H   0  0  0  0  0  0  0  0  0  0  0  0
  153.9231  140.8081  161.4938 H   0  0  0  0  0  0  0  0  0  0  0  0
  155.2455  141.8451  160.9800 H   0  0  0  0  0  0  0  0  0  0  0  0
  155.1099  140.2273  160.3338 H   0  0  0  0  0  0  0  0  0  0  0  0
  1  2  1  0  0  0  0
  1 19  1  0  0  0  0
  1 20  1  0  0  0  0
  1 21  1  0  0  0  0
  2 17  1  0  0  0  0
  2  3  1  0  0  0  0
  2 22  1  0  0  0  0
  3  4  1  0  0  0  0
  3 23  1  0  0  0  0
  3 24  1  0  0  0  0
  4  5  1  0  0  0  0
  4 25  1  0  0  0  0
  4 26  1  0  0  0  0
  5  6  1  0  0  0  0
  5 27  1  0  0  0  0
  5 28  1  0  0  0  0
  6  7  1  0  0  0  0
  6 17  1  0  0  0  0
  6 29  1  0  0  0  0
  7  8  1  0  0  0  0
  8  9  2  0  0  0  0
  8 10  2  0  0  0  0
  8 11  1  0  0  0  0
 11 12  1  0  0  0  0
 11 30  1  0  0  0  0
 11 31  1  0  0  0  0
 12 16  2  0  0  0  0
 12 13  1  0  0  0  0
 13 14  2  0  0  0  0
 13 32  1  0  0  0  0
 14 15  1  0  0  0  0
 14 33  1  0  0  0  0
 15 16  1  0  0  0  0
 17 18  1  0  0  0  0
 17 34  1  0  0  0  0
 18 35  1  0  0  0  0
 18 36  1  0  0  0  0
 18 37  1  0  0  0  0
M  CHG  1   7  -1
M  END
> <s_m_source_file>
AV-unprocessed.smi

> <i_m_source_file_index>
2451

> <i_lp_mmshare_version>
43012

> <i_f3d_flags>
0

> <s_epik_input>
W0NIM11bQ0BASF0xW0NIMl1bQ0gyXVtDSDJdW0NASF0oW0NASF0xW0NIM10pW05IXVMoPU8pKD1PKVtDSDJdYzJbY0hdW2NIXW9uMg==

> <s_epik_cmdline>
J2VwaWtfcHl0aG9uJywgJy1waCcsICc3LjAnLCAnLXRuJywgJzgnLCAnLW1hJywgJzIwMCcsICctbWV0YWxfYmluZGluZycsICctaW1hZScsICc8aW5maWxlLm1hZT4nLCAnLW9tYWUnLCAnPG91dGZpbGUubWFlPic=

> <r_lp_tautomer_probability>
1

> <r_epik_Ionization_Penalty>
5.22693

> <r_epik_Ionization_Penalty_Charging>
5.22693

> <r_epik_Ionization_Penalty_Neutral>
2.67702e-10

> <r_epik_State_Penalty>
5.22685

> <r_epik_Charging_Adjusted_Penalty>
10.4538

> <i_epik_Tot_Q>
-1

> <i_epik_Tot_abs_Q>
1

> <r_epik_Metal_State_Penalty>
1.28716

> <b_epik_Metal_Only>
1

> <s_lp_Force_Field>
OPLS_2005

> <r_lp_Energy>
14.4343

> <b_lp_Chiralities_Consistent>
1

> <s_lp_Variant>
AV-unprocessed.smi:2451-13

> <Gold.Version>
5.8.1

> <Gold.Id.Protein>
6NUR|6NUR_protein|mol2

> <Gold.PLP.Fitness>
50.0157

> <Gold.PLP.PLP>
-36.0323

> <Gold.PLP.part.hbond>
-2.4566

> <Gold.PLP.part.metal>
0.0000

> <Gold.PLP.part.buried>
-5.3807

> <Gold.PLP.part.nonpolar>
-28.3369

> <Gold.PLP.part.repulsive>
0.1352

> <Gold.PLP.ligand.clash>
0.0000

> <Gold.PLP.ligand.torsion>
1.3345

> <Gold.PLP.Chemscore.Hbond>
3.4050

> <Gold.PLP.Chemscore.CHOScore>
1.8028

> <Gold.PLP.Chemscore.Metal>
0.0000

> <Gold.Chemscore.Hbonds>
donor molecule, donor type, donor heavy atom, donor atom, acceptor molecule, acceptor atom, score
      P1  H  6896  6909       L1     9  0.42
      P1  H  7989  7998       L1    15  1.00
      P1  H  7997  8010       L1     7  1.92
      L1  C    14    33       P1  7948  0.75
      L1  C    14    33       P1  7957  1.00

> <Gold.PLP.Chemscore.Internal.Correction>
1.0292

> <Gold.Rescore>
     Score         DG    S(hbond)    S(metal)    S(lipo)     H(rot)  DE(clash)    DE(int)     intcor
     19.60     -21.04       2.00        0.00     106.43       1.40       0.00       1.43       ----

> <Gold.Chemscore.Fitness>
19.6033

> <Gold.Chemscore.DG>
-21.0365

> <Gold.Chemscore.ZeroCoef>
-5.4800

> <Gold.Chemscore.Hbond>
2.0014

> <Gold.Chemscore.Metal>
0.0000

> <Gold.Chemscore.Lipo>
106.4297

> <Gold.Chemscore.Internal_Hbond>
0.0000

> <Gold.Chemscore.DEClash>
0.0000

> <Gold.Chemscore.DEInternal>
1.4332

> <Gold.Chemscore.Rot>
1.3986

> <Gold.Chemscore.Internal.Correction>
   9.000000E+99

> <Gold.Chemscore.Hbonds>
donor molecule, donor type, donor heavy atom, donor atom, acceptor molecule, acceptor atom, score
      P1  H  6896  6909       L1     9  0.40
      P1  H  7989  7998       L1    15  0.30
      P1  H  7997  8010       L1     7  0.54

> <Gold.Chemscore.Hbond.Weighted>
-6.6846

> <Gold.Chemscore.Metal.Weighted>
-0.0000

> <Gold.Chemscore.Lipo.Weighted>
-12.4523

> <Gold.Chemscore.Internal_Hbond.Weighted>
0.0000

> <Gold.Chemscore.DEClash.Weighted>
0.0000

> <Gold.Chemscore.DEInternal.Weighted>
1.4332

> <Gold.Chemscore.Rot.Weighted>
3.5804

> <Gold.Chemscore.Internal.Correction.Weighted>
   9.000000E+99

> <Gold.Protein.RotatedTorsions>
[ 6907 6896 6895 6894 ] final  137.26 input  -60.11 | X-H torsion
[ 7974 7965 7964 7962 ] final   47.79 input  175.53 | X-H torsion
[ 8008 7997 7996 7995 ] final   31.11 input   59.86 | X-H torsion
[ 10167 10162 10161 10158 ] final -121.57 input  -65.29 | X-H torsion
[ 10718 10713 10712 10709 ] final -157.64 input   66.30 | X-H torsion
[ 10763 10752 10751 10750 ] final   47.74 input  -60.55 | X-H torsion
[ 11005 11000 10999 10996 ] final  -44.11 input  -57.11 | X-H torsion

> <Gold.Protein.ActiveResidues>
 VAL166  LYS551  ARG553  GLY616  TRP617  ASP618  TYR619  PRO620  LYS621  CYS622 
 ASP623  PHE694  ASN695  SER759  ASP760  ASP761  ALA762  ILE779  LEU786  VAL792 
 PHE793  MET794  SER795  GLU796  ALA797  LYS798  CYS799  TRP800  GLU811  SER814 

> <Gold.Protein.RotatedAtoms>
  152.2800  133.5462  159.5491 H   0  0  0  0  0  0  0  0  0  0  0  0  # atno 6907 bound_to 6896
  150.7192  134.0577  159.3829 H   0  0  0  0  0  0  0  0  0  0  0  0  # atno 6908 bound_to 6896
  151.8488  135.0565  160.0507 H   0  0  0  0  0  0  0  0  0  0  0  0  # atno 6909 bound_to 6896
  146.0265  139.4712  142.9864 H   0  0  0  0  0  0  0  0  0  0  0  0  # atno 7974 bound_to 7965
  155.1012  140.3230  155.4546 H   0  0  0  0  0  0  0  0  0  0  0  0  # atno 8008 bound_to 7997
  156.2716  140.2060  156.6085 H   0  0  0  0  0  0  0  0  0  0  0  0  # atno 8009 bound_to 7997
  154.6828  140.0524  157.0270 H   0  0  0  0  0  0  0  0  0  0  0  0  # atno 8010 bound_to 7997
  140.0236  143.5319  152.2209 H   0  0  0  0  0  0  0  0  0  0  0  0  # atno 10167 bound_to 10162
  156.5430  130.8572  151.2755 H   0  0  0  0  0  0  0  0  0  0  0  0  # atno 10718 bound_to 10713
  152.9797  135.5966  154.3812 H   0  0  0  0  0  0  0  0  0  0  0  0  # atno 10763 bound_to 10752
  154.3476  135.2767  155.2391 H   0  0  0  0  0  0  0  0  0  0  0  0  # atno 10764 bound_to 10752
  154.4445  135.6005  153.6206 H   0  0  0  0  0  0  0  0  0  0  0  0  # atno 10765 bound_to 10752
  141.0428  133.6773  156.2826 H   0  0  0  0  0  0  0  0  0  0  0  0  # atno 11005 bound_to 11000
  145.7110  141.0106  143.1453 LP  0  0  0  0  0  0  0  0  0  0  0  0  # atno 17320 bound_to 7965
  144.7012  139.8757  143.7443 LP  0  0  0  0  0  0  0  0  0  0  0  0  # atno 17321 bound_to 7965
  139.6123  144.7611  151.2924 LP  0  0  0  0  0  0  0  0  0  0  0  0  # atno 17342 bound_to 10162
  140.7332  143.6802  150.8007 LP  0  0  0  0  0  0  0  0  0  0  0  0  # atno 17343 bound_to 10162
  157.7402  130.9845  150.2360 LP  0  0  0  0  0  0  0  0  0  0  0  0  # atno 17370 bound_to 10713
  156.2954  130.3751  149.7801 LP  0  0  0  0  0  0  0  0  0  0  0  0  # atno 17371 bound_to 10713
  140.6202  134.5369  157.5546 LP  0  0  0  0  0  0  0  0  0  0  0  0  # atno 17394 bound_to 11000
  139.9289  134.8002  156.0988 LP  0  0  0  0  0  0  0  0  0  0  0  0  # atno 17395 bound_to 11000

$$$$
