AV-unprocessed.smi:598|AV-procd|sdf|3025|dock7
  -GOLD-   2262023533D 1   1.00000     0.00000
 Structure written by MMmdl.
 43 44  0  0  0  0  0  0  0  0  3 V2000
  148.9112  138.4409  154.5073 C   0  0  0  0  0  0  0  0  0  0  0  0
  150.2188  139.1197  154.0498 C   0  0  2  0  0  0  0  0  0  0  0  0
  151.3969  138.1245  154.0266 C   0  0  0  0  0  0  0  0  0  0  0  0
  151.8756  137.7587  155.4402 C   0  0  0  0  0  0  0  0  0  0  0  0
  152.2485  139.0140  156.2406 C   0  0  0  0  0  0  0  0  0  0  0  0
  151.0900  140.0316  156.2899 C   0  0  1  0  0  0  0  0  0  0  0  0
  151.5278  141.2368  156.9916 N   0  0  0  0  0  0  0  0  0  0  0  0
  150.7447  142.0334  157.7343 C   0  0  0  0  0  0  0  0  0  0  0  0
  149.5481  141.8148  157.9280 O   0  0  0  0  0  0  0  0  0  0  0  0
  151.4335  143.2503  158.3675 C   0  0  0  0  0  0  0  0  0  0  0  0
  152.1717  142.9222  159.5989 N   0  0  0  0  0  0  0  0  0  0  0  0
  153.2007  141.9654  159.4939 C   0  0  0  0  0  0  0  0  0  0  0  0
  153.9353  141.5844  160.5575 C   0  0  0  0  0  0  0  0  0  0  0  0
  154.9841  140.5961  160.4326 N   0  3  0  0  0  0  0  0  0  0  0  0
  155.7897  140.4738  161.3498 O   0  0  0  0  0  0  0  0  0  0  0  0
  155.0386  139.9109  159.4154 O   0  5  0  0  0  0  0  0  0  0  0  0
  153.6358  142.1962  161.8377 C   0  0  0  0  0  0  0  0  0  0  0  0
  152.6508  143.1096  161.9451 C   0  0  0  0  0  0  0  0  0  0  0  0
  151.8503  143.5201  160.7869 C   0  0  0  0  0  0  0  0  0  0  0  0
  150.9460  144.3505  160.8792 O   0  0  0  0  0  0  0  0  0  0  0  0
  150.5962  140.3871  154.8634 C   0  0  2  0  0  0  0  0  0  0  0  0
  149.4719  141.4422  154.8617 C   0  0  0  0  0  0  0  0  0  0  0  0
  148.9484  138.1358  155.5525 H   0  0  0  0  0  0  0  0  0  0  0  0
  148.7091  137.5491  153.9135 H   0  0  0  0  0  0  0  0  0  0  0  0
  148.0528  139.1013  154.3863 H   0  0  0  0  0  0  0  0  0  0  0  0
  150.0536  139.4333  153.0181 H   0  0  0  0  0  0  0  0  0  0  0  0
  151.1197  137.2215  153.4817 H   0  0  0  0  0  0  0  0  0  0  0  0
  152.2279  138.5654  153.4745 H   0  0  0  0  0  0  0  0  0  0  0  0
  151.0993  137.2030  155.9669 H   0  0  0  0  0  0  0  0  0  0  0  0
  152.7367  137.0930  155.3768 H   0  0  0  0  0  0  0  0  0  0  0  0
  152.5404  138.7266  157.2513 H   0  0  0  0  0  0  0  0  0  0  0  0
  153.1260  139.4782  155.7879 H   0  0  0  0  0  0  0  0  0  0  0  0
  150.2576  139.5893  156.8398 H   0  0  0  0  0  0  0  0  0  0  0  0
  152.5005  141.4893  156.8929 H   0  0  0  0  0  0  0  0  0  0  0  0
  152.1022  143.6855  157.6238 H   0  0  0  0  0  0  0  0  0  0  0  0
  150.6911  144.0249  158.5701 H   0  0  0  0  0  0  0  0  0  0  0  0
  153.3401  141.5643  158.5004 H   0  0  0  0  0  0  0  0  0  0  0  0
  154.1984  141.9261  162.7195 H   0  0  0  0  0  0  0  0  0  0  0  0
  152.4442  143.5516  162.9088 H   0  0  0  0  0  0  0  0  0  0  0  0
  151.4385  140.8440  154.3408 H   0  0  0  0  0  0  0  0  0  0  0  0
  148.6245  141.1270  155.4709 H   0  0  0  0  0  0  0  0  0  0  0  0
  149.1082  141.6263  153.8506 H   0  0  0  0  0  0  0  0  0  0  0  0
  149.8188  142.3975  155.2560 H   0  0  0  0  0  0  0  0  0  0  0  0
  1  2  1  0  0  0  0
  1 23  1  0  0  0  0
  1 24  1  0  0  0  0
  1 25  1  0  0  0  0
  2 21  1  0  0  0  0
  2  3  1  0  0  0  0
  2 26  1  0  0  0  0
  3  4  1  0  0  0  0
  3 27  1  0  0  0  0
  3 28  1  0  0  0  0
  4  5  1  0  0  0  0
  4 29  1  0  0  0  0
  4 30  1  0  0  0  0
  5  6  1  0  0  0  0
  5 31  1  0  0  0  0
  5 32  1  0  0  0  0
  6  7  1  0  0  0  0
  6 21  1  0  0  0  0
  6 33  1  0  0  0  0
  7  8  1  0  0  0  0
  7 34  1  0  0  0  0
  8  9  2  0  0  0  0
  8 10  1  0  0  0  0
 10 11  1  0  0  0  0
 10 35  1  0  0  0  0
 10 36  1  0  0  0  0
 11 19  1  0  0  0  0
 11 12  1  0  0  0  0
 12 13  2  0  0  0  0
 12 37  1  0  0  0  0
 13 14  1  0  0  0  0
 13 17  1  0  0  0  0
 14 15  2  0  0  0  0
 14 16  1  0  0  0  0
 17 18  2  0  0  0  0
 17 38  1  0  0  0  0
 18 19  1  0  0  0  0
 18 39  1  0  0  0  0
 19 20  2  0  0  0  0
 21 22  1  0  0  0  0
 21 40  1  0  0  0  0
 22 41  1  0  0  0  0
 22 42  1  0  0  0  0
 22 43  1  0  0  0  0
M  CHG  1  14   1
M  CHG  1  16  -1
M  END
> <s_m_source_file>
AV-unprocessed.smi

> <i_m_source_file_index>
598

> <i_lp_mmshare_version>
43012

> <i_f3d_flags>
0

> <s_epik_input>
W0NIM11bQ0BASF0xW0NIMl1bQ0gyXVtDSDJdW0NASF0oW0NASF0xW0NIM10pW05IXUMoPU8pW0NIMl1uMltjSF1jKFtOK10oPU8pW08tXSlbY0hdW2NIXWMyPU8=

> <s_epik_cmdline>
J2VwaWtfcHl0aG9uJywgJy1waCcsICc3LjAnLCAnLXRuJywgJzgnLCAnLW1hJywgJzIwMCcsICctbWV0YWxfYmluZGluZycsICctaW1hZScsICc8aW5maWxlLm1hZT4nLCAnLW9tYWUnLCAnPG91dGZpbGUubWFlPic=

> <r_lp_tautomer_probability>
1

> <r_epik_Ionization_Penalty>
1.91291e-08

> <r_epik_Ionization_Penalty_Charging>
8.21931e-11

> <r_epik_Ionization_Penalty_Neutral>
1.90469e-08

> <r_epik_State_Penalty>
-0

> <r_epik_Charging_Adjusted_Penalty>
8.21931e-11

> <i_epik_Tot_Q>
0

> <i_epik_Tot_abs_Q>
2

> <r_epik_Metal_State_Penalty>
-0

> <b_epik_Metal_Only>
0

> <s_lp_Force_Field>
OPLS_2005

> <r_lp_Energy>
25.21

> <b_lp_Chiralities_Consistent>
1

> <s_lp_Variant>
AV-unprocessed.smi:598-5

> <Gold.Version>
5.8.1

> <Gold.Id.Protein>
6NUR|6NUR_protein|mol2

> <Gold.PLP.Fitness>
49.4649

> <Gold.PLP.PLP>
-47.9871

> <Gold.PLP.part.hbond>
-2.0000

> <Gold.PLP.part.metal>
0.0000

> <Gold.PLP.part.buried>
-3.3500

> <Gold.PLP.part.nonpolar>
-41.8932

> <Gold.PLP.part.repulsive>
0.3569

> <Gold.PLP.ligand.clash>
0.0000

> <Gold.PLP.ligand.torsion>
0.7659

> <Gold.PLP.Chemscore.Hbond>
1.0000

> <Gold.PLP.Chemscore.CHOScore>
0.0000

> <Gold.PLP.Chemscore.Metal>
0.0000

> <Gold.Chemscore.Hbonds>
donor molecule, donor type, donor heavy atom, donor atom, acceptor molecule, acceptor atom, score
      P1  H  7997  8009       L1    16  0.86

> <Gold.PLP.Chemscore.Internal.Correction>
0.0096

> <Gold.Rescore>
     Score         DG    S(hbond)    S(metal)    S(lipo)     H(rot)  DE(clash)    DE(int)     intcor
     16.18     -17.00       0.99        0.00     103.74       1.54       0.10       0.72       ----

> <Gold.Chemscore.Fitness>
16.1836

> <Gold.Chemscore.DG>
-16.9963

> <Gold.Chemscore.ZeroCoef>
-5.4800

> <Gold.Chemscore.Hbond>
0.9937

> <Gold.Chemscore.Metal>
0.0000

> <Gold.Chemscore.Lipo>
103.7438

> <Gold.Chemscore.Internal_Hbond>
0.0000

> <Gold.Chemscore.DEClash>
0.0962

> <Gold.Chemscore.DEInternal>
0.7165

> <Gold.Chemscore.Rot>
1.5393

> <Gold.Chemscore.Internal.Correction>
   9.000000E+99

> <Gold.Chemscore.Hbonds>
donor molecule, donor type, donor heavy atom, donor atom, acceptor molecule, acceptor atom, score
      P1  H  7997  8009       L1    16  0.79

> <Gold.Chemscore.Hbond.Weighted>
-3.3190

> <Gold.Chemscore.Metal.Weighted>
-0.0000

> <Gold.Chemscore.Lipo.Weighted>
-12.1380

> <Gold.Chemscore.Internal_Hbond.Weighted>
0.0000

> <Gold.Chemscore.DEClash.Weighted>
0.0962

> <Gold.Chemscore.DEInternal.Weighted>
0.7165

> <Gold.Chemscore.Rot.Weighted>
3.9407

> <Gold.Chemscore.Internal.Correction.Weighted>
   9.000000E+99

> <Gold.Protein.RotatedTorsions>
[ 6907 6896 6895 6894 ] final   65.51 input  -60.11 | X-H torsion
[ 7974 7965 7964 7962 ] final   26.13 input  175.53 | X-H torsion
[ 8008 7997 7996 7995 ] final  123.33 input   59.86 | X-H torsion
[ 10167 10162 10161 10158 ] final -173.34 input  -65.29 | X-H torsion
[ 10718 10713 10712 10709 ] final  -42.31 input   66.30 | X-H torsion
[ 10763 10752 10751 10750 ] final  158.12 input  -60.55 | X-H torsion
[ 11005 11000 10999 10996 ] final   -2.61 input  -57.11 | X-H torsion

> <Gold.Protein.ActiveResidues>
 VAL166  LYS551  ARG553  GLY616  TRP617  ASP618  TYR619  PRO620  LYS621  CYS622 
 ASP623  PHE694  ASN695  SER759  ASP760  ASP761  ALA762  ILE779  LEU786  VAL792 
 PHE793  MET794  SER795  GLU796  ALA797  LYS798  CYS799  TRP800  GLU811  SER814 

> <Gold.Protein.RotatedAtoms>
  152.4413  134.5585  159.9887 H   0  0  0  0  0  0  0  0  0  0  0  0  # atno 6907 bound_to 6896
  151.5681  133.3388  159.2992 H   0  0  0  0  0  0  0  0  0  0  0  0  # atno 6908 bound_to 6896
  150.8320  134.7611  159.6925 H   0  0  0  0  0  0  0  0  0  0  0  0  # atno 6909 bound_to 6896
  146.1853  139.7370  142.8871 H   0  0  0  0  0  0  0  0  0  0  0  0  # atno 7974 bound_to 7965
  156.2762  140.2765  156.1610 H   0  0  0  0  0  0  0  0  0  0  0  0  # atno 8008 bound_to 7997
  155.0753  140.0387  157.2639 H   0  0  0  0  0  0  0  0  0  0  0  0  # atno 8009 bound_to 7997
  154.7007  140.2648  155.6728 H   0  0  0  0  0  0  0  0  0  0  0  0  # atno 8010 bound_to 7997
  139.5694  144.1678  152.1361 H   0  0  0  0  0  0  0  0  0  0  0  0  # atno 10167 bound_to 10162
  156.2610  130.4197  149.8543 H   0  0  0  0  0  0  0  0  0  0  0  0  # atno 10718 bound_to 10713
  154.2110  135.2786  155.2958 H   0  0  0  0  0  0  0  0  0  0  0  0  # atno 10763 bound_to 10752
  154.5778  135.5598  153.7160 H   0  0  0  0  0  0  0  0  0  0  0  0  # atno 10764 bound_to 10752
  153.0064  135.6337  154.2249 H   0  0  0  0  0  0  0  0  0  0  0  0  # atno 10765 bound_to 10752
  140.6602  133.9327  155.8432 H   0  0  0  0  0  0  0  0  0  0  0  0  # atno 11005 bound_to 11000
  145.3956  141.0378  143.3099 LP  0  0  0  0  0  0  0  0  0  0  0  0  # atno 17320 bound_to 7965
  144.8387  139.5508  143.6910 LP  0  0  0  0  0  0  0  0  0  0  0  0  # atno 17321 bound_to 7965
  140.1208  144.5375  150.6864 LP  0  0  0  0  0  0  0  0  0  0  0  0  # atno 17342 bound_to 10162
  140.6978  143.2415  151.4951 LP  0  0  0  0  0  0  0  0  0  0  0  0  # atno 17343 bound_to 10162
  156.6058  130.8566  151.3443 LP  0  0  0  0  0  0  0  0  0  0  0  0  # atno 17370 bound_to 10713
  157.7250  130.9610  150.1597 LP  0  0  0  0  0  0  0  0  0  0  0  0  # atno 17371 bound_to 10713
  141.0471  134.0538  157.3830 LP  0  0  0  0  0  0  0  0  0  0  0  0  # atno 17394 bound_to 11000
  139.9015  135.0166  156.7292 LP  0  0  0  0  0  0  0  0  0  0  0  0  # atno 17395 bound_to 11000

$$$$
