AV-unprocessed.smi:1893|AV-procd|sdf|7671|dock2
  -GOLD-   22720 9403D 1   1.00000     0.00000
 Structure written by MMmdl.
 43 44  0  0  0  0  0  0  0  0  2 V2000
  148.4319  132.5195  153.1394 C   0  0  0  0  0  0  0  0  0  0  0  0
  147.0807  133.2057  152.8441 C   0  0  2  0  0  0  0  0  0  0  0  0
  146.8076  133.1050  151.3262 C   0  0  0  0  0  0  0  0  0  0  0  0
  145.4848  133.7646  150.9313 C   0  0  0  0  0  0  0  0  0  0  0  0
  145.4862  135.2170  151.4054 C   0  0  0  0  0  0  0  0  0  0  0  0
  145.7410  135.2871  152.9171 C   0  0  0  0  0  0  0  0  0  0  0  0
  147.0258  134.6340  153.3034 N   0  3  1  0  0  0  0  0  0  0  0  0
  147.3176  134.8209  154.7541 C   0  0  0  0  0  0  0  0  0  0  0  0
  148.8258  134.7749  155.0792 C   0  0  0  0  0  0  0  0  0  0  0  0
  149.5358  135.8787  154.4440 N   0  0  0  0  0  0  0  0  0  0  0  0
  150.0797  136.9189  155.0961 C   0  0  0  0  0  0  0  0  0  0  0  0
  150.0577  137.0236  156.3232 O   0  0  0  0  0  0  0  0  0  0  0  0
  150.7318  138.0040  154.2239 C   0  0  2  0  0  0  0  0  0  0  0  0
  152.1920  138.2987  154.6234 C   0  0  0  0  0  0  0  0  0  0  0  0
  149.9124  139.2098  154.2254 N   0  0  0  0  0  0  0  0  0  0  0  0
  148.6048  139.3597  154.0032 C   0  0  0  0  0  0  0  0  0  0  0  0
  148.1758  140.6072  154.1322 N   0  0  0  0  0  0  0  0  0  0  0  0
  149.3513  141.2199  154.4619 C   0  0  0  0  0  0  0  0  0  0  0  0
  150.4200  140.4273  154.5430 N   0  0  0  0  0  0  0  0  0  0  0  0
  148.4992  131.5581  152.6291 H   0  0  0  0  0  0  0  0  0  0  0  0
  148.5700  132.3027  154.1979 H   0  0  0  0  0  0  0  0  0  0  0  0
  149.2712  133.1277  152.8007 H   0  0  0  0  0  0  0  0  0  0  0  0
  146.2984  132.6542  153.3684 H   0  0  0  0  0  0  0  0  0  0  0  0
  147.6234  133.5739  150.7737 H   0  0  0  0  0  0  0  0  0  0  0  0
  146.7911  132.0590  151.0172 H   0  0  0  0  0  0  0  0  0  0  0  0
  145.3464  133.7188  149.8507 H   0  0  0  0  0  0  0  0  0  0  0  0
  144.6494  133.2249  151.3795 H   0  0  0  0  0  0  0  0  0  0  0  0
  146.2536  135.7819  150.8741 H   0  0  0  0  0  0  0  0  0  0  0  0
  144.5319  135.6871  151.1657 H   0  0  0  0  0  0  0  0  0  0  0  0
  145.7384  136.3368  153.2048 H   0  0  0  0  0  0  0  0  0  0  0  0
  144.9175  134.8139  153.4545 H   0  0  0  0  0  0  0  0  0  0  0  0
  146.8774  135.7571  155.1004 H   0  0  0  0  0  0  0  0  0  0  0  0
  146.8521  134.0343  155.3415 H   0  0  0  0  0  0  0  0  0  0  0  0
  148.9870  134.7975  156.1585 H   0  0  0  0  0  0  0  0  0  0  0  0
  149.2841  133.8574  154.7139 H   0  0  0  0  0  0  0  0  0  0  0  0
  149.6001  135.8631  153.4361 H   0  0  0  0  0  0  0  0  0  0  0  0
  150.7476  137.6271  153.1997 H   0  0  0  0  0  0  0  0  0  0  0  0
  152.8045  137.3980  154.5696 H   0  0  0  0  0  0  0  0  0  0  0  0
  152.2686  138.6902  155.6387 H   0  0  0  0  0  0  0  0  0  0  0  0
  152.6366  139.0348  153.9529 H   0  0  0  0  0  0  0  0  0  0  0  0
  147.9515  138.5383  153.7475 H   0  0  0  0  0  0  0  0  0  0  0  0
  149.4200  142.2804  154.6554 H   0  0  0  0  0  0  0  0  0  0  0  0
  147.7601  135.1137  152.8024 H   0  0  0  0  0  0  0  0  0  0  0  0
  1  2  1  0  0  0  0
  1 20  1  0  0  0  0
  1 21  1  0  0  0  0
  1 22  1  0  0  0  0
  2  7  1  0  0  0  0
  2  3  1  0  0  0  0
  2 23  1  0  0  0  0
  3  4  1  0  0  0  0
  3 24  1  0  0  0  0
  3 25  1  0  0  0  0
  4  5  1  0  0  0  0
  4 26  1  0  0  0  0
  4 27  1  0  0  0  0
  5  6  1  0  0  0  0
  5 28  1  0  0  0  0
  5 29  1  0  0  0  0
  6  7  1  0  0  0  0
  6 30  1  0  0  0  0
  6 31  1  0  0  0  0
  7  8  1  0  0  0  0
  7 43  1  0  0  0  0
  8  9  1  0  0  0  0
  8 32  1  0  0  0  0
  8 33  1  0  0  0  0
  9 10  1  0  0  0  0
  9 34  1  0  0  0  0
  9 35  1  0  0  0  0
 10 11  1  0  0  0  0
 10 36  1  0  0  0  0
 11 12  2  0  0  0  0
 11 13  1  0  0  0  0
 13 14  1  0  0  0  0
 13 15  1  0  0  0  0
 13 37  1  0  0  0  0
 14 38  1  0  0  0  0
 14 39  1  0  0  0  0
 14 40  1  0  0  0  0
 15 19  1  0  0  0  0
 15 16  1  0  0  0  0
 16 17  2  0  0  0  0
 16 41  1  0  0  0  0
 17 18  1  0  0  0  0
 18 19  2  0  0  0  0
 18 42  1  0  0  0  0
M  CHG  1   7   1
M  END
> <s_m_source_file>
AV-unprocessed.smi

> <i_m_source_file_index>
1893

> <i_lp_mmshare_version>
43012

> <i_f3d_flags>
0

> <s_epik_input>
W0NIM11bQ0BASF0xW0NIMl1bQ0gyXVtDSDJdW0NIMl1OMVtDSDJdW0NIMl1bTkhdQyg9TylbQ0BIXShbQ0gzXSluMltjSF1uW2NIXW4y

> <s_epik_cmdline>
J2VwaWtfcHl0aG9uJywgJy1waCcsICc3LjAnLCAnLXRuJywgJzgnLCAnLW1hJywgJzIwMCcsICctbWV0YWxfYmluZGluZycsICctaW1hZScsICc8aW5maWxlLm1hZT4nLCAnLW9tYWUnLCAnPG91dGZpbGUubWFlPic=

> <r_lp_tautomer_probability>
1

> <r_epik_Ionization_Penalty>
0.00266409

> <r_epik_Ionization_Penalty_Charging>
0.00265606

> <r_epik_Ionization_Penalty_Neutral>
8.02794e-06

> <r_epik_State_Penalty>
0.00184955

> <r_epik_Charging_Adjusted_Penalty>
0.00450561

> <i_epik_Tot_Q>
1

> <i_epik_Tot_abs_Q>
1

> <r_epik_Metal_State_Penalty>
-0

> <b_epik_Metal_Only>
0

> <s_lp_Force_Field>
OPLS_2005

> <r_lp_Energy>
24.7489

> <b_lp_Chiralities_Consistent>
1

> <s_lp_Variant>
AV-unprocessed.smi:1893-1

> <Gold.Version>
5.8.1

> <Gold.Id.Protein>
6NUR|6NUR_protein|mol2

> <Gold.PLP.Fitness>
48.9547

> <Gold.PLP.PLP>
-34.8629

> <Gold.PLP.part.hbond>
-3.0923

> <Gold.PLP.part.metal>
0.0000

> <Gold.PLP.part.buried>
-2.9436

> <Gold.PLP.part.nonpolar>
-28.2977

> <Gold.PLP.part.repulsive>
0.2575

> <Gold.PLP.ligand.clash>
0.0000

> <Gold.PLP.ligand.torsion>
0.5205

> <Gold.PLP.Chemscore.Hbond>
3.9920

> <Gold.PLP.Chemscore.CHOScore>
1.0000

> <Gold.PLP.Chemscore.Metal>
0.0000

> <Gold.Chemscore.Hbonds>
donor molecule, donor type, donor heavy atom, donor atom, acceptor molecule, acceptor atom, score
      L1  H     7    43       P1  7948  2.00
      L1  H    10    36       P1  7948  0.90
      P1  H  7989  7998       L1    19  1.00
      L1  C    18    42       P1  8028  0.63

> <Gold.PLP.Chemscore.Internal.Correction>
0.1568

> <Gold.Rescore>
     Score         DG    S(hbond)    S(metal)    S(lipo)     H(rot)  DE(clash)    DE(int)     intcor
     12.20     -13.14       2.39        0.00      52.79       2.54       0.07       0.87       ----

> <Gold.Chemscore.Fitness>
12.1996

> <Gold.Chemscore.DG>
-13.1377

> <Gold.Chemscore.ZeroCoef>
-5.4800

> <Gold.Chemscore.Hbond>
2.3886

> <Gold.Chemscore.Metal>
0.0000

> <Gold.Chemscore.Lipo>
52.7900

> <Gold.Chemscore.Internal_Hbond>
0.0000

> <Gold.Chemscore.DEClash>
0.0655

> <Gold.Chemscore.DEInternal>
0.8726

> <Gold.Chemscore.Rot>
2.5377

> <Gold.Chemscore.Internal.Correction>
   9.000000E+99

> <Gold.Chemscore.Hbonds>
donor molecule, donor type, donor heavy atom, donor atom, acceptor molecule, acceptor atom, score
      L1  H     7    43       P1  7948  1.00
      L1  H    10    36       P1  7948  0.17
      P1  H  7989  7998       L1    19  0.64

> <Gold.Chemscore.Hbond.Weighted>
-7.9779

> <Gold.Chemscore.Metal.Weighted>
-0.0000

> <Gold.Chemscore.Lipo.Weighted>
-6.1764

> <Gold.Chemscore.Internal_Hbond.Weighted>
0.0000

> <Gold.Chemscore.DEClash.Weighted>
0.0655

> <Gold.Chemscore.DEInternal.Weighted>
0.8726

> <Gold.Chemscore.Rot.Weighted>
6.4966

> <Gold.Chemscore.Internal.Correction.Weighted>
   9.000000E+99

> <Gold.Protein.RotatedTorsions>
[ 6907 6896 6895 6894 ] final  -51.98 input  -60.11 | X-H torsion
[ 7974 7965 7964 7962 ] final  -33.69 input  175.53 | X-H torsion
[ 8008 7997 7996 7995 ] final   51.33 input   59.86 | X-H torsion
[ 10167 10162 10161 10158 ] final   10.88 input  -65.29 | X-H torsion
[ 10718 10713 10712 10709 ] final  164.07 input   66.30 | X-H torsion
[ 10763 10752 10751 10750 ] final   66.72 input  -60.55 | X-H torsion
[ 11005 11000 10999 10996 ] final  170.42 input  -57.11 | X-H torsion

> <Gold.Protein.ActiveResidues>
 VAL166  LYS551  ARG553  GLY616  TRP617  ASP618  TYR619  PRO620  LYS621  CYS622 
 ASP623  PHE694  ASN695  SER759  ASP760  ASP761  ALA762  ILE779  LEU786  VAL792 
 PHE793  MET794  SER795  GLU796  ALA797  LYS798  CYS799  TRP800  GLU811  SER814 

> <Gold.Protein.RotatedAtoms>
  150.8560  134.7899  159.7045 H   0  0  0  0  0  0  0  0  0  0  0  0  # atno 6907 bound_to 6896
  152.4612  134.5177  159.9783 H   0  0  0  0  0  0  0  0  0  0  0  0  # atno 6908 bound_to 6896
  151.5289  133.3414  159.2950 H   0  0  0  0  0  0  0  0  0  0  0  0  # atno 6909 bound_to 6896
  146.0890  140.5948  142.8873 H   0  0  0  0  0  0  0  0  0  0  0  0  # atno 7974 bound_to 7965
  155.4334  140.3451  155.4282 H   0  0  0  0  0  0  0  0  0  0  0  0  # atno 8008 bound_to 7997
  156.1322  140.1517  156.9078 H   0  0  0  0  0  0  0  0  0  0  0  0  # atno 8009 bound_to 7997
  154.4904  140.0843  156.7561 H   0  0  0  0  0  0  0  0  0  0  0  0  # atno 8010 bound_to 7997
  140.6167  143.8293  150.7126 H   0  0  0  0  0  0  0  0  0  0  0  0  # atno 10167 bound_to 10162
  157.0996  131.0439  151.2503 H   0  0  0  0  0  0  0  0  0  0  0  0  # atno 10718 bound_to 10713
  153.0152  135.5310  154.6867 H   0  0  0  0  0  0  0  0  0  0  0  0  # atno 10763 bound_to 10752
  154.6012  135.2868  155.0535 H   0  0  0  0  0  0  0  0  0  0  0  0  # atno 10764 bound_to 10752
  154.1591  135.6550  153.5034 H   0  0  0  0  0  0  0  0  0  0  0  0  # atno 10765 bound_to 10752
  140.3082  134.7539  157.3970 H   0  0  0  0  0  0  0  0  0  0  0  0  # atno 11005 bound_to 11000
  144.7346  140.4772  143.6913 LP  0  0  0  0  0  0  0  0  0  0  0  0  # atno 17320 bound_to 7965
  145.6075  139.1510  143.3094 LP  0  0  0  0  0  0  0  0  0  0  0  0  # atno 17321 bound_to 7965
  140.1874  143.4064  152.1888 LP  0  0  0  0  0  0  0  0  0  0  0  0  # atno 17342 bound_to 10162
  139.5404  144.7251  151.4753 LP  0  0  0  0  0  0  0  0  0  0  0  0  # atno 17343 bound_to 10162
  157.4652  130.7676  149.7273 LP  0  0  0  0  0  0  0  0  0  0  0  0  # atno 17370 bound_to 10713
  155.9877  130.3965  150.3152 LP  0  0  0  0  0  0  0  0  0  0  0  0  # atno 17371 bound_to 10713
  140.1048  134.5424  155.8319 LP  0  0  0  0  0  0  0  0  0  0  0  0  # atno 17394 bound_to 11000
  141.2114  133.6706  156.6578 LP  0  0  0  0  0  0  0  0  0  0  0  0  # atno 17395 bound_to 11000

$$$$
