AV-unprocessed.smi:1426|AV-procd|sdf|5805|dock8
  -GOLD-   22720 5453D 1   1.00000     0.00000
 Structure written by MMmdl.
 43 45  0  0  0  0  0  0  0  0  1 V2000
  145.2632  137.9957  153.6775 O   0  0  0  0  0  0  0  0  0  0  0  0
  146.2838  137.3891  153.3544 C   0  0  0  0  0  0  0  0  0  0  0  0
  146.2863  136.1127  152.9440 N   0  0  0  0  0  0  0  0  0  0  0  0
  145.1093  135.2562  152.8352 C   0  0  0  0  0  0  0  0  0  0  0  0
  144.9551  134.6764  151.4170 C   0  0  2  0  0  0  0  0  0  0  0  0
  143.8001  133.7062  151.2747 C   0  0  0  0  0  0  0  0  0  0  0  0
  144.1583  132.9711  149.9863 C   0  0  0  0  0  0  0  0  0  0  0  0
  145.5818  132.9700  149.9189 O   0  0  0  0  0  0  0  0  0  0  0  0
  146.1203  133.8097  150.9357 C   0  0  0  0  0  0  0  0  0  0  0  0
  147.5282  137.8970  153.3510 N   0  0  0  0  0  0  0  0  0  0  0  0
  147.9738  139.2100  153.6850 C   0  0  0  0  0  0  0  0  0  0  0  0
  147.1538  140.3563  153.5318 C   0  0  0  0  0  0  0  0  0  0  0  0
  147.6694  141.6234  153.8547 C   0  0  0  0  0  0  0  0  0  0  0  0
  148.9901  141.7044  154.3246 C   0  0  0  0  0  0  0  0  0  0  0  0
  149.7767  140.6239  154.4962 N   0  0  0  0  0  0  0  0  0  0  0  0
  149.2889  139.3935  154.2026 C   0  0  0  0  0  0  0  0  0  0  0  0
  150.1483  138.2950  154.4326 N   0  0  0  0  0  0  0  0  0  0  0  0
  151.5790  138.5036  154.6316 C   0  0  0  0  0  0  0  0  0  0  0  0
  152.0854  137.2019  155.2457 C   0  0  0  0  0  0  0  0  0  0  0  0
  150.9152  136.7877  156.1320 C   0  0  0  0  0  0  0  0  0  0  0  0
  149.6847  137.2562  155.3482 C   0  0  0  0  0  0  0  0  0  0  0  0
  147.1718  135.6983  152.6919 H   0  0  0  0  0  0  0  0  0  0  0  0
  145.1370  134.4557  153.5768 H   0  0  0  0  0  0  0  0  0  0  0  0
  144.2358  135.8622  153.0772 H   0  0  0  0  0  0  0  0  0  0  0  0
  144.8097  135.4919  150.7062 H   0  0  0  0  0  0  0  0  0  0  0  0
  143.7859  133.0056  152.1111 H   0  0  0  0  0  0  0  0  0  0  0  0
  142.8283  134.1983  151.2259 H   0  0  0  0  0  0  0  0  0  0  0  0
  143.7573  131.9576  149.9611 H   0  0  0  0  0  0  0  0  0  0  0  0
  143.7713  133.5097  149.1204 H   0  0  0  0  0  0  0  0  0  0  0  0
  146.9556  134.4016  150.5603 H   0  0  0  0  0  0  0  0  0  0  0  0
  146.4906  133.1769  151.7433 H   0  0  0  0  0  0  0  0  0  0  0  0
  148.2472  137.2862  152.9917 H   0  0  0  0  0  0  0  0  0  0  0  0
  146.1362  140.2947  153.1805 H   0  0  0  0  0  0  0  0  0  0  0  0
  147.0660  142.5119  153.7418 H   0  0  0  0  0  0  0  0  0  0  0  0
  149.4241  142.6601  154.5787 H   0  0  0  0  0  0  0  0  0  0  0  0
  152.0821  138.7312  153.6915 H   0  0  0  0  0  0  0  0  0  0  0  0
  151.7618  139.3242  155.3265 H   0  0  0  0  0  0  0  0  0  0  0  0
  152.2454  136.4567  154.4650 H   0  0  0  0  0  0  0  0  0  0  0  0
  153.0181  137.3251  155.7966 H   0  0  0  0  0  0  0  0  0  0  0  0
  150.8996  135.7193  156.3484 H   0  0  0  0  0  0  0  0  0  0  0  0
  150.9703  137.3220  157.0814 H   0  0  0  0  0  0  0  0  0  0  0  0
  148.9002  137.6156  156.0158 H   0  0  0  0  0  0  0  0  0  0  0  0
  149.2799  136.4288  154.7648 H   0  0  0  0  0  0  0  0  0  0  0  0
  1  2  2  0  0  0  0
  2  3  1  0  0  0  0
  2 10  1  0  0  0  0
  3  4  1  0  0  0  0
  3 22  1  0  0  0  0
  4  5  1  0  0  0  0
  4 23  1  0  0  0  0
  4 24  1  0  0  0  0
  5  9  1  0  0  0  0
  5  6  1  0  0  0  0
  5 25  1  0  0  0  0
  6  7  1  0  0  0  0
  6 26  1  0  0  0  0
  6 27  1  0  0  0  0
  7  8  1  0  0  0  0
  7 28  1  0  0  0  0
  7 29  1  0  0  0  0
  8  9  1  0  0  0  0
  9 30  1  0  0  0  0
  9 31  1  0  0  0  0
 10 11  1  0  0  0  0
 10 32  1  0  0  0  0
 11 16  1  0  0  0  0
 11 12  2  0  0  0  0
 12 13  1  0  0  0  0
 12 33  1  0  0  0  0
 13 14  2  0  0  0  0
 13 34  1  0  0  0  0
 14 15  1  0  0  0  0
 14 35  1  0  0  0  0
 15 16  2  0  0  0  0
 16 17  1  0  0  0  0
 17 21  1  0  0  0  0
 17 18  1  0  0  0  0
 18 19  1  0  0  0  0
 18 36  1  0  0  0  0
 18 37  1  0  0  0  0
 19 20  1  0  0  0  0
 19 38  1  0  0  0  0
 19 39  1  0  0  0  0
 20 21  1  0  0  0  0
 20 40  1  0  0  0  0
 20 41  1  0  0  0  0
 21 42  1  0  0  0  0
 21 43  1  0  0  0  0
M  END
> <s_m_source_file>
AV-unprocessed.smi

> <i_m_source_file_index>
1426

> <i_lp_mmshare_version>
43012

> <i_f3d_flags>
0

> <s_epik_input>
W0NIMl0xT1tDSDJdW0NIMl1bQ0BIXTFbQ0gyXVtOSF1DKD1PKVtOSF1jMltjSF1bY0hdW2NIXW5jMk4zW0NIMl1bQ0gyXVtDSDJdW0NIMl0z

> <s_epik_cmdline>
J2VwaWtfcHl0aG9uJywgJy1waCcsICc3LjAnLCAnLXRuJywgJzgnLCAnLW1hJywgJzIwMCcsICctbWV0YWxfYmluZGluZycsICctaW1hZScsICc8aW5maWxlLm1hZT4nLCAnLW9tYWUnLCAnPG91dGZpbGUubWFlPic=

> <r_lp_tautomer_probability>
1

> <r_epik_Ionization_Penalty>
0.0999657

> <r_epik_Ionization_Penalty_Charging>
0

> <r_epik_Ionization_Penalty_Neutral>
0.0999657

> <r_epik_State_Penalty>
0.0894442

> <r_epik_Charging_Adjusted_Penalty>
0.0894442

> <i_epik_Tot_Q>
0

> <i_epik_Tot_abs_Q>
0

> <r_epik_Metal_State_Penalty>
0.076486

> <b_epik_Metal_Only>
0

> <s_lp_Force_Field>
OPLS_2005

> <r_lp_Energy>
47.443

> <b_lp_Chiralities_Consistent>
1

> <s_lp_Variant>
AV-unprocessed.smi:1426-1

> <Gold.Version>
5.8.1

> <Gold.Id.Protein>
6NUR|6NUR_protein|mol2

> <Gold.PLP.Fitness>
40.5758

> <Gold.PLP.PLP>
-30.4908

> <Gold.PLP.part.hbond>
-3.0000

> <Gold.PLP.part.metal>
0.0000

> <Gold.PLP.part.buried>
0.4274

> <Gold.PLP.part.nonpolar>
-28.3404

> <Gold.PLP.part.repulsive>
1.7456

> <Gold.PLP.ligand.clash>
0.0000

> <Gold.PLP.ligand.torsion>
0.3881

> <Gold.PLP.Chemscore.Hbond>
2.5163

> <Gold.PLP.Chemscore.CHOScore>
1.0000

> <Gold.PLP.Chemscore.Metal>
0.0000

> <Gold.Chemscore.Hbonds>
donor molecule, donor type, donor heavy atom, donor atom, acceptor molecule, acceptor atom, score
      L1  H     3    22       P1  7948  0.80
      L1  H    10    32       P1  7948  1.00
      P1  H  7989  7998       L1    15  0.61
      L1  C    14    35       P1  8028  1.00

> <Gold.PLP.Chemscore.Internal.Correction>
0.3122

> <Gold.Rescore>
     Score         DG    S(hbond)    S(metal)    S(lipo)     H(rot)  DE(clash)    DE(int)     intcor
     16.42     -17.80       1.91        0.00      80.92       1.38       0.15       1.23       ----

> <Gold.Chemscore.Fitness>
16.4165

> <Gold.Chemscore.DG>
-17.7981

> <Gold.Chemscore.ZeroCoef>
-5.4800

> <Gold.Chemscore.Hbond>
1.9107

> <Gold.Chemscore.Metal>
0.0000

> <Gold.Chemscore.Lipo>
80.9247

> <Gold.Chemscore.Internal_Hbond>
0.0000

> <Gold.Chemscore.DEClash>
0.1470

> <Gold.Chemscore.DEInternal>
1.2346

> <Gold.Chemscore.Rot>
1.3796

> <Gold.Chemscore.Internal.Correction>
   9.000000E+99

> <Gold.Chemscore.Hbonds>
donor molecule, donor type, donor heavy atom, donor atom, acceptor molecule, acceptor atom, score
      L1  H     3    22       P1  7948  0.75
      L1  H    10    32       P1  7948  0.98
      P1  H  7989  7998       L1    15  0.31

> <Gold.Chemscore.Hbond.Weighted>
-6.3816

> <Gold.Chemscore.Metal.Weighted>
-0.0000

> <Gold.Chemscore.Lipo.Weighted>
-9.4682

> <Gold.Chemscore.Internal_Hbond.Weighted>
0.0000

> <Gold.Chemscore.DEClash.Weighted>
0.1470

> <Gold.Chemscore.DEInternal.Weighted>
1.2346

> <Gold.Chemscore.Rot.Weighted>
3.5317

> <Gold.Chemscore.Internal.Correction.Weighted>
   9.000000E+99

> <Gold.Protein.RotatedTorsions>
[ 6907 6896 6895 6894 ] final   96.12 input  -60.11 | X-H torsion
[ 7974 7965 7964 7962 ] final  113.52 input  175.53 | X-H torsion
[ 8008 7997 7996 7995 ] final   -3.24 input   59.86 | X-H torsion
[ 10167 10162 10161 10158 ] final -170.87 input  -65.29 | X-H torsion
[ 10718 10713 10712 10709 ] final -167.21 input   66.30 | X-H torsion
[ 10763 10752 10751 10750 ] final  152.84 input  -60.55 | X-H torsion
[ 11005 11000 10999 10996 ] final  173.26 input  -57.11 | X-H torsion

> <Gold.Protein.ActiveResidues>
 VAL166  LYS551  ARG553  GLY616  TRP617  ASP618  TYR619  PRO620  LYS621  CYS622 
 ASP623  PHE694  ASN695  SER759  ASP760  ASP761  ALA762  ILE779  LEU786  VAL792 
 PHE793  MET794  SER795  GLU796  ALA797  LYS798  CYS799  TRP800  GLU811  SER814 

> <Gold.Protein.RotatedAtoms>
  152.5438  134.0935  159.8286 H   0  0  0  0  0  0  0  0  0  0  0  0  # atno 6907 bound_to 6896
  151.1021  133.5228  159.2617 H   0  0  0  0  0  0  0  0  0  0  0  0  # atno 6908 bound_to 6896
  151.1979  135.0439  159.8914 H   0  0  0  0  0  0  0  0  0  0  0  0  # atno 6909 bound_to 6896
  145.2160  139.2884  143.4243 H   0  0  0  0  0  0  0  0  0  0  0  0  # atno 7974 bound_to 7965
  154.6270  140.2514  155.7480 H   0  0  0  0  0  0  0  0  0  0  0  0  # atno 8008 bound_to 7997
  156.2459  140.2915  156.0524 H   0  0  0  0  0  0  0  0  0  0  0  0  # atno 8009 bound_to 7997
  155.1805  140.0389  157.2871 H   0  0  0  0  0  0  0  0  0  0  0  0  # atno 8010 bound_to 7997
  139.5836  144.1369  152.1546 H   0  0  0  0  0  0  0  0  0  0  0  0  # atno 10167 bound_to 10162
  156.6791  130.9115  151.3054 H   0  0  0  0  0  0  0  0  0  0  0  0  # atno 10718 bound_to 10713
  154.1265  135.2829  155.3196 H   0  0  0  0  0  0  0  0  0  0  0  0  # atno 10763 bound_to 10752
  154.6386  135.5410  153.7766 H   0  0  0  0  0  0  0  0  0  0  0  0  # atno 10764 bound_to 10752
  153.0295  135.6480  154.1417 H   0  0  0  0  0  0  0  0  0  0  0  0  # atno 10765 bound_to 10752
  140.3386  134.7296  157.4186 H   0  0  0  0  0  0  0  0  0  0  0  0  # atno 11005 bound_to 11000
  146.3387  140.2450  142.8597 LP  0  0  0  0  0  0  0  0  0  0  0  0  # atno 17320 bound_to 7965
  144.9811  140.8460  143.5397 LP  0  0  0  0  0  0  0  0  0  0  0  0  # atno 17321 bound_to 7965
  140.0927  144.5607  150.7043 LP  0  0  0  0  0  0  0  0  0  0  0  0  # atno 17342 bound_to 10162
  140.7111  143.2505  151.4579 LP  0  0  0  0  0  0  0  0  0  0  0  0  # atno 17343 bound_to 10162
  157.7050  130.9375  150.0902 LP  0  0  0  0  0  0  0  0  0  0  0  0  # atno 17370 bound_to 10713
  156.1881  130.3653  149.8946 LP  0  0  0  0  0  0  0  0  0  0  0  0  # atno 17371 bound_to 10713
  140.0800  134.5744  155.8550 LP  0  0  0  0  0  0  0  0  0  0  0  0  # atno 17394 bound_to 11000
  141.2044  133.6639  156.6122 LP  0  0  0  0  0  0  0  0  0  0  0  0  # atno 17395 bound_to 11000

$$$$
