AV-unprocessed.smi:2845|AV-procd|sdf|10946|dock1
  -GOLD-   2272015393D 1   1.00000     0.00000
 Structure written by MMmdl.
 42 44  0  0  0  0  0  0  0  0  1 V2000
  151.9576  143.3297  161.9137 C   0  0  0  0  0  0  0  0  0  0  0  0
  151.8219  142.6855  160.5453 C   0  0  0  0  0  0  0  0  0  0  0  0
  152.2336  141.3448  160.3736 C   0  0  0  0  0  0  0  0  0  0  0  0
  152.1257  140.7091  159.1174 C   0  0  0  0  0  0  0  0  0  0  0  0
  152.4673  139.4249  158.7297 N   0  0  0  0  0  0  0  0  0  0  0  0
  152.1321  139.4364  157.4432 C   0  0  0  0  0  0  0  0  0  0  0  0
  151.6092  140.5758  156.9510 N   0  0  0  0  0  0  0  0  0  0  0  0
  151.1784  140.8166  155.5849 C   0  0  0  0  0  0  0  0  0  0  0  0
  150.3517  139.6500  155.0120 C   0  0  1  0  0  0  0  0  0  0  0  0
  149.5388  140.1184  153.9521 O   0  0  0  0  0  0  0  0  0  0  0  0
  151.2468  138.4991  154.5150 C   0  0  0  0  0  0  0  0  0  0  0  0
  151.0317  137.2712  155.2586 N   0  0  0  0  0  0  0  0  0  0  0  0
  150.2257  137.0187  156.2940 C   0  0  0  0  0  0  0  0  0  0  0  0
  150.2769  135.7653  156.7250 N   0  0  0  0  0  0  0  0  0  0  0  0
  151.1975  135.2760  155.8450 C   0  0  0  0  0  0  0  0  0  0  0  0
  151.7282  133.5355  155.9020 S   0  0  2  0  0  0  0  0  0  0  0  0
  150.8479  133.0180  154.3534 C   0  0  0  0  0  0  0  0  0  0  0  0
  150.9796  132.9047  157.0781 O   0  0  0  0  0  0  0  0  0  0  0  0
  151.6875  136.1281  154.9463 N   0  0  0  0  0  0  0  0  0  0  0  0
  151.5879  141.4560  158.0282 C   0  0  0  0  0  0  0  0  0  0  0  0
  151.1731  142.7903  158.1876 C   0  0  0  0  0  0  0  0  0  0  0  0
  151.2900  143.4110  159.4492 C   0  0  0  0  0  0  0  0  0  0  0  0
  150.8417  144.8529  159.6098 C   0  0  0  0  0  0  0  0  0  0  0  0
  152.3919  142.6396  162.6377 H   0  0  0  0  0  0  0  0  0  0  0  0
  150.9816  143.6378  162.2891 H   0  0  0  0  0  0  0  0  0  0  0  0
  152.6021  144.2073  161.8608 H   0  0  0  0  0  0  0  0  0  0  0  0
  152.6383  140.7912  161.2081 H   0  0  0  0  0  0  0  0  0  0  0  0
  152.2729  138.5645  156.8208 H   0  0  0  0  0  0  0  0  0  0  0  0
  150.6038  141.7430  155.5521 H   0  0  0  0  0  0  0  0  0  0  0  0
  152.0679  140.9809  154.9757 H   0  0  0  0  0  0  0  0  0  0  0  0
  149.6918  139.2690  155.7928 H   0  0  0  0  0  0  0  0  0  0  0  0
  149.9779  139.9413  153.1340 H   0  0  0  0  0  0  0  0  0  0  0  0
  151.0792  138.3090  153.4534 H   0  0  0  0  0  0  0  0  0  0  0  0
  152.2977  138.7716  154.6204 H   0  0  0  0  0  0  0  0  0  0  0  0
  149.5861  137.7668  156.7390 H   0  0  0  0  0  0  0  0  0  0  0  0
  150.6558  133.8720  153.7037 H   0  0  0  0  0  0  0  0  0  0  0  0
  149.8955  132.5494  154.6008 H   0  0  0  0  0  0  0  0  0  0  0  0
  151.4545  132.2991  153.8028 H   0  0  0  0  0  0  0  0  0  0  0  0
  150.7674  143.3314  157.3458 H   0  0  0  0  0  0  0  0  0  0  0  0
  150.4377  145.2500  158.6783 H   0  0  0  0  0  0  0  0  0  0  0  0
  151.6809  145.4825  159.9057 H   0  0  0  0  0  0  0  0  0  0  0  0
  150.0647  144.9300  160.3706 H   0  0  0  0  0  0  0  0  0  0  0  0
  1  2  1  0  0  0  0
  1 24  1  0  0  0  0
  1 25  1  0  0  0  0
  1 26  1  0  0  0  0
  2 22  1  0  0  0  0
  2  3  2  0  0  0  0
  3  4  1  0  0  0  0
  3 27  1  0  0  0  0
  4 20  2  0  0  0  0
  4  5  1  0  0  0  0
  5  6  2  0  0  0  0
  6  7  1  0  0  0  0
  6 28  1  0  0  0  0
  7  8  1  0  0  0  0
  7 20  1  0  0  0  0
  8  9  1  0  0  0  0
  8 29  1  0  0  0  0
  8 30  1  0  0  0  0
  9 10  1  0  0  0  0
  9 11  1  0  0  0  0
  9 31  1  0  0  0  0
 10 32  1  0  0  0  0
 11 12  1  0  0  0  0
 11 33  1  0  0  0  0
 11 34  1  0  0  0  0
 12 19  1  0  0  0  0
 12 13  1  0  0  0  0
 13 14  2  0  0  0  0
 13 35  1  0  0  0  0
 14 15  1  0  0  0  0
 15 16  1  0  0  0  0
 15 19  2  0  0  0  0
 16 17  1  0  0  0  0
 16 18  2  0  0  0  0
 17 36  1  0  0  0  0
 17 37  1  0  0  0  0
 17 38  1  0  0  0  0
 20 21  1  0  0  0  0
 21 22  2  0  0  0  0
 21 39  1  0  0  0  0
 22 23  1  0  0  0  0
 23 40  1  0  0  0  0
 23 41  1  0  0  0  0
 23 42  1  0  0  0  0
M  END
> <s_m_source_file>
AV-unprocessed.smi

> <i_m_source_file_index>
2845

> <i_lp_mmshare_version>
43012

> <i_f3d_flags>
0

> <s_epik_input>
W0NIM11jKFtjSF0xKWMoW0NIM10pW2NIXWMoYzEyKW4oW2NIXW4yKVtDSDJdW0NASF0oW09IXSlbQ0gyXW4zW2NIXW5jKG4zKVtTQF0oPU8pW0NIM10=

> <s_epik_cmdline>
J2VwaWtfcHl0aG9uJywgJy1waCcsICc3LjAnLCAnLXRuJywgJzgnLCAnLW1hJywgJzIwMCcsICctbWV0YWxfYmluZGluZycsICctaW1hZScsICc8aW5maWxlLm1hZT4nLCAnLW9tYWUnLCAnPG91dGZpbGUubWFlPic=

> <r_lp_tautomer_probability>
1

> <r_epik_Ionization_Penalty>
0.0968684

> <r_epik_Ionization_Penalty_Charging>
0

> <r_epik_Ionization_Penalty_Neutral>
0.0968684

> <r_epik_State_Penalty>
0.0870047

> <r_epik_Charging_Adjusted_Penalty>
0.0870047

> <i_epik_Tot_Q>
0

> <i_epik_Tot_abs_Q>
0

> <r_epik_Metal_State_Penalty>
0.0746849

> <b_epik_Metal_Only>
0

> <s_lp_Force_Field>
OPLS_2005

> <r_lp_Energy>
9.68664

> <b_lp_Chiralities_Consistent>
1

> <s_lp_Variant>
AV-unprocessed.smi:2845-4

> <Gold.Version>
5.8.1

> <Gold.Id.Protein>
6NUR|6NUR_protein|mol2

> <Gold.PLP.Fitness>
51.4997

> <Gold.PLP.PLP>
-45.5376

> <Gold.PLP.part.hbond>
-4.0000

> <Gold.PLP.part.metal>
0.0000

> <Gold.PLP.part.buried>
-5.2589

> <Gold.PLP.part.nonpolar>
-35.9733

> <Gold.PLP.part.repulsive>
0.1275

> <Gold.PLP.ligand.clash>
0.0000

> <Gold.PLP.ligand.torsion>
1.8530

> <Gold.PLP.Chemscore.Hbond>
2.8320

> <Gold.PLP.Chemscore.CHOScore>
0.0000

> <Gold.PLP.Chemscore.Metal>
0.0000

> <Gold.Chemscore.Hbonds>
donor molecule, donor type, donor heavy atom, donor atom, acceptor molecule, acceptor atom, score
      L1  H    10    32       P1  7957  0.80
      P1  H  6896  6907       L1    18  0.27
      P1  H 10752 10765       L1    19  0.68

> <Gold.PLP.Chemscore.Internal.Correction>
1.1722

> <Gold.Rescore>
     Score         DG    S(hbond)    S(metal)    S(lipo)     H(rot)  DE(clash)    DE(int)     intcor
     16.45     -19.32       2.44        0.00     107.89       2.71       1.23       1.64       ----

> <Gold.Chemscore.Fitness>
16.4529

> <Gold.Chemscore.DG>
-19.3158

> <Gold.Chemscore.ZeroCoef>
-5.4800

> <Gold.Chemscore.Hbond>
2.4407

> <Gold.Chemscore.Metal>
0.0000

> <Gold.Chemscore.Lipo>
107.8923

> <Gold.Chemscore.Internal_Hbond>
0.0000

> <Gold.Chemscore.DEClash>
1.2252

> <Gold.Chemscore.DEInternal>
1.6377

> <Gold.Chemscore.Rot>
2.7108

> <Gold.Chemscore.Internal.Correction>
   9.000000E+99

> <Gold.Chemscore.Hbonds>
donor molecule, donor type, donor heavy atom, donor atom, acceptor molecule, acceptor atom, score
      L1  H    10    32       P1  7957  0.76
      P1  H  6896  6907       L1    18  0.26
      P1  H 10752 10765       L1    19  0.09

> <Gold.Chemscore.Hbond.Weighted>
-8.1520

> <Gold.Chemscore.Metal.Weighted>
-0.0000

> <Gold.Chemscore.Lipo.Weighted>
-12.6234

> <Gold.Chemscore.Internal_Hbond.Weighted>
0.0000

> <Gold.Chemscore.DEClash.Weighted>
1.2252

> <Gold.Chemscore.DEInternal.Weighted>
1.6377

> <Gold.Chemscore.Rot.Weighted>
6.9396

> <Gold.Chemscore.Internal.Correction.Weighted>
   9.000000E+99

> <Gold.Protein.RotatedTorsions>
[ 6907 6896 6895 6894 ] final -126.32 input  -60.11 | X-H torsion
[ 7974 7965 7964 7962 ] final  139.59 input  175.53 | X-H torsion
[ 8008 7997 7996 7995 ] final  -54.14 input   59.86 | X-H torsion
[ 10167 10162 10161 10158 ] final   28.39 input  -65.29 | X-H torsion
[ 10718 10713 10712 10709 ] final -108.59 input   66.30 | X-H torsion
[ 10763 10752 10751 10750 ] final -161.95 input  -60.55 | X-H torsion
[ 11005 11000 10999 10996 ] final  -89.41 input  -57.11 | X-H torsion

> <Gold.Protein.ActiveResidues>
 VAL166  LYS551  ARG553  GLY616  TRP617  ASP618  TYR619  PRO620  LYS621  CYS622 
 ASP623  PHE694  ASN695  SER759  ASP760  ASP761  ALA762  ILE779  LEU786  VAL792 
 PHE793  MET794  SER795  GLU796  ALA797  LYS798  CYS799  TRP800  GLU811  SER814 

> <Gold.Protein.RotatedAtoms>
  150.8957  133.7184  159.2892 H   0  0  0  0  0  0  0  0  0  0  0  0  # atno 6907 bound_to 6896
  151.4719  135.1045  159.9763 H   0  0  0  0  0  0  0  0  0  0  0  0  # atno 6908 bound_to 6896
  152.4847  133.8295  159.7151 H   0  0  0  0  0  0  0  0  0  0  0  0  # atno 6909 bound_to 6896
  144.9264  139.5102  143.5638 H   0  0  0  0  0  0  0  0  0  0  0  0  # atno 7974 bound_to 7965
  154.4154  140.1183  156.5267 H   0  0  0  0  0  0  0  0  0  0  0  0  # atno 8008 bound_to 7997
  155.6647  140.3496  155.4776 H   0  0  0  0  0  0  0  0  0  0  0  0  # atno 8009 bound_to 7997
  155.9684  140.1136  157.0824 H   0  0  0  0  0  0  0  0  0  0  0  0  # atno 8010 bound_to 7997
  140.4856  144.0547  150.6279 H   0  0  0  0  0  0  0  0  0  0  0  0  # atno 10167 bound_to 10162
  156.0493  130.5720  150.7982 H   0  0  0  0  0  0  0  0  0  0  0  0  # atno 10718 bound_to 10713
  154.7258  135.3035  154.8973 H   0  0  0  0  0  0  0  0  0  0  0  0  # atno 10763 bound_to 10752
  153.9831  135.6728  153.4755 H   0  0  0  0  0  0  0  0  0  0  0  0  # atno 10764 bound_to 10752
  153.0874  135.4977  154.8542 H   0  0  0  0  0  0  0  0  0  0  0  0  # atno 10765 bound_to 10752
  141.1585  133.7628  156.9590 H   0  0  0  0  0  0  0  0  0  0  0  0  # atno 11005 bound_to 11000
  146.3228  139.8183  142.8932 LP  0  0  0  0  0  0  0  0  0  0  0  0  # atno 17320 bound_to 7965
  145.3212  141.0244  143.3499 LP  0  0  0  0  0  0  0  0  0  0  0  0  # atno 17321 bound_to 7965
  140.3801  143.2807  152.0179 LP  0  0  0  0  0  0  0  0  0  0  0  0  # atno 17342 bound_to 10162
  139.4841  144.6161  151.7343 LP  0  0  0  0  0  0  0  0  0  0  0  0  # atno 17343 bound_to 10162
  157.5403  131.0940  150.9837 LP  0  0  0  0  0  0  0  0  0  0  0  0  # atno 17370 bound_to 10713
  157.0121  130.5641  149.5322 LP  0  0  0  0  0  0  0  0  0  0  0  0  # atno 17371 bound_to 10713
  140.1206  134.9419  157.2197 LP  0  0  0  0  0  0  0  0  0  0  0  0  # atno 17394 bound_to 11000
  140.3077  134.3059  155.7274 LP  0  0  0  0  0  0  0  0  0  0  0  0  # atno 17395 bound_to 11000

$$$$
