AV-unprocessed.smi:1685|AV-procd|sdf|6757|dock6
  -GOLD-   22720 7513D 1   1.00000     0.00000
 Structure written by MMmdl.
 40 41  0  0  0  0  0  0  0  0  1 V2000
  145.0295  143.8439  154.4432 C   0  0  0  0  0  0  0  0  0  0  0  0
  145.8967  142.6255  154.1087 C   0  0  0  0  0  0  0  0  0  0  0  0
  146.4060  141.9297  155.3313 C   0  0  0  0  0  0  0  0  0  0  0  0
  145.7067  141.7247  156.4402 N   0  0  0  0  0  0  0  0  0  0  0  0
  146.5962  141.0779  157.2770 N   0  0  0  0  0  0  0  0  0  0  0  0
  147.7540  140.9177  156.7041 N   0  0  0  0  0  0  0  0  0  0  0  0
  147.6539  141.4572  155.4634 N   0  0  0  0  0  0  0  0  0  0  0  0
  148.7867  141.4442  154.5515 C   0  0  0  0  0  0  0  0  0  0  0  0
  150.1148  141.4139  155.3103 C   0  0  0  0  0  0  0  0  0  0  0  0
  150.9129  140.4980  155.1144 O   0  0  0  0  0  0  0  0  0  0  0  0
  150.3393  142.4214  156.1685 N   0  0  0  0  0  0  0  0  0  0  0  0
  151.5249  142.5731  157.0048 C   0  0  0  0  0  0  0  0  0  0  0  0
  151.5034  141.5099  158.1240 C   0  0  0  0  0  0  0  0  0  0  0  0
  152.6260  141.7531  159.1479 C   0  0  0  0  0  0  0  0  0  0  0  0
  152.4896  143.1141  159.6808 N   0  0  0  0  0  0  0  0  0  0  0  0
  152.0707  143.4286  160.9303 C   0  0  0  0  0  0  0  0  0  0  0  0
  151.9078  144.9006  161.3165 C   0  0  0  0  0  0  0  0  0  0  0  0
  151.8167  142.5760  161.7813 O   0  0  0  0  0  0  0  0  0  0  0  0
  152.7139  144.1246  158.6408 C   0  0  0  0  0  0  0  0  0  0  0  0
  151.6012  144.0048  157.5837 C   0  0  0  0  0  0  0  0  0  0  0  0
  144.6693  144.3258  153.5343 H   0  0  0  0  0  0  0  0  0  0  0  0
  145.5937  144.5838  155.0116 H   0  0  0  0  0  0  0  0  0  0  0  0
  144.1600  143.5576  155.0358 H   0  0  0  0  0  0  0  0  0  0  0  0
  145.3174  141.9131  153.5205 H   0  0  0  0  0  0  0  0  0  0  0  0
  146.7371  142.9256  153.4826 H   0  0  0  0  0  0  0  0  0  0  0  0
  148.7048  140.5749  153.8981 H   0  0  0  0  0  0  0  0  0  0  0  0
  148.7491  142.3279  153.9127 H   0  0  0  0  0  0  0  0  0  0  0  0
  149.6258  143.1303  156.2602 H   0  0  0  0  0  0  0  0  0  0  0  0
  152.4173  142.3973  156.4011 H   0  0  0  0  0  0  0  0  0  0  0  0
  150.5414  141.5317  158.6389 H   0  0  0  0  0  0  0  0  0  0  0  0
  151.6008  140.5122  157.6942 H   0  0  0  0  0  0  0  0  0  0  0  0
  152.6048  140.9794  159.9140 H   0  0  0  0  0  0  0  0  0  0  0  0
  153.5984  141.6537  158.6635 H   0  0  0  0  0  0  0  0  0  0  0  0
  152.8484  145.4392  161.1966 H   0  0  0  0  0  0  0  0  0  0  0  0
  151.6031  144.9929  162.3596 H   0  0  0  0  0  0  0  0  0  0  0  0
  151.1439  145.3784  160.7027 H   0  0  0  0  0  0  0  0  0  0  0  0
  152.7414  145.1404  159.0372 H   0  0  0  0  0  0  0  0  0  0  0  0
  153.6889  143.9607  158.1796 H   0  0  0  0  0  0  0  0  0  0  0  0
  151.7714  144.7262  156.7838 H   0  0  0  0  0  0  0  0  0  0  0  0
  150.6466  144.2702  158.0407 H   0  0  0  0  0  0  0  0  0  0  0  0
  1  2  1  0  0  0  0
  1 21  1  0  0  0  0
  1 22  1  0  0  0  0
  1 23  1  0  0  0  0
  2  3  1  0  0  0  0
  2 24  1  0  0  0  0
  2 25  1  0  0  0  0
  3  7  1  0  0  0  0
  3  4  2  0  0  0  0
  4  5  1  0  0  0  0
  5  6  2  0  0  0  0
  6  7  1  0  0  0  0
  7  8  1  0  0  0  0
  8  9  1  0  0  0  0
  8 26  1  0  0  0  0
  8 27  1  0  0  0  0
  9 10  2  0  0  0  0
  9 11  1  0  0  0  0
 11 12  1  0  0  0  0
 11 28  1  0  0  0  0
 12 20  1  0  0  0  0
 12 13  1  0  0  0  0
 12 29  1  0  0  0  0
 13 14  1  0  0  0  0
 13 30  1  0  0  0  0
 13 31  1  0  0  0  0
 14 15  1  0  0  0  0
 14 32  1  0  0  0  0
 14 33  1  0  0  0  0
 15 16  1  0  0  0  0
 15 19  1  0  0  0  0
 16 17  1  0  0  0  0
 16 18  2  0  0  0  0
 17 34  1  0  0  0  0
 17 35  1  0  0  0  0
 17 36  1  0  0  0  0
 19 20  1  0  0  0  0
 19 37  1  0  0  0  0
 19 38  1  0  0  0  0
 20 39  1  0  0  0  0
 20 40  1  0  0  0  0
M  END
> <s_m_source_file>
AV-unprocessed.smi

> <i_m_source_file_index>
1685

> <i_lp_mmshare_version>
43012

> <i_f3d_flags>
0

> <s_epik_input>
W0NIM11bQ0gyXWMxbm5ubjFbQ0gyXUMoPU8pW05IXVtDSF0yW0NIMl1bQ0gyXU4oQyg9TylbQ0gzXSlbQ0gyXVtDSDJdMg==

> <s_epik_cmdline>
J2VwaWtfcHl0aG9uJywgJy1waCcsICc3LjAnLCAnLXRuJywgJzgnLCAnLW1hJywgJzIwMCcsICctbWV0YWxfYmluZGluZycsICctaW1hZScsICc8aW5maWxlLm1hZT4nLCAnLW9tYWUnLCAnPG91dGZpbGUubWFlPic=

> <r_lp_tautomer_probability>
1

> <r_epik_Ionization_Penalty>
1.8486e-06

> <r_epik_Ionization_Penalty_Charging>
0

> <r_epik_Ionization_Penalty_Neutral>
1.8486e-06

> <r_epik_State_Penalty>
-0

> <r_epik_Charging_Adjusted_Penalty>
0

> <i_epik_Tot_Q>
0

> <i_epik_Tot_abs_Q>
0

> <r_epik_Metal_State_Penalty>
-0

> <b_epik_Metal_Only>
0

> <s_lp_Force_Field>
OPLS_2005

> <r_lp_Energy>
22.135

> <b_lp_Chiralities_Consistent>
1

> <s_lp_Variant>
AV-unprocessed.smi:1685-1

> <Gold.Version>
5.8.1

> <Gold.Id.Protein>
6NUR|6NUR_protein|mol2

> <Gold.PLP.Fitness>
48.6226

> <Gold.PLP.PLP>
-41.8875

> <Gold.PLP.part.hbond>
-3.0000

> <Gold.PLP.part.metal>
0.0000

> <Gold.PLP.part.buried>
-3.6206

> <Gold.PLP.part.nonpolar>
-36.2302

> <Gold.PLP.part.repulsive>
0.4171

> <Gold.PLP.ligand.clash>
0.0000

> <Gold.PLP.ligand.torsion>
0.7843

> <Gold.PLP.Chemscore.Hbond>
2.7600

> <Gold.PLP.Chemscore.CHOScore>
0.0000

> <Gold.PLP.Chemscore.Metal>
0.0000

> <Gold.Chemscore.Hbonds>
donor molecule, donor type, donor heavy atom, donor atom, acceptor molecule, acceptor atom, score
      L1  H    11    28       P1  8028  0.98
      P1  H  6933  6945       L1    18  0.77
      P1  H  7989  7998       L1    10  1.00

> <Gold.PLP.Chemscore.Internal.Correction>
0.0237

> <Gold.Rescore>
     Score         DG    S(hbond)    S(metal)    S(lipo)     H(rot)  DE(clash)    DE(int)     intcor
     16.24     -16.75       2.13        0.00      75.95       1.85       0.26       0.25       ----

> <Gold.Chemscore.Fitness>
16.2408

> <Gold.Chemscore.DG>
-16.7473

> <Gold.Chemscore.ZeroCoef>
-5.4800

> <Gold.Chemscore.Hbond>
2.1289

> <Gold.Chemscore.Metal>
0.0000

> <Gold.Chemscore.Lipo>
75.9519

> <Gold.Chemscore.Internal_Hbond>
0.0000

> <Gold.Chemscore.DEClash>
0.2567

> <Gold.Chemscore.DEInternal>
0.2499

> <Gold.Chemscore.Rot>
1.8476

> <Gold.Chemscore.Internal.Correction>
   9.000000E+99

> <Gold.Chemscore.Hbonds>
donor molecule, donor type, donor heavy atom, donor atom, acceptor molecule, acceptor atom, score
      L1  H    11    28       P1  8028  0.93
      P1  H  6933  6945       L1    18  0.73
      P1  H  7989  7998       L1    10  0.42

> <Gold.Chemscore.Hbond.Weighted>
-7.1107

> <Gold.Chemscore.Metal.Weighted>
-0.0000

> <Gold.Chemscore.Lipo.Weighted>
-8.8864

> <Gold.Chemscore.Internal_Hbond.Weighted>
0.0000

> <Gold.Chemscore.DEClash.Weighted>
0.2567

> <Gold.Chemscore.DEInternal.Weighted>
0.2499

> <Gold.Chemscore.Rot.Weighted>
4.7298

> <Gold.Chemscore.Internal.Correction.Weighted>
   9.000000E+99

> <Gold.Protein.RotatedTorsions>
[ 6907 6896 6895 6894 ] final   73.01 input  -60.11 | X-H torsion
[ 7974 7965 7964 7962 ] final  -40.92 input  175.53 | X-H torsion
[ 8008 7997 7996 7995 ] final -177.49 input   59.86 | X-H torsion
[ 10167 10162 10161 10158 ] final -169.27 input  -65.29 | X-H torsion
[ 10718 10713 10712 10709 ] final -133.08 input   66.30 | X-H torsion
[ 10763 10752 10751 10750 ] final  151.15 input  -60.55 | X-H torsion
[ 11005 11000 10999 10996 ] final  151.50 input  -57.11 | X-H torsion

> <Gold.Protein.ActiveResidues>
 VAL166  LYS551  ARG553  GLY616  TRP617  ASP618  TYR619  PRO620  LYS621  CYS622 
 ASP623  PHE694  ASN695  SER759  ASP760  ASP761  ALA762  ILE779  LEU786  VAL792 
 PHE793  MET794  SER795  GLU796  ALA797  LYS798  CYS799  TRP800  GLU811  SER814 

> <Gold.Protein.RotatedAtoms>
  152.4900  134.4486  159.9566 H   0  0  0  0  0  0  0  0  0  0  0  0  # atno 6907 bound_to 6896
  151.4475  133.3620  159.2798 H   0  0  0  0  0  0  0  0  0  0  0  0  # atno 6908 bound_to 6896
  150.9045  134.8483  159.7443 H   0  0  0  0  0  0  0  0  0  0  0  0  # atno 6909 bound_to 6896
  146.0259  140.6792  142.9156 H   0  0  0  0  0  0  0  0  0  0  0  0  # atno 7974 bound_to 7965
  156.0075  140.1233  157.0486 H   0  0  0  0  0  0  0  0  0  0  0  0  # atno 8008 bound_to 7997
  154.4264  140.1094  156.5853 H   0  0  0  0  0  0  0  0  0  0  0  0  # atno 8009 bound_to 7997
  155.6126  140.3471  155.4629 H   0  0  0  0  0  0  0  0  0  0  0  0  # atno 8010 bound_to 7997
  139.5933  144.1166  152.1660 H   0  0  0  0  0  0  0  0  0  0  0  0  # atno 10167 bound_to 10162
  156.2412  130.7097  151.0959 H   0  0  0  0  0  0  0  0  0  0  0  0  # atno 10718 bound_to 10713
  154.0990  135.2847  155.3255 H   0  0  0  0  0  0  0  0  0  0  0  0  # atno 10763 bound_to 10752
  154.6568  135.5349  153.7972 H   0  0  0  0  0  0  0  0  0  0  0  0  # atno 10764 bound_to 10752
  153.0385  135.6524  154.1155 H   0  0  0  0  0  0  0  0  0  0  0  0  # atno 10765 bound_to 10752
  140.1225  134.8855  157.2091 H   0  0  0  0  0  0  0  0  0  0  0  0  # atno 11005 bound_to 11000
  144.7009  140.3649  143.7156 LP  0  0  0  0  0  0  0  0  0  0  0  0  # atno 17320 bound_to 7965
  145.7119  139.1687  143.2534 LP  0  0  0  0  0  0  0  0  0  0  0  0  # atno 17321 bound_to 7965
  140.0745  144.5752  150.7167 LP  0  0  0  0  0  0  0  0  0  0  0  0  # atno 17342 bound_to 10162
  140.7191  143.2572  151.4336 LP  0  0  0  0  0  0  0  0  0  0  0  0  # atno 17343 bound_to 10162
  157.7176  131.0701  150.6265 LP  0  0  0  0  0  0  0  0  0  0  0  0  # atno 17370 bound_to 10713
  156.6338  130.4439  149.5777 LP  0  0  0  0  0  0  0  0  0  0  0  0  # atno 17371 bound_to 10713
  140.2947  134.3200  155.7305 LP  0  0  0  0  0  0  0  0  0  0  0  0  # atno 17394 bound_to 11000
  141.2154  133.7556  156.9554 LP  0  0  0  0  0  0  0  0  0  0  0  0  # atno 17395 bound_to 11000

$$$$
