#       Name:                AV-unprocessed.smi:1703
#       Creating user name   scv26
#       Creation time:       Fri Mar 27 08:05:39 2020


#       File generated by GOLD software.
#

@<TRIPOS>MOLECULE
AV-unprocessed.smi:1703
    56    58     1
SMALL
NO_CHARGES


@<TRIPOS>ATOM
      1 ****        -2.0231   3.6800  -2.6173 C.3            1 S1                 0.0000
      2 ****        -2.6722   2.8178  -1.5201 C.3            1 S1                 0.0000
      3 ****        -2.1939   1.3525  -1.5259 C.3            1 S1                 0.0000
      4 ****        -0.8153   1.2364  -0.9952 N.4            1 S1                 1.0000
      5 ****        -0.3001  -0.1549  -1.0543 C.3            1 S1                 0.0000
      6 ****         1.2433  -0.2165  -1.0625 C.3            1 S1                 0.0000
      7 ****         1.7204   0.3992  -2.2417 O.3            1 S1                 0.0000
      8 ****         1.8078  -1.6507  -1.0191 C.3            1 S1                 0.0000
      9 ****         1.3527  -2.3973   0.1465 N.pl3          1 S1                 0.0000
     10 ****         0.4530  -3.4130   0.2060 C.2            1 S1                 0.0000
     11 ****        -0.2427  -3.9454  -1.0095 C.3            1 S1                 0.0000
     12 ****         0.5954  -4.7528  -1.8080 O.3            1 S1                 0.0000
     13 ****         0.2191  -3.9089   1.4212 N.2            1 S1                 0.0000
     14 ****         1.0529  -3.1560   2.2241 C.ar           1 S1                 0.0000
     15 ****         1.2687  -3.1991   3.6200 C.ar           1 S1                 0.0000
     16 ****         2.1868  -2.3178   4.2277 C.ar           1 S1                 0.0000
     17 ****         2.8997  -1.3823   3.4505 C.ar           1 S1                 0.0000
     18 ****         2.6979  -1.3211   2.0584 C.ar           1 S1                 0.0000
     19 ****         1.7801  -2.2029   1.4565 C.ar           1 S1                 0.0000
     20 ****        -0.7335   1.8453   0.3543 C.3            1 S1                 0.0000
     21 ****        -1.1884   3.3148   0.3058 C.3            1 S1                 0.0000
     22 ****        -1.1974   3.9587   1.6966 C.3            1 S1                 0.0000
     23 ****        -2.5115   3.3852  -0.2198 O.3            1 S1                 0.0000
     24 ****        -2.2715   3.2960  -3.6071 H              1 S1                 0.0000
     25 ****        -0.9363   3.6988  -2.5425 H              1 S1                 0.0000
     26 ****        -2.3807   4.7084  -2.5651 H              1 S1                 0.0000
     27 ****        -3.7448   2.8157  -1.7169 H              1 S1                 0.0000
     28 ****        -2.8619   0.7457  -0.9122 H              1 S1                 0.0000
     29 ****        -2.2440   0.9508  -2.5387 H              1 S1                 0.0000
     30 ****        -0.7139  -0.7141  -0.2141 H              1 S1                 0.0000
     31 ****        -0.6686  -0.6454  -1.9565 H              1 S1                 0.0000
     32 ****         1.6464   0.3352  -0.2144 H              1 S1                 0.0000
     33 ****         1.4678  -0.1297  -2.9834 H              1 S1                 0.0000
     34 ****         1.5428  -2.1906  -1.9277 H              1 S1                 0.0000
     35 ****         2.8979  -1.6218  -0.9937 H              1 S1                 0.0000
     36 ****        -1.1044  -4.5386  -0.7013 H              1 S1                 0.0000
     37 ****        -0.6295  -3.1189  -1.6053 H              1 S1                 0.0000
     38 ****         0.0869  -5.0974  -2.5263 H              1 S1                 0.0000
     39 ****         0.7287  -3.9128   4.2244 H              1 S1                 0.0000
     40 ****         2.3456  -2.3614   5.2952 H              1 S1                 0.0000
     41 ****         3.6026  -0.7125   3.9241 H              1 S1                 0.0000
     42 ****         3.2448  -0.6067   1.4612 H              1 S1                 0.0000
     43 ****        -1.3572   1.2790   1.0481 H              1 S1                 0.0000
     44 ****         0.2861   1.7984   0.7345 H              1 S1                 0.0000
     45 ****        -0.5097   3.8881  -0.3262 H              1 S1                 0.0000
     46 ****        -0.2022   3.9458   2.1420 H              1 S1                 0.0000
     47 ****        -1.8729   3.4328   2.3720 H              1 S1                 0.0000
     48 ****        -1.5229   4.9979   1.6425 H              1 S1                 0.0000
     49 ****        -0.2267   1.7844  -1.6069 H              1 S1                 0.0000
     50 ****         2.7170   0.4716  -2.2039 LP             1 S1                 0.0000
     51 ****         1.3229   1.3127  -2.3288 LP             1 S1                 0.0000
     52 ****         0.9585  -5.5065  -1.2602 LP             1 S1                 0.0000
     53 ****         1.3522  -4.2044  -2.1636 LP             1 S1                 0.0000
     54 ****        -0.4054  -4.6438   1.6857 LP             1 S1                 0.0000
     55 ****        -3.1214   2.9014   0.4079 LP             1 S1                 0.0000
     56 ****        -2.7767   4.3483  -0.2661 LP             1 S1                 0.0000
@<TRIPOS>BOND
    1    1    2 1     
    2    1   24 1     
    3    1   25 1     
    4    1   26 1     
    5    2   23 1     
    6    2    3 1     
    7    2   27 1     
    8    3    4 1     
    9    3   28 1     
   10    3   29 1     
   11    4    5 1     
   12    4   20 1     
   13    4   49 1     
   14    5    6 1     
   15    5   30 1     
   16    5   31 1     
   17    6    7 1     
   18    6    8 1     
   19    6   32 1     
   20    7   33 1     
   21    8    9 1     
   22    8   34 1     
   23    8   35 1     
   24    9   19 1     
   25    9   10 1     
   26   10   11 1     
   27   10   13 2     
   28   11   12 1     
   29   11   36 1     
   30   11   37 1     
   31   12   38 1     
   32   13   14 1     
   33   14   19 ar    
   34   14   15 ar    
   35   15   16 ar    
   36   15   39 1     
   37   16   17 ar    
   38   16   40 1     
   39   17   18 ar    
   40   17   41 1     
   41   18   19 ar    
   42   18   42 1     
   43   20   21 1     
   44   20   43 1     
   45   20   44 1     
   46   21   22 1     
   47   21   23 1     
   48   21   45 1     
   49   22   46 1     
   50   22   47 1     
   51   22   48 1     
   52    7   50 1     
   53    7   51 1     
   54   12   52 1     
   55   12   53 1     
   56   13   54 1     
   57   23   55 1     
   58   23   56 1     
@<TRIPOS>SUBSTRUCTURE
      1 S1             1
@<TRIPOS>SET
LONE_PAIRS      STATIC     ATOMS    <user>   **** ""
7 50 51 52 53 54 55 56
DONOR_HYDROGENS      STATIC     ATOMS    <user>   **** ""
3 49 33 38
ATOM$BLUE        STATIC     ATOMS    COLORGROUP SYSTEM
7 50 51 52 53 54 55 56
ATOM$RED        STATIC     ATOMS    COLORGROUP SYSTEM
3 49 33 38
