AV-unprocessed.smi:1978|AV-procd|sdf|8012|dock10
  -GOLD-   2272010203D 1   1.00000     0.00000
 Structure written by MMmdl.
 44 45  0  0  0  0  0  0  0  0  3 V2000
  146.3771  134.1702  162.1512 C   0  0  0  0  0  0  0  0  0  0  0  0
  146.7976  135.3224  161.3050 C   0  0  0  0  0  0  0  0  0  0  0  0
  147.4734  135.4091  160.1207 C   0  0  0  0  0  0  0  0  0  0  0  0
  147.5333  136.8089  159.8868 C   0  0  0  0  0  0  0  0  0  0  0  0
  148.1731  137.3221  158.7276 N   0  0  0  0  0  0  0  0  0  0  0  0
  149.2087  136.8084  158.0387 C   0  0  0  0  0  0  0  0  0  0  0  0
  149.7279  135.7431  158.3926 O   0  0  0  0  0  0  0  0  0  0  0  0
  149.5574  137.5879  156.9788 N   0  5  0  0  0  0  0  0  0  0  0  0
  150.8568  137.5465  156.3085 C   0  0  0  0  0  0  0  0  0  0  0  0
  151.4661  138.9720  156.2080 C   0  0  2  0  0  0  0  0  0  0  0  0
  152.7137  139.0712  155.2927 C   0  0  0  0  0  0  0  0  0  0  0  0
  151.6989  139.5482  157.5782 N   0  3  1  0  0  0  0  0  0  0  0  0
  152.6934  138.7865  158.4007 C   0  0  0  0  0  0  0  0  0  0  0  0
  152.6983  139.2462  159.8630 C   0  0  0  0  0  0  0  0  0  0  0  0
  153.0256  140.7366  159.9412 C   0  0  0  0  0  0  0  0  0  0  0  0
  152.0190  141.5196  159.0955 C   0  0  0  0  0  0  0  0  0  0  0  0
  151.9624  141.0279  157.6298 C   0  0  2  0  0  0  0  0  0  0  0  0
  150.9058  141.8776  156.8893 C   0  0  0  0  0  0  0  0  0  0  0  0
  146.9419  137.5121  160.8414 N   0  0  0  0  0  0  0  0  0  0  0  0
  146.4676  136.5632  161.7548 O   0  0  0  0  0  0  0  0  0  0  0  0
  146.8493  133.2470  161.8149 H   0  0  0  0  0  0  0  0  0  0  0  0
  145.2966  134.0336  162.1075 H   0  0  0  0  0  0  0  0  0  0  0  0
  146.6566  134.3322  163.1924 H   0  0  0  0  0  0  0  0  0  0  0  0
  147.8641  134.6007  159.5207 H   0  0  0  0  0  0  0  0  0  0  0  0
  147.7960  138.1866  158.3693 H   0  0  0  0  0  0  0  0  0  0  0  0
  151.5617  136.9133  156.8497 H   0  0  0  0  0  0  0  0  0  0  0  0
  150.7823  137.1154  155.3099 H   0  0  0  0  0  0  0  0  0  0  0  0
  150.6946  139.5507  155.7104 H   0  0  0  0  0  0  0  0  0  0  0  0
  152.4809  138.8083  154.2594 H   0  0  0  0  0  0  0  0  0  0  0  0
  153.5296  138.4210  155.6128 H   0  0  0  0  0  0  0  0  0  0  0  0
  153.0959  140.0920  155.2712 H   0  0  0  0  0  0  0  0  0  0  0  0
  152.4803  137.7176  158.3783 H   0  0  0  0  0  0  0  0  0  0  0  0
  153.6946  138.9143  157.9869 H   0  0  0  0  0  0  0  0  0  0  0  0
  151.7269  139.0499  160.3189 H   0  0  0  0  0  0  0  0  0  0  0  0
  153.4322  138.6743  160.4314 H   0  0  0  0  0  0  0  0  0  0  0  0
  152.9968  141.0772  160.9767 H   0  0  0  0  0  0  0  0  0  0  0  0
  154.0381  140.9178  159.5781 H   0  0  0  0  0  0  0  0  0  0  0  0
  151.0298  141.4347  159.5482 H   0  0  0  0  0  0  0  0  0  0  0  0
  152.2782  142.5787  159.1257 H   0  0  0  0  0  0  0  0  0  0  0  0
  152.9333  141.2138  157.1682 H   0  0  0  0  0  0  0  0  0  0  0  0
  151.0106  142.9339  157.1388 H   0  0  0  0  0  0  0  0  0  0  0  0
  149.8924  141.5780  157.1588 H   0  0  0  0  0  0  0  0  0  0  0  0
  151.0050  141.8225  155.8061 H   0  0  0  0  0  0  0  0  0  0  0  0
  150.8109  139.4315  158.0457 H   0  0  0  0  0  0  0  0  0  0  0  0
  1  2  1  0  0  0  0
  1 21  1  0  0  0  0
  1 22  1  0  0  0  0
  1 23  1  0  0  0  0
  2 20  1  0  0  0  0
  2  3  2  0  0  0  0
  3  4  1  0  0  0  0
  3 24  1  0  0  0  0
  4  5  1  0  0  0  0
  4 19  2  0  0  0  0
  5  6  1  0  0  0  0
  5 25  1  0  0  0  0
  6  7  2  0  0  0  0
  6  8  1  0  0  0  0
  8  9  1  0  0  0  0
  9 10  1  0  0  0  0
  9 26  1  0  0  0  0
  9 27  1  0  0  0  0
 10 11  1  0  0  0  0
 10 12  1  0  0  0  0
 10 28  1  0  0  0  0
 11 29  1  0  0  0  0
 11 30  1  0  0  0  0
 11 31  1  0  0  0  0
 12 17  1  0  0  0  0
 12 13  1  0  0  0  0
 12 44  1  0  0  0  0
 13 14  1  0  0  0  0
 13 32  1  0  0  0  0
 13 33  1  0  0  0  0
 14 15  1  0  0  0  0
 14 34  1  0  0  0  0
 14 35  1  0  0  0  0
 15 16  1  0  0  0  0
 15 36  1  0  0  0  0
 15 37  1  0  0  0  0
 16 17  1  0  0  0  0
 16 38  1  0  0  0  0
 16 39  1  0  0  0  0
 17 18  1  0  0  0  0
 17 40  1  0  0  0  0
 18 41  1  0  0  0  0
 18 42  1  0  0  0  0
 18 43  1  0  0  0  0
 19 20  1  0  0  0  0
M  CHG  1   8  -1
M  CHG  1  12   1
M  END
> <s_m_source_file>
AV-unprocessed.smi

> <i_m_source_file_index>
1978

> <i_lp_mmshare_version>
43012

> <i_f3d_flags>
0

> <s_epik_input>
W0NIM11jMVtjSF1jKG5vMSlbTkhdQyg9TylbTkhdW0NIMl1bQ0BIXShbQ0gzXSlOMltDSDJdW0NIMl1bQ0gyXVtDSDJdW0NASF0yW0NIM10=

> <s_epik_cmdline>
J2VwaWtfcHl0aG9uJywgJy1waCcsICc3LjAnLCAnLXRuJywgJzgnLCAnLW1hJywgJzIwMCcsICctbWV0YWxfYmluZGluZycsICctaW1hZScsICc8aW5maWxlLm1hZT4nLCAnLW9tYWUnLCAnPG91dGZpbGUubWFlPic=

> <r_epik_Ionization_Penalty>
6.7666

> <r_epik_Ionization_Penalty_Charging>
6.7666

> <r_epik_Ionization_Penalty_Neutral>
5.77131e-06

> <r_epik_State_Penalty>
6.79217

> <r_epik_Charging_Adjusted_Penalty>
13.5588

> <i_epik_Tot_Q>
0

> <i_epik_Tot_abs_Q>
2

> <r_epik_Metal_State_Penalty>
2.72569

> <b_epik_Metal_Only>
1

> <s_lp_Force_Field>
OPLS_2005

> <r_lp_Energy>
22.8368

> <b_lp_Chiralities_Consistent>
1

> <s_lp_Variant>
AV-unprocessed.smi:1978-21

> <Gold.Version>
5.8.1

> <Gold.Id.Protein>
6NUR|6NUR_protein|mol2

> <Gold.PLP.Fitness>
39.9329

> <Gold.PLP.PLP>
-32.0120

> <Gold.PLP.part.hbond>
-3.0000

> <Gold.PLP.part.metal>
0.0000

> <Gold.PLP.part.buried>
-4.7256

> <Gold.PLP.part.nonpolar>
-24.3493

> <Gold.PLP.part.repulsive>
0.2233

> <Gold.PLP.ligand.clash>
0.0000

> <Gold.PLP.ligand.torsion>
0.4102

> <Gold.PLP.Chemscore.Hbond>
2.8560

> <Gold.PLP.Chemscore.CHOScore>
0.0000

> <Gold.PLP.Chemscore.Metal>
0.0000

> <Gold.Chemscore.Hbonds>
donor molecule, donor type, donor heavy atom, donor atom, acceptor molecule, acceptor atom, score
      P1  H  6896  6908       L1     7  1.00
      P1  H  6934  6947       L1    19  0.99

> <Gold.PLP.Chemscore.Internal.Correction>
0.1733

> <Gold.Rescore>
     Score         DG    S(hbond)    S(metal)    S(lipo)     H(rot)  DE(clash)    DE(int)     intcor
     18.33     -19.15       2.58        0.00      76.27       1.52       0.00       0.81       ----

> <Gold.Chemscore.Fitness>
18.3334

> <Gold.Chemscore.DG>
-19.1479

> <Gold.Chemscore.ZeroCoef>
-5.4800

> <Gold.Chemscore.Hbond>
2.5847

> <Gold.Chemscore.Metal>
0.0000

> <Gold.Chemscore.Lipo>
76.2708

> <Gold.Chemscore.Internal_Hbond>
0.0000

> <Gold.Chemscore.DEClash>
0.0009

> <Gold.Chemscore.DEInternal>
0.8136

> <Gold.Chemscore.Rot>
1.5190

> <Gold.Chemscore.Internal.Correction>
   9.000000E+99

> <Gold.Chemscore.Hbonds>
donor molecule, donor type, donor heavy atom, donor atom, acceptor molecule, acceptor atom, score
      P1  H  6896  6908       L1     7  0.98
      P1  H  6934  6947       L1    19  0.91

> <Gold.Chemscore.Hbond.Weighted>
-8.6328

> <Gold.Chemscore.Metal.Weighted>
-0.0000

> <Gold.Chemscore.Lipo.Weighted>
-8.9237

> <Gold.Chemscore.Internal_Hbond.Weighted>
0.0000

> <Gold.Chemscore.DEClash.Weighted>
0.0009

> <Gold.Chemscore.DEInternal.Weighted>
0.8136

> <Gold.Chemscore.Rot.Weighted>
3.8886

> <Gold.Chemscore.Internal.Correction.Weighted>
   9.000000E+99

> <Gold.Protein.RotatedTorsions>
[ 6907 6896 6895 6894 ] final  167.77 input  -60.11 | X-H torsion
[ 7974 7965 7964 7962 ] final -109.27 input  175.53 | X-H torsion
[ 8008 7997 7996 7995 ] final -107.33 input   59.86 | X-H torsion
[ 10167 10162 10161 10158 ] final  -68.17 input  -65.29 | X-H torsion
[ 10718 10713 10712 10709 ] final   41.02 input   66.30 | X-H torsion
[ 10763 10752 10751 10750 ] final   83.81 input  -60.55 | X-H torsion
[ 11005 11000 10999 10996 ] final  -94.99 input  -57.11 | X-H torsion

> <Gold.Protein.ActiveResidues>
 VAL166  LYS551  ARG553  GLY616  TRP617  ASP618  TYR619  PRO620  LYS621  CYS622 
 ASP623  PHE694  ASN695  SER759  ASP760  ASP761  ALA762  ILE779  LEU786  VAL792 
 PHE793  MET794  SER795  GLU796  ALA797  LYS798  CYS799  TRP800  GLU811  SER814 

> <Gold.Protein.RotatedAtoms>
  151.8581  133.3452  159.3694 H   0  0  0  0  0  0  0  0  0  0  0  0  # atno 6907 bound_to 6896
  150.7187  134.5234  159.5674 H   0  0  0  0  0  0  0  0  0  0  0  0  # atno 6908 bound_to 6896
  152.2741  134.7901  160.0460 H   0  0  0  0  0  0  0  0  0  0  0  0  # atno 6909 bound_to 6896
  145.1825  140.8978  143.3471 H   0  0  0  0  0  0  0  0  0  0  0  0  # atno 7974 bound_to 7965
  154.9278  140.0405  157.2032 H   0  0  0  0  0  0  0  0  0  0  0  0  # atno 8008 bound_to 7997
  154.8190  140.2880  155.5778 H   0  0  0  0  0  0  0  0  0  0  0  0  # atno 8009 bound_to 7997
  156.2978  140.2522  156.3094 H   0  0  0  0  0  0  0  0  0  0  0  0  # atno 8010 bound_to 7997
  140.5527  143.2312  151.6880 H   0  0  0  0  0  0  0  0  0  0  0  0  # atno 10167 bound_to 10162
  157.3888  130.7795  149.7252 H   0  0  0  0  0  0  0  0  0  0  0  0  # atno 10718 bound_to 10713
  153.1325  135.4677  154.9371 H   0  0  0  0  0  0  0  0  0  0  0  0  # atno 10763 bound_to 10752
  154.7677  135.3149  154.8256 H   0  0  0  0  0  0  0  0  0  0  0  0  # atno 10764 bound_to 10752
  153.8795  135.6895  153.4822 H   0  0  0  0  0  0  0  0  0  0  0  0  # atno 10765 bound_to 10752
  141.1455  133.7995  157.0374 H   0  0  0  0  0  0  0  0  0  0  0  0  # atno 11005 bound_to 11000
  145.0121  139.3500  143.6114 LP  0  0  0  0  0  0  0  0  0  0  0  0  # atno 17320 bound_to 7965
  146.3450  139.9388  142.8743 LP  0  0  0  0  0  0  0  0  0  0  0  0  # atno 17321 bound_to 7965
  139.5034  144.3791  152.0394 LP  0  0  0  0  0  0  0  0  0  0  0  0  # atno 17342 bound_to 10162
  140.2909  144.3754  150.6089 LP  0  0  0  0  0  0  0  0  0  0  0  0  # atno 17343 bound_to 10162
  155.9793  130.4041  150.3595 LP  0  0  0  0  0  0  0  0  0  0  0  0  # atno 17370 bound_to 10713
  157.1708  131.0368  151.2796 LP  0  0  0  0  0  0  0  0  0  0  0  0  # atno 17371 bound_to 10713
  140.0715  134.9700  157.1475 LP  0  0  0  0  0  0  0  0  0  0  0  0  # atno 17394 bound_to 11000
  140.3704  134.2396  155.7178 LP  0  0  0  0  0  0  0  0  0  0  0  0  # atno 17395 bound_to 11000

$$$$
