AV-unprocessed.smi:2496|AV-procd|sdf|9827|dock2
  -GOLD-   2272013453D 1   1.00000     0.00000
 Structure written by MMmdl.
 40 40  0  0  0  0  0  0  0  0  1 V2000
  154.8877  137.1044  160.2205 C   0  0  0  0  0  0  0  0  0  0  0  0
  156.1985  137.8161  160.0421 C   0  0  0  0  0  0  0  0  0  0  0  0
  157.2288  137.1558  159.5373 N   0  0  0  0  0  0  0  0  0  0  0  0
  158.2174  138.0653  159.5217 N   0  0  0  0  0  0  0  0  0  0  0  0
  157.8334  139.2918  160.0106 C   0  0  0  0  0  0  0  0  0  0  0  0
  158.7898  140.4360  160.0868 C   0  0  0  0  0  0  0  0  0  0  0  0
  156.5125  139.1731  160.3621 C   0  0  0  0  0  0  0  0  0  0  0  0
  155.5753  140.2017  160.9645 C   0  0  2  0  0  0  0  0  0  0  0  0
  154.9812  139.7182  162.3008 C   0  0  0  0  0  0  0  0  0  0  0  0
  154.5034  140.5944  159.9334 C   0  0  0  0  0  0  0  0  0  0  0  0
  154.2911  139.8935  158.9432 O   0  0  0  0  0  0  0  0  0  0  0  0
  153.8359  141.7327  160.1836 N   0  0  0  0  0  0  0  0  0  0  0  0
  152.8395  142.3545  159.3144 C   0  0  1  0  0  0  0  0  0  0  0  0
  151.5879  141.4591  159.2843 C   0  0  0  0  0  0  0  0  0  0  0  0
  152.5525  143.8033  159.7907 C   0  0  0  0  0  0  0  0  0  0  0  0
  152.0772  143.8550  161.2538 C   0  0  0  0  0  0  0  0  0  0  0  0
  151.5270  144.5226  158.8914 C   0  0  0  0  0  0  0  0  0  0  0  0
  159.1404  137.8377  159.1801 H   0  0  0  0  0  0  0  0  0  0  0  0
  154.5818  137.1116  161.2667 H   0  0  0  0  0  0  0  0  0  0  0  0
  154.9426  136.0638  159.8988 H   0  0  0  0  0  0  0  0  0  0  0  0
  154.1016  137.5879  159.6406 H   0  0  0  0  0  0  0  0  0  0  0  0
  158.6589  140.9952  161.0130 H   0  0  0  0  0  0  0  0  0  0  0  0
  158.6379  141.1209  159.2530 H   0  0  0  0  0  0  0  0  0  0  0  0
  159.8229  140.0888  160.0529 H   0  0  0  0  0  0  0  0  0  0  0  0
  156.1241  141.1183  161.1832 H   0  0  0  0  0  0  0  0  0  0  0  0
  154.3814  138.8161  162.1791 H   0  0  0  0  0  0  0  0  0  0  0  0
  154.3443  140.4809  162.7500 H   0  0  0  0  0  0  0  0  0  0  0  0
  155.7723  139.4940  163.0168 H   0  0  0  0  0  0  0  0  0  0  0  0
  154.0769  142.2379  161.0243 H   0  0  0  0  0  0  0  0  0  0  0  0
  153.2378  142.4127  158.2997 H   0  0  0  0  0  0  0  0  0  0  0  0
  150.8551  141.8116  158.5591 H   0  0  0  0  0  0  0  0  0  0  0  0
  151.1036  141.4213  160.2605 H   0  0  0  0  0  0  0  0  0  0  0  0
  151.8442  140.4375  159.0017 H   0  0  0  0  0  0  0  0  0  0  0  0
  153.4837  144.3689  159.7318 H   0  0  0  0  0  0  0  0  0  0  0  0
  151.1731  143.2623  161.3972 H   0  0  0  0  0  0  0  0  0  0  0  0
  151.8534  144.8783  161.5569 H   0  0  0  0  0  0  0  0  0  0  0  0
  152.8357  143.4828  161.9416 H   0  0  0  0  0  0  0  0  0  0  0  0
  150.5844  143.9757  158.8524 H   0  0  0  0  0  0  0  0  0  0  0  0
  151.8884  144.6365  157.8691 H   0  0  0  0  0  0  0  0  0  0  0  0
  151.3131  145.5250  159.2632 H   0  0  0  0  0  0  0  0  0  0  0  0
  1  2  1  0  0  0  0
  1 19  1  0  0  0  0
  1 20  1  0  0  0  0
  1 21  1  0  0  0  0
  2  7  1  0  0  0  0
  2  3  2  0  0  0  0
  3  4  1  0  0  0  0
  4 18  1  0  0  0  0
  4  5  1  0  0  0  0
  5  6  1  0  0  0  0
  5  7  2  0  0  0  0
  6 22  1  0  0  0  0
  6 23  1  0  0  0  0
  6 24  1  0  0  0  0
  7  8  1  0  0  0  0
  8  9  1  0  0  0  0
  8 10  1  0  0  0  0
  8 25  1  0  0  0  0
  9 26  1  0  0  0  0
  9 27  1  0  0  0  0
  9 28  1  0  0  0  0
 10 11  2  0  0  0  0
 10 12  1  0  0  0  0
 12 13  1  0  0  0  0
 12 29  1  0  0  0  0
 13 14  1  0  0  0  0
 13 15  1  0  0  0  0
 13 30  1  0  0  0  0
 14 31  1  0  0  0  0
 14 32  1  0  0  0  0
 14 33  1  0  0  0  0
 15 16  1  0  0  0  0
 15 17  1  0  0  0  0
 15 34  1  0  0  0  0
 16 35  1  0  0  0  0
 16 36  1  0  0  0  0
 16 37  1  0  0  0  0
 17 38  1  0  0  0  0
 17 39  1  0  0  0  0
 17 40  1  0  0  0  0
M  END
> <s_m_source_file>
AV-unprocessed.smi

> <i_m_source_file_index>
2496

> <i_lp_mmshare_version>
43012

> <i_f3d_flags>
0

> <s_epik_input>
W0NIM11jMW5bbkhdYyhbQ0gzXSljMVtDQEhdKFtDSDNdKUMoPU8pW05IXVtDQEhdKFtDSDNdKVtDSF0oW0NIM10pW0NIM10=

> <s_epik_cmdline>
J2VwaWtfcHl0aG9uJywgJy1waCcsICc3LjAnLCAnLXRuJywgJzgnLCAnLW1hJywgJzIwMCcsICctbWV0YWxfYmluZGluZycsICctaW1hZScsICc8aW5maWxlLm1hZT4nLCAnLW9tYWUnLCAnPG91dGZpbGUubWFlPic=

> <r_lp_tautomer_probability>
1

> <r_epik_Ionization_Penalty>
0.000456212

> <r_epik_Ionization_Penalty_Charging>
0

> <r_epik_Ionization_Penalty_Neutral>
0.000456212

> <r_epik_State_Penalty>
-0

> <r_epik_Charging_Adjusted_Penalty>
0

> <i_epik_Tot_Q>
0

> <i_epik_Tot_abs_Q>
0

> <r_epik_Metal_State_Penalty>
-0

> <b_epik_Metal_Only>
0

> <s_lp_Force_Field>
OPLS_2005

> <r_lp_Energy>
1.42294

> <b_lp_Chiralities_Consistent>
1

> <s_lp_Variant>
AV-unprocessed.smi:2496-3

> <Gold.Version>
5.8.1

> <Gold.Id.Protein>
6NUR|6NUR_protein|mol2

> <Gold.PLP.Fitness>
32.3355

> <Gold.PLP.PLP>
-30.3109

> <Gold.PLP.part.hbond>
-2.0000

> <Gold.PLP.part.metal>
0.0000

> <Gold.PLP.part.buried>
-3.1036

> <Gold.PLP.part.nonpolar>
-25.4761

> <Gold.PLP.part.repulsive>
0.1140

> <Gold.PLP.ligand.clash>
0.0000

> <Gold.PLP.ligand.torsion>
0.5616

> <Gold.PLP.Chemscore.Hbond>
1.0000

> <Gold.PLP.Chemscore.CHOScore>
0.0000

> <Gold.PLP.Chemscore.Metal>
0.0000

> <Gold.Chemscore.Hbonds>
donor molecule, donor type, donor heavy atom, donor atom, acceptor molecule, acceptor atom, score
      P1  H  7997  8008       L1    11  1.00

> <Gold.PLP.Chemscore.Internal.Correction>
0.1478

> <Gold.Rescore>
     Score         DG    S(hbond)    S(metal)    S(lipo)     H(rot)  DE(clash)    DE(int)     intcor
     15.24     -15.57       0.99        0.00      89.99       1.47       0.03       0.30       ----

> <Gold.Chemscore.Fitness>
15.2432

> <Gold.Chemscore.DG>
-15.5670

> <Gold.Chemscore.ZeroCoef>
-5.4800

> <Gold.Chemscore.Hbond>
0.9913

> <Gold.Chemscore.Metal>
0.0000

> <Gold.Chemscore.Lipo>
89.9947

> <Gold.Chemscore.Internal_Hbond>
0.0000

> <Gold.Chemscore.DEClash>
0.0269

> <Gold.Chemscore.DEInternal>
0.2968

> <Gold.Chemscore.Rot>
1.4662

> <Gold.Chemscore.Internal.Correction>
   9.000000E+99

> <Gold.Chemscore.Hbonds>
donor molecule, donor type, donor heavy atom, donor atom, acceptor molecule, acceptor atom, score
      P1  H  7997  8008       L1    11  0.97

> <Gold.Chemscore.Hbond.Weighted>
-3.3110

> <Gold.Chemscore.Metal.Weighted>
-0.0000

> <Gold.Chemscore.Lipo.Weighted>
-10.5294

> <Gold.Chemscore.Internal_Hbond.Weighted>
0.0000

> <Gold.Chemscore.DEClash.Weighted>
0.0269

> <Gold.Chemscore.DEInternal.Weighted>
0.2968

> <Gold.Chemscore.Rot.Weighted>
3.7534

> <Gold.Chemscore.Internal.Correction.Weighted>
   9.000000E+99

> <Gold.Protein.RotatedTorsions>
[ 6907 6896 6895 6894 ] final -119.73 input  -60.11 | X-H torsion
[ 7974 7965 7964 7962 ] final -109.10 input  175.53 | X-H torsion
[ 8008 7997 7996 7995 ] final -119.36 input   59.86 | X-H torsion
[ 10167 10162 10161 10158 ] final   68.16 input  -65.29 | X-H torsion
[ 10718 10713 10712 10709 ] final  -95.52 input   66.30 | X-H torsion
[ 10763 10752 10751 10750 ] final   13.14 input  -60.55 | X-H torsion
[ 11005 11000 10999 10996 ] final   35.54 input  -57.11 | X-H torsion

> <Gold.Protein.ActiveResidues>
 VAL166  LYS551  ARG553  GLY616  TRP617  ASP618  TYR619  PRO620  LYS621  CYS622 
 ASP623  PHE694  ASN695  SER759  ASP760  ASP761  ALA762  ILE779  LEU786  VAL792 
 PHE793  MET794  SER795  GLU796  ALA797  LYS798  CYS799  TRP800  GLU811  SER814 

> <Gold.Protein.RotatedAtoms>
  150.8331  133.8059  159.3090 H   0  0  0  0  0  0  0  0  0  0  0  0  # atno 6907 bound_to 6896
  151.5783  135.1058  160.0021 H   0  0  0  0  0  0  0  0  0  0  0  0  # atno 6908 bound_to 6896
  152.4407  133.7401  159.6693 H   0  0  0  0  0  0  0  0  0  0  0  0  # atno 6909 bound_to 6896
  145.1847  140.8987  143.3459 H   0  0  0  0  0  0  0  0  0  0  0  0  # atno 7974 bound_to 7965
  155.1144  140.0397  157.2733 H   0  0  0  0  0  0  0  0  0  0  0  0  # atno 8008 bound_to 7997
  154.6661  140.2602  155.7031 H   0  0  0  0  0  0  0  0  0  0  0  0  # atno 8009 bound_to 7997
  156.2639  140.2807  156.1151 H   0  0  0  0  0  0  0  0  0  0  0  0  # atno 8010 bound_to 7997
  140.0817  144.5065  150.7158 H   0  0  0  0  0  0  0  0  0  0  0  0  # atno 10167 bound_to 10162
  156.0045  130.5112  150.6088 H   0  0  0  0  0  0  0  0  0  0  0  0  # atno 10718 bound_to 10713
  153.1751  135.6819  153.8554 H   0  0  0  0  0  0  0  0  0  0  0  0  # atno 10763 bound_to 10752
  153.7905  135.3170  155.3379 H   0  0  0  0  0  0  0  0  0  0  0  0  # atno 10764 bound_to 10752
  154.8024  135.4770  154.0401 H   0  0  0  0  0  0  0  0  0  0  0  0  # atno 10765 bound_to 10752
  140.2416  134.3408  155.7923 H   0  0  0  0  0  0  0  0  0  0  0  0  # atno 11005 bound_to 11000
  145.0101  139.3518  143.6124 LP  0  0  0  0  0  0  0  0  0  0  0  0  # atno 17320 bound_to 7965
  146.3447  139.9359  142.8747 LP  0  0  0  0  0  0  0  0  0  0  0  0  # atno 17321 bound_to 7965
  140.7074  143.2478  151.4684 LP  0  0  0  0  0  0  0  0  0  0  0  0  # atno 17342 bound_to 10162
  139.5776  144.1784  152.1924 LP  0  0  0  0  0  0  0  0  0  0  0  0  # atno 17343 bound_to 10162
  157.3924  131.0797  151.1382 LP  0  0  0  0  0  0  0  0  0  0  0  0  # atno 17370 bound_to 10713
  157.2069  130.6420  149.5759 LP  0  0  0  0  0  0  0  0  0  0  0  0  # atno 17371 bound_to 10713
  141.2210  133.7302  156.8894 LP  0  0  0  0  0  0  0  0  0  0  0  0  # atno 17394 bound_to 11000
  140.1647  134.9141  157.2759 LP  0  0  0  0  0  0  0  0  0  0  0  0  # atno 17395 bound_to 11000

$$$$
