AV-unprocessed.smi:557|AV-procd|sdf|2917|dock8
  -GOLD-   2262023413D 1   1.00000     0.00000
 Structure written by MMmdl.
 47 49  0  0  0  0  0  0  0  0  2 V2000
  152.1231  138.4522  155.2069 C   0  0  0  0  0  0  0  0  0  0  0  0
  150.8539  139.0534  154.8584 N   0  0  0  0  0  0  0  0  0  0  0  0
  149.7422  138.4563  154.3043 C   0  0  0  0  0  0  0  0  0  0  0  0
  148.7881  139.4234  154.1574 C   0  0  0  0  0  0  0  0  0  0  0  0
  147.3955  139.2943  153.6069 C   0  0  0  0  0  0  0  0  0  0  0  0
  146.6793  138.0630  154.1770 C   0  0  0  0  0  0  0  0  0  0  0  0
  146.9124  136.8946  153.3327 N   0  0  0  0  0  0  0  0  0  0  0  0
  146.1148  135.8226  153.1918 C   0  0  0  0  0  0  0  0  0  0  0  0
  145.0521  135.7174  153.8005 O   0  0  0  0  0  0  0  0  0  0  0  0
  146.5791  134.8897  152.3434 N   0  0  0  0  0  0  0  0  0  0  0  0
  145.9101  133.6332  152.0209 C   0  0  1  0  0  0  0  0  0  0  0  0
  145.5058  133.5313  150.5549 C   0  0  0  0  0  0  0  0  0  0  0  0
  145.3179  132.0242  150.3765 C   0  0  0  0  0  0  0  0  0  0  0  0
  146.3237  131.3845  151.2545 N   0  3  2  0  0  0  0  0  0  0  0  0
  145.8937  130.0966  151.8515 C   0  0  0  0  0  0  0  0  0  0  0  0
  147.0082  129.5126  152.7380 C   0  0  0  0  0  0  0  0  0  0  0  0
  147.5458  130.5218  153.7739 C   0  0  0  0  0  0  0  0  0  0  0  0
  146.8569  131.8922  153.6749 C   0  0  0  0  0  0  0  0  0  0  0  0
  146.8201  132.4082  152.2183 C   0  0  2  0  0  0  0  0  0  0  0  0
  149.4265  140.5953  154.6545 C   0  0  0  0  0  0  0  0  0  0  0  0
  150.6607  140.3706  155.0743 N   0  0  0  0  0  0  0  0  0  0  0  0
  152.0751  137.3713  155.0714 H   0  0  0  0  0  0  0  0  0  0  0  0
  152.3619  138.6678  156.2488 H   0  0  0  0  0  0  0  0  0  0  0  0
  152.9087  138.8558  154.5677 H   0  0  0  0  0  0  0  0  0  0  0  0
  149.7206  137.4033  154.0644 H   0  0  0  0  0  0  0  0  0  0  0  0
  146.8124  140.1876  153.8338 H   0  0  0  0  0  0  0  0  0  0  0  0
  147.4218  139.2259  152.5188 H   0  0  0  0  0  0  0  0  0  0  0  0
  147.0392  137.8580  155.1867 H   0  0  0  0  0  0  0  0  0  0  0  0
  145.6073  138.2569  154.2444 H   0  0  0  0  0  0  0  0  0  0  0  0
  147.7724  136.8950  152.8029 H   0  0  0  0  0  0  0  0  0  0  0  0
  147.4623  135.0670  151.8872 H   0  0  0  0  0  0  0  0  0  0  0  0
  145.0055  133.5230  152.6228 H   0  0  0  0  0  0  0  0  0  0  0  0
  144.6059  134.1005  150.3201 H   0  0  0  0  0  0  0  0  0  0  0  0
  146.3109  133.8858  149.9094 H   0  0  0  0  0  0  0  0  0  0  0  0
  144.3128  131.7477  150.6995 H   0  0  0  0  0  0  0  0  0  0  0  0
  145.4339  131.7075  149.3399 H   0  0  0  0  0  0  0  0  0  0  0  0
  144.9855  130.2446  152.4383 H   0  0  0  0  0  0  0  0  0  0  0  0
  145.6428  129.3941  151.0560 H   0  0  0  0  0  0  0  0  0  0  0  0
  146.6416  128.6191  153.2443 H   0  0  0  0  0  0  0  0  0  0  0  0
  147.8318  129.1805  152.1046 H   0  0  0  0  0  0  0  0  0  0  0  0
  147.4263  130.1238  154.7821 H   0  0  0  0  0  0  0  0  0  0  0  0
  148.6188  130.6482  153.6253 H   0  0  0  0  0  0  0  0  0  0  0  0
  145.8423  131.8121  154.0678 H   0  0  0  0  0  0  0  0  0  0  0  0
  147.3703  132.6091  154.3156 H   0  0  0  0  0  0  0  0  0  0  0  0
  147.8352  132.6536  151.9015 H   0  0  0  0  0  0  0  0  0  0  0  0
  149.0302  141.5975  154.7242 H   0  0  0  0  0  0  0  0  0  0  0  0
  147.1166  131.1689  150.6672 H   0  0  0  0  0  0  0  0  0  0  0  0
  1  2  1  0  0  0  0
  1 22  1  0  0  0  0
  1 23  1  0  0  0  0
  1 24  1  0  0  0  0
  2 21  1  0  0  0  0
  2  3  1  0  0  0  0
  3  4  2  0  0  0  0
  3 25  1  0  0  0  0
  4  5  1  0  0  0  0
  4 20  1  0  0  0  0
  5  6  1  0  0  0  0
  5 26  1  0  0  0  0
  5 27  1  0  0  0  0
  6  7  1  0  0  0  0
  6 28  1  0  0  0  0
  6 29  1  0  0  0  0
  7  8  1  0  0  0  0
  7 30  1  0  0  0  0
  8  9  2  0  0  0  0
  8 10  1  0  0  0  0
 10 11  1  0  0  0  0
 10 31  1  0  0  0  0
 11 19  1  0  0  0  0
 11 12  1  0  0  0  0
 11 32  1  0  0  0  0
 12 13  1  0  0  0  0
 12 33  1  0  0  0  0
 12 34  1  0  0  0  0
 13 14  1  0  0  0  0
 13 35  1  0  0  0  0
 13 36  1  0  0  0  0
 14 19  1  0  0  0  0
 14 15  1  0  0  0  0
 14 47  1  0  0  0  0
 15 16  1  0  0  0  0
 15 37  1  0  0  0  0
 15 38  1  0  0  0  0
 16 17  1  0  0  0  0
 16 39  1  0  0  0  0
 16 40  1  0  0  0  0
 17 18  1  0  0  0  0
 17 41  1  0  0  0  0
 17 42  1  0  0  0  0
 18 19  1  0  0  0  0
 18 43  1  0  0  0  0
 18 44  1  0  0  0  0
 19 45  1  0  0  0  0
 20 21  2  0  0  0  0
 20 46  1  0  0  0  0
M  CHG  1  14   1
M  END
> <s_m_source_file>
AV-unprocessed.smi

> <i_m_source_file_index>
557

> <i_lp_mmshare_version>
43012

> <i_f3d_flags>
0

> <s_epik_input>
W0NIM11uMVtjSF1jKFtjSF1uMSlbQ0gyXVtDSDJdW05IXUMoPU8pW05IXVtDQEhdKFtDSDJdW0NIMl0yKVtDQEhdKE4yMylbQ0gyXVtDSDJdW0NIMl1bQ0gyXTM=

> <s_epik_cmdline>
J2VwaWtfcHl0aG9uJywgJy1waCcsICc3LjAnLCAnLXRuJywgJzgnLCAnLW1hJywgJzIwMCcsICctbWV0YWxfYmluZGluZycsICctaW1hZScsICc8aW5maWxlLm1hZT4nLCAnLW9tYWUnLCAnPG91dGZpbGUubWFlPic=

> <r_lp_tautomer_probability>
1

> <r_epik_Ionization_Penalty>
0.000956547

> <r_epik_Ionization_Penalty_Charging>
0.000435796

> <r_epik_Ionization_Penalty_Neutral>
0.000520752

> <r_epik_State_Penalty>
-0

> <r_epik_Charging_Adjusted_Penalty>
0.000435796

> <i_epik_Tot_Q>
1

> <i_epik_Tot_abs_Q>
1

> <r_epik_Metal_State_Penalty>
-0

> <b_epik_Metal_Only>
0

> <s_lp_Force_Field>
OPLS_2005

> <r_lp_Energy>
44.9241

> <b_lp_Chiralities_Consistent>
1

> <s_lp_Variant>
AV-unprocessed.smi:557-4

> <Gold.Version>
5.8.1

> <Gold.Id.Protein>
6NUR|6NUR_protein|mol2

> <Gold.PLP.Fitness>
49.4447

> <Gold.PLP.PLP>
-36.6000

> <Gold.PLP.part.hbond>
-4.0000

> <Gold.PLP.part.metal>
0.0000

> <Gold.PLP.part.buried>
-2.0951

> <Gold.PLP.part.nonpolar>
-30.6126

> <Gold.PLP.part.repulsive>
0.1533

> <Gold.PLP.ligand.clash>
0.0000

> <Gold.PLP.ligand.torsion>
0.5806

> <Gold.PLP.Chemscore.Hbond>
3.6640

> <Gold.PLP.Chemscore.CHOScore>
0.9997

> <Gold.PLP.Chemscore.Metal>
0.0000

> <Gold.Chemscore.Hbonds>
donor molecule, donor type, donor heavy atom, donor atom, acceptor molecule, acceptor atom, score
      L1  H     7    30       P1  7948  1.00
      L1  H    10    31       P1  7948  0.91
      L1  H    14    47       P1 10747  1.00
      P1  H  7989  7998       L1    21  0.65
      L1  C     3    25       P1  7948  0.86

> <Gold.PLP.Chemscore.Internal.Correction>
0.0147

> <Gold.Rescore>
     Score         DG    S(hbond)    S(metal)    S(lipo)     H(rot)  DE(clash)    DE(int)     intcor
     20.72     -21.17       2.81        0.00      88.96       1.60       0.09       0.36       ----

> <Gold.Chemscore.Fitness>
20.7219

> <Gold.Chemscore.DG>
-21.1714

> <Gold.Chemscore.ZeroCoef>
-5.4800

> <Gold.Chemscore.Hbond>
2.8096

> <Gold.Chemscore.Metal>
0.0000

> <Gold.Chemscore.Lipo>
88.9561

> <Gold.Chemscore.Internal_Hbond>
0.0000

> <Gold.Chemscore.DEClash>
0.0860

> <Gold.Chemscore.DEInternal>
0.3636

> <Gold.Chemscore.Rot>
1.6018

> <Gold.Chemscore.Internal.Correction>
   9.000000E+99

> <Gold.Chemscore.Hbonds>
donor molecule, donor type, donor heavy atom, donor atom, acceptor molecule, acceptor atom, score
      L1  H     7    30       P1  7948  0.98
      L1  H    10    31       P1  7948  0.80
      L1  H    14    47       P1 10747  0.98
      P1  H  7989  7998       L1    21  0.01

> <Gold.Chemscore.Hbond.Weighted>
-9.3842

> <Gold.Chemscore.Metal.Weighted>
-0.0000

> <Gold.Chemscore.Lipo.Weighted>
-10.4079

> <Gold.Chemscore.Internal_Hbond.Weighted>
0.0000

> <Gold.Chemscore.DEClash.Weighted>
0.0860

> <Gold.Chemscore.DEInternal.Weighted>
0.3636

> <Gold.Chemscore.Rot.Weighted>
4.1006

> <Gold.Chemscore.Internal.Correction.Weighted>
   9.000000E+99

> <Gold.Protein.RotatedTorsions>
[ 6907 6896 6895 6894 ] final    3.01 input  -60.11 | X-H torsion
[ 7974 7965 7964 7962 ] final  170.66 input  175.53 | X-H torsion
[ 8008 7997 7996 7995 ] final  -81.96 input   59.86 | X-H torsion
[ 10167 10162 10161 10158 ] final  166.00 input  -65.29 | X-H torsion
[ 10718 10713 10712 10709 ] final  123.37 input   66.30 | X-H torsion
[ 10763 10752 10751 10750 ] final    6.13 input  -60.55 | X-H torsion
[ 11005 11000 10999 10996 ] final  121.45 input  -57.11 | X-H torsion

> <Gold.Protein.ActiveResidues>
 VAL166  LYS551  ARG553  GLY616  TRP617  ASP618  TYR619  PRO620  LYS621  CYS622 
 ASP623  PHE694  ASN695  SER759  ASP760  ASP761  ALA762  ILE779  LEU786  VAL792 
 PHE793  MET794  SER795  GLU796  ALA797  LYS798  CYS799  TRP800  GLU811  SER814 

> <Gold.Protein.RotatedAtoms>
  151.6182  135.1034  160.0095 H   0  0  0  0  0  0  0  0  0  0  0  0  # atno 6907 bound_to 6896
  152.4172  133.7053  159.6458 H   0  0  0  0  0  0  0  0  0  0  0  0  # atno 6908 bound_to 6896
  150.8060  133.8436  159.3227 H   0  0  0  0  0  0  0  0  0  0  0  0  # atno 6909 bound_to 6896
  144.7317  139.9235  143.6421 H   0  0  0  0  0  0  0  0  0  0  0  0  # atno 7974 bound_to 7965
  154.6037  140.0640  156.9402 H   0  0  0  0  0  0  0  0  0  0  0  0  # atno 8008 bound_to 7997
  155.2089  140.3321  155.4313 H   0  0  0  0  0  0  0  0  0  0  0  0  # atno 8009 bound_to 7997
  156.2334  140.1851  156.7167 H   0  0  0  0  0  0  0  0  0  0  0  0  # atno 8010 bound_to 7997
  139.4916  144.4073  151.9340 H   0  0  0  0  0  0  0  0  0  0  0  0  # atno 10167 bound_to 10162
  157.5670  131.1086  150.8436 H   0  0  0  0  0  0  0  0  0  0  0  0  # atno 10718 bound_to 10713
  153.2513  135.6914  153.7676 H   0  0  0  0  0  0  0  0  0  0  0  0  # atno 10763 bound_to 10752
  153.6769  135.3335  155.3169 H   0  0  0  0  0  0  0  0  0  0  0  0  # atno 10764 bound_to 10752
  154.8395  135.4513  154.1471 H   0  0  0  0  0  0  0  0  0  0  0  0  # atno 10765 bound_to 10752
  139.9226  134.9639  156.7960 H   0  0  0  0  0  0  0  0  0  0  0  0  # atno 11005 bound_to 11000
  146.0911  139.3901  143.0405 LP  0  0  0  0  0  0  0  0  0  0  0  0  # atno 17320 bound_to 7965
  145.7709  140.9897  143.1150 LP  0  0  0  0  0  0  0  0  0  0  0  0  # atno 17321 bound_to 7965
  140.3513  144.3085  150.5949 LP  0  0  0  0  0  0  0  0  0  0  0  0  # atno 17342 bound_to 10162
  140.5482  143.2211  151.7971 LP  0  0  0  0  0  0  0  0  0  0  0  0  # atno 17343 bound_to 10162
  156.8918  130.5215  149.5286 LP  0  0  0  0  0  0  0  0  0  0  0  0  # atno 17370 bound_to 10713
  156.0717  130.5749  150.9397 LP  0  0  0  0  0  0  0  0  0  0  0  0  # atno 17371 bound_to 10713
  140.6428  133.9802  155.7716 LP  0  0  0  0  0  0  0  0  0  0  0  0  # atno 17394 bound_to 11000
  141.0760  134.0134  157.3457 LP  0  0  0  0  0  0  0  0  0  0  0  0  # atno 17395 bound_to 11000

$$$$
