AV-unprocessed.smi:213|AV-procd|sdf|1648|dock1
  -GOLD-   2262020 23D 1   1.00000     0.00000
 Structure written by MMmdl.
 58 61  0  0  0  0  0  0  0  0  1 V2000
  145.1743  136.3281  154.8538 C   0  0  0  0  0  0  0  0  0  0  0  0
  146.1055  136.3831  153.6258 C   0  0  1  0  0  0  0  0  0  0  0  0
  145.3401  136.2171  152.2903 C   0  0  0  0  0  0  0  0  0  0  0  0
  145.0737  134.8381  151.8770 N   0  0  0  0  0  0  0  0  0  0  0  0
  146.2834  134.2073  151.3604 C   0  0  0  0  0  0  0  0  0  0  0  0
  146.0391  132.7471  150.9454 C   0  0  0  0  0  0  0  0  0  0  0  0
  144.9975  132.6998  149.9764 O   0  0  0  0  0  0  0  0  0  0  0  0
  143.7801  133.2607  150.4558 C   0  0  0  0  0  0  0  0  0  0  0  0
  144.0093  134.7207  150.8852 C   0  0  0  0  0  0  0  0  0  0  0  0
  146.8721  137.6326  153.6385 N   0  0  0  0  0  0  0  0  0  0  0  0
  146.6969  138.6301  152.5847 C   0  0  0  0  0  0  0  0  0  0  0  0
  147.8993  137.8136  154.5123 C   0  0  0  0  0  0  0  0  0  0  0  0
  148.3998  136.7128  155.1343 N   0  0  0  0  0  0  0  0  0  0  0  0
  149.4151  136.8191  155.9955 C   0  0  0  0  0  0  0  0  0  0  0  0
  150.0700  137.9146  156.3804 N   0  0  0  0  0  0  0  0  0  0  0  0
  149.5680  139.0278  155.7750 C   0  0  0  0  0  0  0  0  0  0  0  0
  148.4943  139.0708  154.8381 C   0  0  0  0  0  0  0  0  0  0  0  0
  148.2635  140.3907  154.4627 N   0  0  0  0  0  0  0  0  0  0  0  0
  149.1515  141.0804  155.1225 C   0  0  0  0  0  0  0  0  0  0  0  0
  149.9766  140.3401  155.9352 N   0  0  0  0  0  0  0  0  0  0  0  0
  151.0423  140.8502  156.7794 C   0  0  0  0  0  0  0  0  0  0  0  0
  150.5266  141.8397  157.8419 C   0  0  1  0  0  0  0  0  0  0  0  0
  149.6351  141.1971  158.7334 O   0  0  0  0  0  0  0  0  0  0  0  0
  151.6675  142.5340  158.6135 C   0  0  1  0  0  0  0  0  0  0  0  0
  151.3079  143.8267  159.3504 C   0  0  0  0  0  0  0  0  0  0  0  0
  152.4207  143.8974  160.3724 C   0  0  0  0  0  0  0  0  0  0  0  0
  152.5923  142.4281  160.7522 C   0  0  0  0  0  0  0  0  0  0  0  0
  152.2600  141.6777  159.5866 O   0  0  0  0  0  0  0  0  0  0  0  0
  144.6493  135.3778  154.9286 H   0  0  0  0  0  0  0  0  0  0  0  0
  144.4159  137.1105  154.8247 H   0  0  0  0  0  0  0  0  0  0  0  0
  145.7426  136.4534  155.7760 H   0  0  0  0  0  0  0  0  0  0  0  0
  146.8042  135.5550  153.7403 H   0  0  0  0  0  0  0  0  0  0  0  0
  144.4114  136.7890  152.3166 H   0  0  0  0  0  0  0  0  0  0  0  0
  145.9384  136.6813  151.5048 H   0  0  0  0  0  0  0  0  0  0  0  0
  146.6552  134.7685  150.5015 H   0  0  0  0  0  0  0  0  0  0  0  0
  147.0686  134.2376  152.1167 H   0  0  0  0  0  0  0  0  0  0  0  0
  146.9450  132.3167  150.5182 H   0  0  0  0  0  0  0  0  0  0  0  0
  145.7708  132.1386  151.8106 H   0  0  0  0  0  0  0  0  0  0  0  0
  143.0289  133.2112  149.6674 H   0  0  0  0  0  0  0  0  0  0  0  0
  143.4057  132.6687  151.2925 H   0  0  0  0  0  0  0  0  0  0  0  0
  143.0742  135.1011  151.2934 H   0  0  0  0  0  0  0  0  0  0  0  0
  144.2473  135.3268  150.0100 H   0  0  0  0  0  0  0  0  0  0  0  0
  147.6587  139.0100  152.2383 H   0  0  0  0  0  0  0  0  0  0  0  0
  146.1064  139.4690  152.9537 H   0  0  0  0  0  0  0  0  0  0  0  0
  146.1835  138.2072  151.7212 H   0  0  0  0  0  0  0  0  0  0  0  0
  149.7517  135.8938  156.4390 H   0  0  0  0  0  0  0  0  0  0  0  0
  149.2260  142.1547  155.0366 H   0  0  0  0  0  0  0  0  0  0  0  0
  151.5498  140.0076  157.2508 H   0  0  0  0  0  0  0  0  0  0  0  0
  151.7779  141.3372  156.1385 H   0  0  0  0  0  0  0  0  0  0  0  0
  149.9497  142.6161  157.3377 H   0  0  0  0  0  0  0  0  0  0  0  0
  149.6435  141.6631  159.5553 H   0  0  0  0  0  0  0  0  0  0  0  0
  152.4630  142.7688  157.9040 H   0  0  0  0  0  0  0  0  0  0  0  0
  151.2736  144.6960  158.6931 H   0  0  0  0  0  0  0  0  0  0  0  0
  150.3485  143.7468  159.8626 H   0  0  0  0  0  0  0  0  0  0  0  0
  153.3326  144.2750  159.9073 H   0  0  0  0  0  0  0  0  0  0  0  0
  152.1825  144.5338  161.2251 H   0  0  0  0  0  0  0  0  0  0  0  0
  153.6013  142.2028  161.0983 H   0  0  0  0  0  0  0  0  0  0  0  0
  151.8946  142.1575  161.5457 H   0  0  0  0  0  0  0  0  0  0  0  0
  1  2  1  0  0  0  0
  1 29  1  0  0  0  0
  1 30  1  0  0  0  0
  1 31  1  0  0  0  0
  2  3  1  0  0  0  0
  2 10  1  0  0  0  0
  2 32  1  0  0  0  0
  3  4  1  0  0  0  0
  3 33  1  0  0  0  0
  3 34  1  0  0  0  0
  4  9  1  0  0  0  0
  4  5  1  0  0  0  0
  5  6  1  0  0  0  0
  5 35  1  0  0  0  0
  5 36  1  0  0  0  0
  6  7  1  0  0  0  0
  6 37  1  0  0  0  0
  6 38  1  0  0  0  0
  7  8  1  0  0  0  0
  8  9  1  0  0  0  0
  8 39  1  0  0  0  0
  8 40  1  0  0  0  0
  9 41  1  0  0  0  0
  9 42  1  0  0  0  0
 10 11  1  0  0  0  0
 10 12  1  0  0  0  0
 11 43  1  0  0  0  0
 11 44  1  0  0  0  0
 11 45  1  0  0  0  0
 12 17  1  0  0  0  0
 12 13  2  0  0  0  0
 13 14  1  0  0  0  0
 14 15  2  0  0  0  0
 14 46  1  0  0  0  0
 15 16  1  0  0  0  0
 16 20  1  0  0  0  0
 16 17  2  0  0  0  0
 17 18  1  0  0  0  0
 18 19  2  0  0  0  0
 19 20  1  0  0  0  0
 19 47  1  0  0  0  0
 20 21  1  0  0  0  0
 21 22  1  0  0  0  0
 21 48  1  0  0  0  0
 21 49  1  0  0  0  0
 22 23  1  0  0  0  0
 22 24  1  0  0  0  0
 22 50  1  0  0  0  0
 23 51  1  0  0  0  0
 24 28  1  0  0  0  0
 24 25  1  0  0  0  0
 24 52  1  0  0  0  0
 25 26  1  0  0  0  0
 25 53  1  0  0  0  0
 25 54  1  0  0  0  0
 26 27  1  0  0  0  0
 26 55  1  0  0  0  0
 26 56  1  0  0  0  0
 27 28  1  0  0  0  0
 27 57  1  0  0  0  0
 27 58  1  0  0  0  0
M  END
> <s_m_source_file>
AV-unprocessed.smi

> <i_m_source_file_index>
213

> <i_lp_mmshare_version>
43012

> <i_f3d_flags>
0

> <s_epik_input>
W0NIMl0xW0NIMl1PW0NIMl1bQ0gyXU4xW0NIMl1bQ0BASF0oW0NIM10pTihbQ0gzXSljKG5bY0hdbjIpYyhjMjMpbltjSF1uM1tDSDJdW0NASF0oW09IXSlbQ0BASF00W0NIMl1bQ0gyXVtDSDJdTzQ=

> <s_epik_cmdline>
J2VwaWtfcHl0aG9uJywgJy1waCcsICc3LjAnLCAnLXRuJywgJzgnLCAnLW1hJywgJzIwMCcsICctbWV0YWxfYmluZGluZycsICctaW1hZScsICc8aW5maWxlLm1hZT4nLCAnLW9tYWUnLCAnPG91dGZpbGUubWFlPic=

> <r_lp_tautomer_probability>
1

> <r_epik_Ionization_Penalty>
0.423322

> <r_epik_Ionization_Penalty_Charging>
0

> <r_epik_Ionization_Penalty_Neutral>
0.423322

> <r_epik_State_Penalty>
0.569486

> <r_epik_Charging_Adjusted_Penalty>
0.569486

> <i_epik_Tot_Q>
0

> <i_epik_Tot_abs_Q>
0

> <r_epik_Metal_State_Penalty>
0.568671

> <b_epik_Metal_Only>
0

> <s_lp_Force_Field>
OPLS_2005

> <r_lp_Energy>
55.4432

> <b_lp_Chiralities_Consistent>
1

> <s_lp_Variant>
AV-unprocessed.smi:213-16

> <Gold.Version>
5.8.1

> <Gold.Id.Protein>
6NUR|6NUR_protein|mol2

> <Gold.PLP.Fitness>
45.1955

> <Gold.PLP.PLP>
-43.8920

> <Gold.PLP.part.hbond>
0.0000

> <Gold.PLP.part.metal>
0.0000

> <Gold.PLP.part.buried>
-2.2746

> <Gold.PLP.part.nonpolar>
-42.2064

> <Gold.PLP.part.repulsive>
0.5353

> <Gold.PLP.ligand.clash>
0.0000

> <Gold.PLP.ligand.torsion>
1.1497

> <Gold.PLP.Chemscore.Hbond>
0.0000

> <Gold.PLP.Chemscore.CHOScore>
0.9987

> <Gold.PLP.Chemscore.Metal>
0.0000

> <Gold.Chemscore.Hbonds>
donor molecule, donor type, donor heavy atom, donor atom, acceptor molecule, acceptor atom, score
      L1  C    19    47       P1  8028  0.69

> <Gold.PLP.Chemscore.Internal.Correction>
0.6068

> <Gold.Rescore>
     Score         DG    S(hbond)    S(metal)    S(lipo)     H(rot)  DE(clash)    DE(int)     intcor
      8.47     -10.75       0.00        0.00     104.94       2.74       0.06       2.22       ----

> <Gold.Chemscore.Fitness>
8.4691

> <Gold.Chemscore.DG>
-10.7495

> <Gold.Chemscore.ZeroCoef>
-5.4800

> <Gold.Chemscore.Hbond>
0.0000

> <Gold.Chemscore.Metal>
0.0000

> <Gold.Chemscore.Lipo>
104.9412

> <Gold.Chemscore.Internal_Hbond>
0.0000

> <Gold.Chemscore.DEClash>
0.0635

> <Gold.Chemscore.DEInternal>
2.2169

> <Gold.Chemscore.Rot>
2.7378

> <Gold.Chemscore.Internal.Correction>
   9.000000E+99

> <Gold.Chemscore.Hbond.Weighted>
-0.0000

> <Gold.Chemscore.Metal.Weighted>
-0.0000

> <Gold.Chemscore.Lipo.Weighted>
-12.2781

> <Gold.Chemscore.Internal_Hbond.Weighted>
0.0000

> <Gold.Chemscore.DEClash.Weighted>
0.0635

> <Gold.Chemscore.DEInternal.Weighted>
2.2169

> <Gold.Chemscore.Rot.Weighted>
7.0087

> <Gold.Chemscore.Internal.Correction.Weighted>
   9.000000E+99

> <Gold.Protein.RotatedTorsions>
[ 6907 6896 6895 6894 ] final -125.97 input  -60.11 | X-H torsion
[ 7974 7965 7964 7962 ] final -163.68 input  175.53 | X-H torsion
[ 8008 7997 7996 7995 ] final -146.91 input   59.86 | X-H torsion
[ 10167 10162 10161 10158 ] final  -31.36 input  -65.29 | X-H torsion
[ 10718 10713 10712 10709 ] final  -87.05 input   66.30 | X-H torsion
[ 10763 10752 10751 10750 ] final  -13.60 input  -60.55 | X-H torsion
[ 11005 11000 10999 10996 ] final -133.87 input  -57.11 | X-H torsion

> <Gold.Protein.ActiveResidues>
 VAL166  LYS551  ARG553  GLY616  TRP617  ASP618  TYR619  PRO620  LYS621  CYS622 
 ASP623  PHE694  ASN695  SER759  ASP760  ASP761  ALA762  ILE779  LEU786  VAL792 
 PHE793  MET794  SER795  GLU796  ALA797  LYS798  CYS799  TRP800  GLU811  SER814 

> <Gold.Protein.RotatedAtoms>
  150.8921  133.7229  159.2901 H   0  0  0  0  0  0  0  0  0  0  0  0  # atno 6907 bound_to 6896
  151.4776  135.1048  159.9778 H   0  0  0  0  0  0  0  0  0  0  0  0  # atno 6908 bound_to 6896
  152.4826  133.8246  159.7127 H   0  0  0  0  0  0  0  0  0  0  0  0  # atno 6909 bound_to 6896
  144.7318  140.3071  143.6194 H   0  0  0  0  0  0  0  0  0  0  0  0  # atno 7974 bound_to 7965
  155.5670  140.0630  157.2815 H   0  0  0  0  0  0  0  0  0  0  0  0  # atno 8008 bound_to 7997
  154.4373  140.1875  156.0886 H   0  0  0  0  0  0  0  0  0  0  0  0  # atno 8009 bound_to 7997
  156.0405  140.3296  155.7242 H   0  0  0  0  0  0  0  0  0  0  0  0  # atno 8010 bound_to 7997
  140.7237  143.3777  151.1658 H   0  0  0  0  0  0  0  0  0  0  0  0  # atno 10167 bound_to 10162
  155.9987  130.4786  150.4808 H   0  0  0  0  0  0  0  0  0  0  0  0  # atno 10718 bound_to 10713
  153.5158  135.7016  153.5757 H   0  0  0  0  0  0  0  0  0  0  0  0  # atno 10763 bound_to 10752
  153.3827  135.3916  155.1868 H   0  0  0  0  0  0  0  0  0  0  0  0  # atno 10764 bound_to 10752
  154.8699  135.3839  154.4642 H   0  0  0  0  0  0  0  0  0  0  0  0  # atno 10765 bound_to 10752
  140.9041  134.1652  157.4438 H   0  0  0  0  0  0  0  0  0  0  0  0  # atno 11005 bound_to 11000
  145.7702  139.1854  143.2217 LP  0  0  0  0  0  0  0  0  0  0  0  0  # atno 17320 bound_to 7965
  146.0917  140.7648  142.9592 LP  0  0  0  0  0  0  0  0  0  0  0  0  # atno 17321 bound_to 7965
  139.7360  143.8998  152.3035 LP  0  0  0  0  0  0  0  0  0  0  0  0  # atno 17342 bound_to 10162
  139.8803  144.7021  150.8885 LP  0  0  0  0  0  0  0  0  0  0  0  0  # atno 17343 bound_to 10162
  157.2813  131.0607  151.2195 LP  0  0  0  0  0  0  0  0  0  0  0  0  # atno 17370 bound_to 10713
  157.3241  130.6952  149.6286 LP  0  0  0  0  0  0  0  0  0  0  0  0  # atno 17371 bound_to 10713
  139.8747  134.9910  156.5528 LP  0  0  0  0  0  0  0  0  0  0  0  0  # atno 17394 bound_to 11000
  140.8192  133.8367  155.8880 LP  0  0  0  0  0  0  0  0  0  0  0  0  # atno 17395 bound_to 11000

$$$$
