#       Name:                AV-unprocessed.smi:313
#       Creating user name   scv26
#       Creation time:       Thu Mar 26 22:21:02 2020


#       File generated by GOLD software.
#

@<TRIPOS>MOLECULE
AV-unprocessed.smi:313
    58    59     1
SMALL
NO_CHARGES


@<TRIPOS>ATOM
      1 ****        -3.9560   2.5698  -0.8893 C.3            1 S1                 0.0000
      2 ****        -4.1185   3.3414  -2.2075 C.3            1 S1                 0.0000
      3 ****        -3.5515   2.6080  -3.4396 C.3            1 S1                 0.0000
      4 ****        -3.8349   3.3799  -4.7357 C.3            1 S1                 0.0000
      5 ****        -2.1092   2.4128  -3.3066 N.am           1 S1                 0.0000
      6 ****        -1.4911   1.2527  -3.0343 C.2            1 S1                 0.0000
      7 ****        -2.0861   0.1849  -2.8805 O.2            1 S1                 0.0000
      8 ****         0.0404   1.3154  -2.9241 C.3            1 S1                 0.0000
      9 ****         0.6423   0.7042  -4.2001 C.3            1 S1                 0.0000
     10 ****         0.5052   0.5304  -1.7819 N.am           1 S1                 0.0000
     11 ****         0.4887   0.9395  -0.5018 C.2            1 S1                 0.0000
     12 ****         0.0550   2.0351  -0.1443 O.2            1 S1                 0.0000
     13 ****         0.9809  -0.0590   0.5054 C.ar           1 S1                 0.0000
     14 ****         1.9902  -0.9954   0.1921 C.ar           1 S1                 0.0000
     15 ****         2.4324  -1.8863   1.1885 C.ar           1 S1                 0.0000
     16 ****         1.8629  -1.8156   2.4819 C.ar           1 S1                 0.0000
     17 ****         2.2983  -2.6931   3.4988 N.3            1 S1                 0.0000
     18 ****         1.5165  -2.7511   4.7328 C.3            1 S1                 0.0000
     19 ****         1.9663  -3.9402   5.5981 C.3            1 S1                 0.0000
     20 ****         3.3663  -3.8530   5.8401 O.3            1 S1                 0.0000
     21 ****         4.1159  -3.9131   4.6315 C.3            1 S1                 0.0000
     22 ****         3.7414  -2.7274   3.7254 C.3            1 S1                 0.0000
     23 ****         0.8942  -0.9149   2.7802 N.ar           1 S1                 0.0000
     24 ****         0.4739  -0.0618   1.8222 C.ar           1 S1                 0.0000
     25 ****        -4.4346   3.1038  -0.0683 H              1 S1                 0.0000
     26 ****        -2.9062   2.4387  -0.6261 H              1 S1                 0.0000
     27 ****        -4.4119   1.5817  -0.9534 H              1 S1                 0.0000
     28 ****        -5.1805   3.5327  -2.3656 H              1 S1                 0.0000
     29 ****        -3.6472   4.3204  -2.1110 H              1 S1                 0.0000
     30 ****        -4.0544   1.6429  -3.5225 H              1 S1                 0.0000
     31 ****        -4.9060   3.5209  -4.8820 H              1 S1                 0.0000
     32 ****        -3.4534   2.8422  -5.6045 H              1 S1                 0.0000
     33 ****        -3.3687   4.3657  -4.7225 H              1 S1                 0.0000
     34 ****        -1.5327   3.2346  -3.4146 H              1 S1                 0.0000
     35 ****         0.3727   2.3507  -2.8225 H              1 S1                 0.0000
     36 ****         0.3274   1.2531  -5.0886 H              1 S1                 0.0000
     37 ****         0.3471  -0.3380  -4.3305 H              1 S1                 0.0000
     38 ****         1.7318   0.7360  -4.1693 H              1 S1                 0.0000
     39 ****         0.8484  -0.3984  -1.9786 H              1 S1                 0.0000
     40 ****         2.4290  -1.0385  -0.7943 H              1 S1                 0.0000
     41 ****         3.1916  -2.6152   0.9474 H              1 S1                 0.0000
     42 ****         1.6430  -1.8191   5.2856 H              1 S1                 0.0000
     43 ****         0.4550  -2.8532   4.5028 H              1 S1                 0.0000
     44 ****         1.4396  -3.9307   6.5524 H              1 S1                 0.0000
     45 ****         1.7278  -4.8879   5.1121 H              1 S1                 0.0000
     46 ****         5.1787  -3.8807   4.8709 H              1 S1                 0.0000
     47 ****         3.9331  -4.8621   4.1248 H              1 S1                 0.0000
     48 ****         4.2946  -2.8098   2.7913 H              1 S1                 0.0000
     49 ****         4.0464  -1.7904   4.1930 H              1 S1                 0.0000
     50 ****        -0.2941   0.6362   2.1228 H              1 S1                 0.0000
     51 ****        -3.0826   0.1523  -2.9572 LP             1 S1                 0.0000
     52 ****        -1.5725  -0.6491  -2.6790 LP             1 S1                 0.0000
     53 ****        -0.3101   2.6736  -0.8218 LP             1 S1                 0.0000
     54 ****         0.0679   2.2864   0.8235 LP             1 S1                 0.0000
     55 ****         2.0727  -3.5646   3.0634 LP             1 S1                 0.0000
     56 ****         3.6409  -4.6127   6.4296 LP             1 S1                 0.0000
     57 ****         3.5621  -2.9868   6.2998 LP             1 S1                 0.0000
     58 ****         0.4966  -0.8830   3.6972 LP             1 S1                 0.0000
@<TRIPOS>BOND
    1    1    2 1     
    2    1   25 1     
    3    1   26 1     
    4    1   27 1     
    5    2    3 1     
    6    2   28 1     
    7    2   29 1     
    8    3    4 1     
    9    3    5 1     
   10    3   30 1     
   11    4   31 1     
   12    4   32 1     
   13    4   33 1     
   14    5    6 am    
   15    5   34 1     
   16    6    7 2     
   17    6    8 1     
   18    8    9 1     
   19    8   10 1     
   20    8   35 1     
   21    9   36 1     
   22    9   37 1     
   23    9   38 1     
   24   10   11 am    
   25   10   39 1     
   26   11   12 2     
   27   11   13 1     
   28   13   24 ar    
   29   13   14 ar    
   30   14   15 ar    
   31   14   40 1     
   32   15   16 ar    
   33   15   41 1     
   34   16   17 1     
   35   16   23 ar    
   36   17   22 1     
   37   17   18 1     
   38   18   19 1     
   39   18   42 1     
   40   18   43 1     
   41   19   20 1     
   42   19   44 1     
   43   19   45 1     
   44   20   21 1     
   45   21   22 1     
   46   21   46 1     
   47   21   47 1     
   48   22   48 1     
   49   22   49 1     
   50   23   24 ar    
   51   24   50 1     
   52    7   51 1     
   53    7   52 1     
   54   12   53 1     
   55   12   54 1     
   56   17   55 1     
   57   20   56 1     
   58   20   57 1     
   59   23   58 1     
@<TRIPOS>SUBSTRUCTURE
      1 S1             1
@<TRIPOS>SET
LONE_PAIRS      STATIC     ATOMS    <user>   **** ""
8 51 52 53 54 55 56 57 58
DONOR_HYDROGENS      STATIC     ATOMS    <user>   **** ""
2 34 39
ATOM$BLUE        STATIC     ATOMS    COLORGROUP SYSTEM
8 51 52 53 54 55 56 57 58
ATOM$RED        STATIC     ATOMS    COLORGROUP SYSTEM
2 34 39
