AV-unprocessed.smi:2775|AV-procd|sdf|10694|dock2
  -GOLD-   2272015133D 1   1.00000     0.00000
 Structure written by MMmdl.
 42 45  0  0  0  0  0  0  0  0  1 V2000
  148.6378  130.0738  153.5768 C   0  0  0  0  0  0  0  0  0  0  0  0
  149.3074  131.2170  154.3165 C   0  0  0  0  0  0  0  0  0  0  0  0
  150.2120  130.8574  155.2527 N   0  0  0  0  0  0  0  0  0  0  0  0
  150.8330  131.8353  155.9426 C   0  0  0  0  0  0  0  0  0  0  0  0
  150.5891  133.2064  155.7355 C   0  0  0  0  0  0  0  0  0  0  0  0
  149.6463  133.5885  154.7502 C   0  0  0  0  0  0  0  0  0  0  0  0
  149.3019  134.9367  154.4500 N   0  0  0  0  0  0  0  0  0  0  0  0
  149.2825  136.0294  155.2375 C   0  0  0  0  0  0  0  0  0  0  0  0
  149.6471  136.0657  156.4101 O   0  0  0  0  0  0  0  0  0  0  0  0
  148.8355  137.1342  154.6158 N   0  0  0  0  0  0  0  0  0  0  0  0
  148.6905  138.4757  155.1810 C   0  0  2  0  0  0  0  0  0  0  0  0
  148.3028  139.5124  154.1247 C   0  0  1  0  0  0  0  0  0  0  0  0
  147.0694  140.2913  153.8430 C   0  0  0  0  0  0  0  0  0  0  0  0
  147.7447  141.6623  153.5839 C   0  0  0  0  0  0  0  0  0  0  0  0
  149.1301  141.5000  153.9742 O   0  0  0  0  0  0  0  0  0  0  0  0
  149.0992  140.4946  154.9692 C   0  0  2  0  0  0  0  0  0  0  0  0
  150.0218  139.2966  155.2374 C   0  0  0  0  0  0  0  0  0  0  0  0
  151.2571  139.0214  154.3596 C   0  0  0  0  0  0  0  0  0  0  0  0
  152.1185  139.5656  155.5042 C   0  0  0  0  0  0  0  0  0  0  0  0
  150.9512  139.2866  156.4573 C   0  0  0  0  0  0  0  0  0  0  0  0
  148.9874  132.5646  154.0287 C   0  0  0  0  0  0  0  0  0  0  0  0
  147.8112  132.9523  152.8164 Cl  0  0  0  0  0  0  0  0  0  0  0  0
  148.8424  130.1430  152.5081 H   0  0  0  0  0  0  0  0  0  0  0  0
  147.5582  130.1064  153.7252 H   0  0  0  0  0  0  0  0  0  0  0  0
  148.9967  129.1047  153.9262 H   0  0  0  0  0  0  0  0  0  0  0  0
  151.5464  131.5152  156.6874 H   0  0  0  0  0  0  0  0  0  0  0  0
  151.1245  133.9205  156.3397 H   0  0  0  0  0  0  0  0  0  0  0  0
  149.0154  135.0924  153.4943 H   0  0  0  0  0  0  0  0  0  0  0  0
  148.5903  137.0377  153.6410 H   0  0  0  0  0  0  0  0  0  0  0  0
  148.0824  138.5350  156.0879 H   0  0  0  0  0  0  0  0  0  0  0  0
  148.8089  139.2790  153.1804 H   0  0  0  0  0  0  0  0  0  0  0  0
  146.5228  139.9212  152.9753 H   0  0  0  0  0  0  0  0  0  0  0  0
  146.3997  140.3212  154.7036 H   0  0  0  0  0  0  0  0  0  0  0  0
  147.6917  141.9519  152.5341 H   0  0  0  0  0  0  0  0  0  0  0  0
  147.2717  142.4461  154.1767 H   0  0  0  0  0  0  0  0  0  0  0  0
  148.5747  140.8309  155.8699 H   0  0  0  0  0  0  0  0  0  0  0  0
  151.4323  137.9604  154.1772 H   0  0  0  0  0  0  0  0  0  0  0  0
  151.3085  139.6032  153.4390 H   0  0  0  0  0  0  0  0  0  0  0  0
  153.0217  138.9901  155.7088 H   0  0  0  0  0  0  0  0  0  0  0  0
  152.3315  140.6307  155.3999 H   0  0  0  0  0  0  0  0  0  0  0  0
  150.7598  140.0744  157.1863 H   0  0  0  0  0  0  0  0  0  0  0  0
  151.0279  138.3086  156.9325 H   0  0  0  0  0  0  0  0  0  0  0  0
  1  2  1  0  0  0  0
  1 23  1  0  0  0  0
  1 24  1  0  0  0  0
  1 25  1  0  0  0  0
  2 21  1  0  0  0  0
  2  3  2  0  0  0  0
  3  4  1  0  0  0  0
  4  5  2  0  0  0  0
  4 26  1  0  0  0  0
  5  6  1  0  0  0  0
  5 27  1  0  0  0  0
  6  7  1  0  0  0  0
  6 21  2  0  0  0  0
  7  8  1  0  0  0  0
  7 28  1  0  0  0  0
  8  9  2  0  0  0  0
  8 10  1  0  0  0  0
 10 11  1  0  0  0  0
 10 29  1  0  0  0  0
 11 17  1  0  0  0  0
 11 12  1  0  0  0  0
 11 30  1  0  0  0  0
 12 16  1  0  0  0  0
 12 13  1  0  0  0  0
 12 31  1  0  0  0  0
 13 14  1  0  0  0  0
 13 32  1  0  0  0  0
 13 33  1  0  0  0  0
 14 15  1  0  0  0  0
 14 34  1  0  0  0  0
 14 35  1  0  0  0  0
 15 16  1  0  0  0  0
 16 17  1  0  0  0  0
 16 36  1  0  0  0  0
 17 20  1  0  0  0  0
 17 18  1  0  0  0  0
 18 19  1  0  0  0  0
 18 37  1  0  0  0  0
 18 38  1  0  0  0  0
 19 20  1  0  0  0  0
 19 39  1  0  0  0  0
 19 40  1  0  0  0  0
 20 41  1  0  0  0  0
 20 42  1  0  0  0  0
 21 22  1  0  0  0  0
M  END
> <s_m_source_file>
AV-unprocessed.smi

> <i_m_source_file_index>
2775

> <i_lp_mmshare_version>
43012

> <i_f3d_flags>
0

> <s_epik_input>
W0NIM11jMW5bY0hdW2NIXWMoYzFDbClbTkhdQyg9TylbTkhdW0NAQEhdMltDQEhdKFtDSDJdW0NIMl1PMylbQ0BASF0zQzI0W0NIMl1bQ0gyXVtDSDJdNA==

> <s_epik_cmdline>
J2VwaWtfcHl0aG9uJywgJy1waCcsICc3LjAnLCAnLXRuJywgJzgnLCAnLW1hJywgJzIwMCcsICctbWV0YWxfYmluZGluZycsICctaW1hZScsICc8aW5maWxlLm1hZT4nLCAnLW9tYWUnLCAnPG91dGZpbGUubWFlPic=

> <r_epik_Ionization_Penalty>
0.01026

> <r_epik_Ionization_Penalty_Charging>
0

> <r_epik_Ionization_Penalty_Neutral>
0.01026

> <r_epik_State_Penalty>
0.00780685

> <r_epik_Charging_Adjusted_Penalty>
0.00780685

> <i_epik_Tot_Q>
0

> <i_epik_Tot_abs_Q>
0

> <r_epik_Metal_State_Penalty>
0.00767411

> <b_epik_Metal_Only>
0

> <s_lp_Force_Field>
OPLS_2005

> <r_lp_Energy>
80.7477

> <b_lp_Chiralities_Consistent>
1

> <s_lp_Variant>
AV-unprocessed.smi:2775-7

> <Gold.Version>
5.8.1

> <Gold.Id.Protein>
6NUR|6NUR_protein|mol2

> <Gold.PLP.Fitness>
44.4050

> <Gold.PLP.PLP>
-37.4972

> <Gold.PLP.part.hbond>
-3.6692

> <Gold.PLP.part.metal>
0.0000

> <Gold.PLP.part.buried>
-3.7949

> <Gold.PLP.part.nonpolar>
-29.9327

> <Gold.PLP.part.repulsive>
0.2355

> <Gold.PLP.ligand.clash>
0.0000

> <Gold.PLP.ligand.torsion>
0.3616

> <Gold.PLP.Chemscore.Hbond>
2.4368

> <Gold.PLP.Chemscore.CHOScore>
0.0000

> <Gold.PLP.Chemscore.Metal>
0.0000

> <Gold.Chemscore.Hbonds>
donor molecule, donor type, donor heavy atom, donor atom, acceptor molecule, acceptor atom, score
      L1  H     7    28       P1  7948  1.00
      L1  H    10    29       P1  7948  0.98
      P1  H  8011  8017       L1    15  0.45

> <Gold.PLP.Chemscore.Internal.Correction>
0.3206

> <Gold.Rescore>
     Score         DG    S(hbond)    S(metal)    S(lipo)     H(rot)  DE(clash)    DE(int)     intcor
     17.42     -17.99       1.28        0.00      92.41       1.00       0.17       0.40       ----

> <Gold.Chemscore.Fitness>
17.4172

> <Gold.Chemscore.DG>
-17.9921

> <Gold.Chemscore.ZeroCoef>
-5.4800

> <Gold.Chemscore.Hbond>
1.2754

> <Gold.Chemscore.Metal>
0.0000

> <Gold.Chemscore.Lipo>
92.4121

> <Gold.Chemscore.Internal_Hbond>
0.0000

> <Gold.Chemscore.DEClash>
0.1737

> <Gold.Chemscore.DEInternal>
0.4011

> <Gold.Chemscore.Rot>
1.0000

> <Gold.Chemscore.Internal.Correction>
   9.000000E+99

> <Gold.Chemscore.Hbonds>
donor molecule, donor type, donor heavy atom, donor atom, acceptor molecule, acceptor atom, score
      L1  H     7    28       P1  7948  0.37
      L1  H    10    29       P1  7948  0.91
      P1  H  8011  8017       L1    15  0.04

> <Gold.Chemscore.Hbond.Weighted>
-4.2598

> <Gold.Chemscore.Metal.Weighted>
-0.0000

> <Gold.Chemscore.Lipo.Weighted>
-10.8122

> <Gold.Chemscore.Internal_Hbond.Weighted>
0.0000

> <Gold.Chemscore.DEClash.Weighted>
0.1737

> <Gold.Chemscore.DEInternal.Weighted>
0.4011

> <Gold.Chemscore.Rot.Weighted>
2.5600

> <Gold.Chemscore.Internal.Correction.Weighted>
   9.000000E+99

> <Gold.Protein.RotatedTorsions>
[ 6907 6896 6895 6894 ] final  -74.10 input  -60.11 | X-H torsion
[ 7974 7965 7964 7962 ] final  121.45 input  175.53 | X-H torsion
[ 8008 7997 7996 7995 ] final  114.11 input   59.86 | X-H torsion
[ 10167 10162 10161 10158 ] final  -50.93 input  -65.29 | X-H torsion
[ 10718 10713 10712 10709 ] final   77.54 input   66.30 | X-H torsion
[ 10763 10752 10751 10750 ] final  -18.04 input  -60.55 | X-H torsion
[ 11005 11000 10999 10996 ] final  -85.79 input  -57.11 | X-H torsion

> <Gold.Protein.ActiveResidues>
 VAL166  LYS551  ARG553  GLY616  TRP617  ASP618  TYR619  PRO620  LYS621  CYS622 
 ASP623  PHE694  ASN695  SER759  ASP760  ASP761  ALA762  ILE779  LEU786  VAL792 
 PHE793  MET794  SER795  GLU796  ALA797  LYS798  CYS799  TRP800  GLU811  SER814 

> <Gold.Protein.RotatedAtoms>
  150.7105  134.4919  159.5519 H   0  0  0  0  0  0  0  0  0  0  0  0  # atno 6907 bound_to 6896
  152.2535  134.8105  160.0451 H   0  0  0  0  0  0  0  0  0  0  0  0  # atno 6908 bound_to 6896
  151.8844  133.3467  159.3814 H   0  0  0  0  0  0  0  0  0  0  0  0  # atno 6909 bound_to 6896
  145.1192  139.3400  143.4723 H   0  0  0  0  0  0  0  0  0  0  0  0  # atno 7974 bound_to 7965
  156.2301  140.2966  156.0166 H   0  0  0  0  0  0  0  0  0  0  0  0  # atno 8008 bound_to 7997
  155.2249  140.0417  157.2971 H   0  0  0  0  0  0  0  0  0  0  0  0  # atno 8009 bound_to 7997
  154.5981  140.2419  155.7837 H   0  0  0  0  0  0  0  0  0  0  0  0  # atno 8010 bound_to 7997
  140.6613  143.2639  151.4430 H   0  0  0  0  0  0  0  0  0  0  0  0  # atno 10167 bound_to 10162
  157.6714  130.9826  150.1656 H   0  0  0  0  0  0  0  0  0  0  0  0  # atno 10718 bound_to 10713
  153.5832  135.7004  153.5454 H   0  0  0  0  0  0  0  0  0  0  0  0  # atno 10763 bound_to 10752
  153.3243  135.4065  155.1442 H   0  0  0  0  0  0  0  0  0  0  0  0  # atno 10764 bound_to 10752
  154.8614  135.3703  154.5360 H   0  0  0  0  0  0  0  0  0  0  0  0  # atno 10765 bound_to 10752
  141.1637  133.7419  156.9067 H   0  0  0  0  0  0  0  0  0  0  0  0  # atno 11005 bound_to 11000
  146.3522  140.1144  142.8602 LP  0  0  0  0  0  0  0  0  0  0  0  0  # atno 17320 bound_to 7965
  145.0760  140.9188  143.4854 LP  0  0  0  0  0  0  0  0  0  0  0  0  # atno 17321 bound_to 7965
  139.5848  144.1628  152.2015 LP  0  0  0  0  0  0  0  0  0  0  0  0  # atno 17342 bound_to 10162
  140.0964  144.5577  150.7019 LP  0  0  0  0  0  0  0  0  0  0  0  0  # atno 17343 bound_to 10162
  156.2422  130.3692  149.8324 LP  0  0  0  0  0  0  0  0  0  0  0  0  # atno 17370 bound_to 10713
  156.6121  130.8591  151.3456 LP  0  0  0  0  0  0  0  0  0  0  0  0  # atno 17371 bound_to 10713
  140.1545  134.9207  157.2636 LP  0  0  0  0  0  0  0  0  0  0  0  0  # atno 17394 bound_to 11000
  140.2683  134.3490  155.7382 LP  0  0  0  0  0  0  0  0  0  0  0  0  # atno 17395 bound_to 11000

$$$$
