#       Name:                AV-unprocessed.smi:2772
#       Creating user name   scv26
#       Creation time:       Fri Mar 27 15:11:44 2020


#       File generated by GOLD software.
#

@<TRIPOS>MOLECULE
AV-unprocessed.smi:2772
    58    60     1
SMALL
NO_CHARGES


@<TRIPOS>ATOM
      1 ****        -7.9695   5.0174  -1.0892 C.3            1 S1                 0.0000
      2 ****        -6.8299   4.0199  -1.0848 C.ar           1 S1                 0.0000
      3 ****        -7.0190   2.7049  -0.6128 C.ar           1 S1                 0.0000
      4 ****        -5.9214   1.8233  -0.6299 C.ar           1 S1                 0.0000
      5 ****        -4.6763   2.2833  -1.1051 C.ar           1 S1                 0.0000
      6 ****        -3.5884   1.3695  -1.1222 N.am           1 S1                 0.0000
      7 ****        -2.2722   1.6419  -1.1248 C.2            1 S1                 0.0000
      8 ****        -1.7781   2.7691  -1.1206 O.2            1 S1                 0.0000
      9 ****        -1.5437   0.5166  -1.1079 N.am           1 S1                 0.0000
     10 ****        -0.0850   0.4636  -1.0729 C.3            1 S1                 0.0000
     11 ****         0.4057  -0.9044  -1.5525 C.3            1 S1                 0.0000
     12 ****         1.9345  -1.0195  -1.4226 C.3            1 S1                 0.0000
     13 ****         2.3813  -0.8408  -0.0305 N.3            1 S1                 0.0000
     14 ****         3.8450  -1.0329   0.0950 C.3            1 S1                 0.0000
     15 ****         4.3216  -2.4478  -0.3242 C.3            1 S1                 0.0000
     16 ****         3.8565  -3.5290   0.6681 C.3            1 S1                 0.0000
     17 ****         4.3383  -3.2377   2.0405 N.4            1 S1                 1.0000
     18 ****         3.9789  -4.3022   3.0015 C.3            1 S1                 0.0000
     19 ****         3.9254  -1.8915   2.5073 C.3            1 S1                 0.0000
     20 ****         4.3914  -0.7991   1.5277 C.3            1 S1                 0.0000
     21 ****         1.9688   0.5023   0.4111 C.3            1 S1                 0.0000
     22 ****         0.4428   0.6854   0.3496 C.3            1 S1                 0.0000
     23 ****        -4.5998   3.6196  -1.5697 C.ar           1 S1                 0.0000
     24 ****        -5.6484   4.4707  -1.5582 N.ar           1 S1                 0.0000
     25 ****        -8.8968   4.5609  -0.7425 H              1 S1                 0.0000
     26 ****        -8.1353   5.4005  -2.0966 H              1 S1                 0.0000
     27 ****        -7.7386   5.8586  -0.4351 H              1 S1                 0.0000
     28 ****        -7.9802   2.3762  -0.2455 H              1 S1                 0.0000
     29 ****        -6.0360   0.8091  -0.2756 H              1 S1                 0.0000
     30 ****        -3.8400   0.3949  -1.0476 H              1 S1                 0.0000
     31 ****        -2.0319  -0.3671  -1.1103 H              1 S1                 0.0000
     32 ****         0.3213   1.2311  -1.7346 H              1 S1                 0.0000
     33 ****        -0.0674  -1.6988  -0.9733 H              1 S1                 0.0000
     34 ****         0.1128  -1.0620  -2.5912 H              1 S1                 0.0000
     35 ****         2.1950  -2.0058  -1.7966 H              1 S1                 0.0000
     36 ****         2.4259  -0.2915  -2.0701 H              1 S1                 0.0000
     37 ****         4.3194  -0.3056  -0.5660 H              1 S1                 0.0000
     38 ****         4.0436  -2.7134  -1.3414 H              1 S1                 0.0000
     39 ****         5.4123  -2.4505  -0.3421 H              1 S1                 0.0000
     40 ****         2.7675  -3.6006   0.6660 H              1 S1                 0.0000
     41 ****         4.2378  -4.5004   0.3508 H              1 S1                 0.0000
     42 ****         2.8965  -4.3828   3.1093 H              1 S1                 0.0000
     43 ****         4.4064  -4.0958   3.9833 H              1 S1                 0.0000
     44 ****         4.3625  -5.2672   2.6682 H              1 S1                 0.0000
     45 ****         2.8411  -1.8568   2.6250 H              1 S1                 0.0000
     46 ****         4.3563  -1.7034   3.4916 H              1 S1                 0.0000
     47 ****         5.4813  -0.8244   1.4864 H              1 S1                 0.0000
     48 ****         4.1702   0.1925   1.9167 H              1 S1                 0.0000
     49 ****         2.2480   0.6764   1.4471 H              1 S1                 0.0000
     50 ****         2.4670   1.2644  -0.1902 H              1 S1                 0.0000
     51 ****         0.1834   1.6867   0.6948 H              1 S1                 0.0000
     52 ****        -0.0344  -0.0122   1.0399 H              1 S1                 0.0000
     53 ****        -3.6922   4.0304  -1.9832 H              1 S1                 0.0000
     54 ****         5.3472  -3.2249   1.9916 H              1 S1                 0.0000
     55 ****        -2.3706   3.5747  -1.1148 LP             1 S1                 0.0000
     56 ****        -0.7842   2.8795  -1.1231 LP             1 S1                 0.0000
     57 ****         1.9584  -1.5320   0.5556 LP             1 S1                 0.0000
     58 ****        -5.5525   5.4087  -1.8911 LP             1 S1                 0.0000
@<TRIPOS>BOND
    1    1    2 1     
    2    1   25 1     
    3    1   26 1     
    4    1   27 1     
    5    2   24 ar    
    6    2    3 ar    
    7    3    4 ar    
    8    3   28 1     
    9    4    5 ar    
   10    4   29 1     
   11    5    6 1     
   12    5   23 ar    
   13    6    7 am    
   14    6   30 1     
   15    7    8 2     
   16    7    9 am    
   17    9   10 1     
   18    9   31 1     
   19   10   22 1     
   20   10   11 1     
   21   10   32 1     
   22   11   12 1     
   23   11   33 1     
   24   11   34 1     
   25   12   13 1     
   26   12   35 1     
   27   12   36 1     
   28   13   14 1     
   29   13   21 1     
   30   14   20 1     
   31   14   15 1     
   32   14   37 1     
   33   15   16 1     
   34   15   38 1     
   35   15   39 1     
   36   16   17 1     
   37   16   40 1     
   38   16   41 1     
   39   17   18 1     
   40   17   19 1     
   41   17   54 1     
   42   18   42 1     
   43   18   43 1     
   44   18   44 1     
   45   19   20 1     
   46   19   45 1     
   47   19   46 1     
   48   20   47 1     
   49   20   48 1     
   50   21   22 1     
   51   21   49 1     
   52   21   50 1     
   53   22   51 1     
   54   22   52 1     
   55   23   24 ar    
   56   23   53 1     
   57    8   55 1     
   58    8   56 1     
   59   13   57 1     
   60   24   58 1     
@<TRIPOS>SUBSTRUCTURE
      1 S1             1
@<TRIPOS>SET
LONE_PAIRS      STATIC     ATOMS    <user>   **** ""
4 55 56 57 58
DONOR_HYDROGENS      STATIC     ATOMS    <user>   **** ""
3 30 31 54
ATOM$BLUE        STATIC     ATOMS    COLORGROUP SYSTEM
4 55 56 57 58
ATOM$RED        STATIC     ATOMS    COLORGROUP SYSTEM
3 30 31 54
