AV-unprocessed.smi:949|AV-procd|sdf|4244|dock4
  -GOLD-   22720 2153D 1   1.00000     0.00000
 Structure written by MMmdl.
 33 34  0  0  0  0  0  0  0  0  2 V2000
  152.0731  144.9264  157.8538 C   0  0  0  0  0  0  0  0  0  0  0  0
  152.0844  143.3963  157.6864 C   0  0  2  0  0  0  0  0  0  0  0  0
  150.9893  142.9688  156.8222 N   0  0  0  0  0  0  0  0  0  0  0  0
  150.9730  141.7317  156.1532 C   0  0  0  0  0  0  0  0  0  0  0  0
  151.9539  140.7317  156.3742 C   0  0  0  0  0  0  0  0  0  0  0  0
  151.8784  139.5122  155.6721 C   0  0  0  0  0  0  0  0  0  0  0  0
  150.8754  139.3012  154.7953 N   0  3  0  0  0  0  0  0  0  0  0  0
  149.9176  140.2192  154.5496 C   0  0  0  0  0  0  0  0  0  0  0  0
  149.9373  141.4602  155.2207 C   0  0  0  0  0  0  0  0  0  0  0  0
  148.9329  142.3926  154.9489 N   0  0  0  0  0  0  0  0  0  0  0  0
  151.9904  142.6892  159.0528 C   0  0  1  0  0  0  0  0  0  0  0  0
  153.3423  142.4022  159.7116 C   0  0  0  0  0  0  0  0  0  0  0  0
  152.9657  142.3352  161.1732 C   0  0  0  0  0  0  0  0  0  0  0  0
  151.9305  143.4496  161.2720 C   0  0  0  0  0  0  0  0  0  0  0  0
  151.3035  143.5134  159.9936 O   0  0  0  0  0  0  0  0  0  0  0  0
  152.9068  145.2620  158.4711 H   0  0  0  0  0  0  0  0  0  0  0  0
  151.1526  145.2645  158.3312 H   0  0  0  0  0  0  0  0  0  0  0  0
  152.1548  145.4402  156.8962 H   0  0  0  0  0  0  0  0  0  0  0  0
  153.0294  143.0958  157.2338 H   0  0  0  0  0  0  0  0  0  0  0  0
  150.2038  143.5937  156.7115 H   0  0  0  0  0  0  0  0  0  0  0  0
  152.7673  140.8762  157.0685 H   0  0  0  0  0  0  0  0  0  0  0  0
  152.5876  138.7051  155.7852 H   0  0  0  0  0  0  0  0  0  0  0  0
  149.1680  139.9326  153.8262 H   0  0  0  0  0  0  0  0  0  0  0  0
  148.9080  143.2929  155.4062 H   0  0  0  0  0  0  0  0  0  0  0  0
  148.1592  142.1718  154.3384 H   0  0  0  0  0  0  0  0  0  0  0  0
  151.4323  141.7557  158.9613 H   0  0  0  0  0  0  0  0  0  0  0  0
  153.8066  141.4845  159.3491 H   0  0  0  0  0  0  0  0  0  0  0  0
  154.0370  143.2269  159.5440 H   0  0  0  0  0  0  0  0  0  0  0  0
  152.5063  141.3716  161.3982 H   0  0  0  0  0  0  0  0  0  0  0  0
  153.8129  142.4777  161.8445 H   0  0  0  0  0  0  0  0  0  0  0  0
  151.2037  143.2738  162.0653 H   0  0  0  0  0  0  0  0  0  0  0  0
  152.4182  144.4058  161.4650 H   0  0  0  0  0  0  0  0  0  0  0  0
  150.8391  138.4112  154.2976 H   0  0  0  0  0  0  0  0  0  0  0  0
  1  2  1  0  0  0  0
  1 16  1  0  0  0  0
  1 17  1  0  0  0  0
  1 18  1  0  0  0  0
  2  3  1  0  0  0  0
  2 11  1  0  0  0  0
  2 19  1  0  0  0  0
  3  4  1  0  0  0  0
  3 20  1  0  0  0  0
  4  9  1  0  0  0  0
  4  5  2  0  0  0  0
  5  6  1  0  0  0  0
  5 21  1  0  0  0  0
  6  7  2  0  0  0  0
  6 22  1  0  0  0  0
  7  8  1  0  0  0  0
  7 33  1  0  0  0  0
  8  9  2  0  0  0  0
  8 23  1  0  0  0  0
  9 10  1  0  0  0  0
 10 24  1  0  0  0  0
 10 25  1  0  0  0  0
 11 15  1  0  0  0  0
 11 12  1  0  0  0  0
 11 26  1  0  0  0  0
 12 13  1  0  0  0  0
 12 27  1  0  0  0  0
 12 28  1  0  0  0  0
 13 14  1  0  0  0  0
 13 29  1  0  0  0  0
 13 30  1  0  0  0  0
 14 15  1  0  0  0  0
 14 31  1  0  0  0  0
 14 32  1  0  0  0  0
M  CHG  1   7   1
M  END
> <s_m_source_file>
AV-unprocessed.smi

> <i_m_source_file_index>
949

> <i_lp_mmshare_version>
43012

> <i_f3d_flags>
0

> <s_epik_input>
TzFbQ0gyXVtDSDJdW0NIMl1bQ0BIXTFbQ0BIXShbQ0gzXSlbTkhdYzJbY0hdW2NIXW5bY0hdYzJbTkgyXQ==

> <s_epik_cmdline>
J2VwaWtfcHl0aG9uJywgJy1waCcsICc3LjAnLCAnLXRuJywgJzgnLCAnLW1hJywgJzIwMCcsICctbWV0YWxfYmluZGluZycsICctaW1hZScsICc8aW5maWxlLm1hZT4nLCAnLW9tYWUnLCAnPG91dGZpbGUubWFlPic=

> <r_epik_Ionization_Penalty>
0.000849261

> <r_epik_Ionization_Penalty_Charging>
0.000847912

> <r_epik_Ionization_Penalty_Neutral>
1.34939e-06

> <r_epik_State_Penalty>
0.000546618

> <r_epik_Charging_Adjusted_Penalty>
0.00139453

> <i_epik_Tot_Q>
1

> <i_epik_Tot_abs_Q>
1

> <r_epik_Metal_State_Penalty>
0.526583

> <b_epik_Metal_Only>
0

> <s_lp_Force_Field>
OPLS_2005

> <r_lp_Energy>
29.4206

> <b_lp_Chiralities_Consistent>
1

> <s_lp_Variant>
AV-unprocessed.smi:949-3

> <Gold.Version>
5.8.1

> <Gold.Id.Protein>
6NUR|6NUR_protein|mol2

> <Gold.PLP.Fitness>
39.6362

> <Gold.PLP.PLP>
-35.9578

> <Gold.PLP.part.hbond>
-1.9090

> <Gold.PLP.part.metal>
0.0000

> <Gold.PLP.part.buried>
-5.7028

> <Gold.PLP.part.nonpolar>
-27.9145

> <Gold.PLP.part.repulsive>
0.3603

> <Gold.PLP.ligand.clash>
0.0000

> <Gold.PLP.ligand.torsion>
1.1185

> <Gold.PLP.Chemscore.Hbond>
1.9675

> <Gold.PLP.Chemscore.CHOScore>
0.0000

> <Gold.PLP.Chemscore.Metal>
0.0000

> <Gold.Chemscore.Hbonds>
donor molecule, donor type, donor heavy atom, donor atom, acceptor molecule, acceptor atom, score
      L1  H     3    20       P1  8028  1.00
      L1  H    10    24       P1  8028  0.78

> <Gold.PLP.Chemscore.Internal.Correction>
0.0130

> <Gold.Rescore>
     Score         DG    S(hbond)    S(metal)    S(lipo)     H(rot)  DE(clash)    DE(int)     intcor
     19.19     -21.34       1.96        0.00     106.47       1.23       1.44       0.70       ----

> <Gold.Chemscore.Fitness>
19.1892

> <Gold.Chemscore.DG>
-21.3363

> <Gold.Chemscore.ZeroCoef>
-5.4800

> <Gold.Chemscore.Hbond>
1.9642

> <Gold.Chemscore.Metal>
0.0000

> <Gold.Chemscore.Lipo>
106.4686

> <Gold.Chemscore.Internal_Hbond>
0.0000

> <Gold.Chemscore.DEClash>
1.4425

> <Gold.Chemscore.DEInternal>
0.7046

> <Gold.Chemscore.Rot>
1.2347

> <Gold.Chemscore.Internal.Correction>
   9.000000E+99

> <Gold.Chemscore.Hbonds>
donor molecule, donor type, donor heavy atom, donor atom, acceptor molecule, acceptor atom, score
      L1  H     3    20       P1  8028  0.93
      L1  H    10    24       P1  8028  0.77

> <Gold.Chemscore.Hbond.Weighted>
-6.5603

> <Gold.Chemscore.Metal.Weighted>
-0.0000

> <Gold.Chemscore.Lipo.Weighted>
-12.4568

> <Gold.Chemscore.Internal_Hbond.Weighted>
0.0000

> <Gold.Chemscore.DEClash.Weighted>
1.4425

> <Gold.Chemscore.DEInternal.Weighted>
0.7046

> <Gold.Chemscore.Rot.Weighted>
3.1609

> <Gold.Chemscore.Internal.Correction.Weighted>
   9.000000E+99

> <Gold.Protein.RotatedTorsions>
[ 6907 6896 6895 6894 ] final  118.10 input  -60.11 | X-H torsion
[ 7974 7965 7964 7962 ] final -163.87 input  175.53 | X-H torsion
[ 8008 7997 7996 7995 ] final  139.15 input   59.86 | X-H torsion
[ 10167 10162 10161 10158 ] final  -22.25 input  -65.29 | X-H torsion
[ 10718 10713 10712 10709 ] final  144.64 input   66.30 | X-H torsion
[ 10763 10752 10751 10750 ] final -162.03 input  -60.55 | X-H torsion
[ 11005 11000 10999 10996 ] final  111.01 input  -57.11 | X-H torsion

> <Gold.Protein.ActiveResidues>
 VAL166  LYS551  ARG553  GLY616  TRP617  ASP618  TYR619  PRO620  LYS621  CYS622 
 ASP623  PHE694  ASN695  SER759  ASP760  ASP761  ALA762  ILE779  LEU786  VAL792 
 PHE793  MET794  SER795  GLU796  ALA797  LYS798  CYS799  TRP800  GLU811  SER814 

> <Gold.Protein.RotatedAtoms>
  152.4566  133.7736  159.6812 H   0  0  0  0  0  0  0  0  0  0  0  0  # atno 6907 bound_to 6896
  150.8495  133.7799  159.3037 H   0  0  0  0  0  0  0  0  0  0  0  0  # atno 6908 bound_to 6896
  151.5399  135.1071  159.9975 H   0  0  0  0  0  0  0  0  0  0  0  0  # atno 6909 bound_to 6896
  144.7313  140.3043  143.6199 H   0  0  0  0  0  0  0  0  0  0  0  0  # atno 7974 bound_to 7965
  156.2992  140.2375  156.4190 H   0  0  0  0  0  0  0  0  0  0  0  0  # atno 8008 bound_to 7997
  154.8373  140.0430  157.1538 H   0  0  0  0  0  0  0  0  0  0  0  0  # atno 8009 bound_to 7997
  154.9142  140.2994  155.5254 H   0  0  0  0  0  0  0  0  0  0  0  0  # atno 8010 bound_to 7997
  140.7285  143.4552  151.0459 H   0  0  0  0  0  0  0  0  0  0  0  0  # atno 10167 bound_to 10162
  157.3548  131.0956  151.0968 H   0  0  0  0  0  0  0  0  0  0  0  0  # atno 10718 bound_to 10713
  154.7251  135.3034  154.8984 H   0  0  0  0  0  0  0  0  0  0  0  0  # atno 10763 bound_to 10752
  153.9844  135.6726  153.4755 H   0  0  0  0  0  0  0  0  0  0  0  0  # atno 10764 bound_to 10752
  153.0868  135.4980  154.8531 H   0  0  0  0  0  0  0  0  0  0  0  0  # atno 10765 bound_to 10752
  139.8894  134.9498  156.6367 H   0  0  0  0  0  0  0  0  0  0  0  0  # atno 11005 bound_to 11000
  145.7728  139.1863  143.2202 LP  0  0  0  0  0  0  0  0  0  0  0  0  # atno 17320 bound_to 7965
  146.0897  140.7670  142.9601 LP  0  0  0  0  0  0  0  0  0  0  0  0  # atno 17321 bound_to 7965
  139.8232  143.7792  152.3177 LP  0  0  0  0  0  0  0  0  0  0  0  0  # atno 17342 bound_to 10162
  139.7882  144.7420  150.9993 LP  0  0  0  0  0  0  0  0  0  0  0  0  # atno 17343 bound_to 10162
  157.2130  130.6446  149.5781 LP  0  0  0  0  0  0  0  0  0  0  0  0  # atno 17370 bound_to 10713
  155.9727  130.4654  150.6251 LP  0  0  0  0  0  0  0  0  0  0  0  0  # atno 17371 bound_to 10713
  140.7625  133.8805  155.8429 LP  0  0  0  0  0  0  0  0  0  0  0  0  # atno 17394 bound_to 11000
  140.9910  134.1279  157.4408 LP  0  0  0  0  0  0  0  0  0  0  0  0  # atno 17395 bound_to 11000

$$$$
