AV-unprocessed.smi:886|AV-procd|sdf|4049|dock4
  -GOLD-   22720 1533D 1   1.00000     0.00000
 Structure written by MMmdl.
 35 37  0  0  0  0  0  0  0  0  1 V2000
  154.8860  140.5359  162.1216 C   0  0  0  0  0  0  0  0  0  0  0  0
  154.1018  141.2526  161.1280 N   0  0  0  0  0  0  0  0  0  0  0  0
  153.4517  140.6638  160.1125 C   0  0  0  0  0  0  0  0  0  0  0  0
  153.4441  139.4455  159.9316 O   0  0  0  0  0  0  0  0  0  0  0  0
  152.6888  141.5986  159.2091 C   0  0  0  0  0  0  0  0  0  0  0  0
  153.0082  142.9769  159.2041 C   0  0  0  0  0  0  0  0  0  0  0  0
  152.3210  143.8472  158.3396 C   0  0  0  0  0  0  0  0  0  0  0  0
  151.3346  143.3056  157.4982 C   0  0  0  0  0  0  0  0  0  0  0  0
  151.0177  141.9953  157.4841 N   0  0  0  0  0  0  0  0  0  0  0  0
  151.6751  141.1485  158.3139 C   0  0  0  0  0  0  0  0  0  0  0  0
  151.2930  139.7950  158.2788 N   0  0  0  0  0  0  0  0  0  0  0  0
  151.5281  138.9796  157.0919 C   0  0  1  0  0  0  0  0  0  0  0  0
  150.2349  138.6086  156.3543 C   0  0  0  0  0  0  0  0  0  0  0  0
  150.5019  139.1577  154.9474 C   0  0  2  0  0  0  0  0  0  0  0  0
  151.5883  138.3637  154.2096 C   0  0  0  0  0  0  0  0  0  0  0  0
  152.8535  138.8143  154.9389 C   0  0  0  0  0  0  0  0  0  0  0  0
  152.2844  139.7613  156.0043 C   0  0  1  0  0  0  0  0  0  0  0  0
  151.2144  140.3378  155.2725 O   0  0  0  0  0  0  0  0  0  0  0  0
  155.3000  141.2376  162.8456 H   0  0  0  0  0  0  0  0  0  0  0  0
  155.7133  140.0021  161.6518 H   0  0  0  0  0  0  0  0  0  0  0  0
  154.2674  139.8164  162.6596 H   0  0  0  0  0  0  0  0  0  0  0  0
  154.0464  142.2568  161.2182 H   0  0  0  0  0  0  0  0  0  0  0  0
  153.7790  143.3720  159.8500 H   0  0  0  0  0  0  0  0  0  0  0  0
  152.5484  144.9027  158.3186 H   0  0  0  0  0  0  0  0  0  0  0  0
  150.7857  143.9398  156.8180 H   0  0  0  0  0  0  0  0  0  0  0  0
  151.2212  139.3084  159.1612 H   0  0  0  0  0  0  0  0  0  0  0  0
  152.0999  138.0931  157.3696 H   0  0  0  0  0  0  0  0  0  0  0  0
  150.0468  137.5346  156.3540 H   0  0  0  0  0  0  0  0  0  0  0  0
  149.3655  139.1031  156.7904 H   0  0  0  0  0  0  0  0  0  0  0  0
  149.5989  139.3260  154.3599 H   0  0  0  0  0  0  0  0  0  0  0  0
  151.4251  137.2871  154.2678 H   0  0  0  0  0  0  0  0  0  0  0  0
  151.6316  138.6484  153.1577 H   0  0  0  0  0  0  0  0  0  0  0  0
  153.4123  137.9844  155.3729 H   0  0  0  0  0  0  0  0  0  0  0  0
  153.5149  139.3518  154.2583 H   0  0  0  0  0  0  0  0  0  0  0  0
  153.0143  140.4767  156.3851 H   0  0  0  0  0  0  0  0  0  0  0  0
  1  2  1  0  0  0  0
  1 19  1  0  0  0  0
  1 20  1  0  0  0  0
  1 21  1  0  0  0  0
  2  3  1  0  0  0  0
  2 22  1  0  0  0  0
  3  4  2  0  0  0  0
  3  5  1  0  0  0  0
  5 10  1  0  0  0  0
  5  6  2  0  0  0  0
  6  7  1  0  0  0  0
  6 23  1  0  0  0  0
  7  8  2  0  0  0  0
  7 24  1  0  0  0  0
  8  9  1  0  0  0  0
  8 25  1  0  0  0  0
  9 10  2  0  0  0  0
 10 11  1  0  0  0  0
 11 12  1  0  0  0  0
 11 26  1  0  0  0  0
 12 17  1  0  0  0  0
 12 13  1  0  0  0  0
 12 27  1  0  0  0  0
 13 14  1  0  0  0  0
 13 28  1  0  0  0  0
 13 29  1  0  0  0  0
 14 18  1  0  0  0  0
 14 15  1  0  0  0  0
 14 30  1  0  0  0  0
 15 16  1  0  0  0  0
 15 31  1  0  0  0  0
 15 32  1  0  0  0  0
 16 17  1  0  0  0  0
 16 33  1  0  0  0  0
 16 34  1  0  0  0  0
 17 18  1  0  0  0  0
 17 35  1  0  0  0  0
M  END
> <s_m_source_file>
AV-unprocessed.smi

> <i_m_source_file_index>
886

> <i_lp_mmshare_version>
43012

> <i_f3d_flags>
0

> <s_epik_input>
W0NIM11bTkhdQyg9TyljMVtjSF1bY0hdW2NIXW5jMVtOSF1bQ0BIXShbQ0gyXVtDQEhdMjMpW0NASF0oTzMpW0NIMl1bQ0gyXTI=

> <s_epik_cmdline>
J2VwaWtfcHl0aG9uJywgJy1waCcsICc3LjAnLCAnLXRuJywgJzgnLCAnLW1hJywgJzIwMCcsICctbWV0YWxfYmluZGluZycsICctaW1hZScsICc8aW5maWxlLm1hZT4nLCAnLW9tYWUnLCAnPG91dGZpbGUubWFlPic=

> <r_lp_tautomer_probability>
1

> <r_epik_Ionization_Penalty>
0.0065447

> <r_epik_Ionization_Penalty_Charging>
0

> <r_epik_Ionization_Penalty_Neutral>
0.0065447

> <r_epik_State_Penalty>
0.00484214

> <r_epik_Charging_Adjusted_Penalty>
0.00484214

> <i_epik_Tot_Q>
0

> <i_epik_Tot_abs_Q>
0

> <r_epik_Metal_State_Penalty>
-0

> <b_epik_Metal_Only>
0

> <s_lp_Force_Field>
OPLS_2005

> <r_lp_Energy>
46.3803

> <b_lp_Chiralities_Consistent>
1

> <s_lp_Variant>
AV-unprocessed.smi:886-2

> <Gold.Version>
5.8.1

> <Gold.Id.Protein>
6NUR|6NUR_protein|mol2

> <Gold.PLP.Fitness>
39.8872

> <Gold.PLP.PLP>
-35.4789

> <Gold.PLP.part.hbond>
-1.0000

> <Gold.PLP.part.metal>
0.0000

> <Gold.PLP.part.buried>
-4.5789

> <Gold.PLP.part.nonpolar>
-29.8226

> <Gold.PLP.part.repulsive>
0.2149

> <Gold.PLP.ligand.clash>
0.0000

> <Gold.PLP.ligand.torsion>
0.8079

> <Gold.PLP.Chemscore.Hbond>
1.0000

> <Gold.PLP.Chemscore.CHOScore>
1.0000

> <Gold.PLP.Chemscore.Metal>
0.0000

> <Gold.Chemscore.Hbonds>
donor molecule, donor type, donor heavy atom, donor atom, acceptor molecule, acceptor atom, score
      P1  H  7989  7998       L1    18  0.90
      L1  C     8    25       P1  8028  1.00

> <Gold.PLP.Chemscore.Internal.Correction>
0.0242

> <Gold.Rescore>
     Score         DG    S(hbond)    S(metal)    S(lipo)     H(rot)  DE(clash)    DE(int)     intcor
     14.83     -16.76       0.90        0.00      92.58       1.00       0.10       1.83       ----

> <Gold.Chemscore.Fitness>
14.8269

> <Gold.Chemscore.DG>
-16.7585

> <Gold.Chemscore.ZeroCoef>
-5.4800

> <Gold.Chemscore.Hbond>
0.9002

> <Gold.Chemscore.Metal>
0.0000

> <Gold.Chemscore.Lipo>
92.5805

> <Gold.Chemscore.Internal_Hbond>
0.0000

> <Gold.Chemscore.DEClash>
0.0990

> <Gold.Chemscore.DEInternal>
1.8326

> <Gold.Chemscore.Rot>
1.0000

> <Gold.Chemscore.Internal.Correction>
   9.000000E+99

> <Gold.Chemscore.Hbonds>
donor molecule, donor type, donor heavy atom, donor atom, acceptor molecule, acceptor atom, score
      P1  H  7989  7998       L1    18  0.15

> <Gold.Chemscore.Hbond.Weighted>
-3.0066

> <Gold.Chemscore.Metal.Weighted>
-0.0000

> <Gold.Chemscore.Lipo.Weighted>
-10.8319

> <Gold.Chemscore.Internal_Hbond.Weighted>
0.0000

> <Gold.Chemscore.DEClash.Weighted>
0.0990

> <Gold.Chemscore.DEInternal.Weighted>
1.8326

> <Gold.Chemscore.Rot.Weighted>
2.5600

> <Gold.Chemscore.Internal.Correction.Weighted>
   9.000000E+99

> <Gold.Protein.RotatedTorsions>
[ 6907 6896 6895 6894 ] final  141.66 input  -60.11 | X-H torsion
[ 7974 7965 7964 7962 ] final  133.65 input  175.53 | X-H torsion
[ 8008 7997 7996 7995 ] final  -91.15 input   59.86 | X-H torsion
[ 10167 10162 10161 10158 ] final   15.78 input  -65.29 | X-H torsion
[ 10718 10713 10712 10709 ] final   72.96 input   66.30 | X-H torsion
[ 10763 10752 10751 10750 ] final  178.90 input  -60.55 | X-H torsion
[ 11005 11000 10999 10996 ] final  161.28 input  -57.11 | X-H torsion

> <Gold.Protein.ActiveResidues>
 VAL166  LYS551  ARG553  GLY616  TRP617  ASP618  TYR619  PRO620  LYS621  CYS622 
 ASP623  PHE694  ASN695  SER759  ASP760  ASP761  ALA762  ILE779  LEU786  VAL792 
 PHE793  MET794  SER795  GLU796  ALA797  LYS798  CYS799  TRP800  GLU811  SER814 

> <Gold.Protein.RotatedAtoms>
  152.2282  133.5037  159.5200 H   0  0  0  0  0  0  0  0  0  0  0  0  # atno 6907 bound_to 6896
  150.7030  134.1252  159.4058 H   0  0  0  0  0  0  0  0  0  0  0  0  # atno 6908 bound_to 6896
  151.9173  135.0313  160.0570 H   0  0  0  0  0  0  0  0  0  0  0  0  # atno 6909 bound_to 6896
  144.9843  139.4471  143.5370 H   0  0  0  0  0  0  0  0  0  0  0  0  # atno 7974 bound_to 7965
  154.7072  140.0522  157.0515 H   0  0  0  0  0  0  0  0  0  0  0  0  # atno 8008 bound_to 7997
  155.0604  140.3189  155.4643 H   0  0  0  0  0  0  0  0  0  0  0  0  # atno 8009 bound_to 7997
  156.2778  140.2100  156.5731 H   0  0  0  0  0  0  0  0  0  0  0  0  # atno 8010 bound_to 7997
  140.5843  143.8920  150.6816 H   0  0  0  0  0  0  0  0  0  0  0  0  # atno 10167 bound_to 10162
  157.6525  130.9605  150.1002 H   0  0  0  0  0  0  0  0  0  0  0  0  # atno 10718 bound_to 10713
  154.5137  135.2790  155.1321 H   0  0  0  0  0  0  0  0  0  0  0  0  # atno 10763 bound_to 10752
  154.2906  135.6267  153.5387 H   0  0  0  0  0  0  0  0  0  0  0  0  # atno 10764 bound_to 10752
  152.9923  135.5673  154.5609 H   0  0  0  0  0  0  0  0  0  0  0  0  # atno 10765 bound_to 10752
  140.2142  134.8245  157.3153 H   0  0  0  0  0  0  0  0  0  0  0  0  # atno 11005 bound_to 11000
  146.3416  139.9136  142.8776 LP  0  0  0  0  0  0  0  0  0  0  0  0  # atno 17320 bound_to 7965
  145.2375  140.9997  143.3955 LP  0  0  0  0  0  0  0  0  0  0  0  0  # atno 17321 bound_to 7965
  140.2427  143.3651  152.1473 LP  0  0  0  0  0  0  0  0  0  0  0  0  # atno 17342 bound_to 10162
  139.5188  144.7011  151.5491 LP  0  0  0  0  0  0  0  0  0  0  0  0  # atno 17343 bound_to 10162
  156.1927  130.3655  149.8889 LP  0  0  0  0  0  0  0  0  0  0  0  0  # atno 17370 bound_to 10713
  156.6814  130.8859  151.3576 LP  0  0  0  0  0  0  0  0  0  0  0  0  # atno 17371 bound_to 10713
  140.1918  134.4362  155.7711 LP  0  0  0  0  0  0  0  0  0  0  0  0  # atno 17394 bound_to 11000
  141.2225  133.7031  156.8040 LP  0  0  0  0  0  0  0  0  0  0  0  0  # atno 17395 bound_to 11000

$$$$
