AV-unprocessed.smi:2322|AV-procd|sdf|9285|dock7
  -GOLD-   2272012513D 1   1.00000     0.00000
 Structure written by MMmdl.
 38 40  0  0  0  0  0  0  0  0  1 V2000
  146.9152  133.3654  151.5788 C   0  0  0  0  0  0  0  0  0  0  0  0
  145.6218  134.0094  151.7046 N   0  0  0  0  0  0  0  0  0  0  0  0
  144.4784  133.3224  151.4735 N   0  0  0  0  0  0  0  0  0  0  0  0
  143.5365  134.2399  151.6885 C   0  0  0  0  0  0  0  0  0  0  0  0
  143.9811  135.4808  152.0458 N   0  0  0  0  0  0  0  0  0  0  0  0
  145.2937  135.2622  152.0363 C   0  0  0  0  0  0  0  0  0  0  0  0
  146.3230  136.2045  152.3333 N   0  0  0  0  0  0  0  0  0  0  0  0
  146.3140  137.3230  153.0881 C   0  0  0  0  0  0  0  0  0  0  0  0
  145.2928  137.6875  153.6685 O   0  0  0  0  0  0  0  0  0  0  0  0
  147.4729  137.9978  153.1631 N   0  0  0  0  0  0  0  0  0  0  0  0
  147.6936  139.2233  153.9237 C   0  0  2  0  0  0  0  0  0  0  0  0
  147.0970  140.4170  153.1666 C   0  0  0  0  0  0  0  0  0  0  0  0
  147.4238  141.7345  153.8855 C   0  0  0  0  0  0  0  0  0  0  0  0
  148.8337  141.8782  154.0426 O   0  0  0  0  0  0  0  0  0  0  0  0
  149.4727  140.8395  154.7866 C   0  0  1  0  0  0  0  0  0  0  0  0
  149.1147  140.8991  156.2653 C   0  0  0  0  0  0  0  0  0  0  0  0
  149.8732  141.8082  157.2027 C   0  0  0  0  0  0  0  0  0  0  0  0
  150.0361  140.3102  157.3079 C   0  0  0  0  0  0  0  0  0  0  0  0
  149.1973  139.4647  154.1459 C   0  0  0  0  0  0  0  0  0  0  0  0
  147.3912  133.3068  152.5578 H   0  0  0  0  0  0  0  0  0  0  0  0
  147.5498  133.9438  150.9071 H   0  0  0  0  0  0  0  0  0  0  0  0
  146.8047  132.3571  151.1772 H   0  0  0  0  0  0  0  0  0  0  0  0
  142.4873  134.0058  151.5841 H   0  0  0  0  0  0  0  0  0  0  0  0
  147.2089  136.0060  151.8916 H   0  0  0  0  0  0  0  0  0  0  0  0
  148.2640  137.6286  152.6541 H   0  0  0  0  0  0  0  0  0  0  0  0
  147.1899  139.1400  154.8883 H   0  0  0  0  0  0  0  0  0  0  0  0
  147.4989  140.4529  152.1528 H   0  0  0  0  0  0  0  0  0  0  0  0
  146.0167  140.3023  153.0705 H   0  0  0  0  0  0  0  0  0  0  0  0
  147.0543  142.5766  153.3002 H   0  0  0  0  0  0  0  0  0  0  0  0
  146.9210  141.7862  154.8514 H   0  0  0  0  0  0  0  0  0  0  0  0
  150.5438  141.0307  154.7090 H   0  0  0  0  0  0  0  0  0  0  0  0
  148.0522  140.7972  156.4748 H   0  0  0  0  0  0  0  0  0  0  0  0
  150.7058  142.3768  156.7930 H   0  0  0  0  0  0  0  0  0  0  0  0
  149.3052  142.3095  157.9835 H   0  0  0  0  0  0  0  0  0  0  0  0
  149.5760  139.8115  158.1584 H   0  0  0  0  0  0  0  0  0  0  0  0
  150.9782  139.8826  156.9706 H   0  0  0  0  0  0  0  0  0  0  0  0
  149.6279  138.6721  154.7592 H   0  0  0  0  0  0  0  0  0  0  0  0
  149.7121  139.4203  153.1849 H   0  0  0  0  0  0  0  0  0  0  0  0
  1  2  1  0  0  0  0
  1 20  1  0  0  0  0
  1 21  1  0  0  0  0
  1 22  1  0  0  0  0
  2  6  1  0  0  0  0
  2  3  1  0  0  0  0
  3  4  2  0  0  0  0
  4  5  1  0  0  0  0
  4 23  1  0  0  0  0
  5  6  2  0  0  0  0
  6  7  1  0  0  0  0
  7  8  1  0  0  0  0
  7 24  1  0  0  0  0
  8  9  2  0  0  0  0
  8 10  1  0  0  0  0
 10 11  1  0  0  0  0
 10 25  1  0  0  0  0
 11 19  1  0  0  0  0
 11 12  1  0  0  0  0
 11 26  1  0  0  0  0
 12 13  1  0  0  0  0
 12 27  1  0  0  0  0
 12 28  1  0  0  0  0
 13 14  1  0  0  0  0
 13 29  1  0  0  0  0
 13 30  1  0  0  0  0
 14 15  1  0  0  0  0
 15 16  1  0  0  0  0
 15 19  1  0  0  0  0
 15 31  1  0  0  0  0
 16 18  1  0  0  0  0
 16 17  1  0  0  0  0
 16 32  1  0  0  0  0
 17 18  1  0  0  0  0
 17 33  1  0  0  0  0
 17 34  1  0  0  0  0
 18 35  1  0  0  0  0
 18 36  1  0  0  0  0
 19 37  1  0  0  0  0
 19 38  1  0  0  0  0
M  END
> <s_m_source_file>
AV-unprocessed.smi

> <i_m_source_file_index>
2322

> <i_lp_mmshare_version>
43012

> <i_f3d_flags>
0

> <s_epik_input>
W0NIM11uMW5bY0hdbmMxW05IXUMoPU8pW05IXVtDQEBIXTJbQ0gyXVtDSDJdT1tDQEhdKFtDSDJdMilbQ0hdM1tDSDJdW0NIMl0z

> <s_epik_cmdline>
J2VwaWtfcHl0aG9uJywgJy1waCcsICc3LjAnLCAnLXRuJywgJzgnLCAnLW1hJywgJzIwMCcsICctbWV0YWxfYmluZGluZycsICctaW1hZScsICc8aW5maWxlLm1hZT4nLCAnLW9tYWUnLCAnPG91dGZpbGUubWFlPic=

> <r_lp_tautomer_probability>
1

> <r_epik_Ionization_Penalty>
2.16399e-05

> <r_epik_Ionization_Penalty_Charging>
0

> <r_epik_Ionization_Penalty_Neutral>
2.16399e-05

> <r_epik_State_Penalty>
-0

> <r_epik_Charging_Adjusted_Penalty>
0

> <i_epik_Tot_Q>
0

> <i_epik_Tot_abs_Q>
0

> <r_epik_Metal_State_Penalty>
-0

> <b_epik_Metal_Only>
0

> <s_lp_Force_Field>
OPLS_2005

> <r_lp_Energy>
22.5256

> <b_lp_Chiralities_Consistent>
1

> <s_lp_Variant>
AV-unprocessed.smi:2322-1

> <Gold.Version>
5.8.1

> <Gold.Id.Protein>
6NUR|6NUR_protein|mol2

> <Gold.PLP.Fitness>
36.8978

> <Gold.PLP.PLP>
-28.1086

> <Gold.PLP.part.hbond>
-3.0000

> <Gold.PLP.part.metal>
0.0000

> <Gold.PLP.part.buried>
-3.6081

> <Gold.PLP.part.nonpolar>
-22.4694

> <Gold.PLP.part.repulsive>
0.6696

> <Gold.PLP.ligand.clash>
0.0000

> <Gold.PLP.ligand.torsion>
0.9146

> <Gold.PLP.Chemscore.Hbond>
2.4240

> <Gold.PLP.Chemscore.CHOScore>
0.7563

> <Gold.PLP.Chemscore.Metal>
0.0000

> <Gold.Chemscore.Hbonds>
donor molecule, donor type, donor heavy atom, donor atom, acceptor molecule, acceptor atom, score
      L1  H     7    24       P1  7948  1.00
      L1  H    10    25       P1  7948  0.94
      P1  H  8011  8017       L1    14  0.48
      L1  C     4    23       P1 10186  0.74

> <Gold.PLP.Chemscore.Internal.Correction>
1.0775

> <Gold.Rescore>
     Score         DG    S(hbond)    S(metal)    S(lipo)     H(rot)  DE(clash)    DE(int)     intcor
     14.64     -16.53       2.39        0.00      54.92       1.31       0.12       1.77       ----

> <Gold.Chemscore.Fitness>
14.6362

> <Gold.Chemscore.DG>
-16.5254

> <Gold.Chemscore.ZeroCoef>
-5.4800

> <Gold.Chemscore.Hbond>
2.3852

> <Gold.Chemscore.Metal>
0.0000

> <Gold.Chemscore.Lipo>
54.9182

> <Gold.Chemscore.Internal_Hbond>
0.0000

> <Gold.Chemscore.DEClash>
0.1154

> <Gold.Chemscore.DEInternal>
1.7738

> <Gold.Chemscore.Rot>
1.3072

> <Gold.Chemscore.Internal.Correction>
   9.000000E+99

> <Gold.Chemscore.Hbonds>
donor molecule, donor type, donor heavy atom, donor atom, acceptor molecule, acceptor atom, score
      L1  H     7    24       P1  7948  0.94
      L1  H    10    25       P1  7948  0.91
      P1  H  8011  8017       L1    14  0.36

> <Gold.Chemscore.Hbond.Weighted>
-7.9664

> <Gold.Chemscore.Metal.Weighted>
-0.0000

> <Gold.Chemscore.Lipo.Weighted>
-6.4254

> <Gold.Chemscore.Internal_Hbond.Weighted>
0.0000

> <Gold.Chemscore.DEClash.Weighted>
0.1154

> <Gold.Chemscore.DEInternal.Weighted>
1.7738

> <Gold.Chemscore.Rot.Weighted>
3.3464

> <Gold.Chemscore.Internal.Correction.Weighted>
   9.000000E+99

> <Gold.Protein.RotatedTorsions>
[ 6907 6896 6895 6894 ] final  143.56 input  -60.11 | X-H torsion
[ 7974 7965 7964 7962 ] final -161.64 input  175.53 | X-H torsion
[ 8008 7997 7996 7995 ] final -138.30 input   59.86 | X-H torsion
[ 10167 10162 10161 10158 ] final -130.66 input  -65.29 | X-H torsion
[ 10718 10713 10712 10709 ] final    4.48 input   66.30 | X-H torsion
[ 10763 10752 10751 10750 ] final -142.56 input  -60.55 | X-H torsion
[ 11005 11000 10999 10996 ] final -113.66 input  -57.11 | X-H torsion

> <Gold.Protein.ActiveResidues>
 VAL166  LYS551  ARG553  GLY616  TRP617  ASP618  TYR619  PRO620  LYS621  CYS622 
 ASP623  PHE694  ASN695  SER759  ASP760  ASP761  ALA762  ILE779  LEU786  VAL792 
 PHE793  MET794  SER795  GLU796  ALA797  LYS798  CYS799  TRP800  GLU811  SER814 

> <Gold.Protein.RotatedAtoms>
  152.2048  133.4867  159.5077 H   0  0  0  0  0  0  0  0  0  0  0  0  # atno 6907 bound_to 6896
  150.6977  134.1544  159.4161 H   0  0  0  0  0  0  0  0  0  0  0  0  # atno 6908 bound_to 6896
  151.9462  135.0190  160.0590 H   0  0  0  0  0  0  0  0  0  0  0  0  # atno 6909 bound_to 6896
  144.7384  140.3368  143.6142 H   0  0  0  0  0  0  0  0  0  0  0  0  # atno 7974 bound_to 7965
  155.4261  140.0522  157.3022 H   0  0  0  0  0  0  0  0  0  0  0  0  # atno 8008 bound_to 7997
  154.4881  140.2109  155.9569 H   0  0  0  0  0  0  0  0  0  0  0  0  # atno 8009 bound_to 7997
  156.1303  140.3173  155.8344 H   0  0  0  0  0  0  0  0  0  0  0  0  # atno 8010 bound_to 7997
  139.9270  143.6316  152.2539 H   0  0  0  0  0  0  0  0  0  0  0  0  # atno 10167 bound_to 10162
  156.8933  130.5695  149.5649 H   0  0  0  0  0  0  0  0  0  0  0  0  # atno 10718 bound_to 10713
  154.8504  135.3492  154.6048 H   0  0  0  0  0  0  0  0  0  0  0  0  # atno 10763 bound_to 10752
  153.6657  135.6987  153.5168 H   0  0  0  0  0  0  0  0  0  0  0  0  # atno 10764 bound_to 10752
  153.2782  135.4271  155.1011 H   0  0  0  0  0  0  0  0  0  0  0  0  # atno 10765 bound_to 10752
  141.0600  133.9550  157.2684 H   0  0  0  0  0  0  0  0  0  0  0  0  # atno 11005 bound_to 11000
  145.7416  139.1766  143.2373 LP  0  0  0  0  0  0  0  0  0  0  0  0  # atno 17320 bound_to 7965
  146.1130  140.7405  142.9494 LP  0  0  0  0  0  0  0  0  0  0  0  0  # atno 17321 bound_to 7965
  139.6814  144.7655  151.1602 LP  0  0  0  0  0  0  0  0  0  0  0  0  # atno 17342 bound_to 10162
  140.7647  143.5719  150.8986 LP  0  0  0  0  0  0  0  0  0  0  0  0  # atno 17343 bound_to 10162
  156.0618  130.5669  150.9208 LP  0  0  0  0  0  0  0  0  0  0  0  0  # atno 17370 bound_to 10713
  157.6070  131.0938  150.8861 LP  0  0  0  0  0  0  0  0  0  0  0  0  # atno 17371 bound_to 10713
  139.9424  135.0189  156.8749 LP  0  0  0  0  0  0  0  0  0  0  0  0  # atno 17394 bound_to 11000
  140.5887  134.0282  155.7491 LP  0  0  0  0  0  0  0  0  0  0  0  0  # atno 17395 bound_to 11000

$$$$
