AV-unprocessed.smi:1007|AV-procd|sdf|4402|dock1
  -GOLD-   22720 2343D 1   1.00000     0.00000
 Structure written by MMmdl.
 57 59  0  0  0  0  0  0  0  0  3 V2000
  143.8725  132.3614  149.6079 C   0  0  0  0  0  0  0  0  0  0  0  0
  144.3546  132.5443  150.9299 O   0  0  0  0  0  0  0  0  0  0  0  0
  143.5453  133.3926  151.7318 C   0  0  0  0  0  0  0  0  0  0  0  0
  144.0791  134.8376  151.7432 C   0  0  0  0  0  0  0  0  0  0  0  0
  145.5054  134.9696  151.4309 N   0  0  0  0  0  0  0  0  0  0  0  0
  145.8704  136.3270  151.0256 C   0  0  0  0  0  0  0  0  0  0  0  0
  145.8671  137.3334  152.1948 C   0  0  0  0  0  0  0  0  0  0  0  0
  146.7801  136.8679  153.2695 N   0  3  0  0  0  0  0  0  0  0  0  0
  146.9270  137.8518  154.3703 C   0  0  0  0  0  0  0  0  0  0  0  0
  148.1106  138.8284  154.1737 C   0  0  2  0  0  0  0  0  0  0  0  0
  148.8373  138.3911  153.0455 O   0  0  0  0  0  0  0  0  0  0  0  0
  149.1057  138.9042  155.3541 C   0  0  0  0  0  0  0  0  0  0  0  0
  149.4961  140.2798  155.6990 N   0  0  0  0  0  0  0  0  0  0  0  0
  149.0549  141.4567  155.1763 C   0  0  0  0  0  0  0  0  0  0  0  0
  149.6988  142.4634  155.8283 N   0  3  0  0  0  0  0  0  0  0  0  0
  150.5716  141.9232  156.7746 C   0  0  0  0  0  0  0  0  0  0  0  0
  151.4242  142.5413  157.6809 C   0  0  0  0  0  0  0  0  0  0  0  0
  152.1845  141.7027  158.5263 C   0  0  0  0  0  0  0  0  0  0  0  0
  153.1164  142.3466  159.5385 C   0  0  0  0  0  0  0  0  0  0  0  0
  152.0820  140.2904  158.4370 C   0  0  0  0  0  0  0  0  0  0  0  0
  152.9027  139.3977  159.3520 C   0  0  0  0  0  0  0  0  0  0  0  0
  151.2136  139.6806  157.5037 C   0  0  0  0  0  0  0  0  0  0  0  0
  150.4609  140.5214  156.6861 C   0  0  0  0  0  0  0  0  0  0  0  0
  146.4113  135.4990  153.7148 C   0  0  0  0  0  0  0  0  0  0  0  0
  146.4043  134.5415  152.5061 C   0  0  0  0  0  0  0  0  0  0  0  0
  144.5145  131.6540  149.0832 H   0  0  0  0  0  0  0  0  0  0  0  0
  143.8778  133.2928  149.0421 H   0  0  0  0  0  0  0  0  0  0  0  0
  142.8601  131.9561  149.6073 H   0  0  0  0  0  0  0  0  0  0  0  0
  142.5076  133.3441  151.4001 H   0  0  0  0  0  0  0  0  0  0  0  0
  143.5672  132.9957  152.7471 H   0  0  0  0  0  0  0  0  0  0  0  0
  143.5109  135.3985  151.0001 H   0  0  0  0  0  0  0  0  0  0  0  0
  143.8562  135.3049  152.7011 H   0  0  0  0  0  0  0  0  0  0  0  0
  146.8657  136.3072  150.5802 H   0  0  0  0  0  0  0  0  0  0  0  0
  145.2011  136.6723  150.2367 H   0  0  0  0  0  0  0  0  0  0  0  0
  146.1977  138.3056  151.8283 H   0  0  0  0  0  0  0  0  0  0  0  0
  144.8612  137.4735  152.5927 H   0  0  0  0  0  0  0  0  0  0  0  0
  146.0101  138.4372  154.4564 H   0  0  0  0  0  0  0  0  0  0  0  0
  147.0304  137.3077  155.3108 H   0  0  0  0  0  0  0  0  0  0  0  0
  147.7505  139.8289  153.9359 H   0  0  0  0  0  0  0  0  0  0  0  0
  148.7993  139.0596  152.3779 H   0  0  0  0  0  0  0  0  0  0  0  0
  148.7180  138.3936  156.2351 H   0  0  0  0  0  0  0  0  0  0  0  0
  150.0275  138.3840  155.0892 H   0  0  0  0  0  0  0  0  0  0  0  0
  148.3214  141.5718  154.3910 H   0  0  0  0  0  0  0  0  0  0  0  0
  151.4992  143.6176  157.7416 H   0  0  0  0  0  0  0  0  0  0  0  0
  154.1512  142.0708  159.3351 H   0  0  0  0  0  0  0  0  0  0  0  0
  152.8641  142.0277  160.5500 H   0  0  0  0  0  0  0  0  0  0  0  0
  153.0495  143.4346  159.5073 H   0  0  0  0  0  0  0  0  0  0  0  0
  152.7386  138.3423  159.1332 H   0  0  0  0  0  0  0  0  0  0  0  0
  152.6322  139.5680  160.3943 H   0  0  0  0  0  0  0  0  0  0  0  0
  153.9675  139.5999  159.2323 H   0  0  0  0  0  0  0  0  0  0  0  0
  151.1364  138.6051  157.4453 H   0  0  0  0  0  0  0  0  0  0  0  0
  147.1311  135.1323  154.4450 H   0  0  0  0  0  0  0  0  0  0  0  0
  145.4404  135.5131  154.2116 H   0  0  0  0  0  0  0  0  0  0  0  0
  146.1585  133.5313  152.8313 H   0  0  0  0  0  0  0  0  0  0  0  0
  147.4186  134.4768  152.1097 H   0  0  0  0  0  0  0  0  0  0  0  0
  147.6917  136.7946  152.8409 H   0  0  0  0  0  0  0  0  0  0  0  0
  149.5544  143.4469  155.6363 H   0  0  0  0  0  0  0  0  0  0  0  0
  1  2  1  0  0  0  0
  1 26  1  0  0  0  0
  1 27  1  0  0  0  0
  1 28  1  0  0  0  0
  2  3  1  0  0  0  0
  3  4  1  0  0  0  0
  3 29  1  0  0  0  0
  3 30  1  0  0  0  0
  4  5  1  0  0  0  0
  4 31  1  0  0  0  0
  4 32  1  0  0  0  0
  5 25  1  0  0  0  0
  5  6  1  0  0  0  0
  6  7  1  0  0  0  0
  6 33  1  0  0  0  0
  6 34  1  0  0  0  0
  7  8  1  0  0  0  0
  7 35  1  0  0  0  0
  7 36  1  0  0  0  0
  8  9  1  0  0  0  0
  8 24  1  0  0  0  0
  8 56  1  0  0  0  0
  9 10  1  0  0  0  0
  9 37  1  0  0  0  0
  9 38  1  0  0  0  0
 10 11  1  0  0  0  0
 10 12  1  0  0  0  0
 10 39  1  0  0  0  0
 11 40  1  0  0  0  0
 12 13  1  0  0  0  0
 12 41  1  0  0  0  0
 12 42  1  0  0  0  0
 13 23  1  0  0  0  0
 13 14  1  0  0  0  0
 14 15  2  0  0  0  0
 14 43  1  0  0  0  0
 15 16  1  0  0  0  0
 15 57  1  0  0  0  0
 16 23  2  0  0  0  0
 16 17  1  0  0  0  0
 17 18  2  0  0  0  0
 17 44  1  0  0  0  0
 18 19  1  0  0  0  0
 18 20  1  0  0  0  0
 19 45  1  0  0  0  0
 19 46  1  0  0  0  0
 19 47  1  0  0  0  0
 20 21  1  0  0  0  0
 20 22  2  0  0  0  0
 21 48  1  0  0  0  0
 21 49  1  0  0  0  0
 21 50  1  0  0  0  0
 22 23  1  0  0  0  0
 22 51  1  0  0  0  0
 24 25  1  0  0  0  0
 24 52  1  0  0  0  0
 24 53  1  0  0  0  0
 25 54  1  0  0  0  0
 25 55  1  0  0  0  0
M  CHG  1   8   1
M  CHG  1  15   1
M  END
> <s_m_source_file>
AV-unprocessed.smi

> <i_m_source_file_index>
1007

> <i_lp_mmshare_version>
43012

> <i_f3d_flags>
0

> <s_epik_input>
W0NIM11PW0NIMl1bQ0gyXU4xW0NIMl1bQ0gyXU4oW0NIMl1bQ0gyXTEpW0NIMl1bQ0BIXShbT0hdKVtDSDJdbihbY0hdbjIpYyhjMjMpW2NIXWMoW0NIM10pYyhbY0hdMylbQ0gzXQ==

> <s_epik_cmdline>
J2VwaWtfcHl0aG9uJywgJy1waCcsICc3LjAnLCAnLXRuJywgJzgnLCAnLW1hJywgJzIwMCcsICctbWV0YWxfYmluZGluZycsICctaW1hZScsICc8aW5maWxlLm1hZT4nLCAnLW9tYWUnLCAnPG91dGZpbGUubWFlPic=

> <r_epik_Ionization_Penalty>
1.19231

> <r_epik_Ionization_Penalty_Charging>
1.17974

> <r_epik_Ionization_Penalty_Neutral>
0.0125676

> <r_epik_State_Penalty>
1.24499

> <r_epik_Charging_Adjusted_Penalty>
2.42472

> <i_epik_Tot_Q>
2

> <i_epik_Tot_abs_Q>
2

> <r_epik_Metal_State_Penalty>
5.24866

> <b_epik_Metal_Only>
0

> <s_lp_Force_Field>
OPLS_2005

> <r_lp_Energy>
43.594

> <b_lp_Chiralities_Consistent>
1

> <s_lp_Variant>
AV-unprocessed.smi:1007-5

> <Gold.Version>
5.8.1

> <Gold.Id.Protein>
6NUR|6NUR_protein|mol2

> <Gold.PLP.Fitness>
51.5784

> <Gold.PLP.PLP>
-41.3128

> <Gold.PLP.part.hbond>
-3.3597

> <Gold.PLP.part.metal>
0.0000

> <Gold.PLP.part.buried>
-5.7151

> <Gold.PLP.part.nonpolar>
-33.7810

> <Gold.PLP.part.repulsive>
0.4930

> <Gold.PLP.ligand.clash>
0.0000

> <Gold.PLP.ligand.torsion>
2.4852

> <Gold.PLP.Chemscore.Hbond>
5.0000

> <Gold.PLP.Chemscore.CHOScore>
0.0000

> <Gold.PLP.Chemscore.Metal>
0.0000

> <Gold.Chemscore.Hbonds>
donor molecule, donor type, donor heavy atom, donor atom, acceptor molecule, acceptor atom, score
      L1  H     8    56       P1  7948  2.00
      L1  H    11    40       P1  7957  0.99
      L1  H    15    57       P1  8028  1.53

> <Gold.PLP.Chemscore.Internal.Correction>
0.2359

> <Gold.Rescore>
     Score         DG    S(hbond)    S(metal)    S(lipo)     H(rot)  DE(clash)    DE(int)     intcor
     18.64     -21.27       2.93        0.00     109.19       2.64       0.09       2.53       ----

> <Gold.Chemscore.Fitness>
18.6409

> <Gold.Chemscore.DG>
-21.2669

> <Gold.Chemscore.ZeroCoef>
-5.4800

> <Gold.Chemscore.Hbond>
2.9277

> <Gold.Chemscore.Metal>
0.0000

> <Gold.Chemscore.Lipo>
109.1861

> <Gold.Chemscore.Internal_Hbond>
0.0000

> <Gold.Chemscore.DEClash>
0.0948

> <Gold.Chemscore.DEInternal>
2.5312

> <Gold.Chemscore.Rot>
2.6432

> <Gold.Chemscore.Internal.Correction>
   9.000000E+99

> <Gold.Chemscore.Hbonds>
donor molecule, donor type, donor heavy atom, donor atom, acceptor molecule, acceptor atom, score
      L1  H     8    56       P1  7948  1.00
      L1  H    11    40       P1  7957  0.94
      L1  H    15    57       P1  8028  0.74

> <Gold.Chemscore.Hbond.Weighted>
-9.7786

> <Gold.Chemscore.Metal.Weighted>
-0.0000

> <Gold.Chemscore.Lipo.Weighted>
-12.7748

> <Gold.Chemscore.Internal_Hbond.Weighted>
0.0000

> <Gold.Chemscore.DEClash.Weighted>
0.0948

> <Gold.Chemscore.DEInternal.Weighted>
2.5312

> <Gold.Chemscore.Rot.Weighted>
6.7665

> <Gold.Chemscore.Internal.Correction.Weighted>
   9.000000E+99

> <Gold.Protein.RotatedTorsions>
[ 6907 6896 6895 6894 ] final  157.51 input  -60.11 | X-H torsion
[ 7974 7965 7964 7962 ] final  137.03 input  175.53 | X-H torsion
[ 8008 7997 7996 7995 ] final  135.79 input   59.86 | X-H torsion
[ 10167 10162 10161 10158 ] final  -63.04 input  -65.29 | X-H torsion
[ 10718 10713 10712 10709 ] final -154.31 input   66.30 | X-H torsion
[ 10763 10752 10751 10750 ] final   -0.53 input  -60.55 | X-H torsion
[ 11005 11000 10999 10996 ] final  -79.45 input  -57.11 | X-H torsion

> <Gold.Protein.ActiveResidues>
 VAL166  LYS551  ARG553  GLY616  TRP617  ASP618  TYR619  PRO620  LYS621  CYS622 
 ASP623  PHE694  ASN695  SER759  ASP760  ASP761  ALA762  ILE779  LEU786  VAL792 
 PHE793  MET794  SER795  GLU796  ALA797  LYS798  CYS799  TRP800  GLU811  SER814 

> <Gold.Protein.RotatedAtoms>
  152.0141  133.3873  159.4231 H   0  0  0  0  0  0  0  0  0  0  0  0  # atno 6907 bound_to 6896
  150.6896  134.3698  159.4996 H   0  0  0  0  0  0  0  0  0  0  0  0  # atno 6908 bound_to 6896
  152.1463  134.9023  160.0601 H   0  0  0  0  0  0  0  0  0  0  0  0  # atno 6909 bound_to 6896
  144.9507  139.4821  143.5527 H   0  0  0  0  0  0  0  0  0  0  0  0  # atno 7974 bound_to 7965
  156.3003  140.2462  156.3639 H   0  0  0  0  0  0  0  0  0  0  0  0  # atno 8008 bound_to 7997
  154.8852  140.0411  157.1825 H   0  0  0  0  0  0  0  0  0  0  0  0  # atno 8009 bound_to 7997
  154.8655  140.2927  155.5517 H   0  0  0  0  0  0  0  0  0  0  0  0  # atno 8010 bound_to 7997
  140.5898  143.2339  151.6165 H   0  0  0  0  0  0  0  0  0  0  0  0  # atno 10167 bound_to 10162
  156.4975  130.8376  151.2596 H   0  0  0  0  0  0  0  0  0  0  0  0  # atno 10718 bound_to 10713
  153.3330  135.6976  153.6931 H   0  0  0  0  0  0  0  0  0  0  0  0  # atno 10763 bound_to 10752
  153.5726  135.3513  155.2844 H   0  0  0  0  0  0  0  0  0  0  0  0  # atno 10764 bound_to 10752
  154.8622  135.4276  154.2524 H   0  0  0  0  0  0  0  0  0  0  0  0  # atno 10765 bound_to 10752
  141.1667  133.7106  156.8125 H   0  0  0  0  0  0  0  0  0  0  0  0  # atno 11005 bound_to 11000
  146.3320  139.8591  142.8859 LP  0  0  0  0  0  0  0  0  0  0  0  0  # atno 17320 bound_to 7965
  145.2848  141.0149  143.3697 LP  0  0  0  0  0  0  0  0  0  0  0  0  # atno 17321 bound_to 7965
  139.5220  144.3176  152.0939 LP  0  0  0  0  0  0  0  0  0  0  0  0  # atno 17342 bound_to 10162
  140.2338  144.4340  150.6288 LP  0  0  0  0  0  0  0  0  0  0  0  0  # atno 17343 bound_to 10162
  157.7467  130.9993  150.2883 LP  0  0  0  0  0  0  0  0  0  0  0  0  # atno 17370 bound_to 10713
  156.3365  130.3808  149.7446 LP  0  0  0  0  0  0  0  0  0  0  0  0  # atno 17371 bound_to 10713
  140.2177  134.8780  157.3343 LP  0  0  0  0  0  0  0  0  0  0  0  0  # atno 17394 bound_to 11000
  140.2020  134.4243  155.7657 LP  0  0  0  0  0  0  0  0  0  0  0  0  # atno 17395 bound_to 11000

$$$$
