#       Name:                AV-unprocessed.smi:1408
#       Creating user name   scv26
#       Creation time:       Fri Mar 27 05:36:03 2020


#       File generated by GOLD software.
#

@<TRIPOS>MOLECULE
AV-unprocessed.smi:1408
    44    45     1
SMALL
NO_CHARGES


@<TRIPOS>ATOM
      1 ****        -4.5438  -0.3423  -0.9752 C.3            1 S1                 0.0000
      2 ****        -4.5144   1.0081  -0.2775 C.ar           1 S1                 0.0000
      3 ****        -5.7300   1.6726  -0.0087 C.ar           1 S1                 0.0000
      4 ****        -5.7014   2.9211   0.6358 C.ar           1 S1                 0.0000
      5 ****        -4.4500   3.4556   0.9868 C.ar           1 S1                 0.0000
      6 ****        -3.2838   2.8274   0.7341 N.ar           1 S1                 0.0000
      7 ****        -3.2934   1.6215   0.1123 C.ar           1 S1                 0.0000
      8 ****        -2.1017   0.9019  -0.1874 N.am           1 S1                 0.0000
      9 ****        -0.8269   1.2519   0.0606 C.2            1 S1                 0.0000
     10 ****        -0.4668   2.2868   0.6222 O.2            1 S1                 0.0000
     11 ****         0.0273   0.3193  -0.3861 N.am           1 S1                 0.0000
     12 ****         1.4826   0.3974  -0.2930 C.3            1 S1                 0.0000
     13 ****         2.1233  -0.4876  -1.3718 C.3            1 S1                 0.0000
     14 ****         3.6589  -0.4701  -1.2718 C.3            1 S1                 0.0000
     15 ****         4.1231  -0.8314   0.0829 N.pl3          1 S1                 0.0000
     16 ****         4.7287  -2.4327   0.3966 S.o2           1 S1                 0.0000
     17 ****         3.2142  -3.4721   0.4929 C.3            1 S1                 0.0000
     18 ****         5.5040  -2.8591  -0.7784 O.2            1 S1                 0.0000
     19 ****         5.3627  -2.4219   1.7239 O.2            1 S1                 0.0000
     20 ****         3.5095  -0.0475   1.1741 C.3            1 S1                 0.0000
     21 ****         1.9725  -0.0588   1.0916 C.3            1 S1                 0.0000
     22 ****        -5.5651  -0.6511  -1.2005 H              1 S1                 0.0000
     23 ****        -4.0939  -1.1083  -0.3431 H              1 S1                 0.0000
     24 ****        -3.9921  -0.2988  -1.9147 H              1 S1                 0.0000
     25 ****        -6.6752   1.2333  -0.2921 H              1 S1                 0.0000
     26 ****        -6.6142   3.4548   0.8552 H              1 S1                 0.0000
     27 ****        -4.3825   4.4122   1.4838 H              1 S1                 0.0000
     28 ****        -2.2389   0.0179  -0.6539 H              1 S1                 0.0000
     29 ****        -0.3554  -0.5006  -0.8334 H              1 S1                 0.0000
     30 ****         1.7972   1.4291  -0.4631 H              1 S1                 0.0000
     31 ****         1.7568  -1.5097  -1.2808 H              1 S1                 0.0000
     32 ****         1.8217  -0.1436  -2.3618 H              1 S1                 0.0000
     33 ****         4.0950  -1.1380  -2.0142 H              1 S1                 0.0000
     34 ****         4.0266   0.5297  -1.5052 H              1 S1                 0.0000
     35 ****         3.5033  -4.5040   0.6908 H              1 S1                 0.0000
     36 ****         2.6753  -3.4311  -0.4520 H              1 S1                 0.0000
     37 ****         2.5754  -3.1229   1.3024 H              1 S1                 0.0000
     38 ****         3.8397  -0.4213   2.1429 H              1 S1                 0.0000
     39 ****         3.8694   0.9795   1.1031 H              1 S1                 0.0000
     40 ****         1.5665   0.5923   1.8666 H              1 S1                 0.0000
     41 ****         1.5956  -1.0580   1.3076 H              1 S1                 0.0000
     42 ****        -2.4173   3.2477   1.0033 LP             1 S1                 0.0000
     43 ****        -1.1478   2.9486   0.9354 LP             1 S1                 0.0000
     44 ****         0.5067   2.4654   0.7650 LP             1 S1                 0.0000
@<TRIPOS>BOND
    1    1    2 1     
    2    1   22 1     
    3    1   23 1     
    4    1   24 1     
    5    2    7 ar    
    6    2    3 ar    
    7    3    4 ar    
    8    3   25 1     
    9    4    5 ar    
   10    4   26 1     
   11    5    6 ar    
   12    5   27 1     
   13    6    7 ar    
   14    7    8 1     
   15    8    9 am    
   16    8   28 1     
   17    9   10 2     
   18    9   11 am    
   19   11   12 1     
   20   11   29 1     
   21   12   21 1     
   22   12   13 1     
   23   12   30 1     
   24   13   14 1     
   25   13   31 1     
   26   13   32 1     
   27   14   15 1     
   28   14   33 1     
   29   14   34 1     
   30   15   16 1     
   31   15   20 1     
   32   16   17 1     
   33   16   18 2     
   34   16   19 2     
   35   17   35 1     
   36   17   36 1     
   37   17   37 1     
   38   20   21 1     
   39   20   38 1     
   40   20   39 1     
   41   21   40 1     
   42   21   41 1     
   43    6   42 1     
   44   10   43 1     
   45   10   44 1     
@<TRIPOS>SUBSTRUCTURE
      1 S1             1
@<TRIPOS>SET
LONE_PAIRS      STATIC     ATOMS    <user>   **** ""
5 42 43 44 18 19
DONOR_HYDROGENS      STATIC     ATOMS    <user>   **** ""
2 28 29
ATOM$BLUE        STATIC     ATOMS    COLORGROUP SYSTEM
5 42 43 44 18 19
ATOM$RED        STATIC     ATOMS    COLORGROUP SYSTEM
2 28 29
