AV-unprocessed.smi:3266|AV-procd|sdf|12503|dock3
  -GOLD-   2272018403D 1   1.00000     0.00000
 Structure written by MMmdl.
 39 40  0  0  0  0  0  0  0  0  2 V2000
  153.4103  139.1752  156.4268 O   0  0  0  0  0  0  0  0  0  0  0  0
  152.4531  139.6493  157.0387 C   0  0  0  0  0  0  0  0  0  0  0  0
  152.6458  140.7847  158.0479 C   0  0  0  0  0  0  0  0  0  0  0  0
  151.3696  141.6083  158.3015 C   0  0  0  0  0  0  0  0  0  0  0  0
  151.6373  142.8552  159.1571 C   0  0  1  0  0  0  0  0  0  0  0  0
  152.1954  144.0393  158.3696 C   0  0  0  0  0  0  0  0  0  0  0  0
  151.7826  145.2021  159.2424 C   0  0  0  0  0  0  0  0  0  0  0  0
  150.3962  144.7631  159.7038 C   0  0  0  0  0  0  0  0  0  0  0  0
  150.4293  143.3382  159.7416 O   0  0  0  0  0  0  0  0  0  0  0  0
  151.1903  139.2333  156.8604 N   0  0  0  0  0  0  0  0  0  0  0  0
  150.7719  138.1743  155.9463 C   0  0  0  0  0  0  0  0  0  0  0  0
  150.6900  138.6248  154.4724 C   0  0  0  0  0  0  0  0  0  0  0  0
  149.4353  139.4129  154.1357 C   0  0  0  0  0  0  0  0  0  0  0  0
  149.2095  140.7128  154.6380 C   0  0  0  0  0  0  0  0  0  0  0  0
  148.0286  141.3952  154.2781 C   0  0  0  0  0  0  0  0  0  0  0  0
  147.0999  140.7654  153.4234 C   0  0  0  0  0  0  0  0  0  0  0  0
  147.3763  139.4670  152.9492 C   0  0  0  0  0  0  0  0  0  0  0  0
  148.5181  138.8462  153.3177 N   0  3  0  0  0  0  0  0  0  0  0  0
  153.0001  140.3507  158.9836 H   0  0  0  0  0  0  0  0  0  0  0  0
  153.4374  141.4435  157.6879 H   0  0  0  0  0  0  0  0  0  0  0  0
  150.9440  141.9191  157.3461 H   0  0  0  0  0  0  0  0  0  0  0  0
  150.6153  140.9904  158.7907 H   0  0  0  0  0  0  0  0  0  0  0  0
  152.3278  142.6142  159.9670 H   0  0  0  0  0  0  0  0  0  0  0  0
  153.2732  143.9788  158.2158 H   0  0  0  0  0  0  0  0  0  0  0  0
  151.7136  144.1174  157.3936 H   0  0  0  0  0  0  0  0  0  0  0  0
  152.4553  145.2859  160.0974 H   0  0  0  0  0  0  0  0  0  0  0  0
  151.7758  146.1566  158.7157 H   0  0  0  0  0  0  0  0  0  0  0  0
  150.1280  145.1824  160.6736 H   0  0  0  0  0  0  0  0  0  0  0  0
  149.6400  145.0711  158.9810 H   0  0  0  0  0  0  0  0  0  0  0  0
  150.4655  139.6764  157.4069 H   0  0  0  0  0  0  0  0  0  0  0  0
  151.4368  137.3147  156.0427 H   0  0  0  0  0  0  0  0  0  0  0  0
  149.7876  137.8381  156.2736 H   0  0  0  0  0  0  0  0  0  0  0  0
  151.5606  139.2332  154.2235 H   0  0  0  0  0  0  0  0  0  0  0  0
  150.7438  137.7511  153.8221 H   0  0  0  0  0  0  0  0  0  0  0  0
  149.9323  141.1830  155.2888 H   0  0  0  0  0  0  0  0  0  0  0  0
  147.8379  142.3902  154.6524 H   0  0  0  0  0  0  0  0  0  0  0  0
  146.1895  141.2710  153.1362 H   0  0  0  0  0  0  0  0  0  0  0  0
  146.7247  138.9102  152.2918 H   0  0  0  0  0  0  0  0  0  0  0  0
  148.6992  137.9069  152.9618 H   0  0  0  0  0  0  0  0  0  0  0  0
  1  2  2  0  0  0  0
  2  3  1  0  0  0  0
  2 10  1  0  0  0  0
  3  4  1  0  0  0  0
  3 19  1  0  0  0  0
  3 20  1  0  0  0  0
  4  5  1  0  0  0  0
  4 21  1  0  0  0  0
  4 22  1  0  0  0  0
  5  9  1  0  0  0  0
  5  6  1  0  0  0  0
  5 23  1  0  0  0  0
  6  7  1  0  0  0  0
  6 24  1  0  0  0  0
  6 25  1  0  0  0  0
  7  8  1  0  0  0  0
  7 26  1  0  0  0  0
  7 27  1  0  0  0  0
  8  9  1  0  0  0  0
  8 28  1  0  0  0  0
  8 29  1  0  0  0  0
 10 11  1  0  0  0  0
 10 30  1  0  0  0  0
 11 12  1  0  0  0  0
 11 31  1  0  0  0  0
 11 32  1  0  0  0  0
 12 13  1  0  0  0  0
 12 33  1  0  0  0  0
 12 34  1  0  0  0  0
 13 18  1  0  0  0  0
 13 14  2  0  0  0  0
 14 15  1  0  0  0  0
 14 35  1  0  0  0  0
 15 16  2  0  0  0  0
 15 36  1  0  0  0  0
 16 17  1  0  0  0  0
 16 37  1  0  0  0  0
 17 18  2  0  0  0  0
 17 38  1  0  0  0  0
 18 39  1  0  0  0  0
M  CHG  1  18   1
M  END
> <s_m_source_file>
AV-unprocessed.smi

> <i_m_source_file_index>
3266

> <i_lp_mmshare_version>
43012

> <i_f3d_flags>
0

> <s_epik_input>
TzFbQ0gyXVtDSDJdW0NIMl1bQ0BIXTFbQ0gyXVtDSDJdQyg9TylbTkhdW0NIMl1bQ0gyXWMyW2NIXVtjSF1bY0hdW2NIXW4y

> <s_epik_cmdline>
J2VwaWtfcHl0aG9uJywgJy1waCcsICc3LjAnLCAnLXRuJywgJzgnLCAnLW1hJywgJzIwMCcsICctbWV0YWxfYmluZGluZycsICctaW1hZScsICc8aW5maWxlLm1hZT4nLCAnLW9tYWUnLCAnPG91dGZpbGUubWFlPic=

> <r_epik_Ionization_Penalty>
1.8495

> <r_epik_Ionization_Penalty_Charging>
1.8495

> <r_epik_Ionization_Penalty_Neutral>
1.53068e-08

> <r_epik_State_Penalty>
1.96688

> <r_epik_Charging_Adjusted_Penalty>
3.81638

> <i_epik_Tot_Q>
1

> <i_epik_Tot_abs_Q>
1

> <r_epik_Metal_State_Penalty>
1.99263

> <b_epik_Metal_Only>
0

> <s_lp_Force_Field>
OPLS_2005

> <r_lp_Energy>
22.1722

> <b_lp_Chiralities_Consistent>
1

> <s_lp_Variant>
AV-unprocessed.smi:3266-4

> <Gold.Version>
5.8.1

> <Gold.Id.Protein>
6NUR|6NUR_protein|mol2

> <Gold.PLP.Fitness>
46.0251

> <Gold.PLP.PLP>
-38.5568

> <Gold.PLP.part.hbond>
-3.6029

> <Gold.PLP.part.metal>
0.0000

> <Gold.PLP.part.buried>
-2.5385

> <Gold.PLP.part.nonpolar>
-33.2551

> <Gold.PLP.part.repulsive>
0.1618

> <Gold.PLP.ligand.clash>
0.0000

> <Gold.PLP.ligand.torsion>
0.8051

> <Gold.PLP.Chemscore.Hbond>
3.0000

> <Gold.PLP.Chemscore.CHOScore>
0.0000

> <Gold.PLP.Chemscore.Metal>
0.0000

> <Gold.Chemscore.Hbonds>
donor molecule, donor type, donor heavy atom, donor atom, acceptor molecule, acceptor atom, score
      L1  H    18    39       P1  7948  2.00
      P1  H  7997  8009       L1     1  0.57

> <Gold.PLP.Chemscore.Internal.Correction>
0.0786

> <Gold.Rescore>
     Score         DG    S(hbond)    S(metal)    S(lipo)     H(rot)  DE(clash)    DE(int)     intcor
     17.50     -18.41       1.72        0.00     101.73       1.84       0.16       0.75       ----

> <Gold.Chemscore.Fitness>
17.5036

> <Gold.Chemscore.DG>
-18.4089

> <Gold.Chemscore.ZeroCoef>
-5.4800

> <Gold.Chemscore.Hbond>
1.7163

> <Gold.Chemscore.Metal>
0.0000

> <Gold.Chemscore.Lipo>
101.7289

> <Gold.Chemscore.Internal_Hbond>
0.0000

> <Gold.Chemscore.DEClash>
0.1585

> <Gold.Chemscore.DEInternal>
0.7468

> <Gold.Chemscore.Rot>
1.8382

> <Gold.Chemscore.Internal.Correction>
   9.000000E+99

> <Gold.Chemscore.Hbonds>
donor molecule, donor type, donor heavy atom, donor atom, acceptor molecule, acceptor atom, score
      L1  H    18    39       P1  7948  0.96
      P1  H  7997  8009       L1     1  0.19

> <Gold.Chemscore.Hbond.Weighted>
-5.7324

> <Gold.Chemscore.Metal.Weighted>
-0.0000

> <Gold.Chemscore.Lipo.Weighted>
-11.9023

> <Gold.Chemscore.Internal_Hbond.Weighted>
0.0000

> <Gold.Chemscore.DEClash.Weighted>
0.1585

> <Gold.Chemscore.DEInternal.Weighted>
0.7468

> <Gold.Chemscore.Rot.Weighted>
4.7058

> <Gold.Chemscore.Internal.Correction.Weighted>
   9.000000E+99

> <Gold.Protein.RotatedTorsions>
[ 6907 6896 6895 6894 ] final   38.43 input  -60.11 | X-H torsion
[ 7974 7965 7964 7962 ] final   40.72 input  175.53 | X-H torsion
[ 8008 7997 7996 7995 ] final  164.28 input   59.86 | X-H torsion
[ 10167 10162 10161 10158 ] final  -33.30 input  -65.29 | X-H torsion
[ 10718 10713 10712 10709 ] final -122.77 input   66.30 | X-H torsion
[ 10763 10752 10751 10750 ] final  -31.45 input  -60.55 | X-H torsion
[ 11005 11000 10999 10996 ] final    7.91 input  -57.11 | X-H torsion

> <Gold.Protein.ActiveResidues>
 VAL166  LYS551  ARG553  GLY616  TRP617  ASP618  TYR619  PRO620  LYS621  CYS622 
 ASP623  PHE694  ASN695  SER759  ASP760  ASP761  ALA762  ILE779  LEU786  VAL792 
 PHE793  MET794  SER795  GLU796  ALA797  LYS798  CYS799  TRP800  GLU811  SER814 

> <Gold.Protein.RotatedAtoms>
  152.1564  134.8948  160.0544 H   0  0  0  0  0  0  0  0  0  0  0  0  # atno 6907 bound_to 6896
  151.9960  133.3803  159.4171 H   0  0  0  0  0  0  0  0  0  0  0  0  # atno 6908 bound_to 6896
  150.6882  134.3808  159.5077 H   0  0  0  0  0  0  0  0  0  0  0  0  # atno 6909 bound_to 6896
  146.0882  139.5500  142.9493 H   0  0  0  0  0  0  0  0  0  0  0  0  # atno 7974 bound_to 7965
  156.1892  140.1701  156.8125 H   0  0  0  0  0  0  0  0  0  0  0  0  # atno 8008 bound_to 7997
  154.5451  140.0729  156.8607 H   0  0  0  0  0  0  0  0  0  0  0  0  # atno 8009 bound_to 7997
  155.3138  140.3369  155.4245 H   0  0  0  0  0  0  0  0  0  0  0  0  # atno 8010 bound_to 7997
  140.7207  143.3631  151.1925 H   0  0  0  0  0  0  0  0  0  0  0  0  # atno 10167 bound_to 10162
  156.1446  130.6491  150.9823 H   0  0  0  0  0  0  0  0  0  0  0  0  # atno 10718 bound_to 10713
  153.7975  135.6893  153.4861 H   0  0  0  0  0  0  0  0  0  0  0  0  # atno 10763 bound_to 10752
  153.1710  135.4543  154.9900 H   0  0  0  0  0  0  0  0  0  0  0  0  # atno 10764 bound_to 10752
  154.8020  135.3341  154.7466 H   0  0  0  0  0  0  0  0  0  0  0  0  # atno 10765 bound_to 10752
  140.5429  134.0357  155.7910 H   0  0  0  0  0  0  0  0  0  0  0  0  # atno 11005 bound_to 11000
  145.6090  141.0343  143.1977 LP  0  0  0  0  0  0  0  0  0  0  0  0  # atno 17320 bound_to 7965
  144.7341  139.7638  143.7336 LP  0  0  0  0  0  0  0  0  0  0  0  0  # atno 17321 bound_to 7965
  139.7186  143.9259  152.2977 LP  0  0  0  0  0  0  0  0  0  0  0  0  # atno 17342 bound_to 10162
  139.9009  144.6912  150.8667 LP  0  0  0  0  0  0  0  0  0  0  0  0  # atno 17343 bound_to 10162
  157.6605  131.0881  150.7848 LP  0  0  0  0  0  0  0  0  0  0  0  0  # atno 17370 bound_to 10713
  156.7921  130.4893  149.5383 LP  0  0  0  0  0  0  0  0  0  0  0  0  # atno 17371 bound_to 10713
  141.1217  133.9451  157.2717 LP  0  0  0  0  0  0  0  0  0  0  0  0  # atno 17394 bound_to 11000
  139.9495  135.0178  156.8951 LP  0  0  0  0  0  0  0  0  0  0  0  0  # atno 17395 bound_to 11000

$$$$
