AV-unprocessed.smi:1005|AV-procd|sdf|4366|dock2
  -GOLD-   22720 2273D 1   1.00000     0.00000
 Structure written by MMmdl.
 57 59  0  0  0  0  0  0  0  0  3 V2000
  152.8730  142.9176  160.8756 C   0  0  0  0  0  0  0  0  0  0  0  0
  152.0685  142.4750  159.6660 C   0  0  0  0  0  0  0  0  0  0  0  0
  151.9774  141.0966  159.3680 C   0  0  0  0  0  0  0  0  0  0  0  0
  151.2414  140.6442  158.2514 C   0  0  0  0  0  0  0  0  0  0  0  0
  151.0239  139.3617  157.7777 N   0  0  0  0  0  0  0  0  0  0  0  0
  150.2657  139.5946  156.7109 C   0  0  0  0  0  0  0  0  0  0  0  0
  149.9694  140.8790  156.4332 N   0  0  0  0  0  0  0  0  0  0  0  0
  149.1709  141.3704  155.3244 C   0  0  0  0  0  0  0  0  0  0  0  0
  148.3804  140.2465  154.6280 C   0  0  2  0  0  0  0  0  0  0  0  0
  149.2651  139.4590  153.8533 O   0  0  0  0  0  0  0  0  0  0  0  0
  147.2852  140.8063  153.6996 C   0  0  0  0  0  0  0  0  0  0  0  0
  146.4877  139.7317  153.0554 N   0  3  1  0  0  0  0  0  0  0  0  0
  146.9695  139.3638  151.7016 C   0  0  0  0  0  0  0  0  0  0  0  0
  146.0604  138.2875  151.0874 C   0  0  0  0  0  0  0  0  0  0  0  0
  146.0102  137.1575  151.9503 O   0  0  0  0  0  0  0  0  0  0  0  0
  145.4612  137.4711  153.2267 C   0  0  1  0  0  0  0  0  0  0  0  0
  145.3895  136.1705  154.0496 C   0  0  0  0  0  0  0  0  0  0  0  0
  146.7204  135.5467  154.2675 N   0  3  0  0  0  0  0  0  0  0  0  0
  146.6719  134.0692  154.3671 C   0  0  0  0  0  0  0  0  0  0  0  0
  147.4293  136.1420  155.4223 C   0  0  0  0  0  0  0  0  0  0  0  0
  146.3637  138.5228  153.9041 C   0  0  0  0  0  0  0  0  0  0  0  0
  150.5938  141.6162  157.4338 C   0  0  0  0  0  0  0  0  0  0  0  0
  150.6762  142.9902  157.7204 C   0  0  0  0  0  0  0  0  0  0  0  0
  151.4149  143.4250  158.8406 C   0  0  0  0  0  0  0  0  0  0  0  0
  151.4962  144.9106  159.1429 C   0  0  0  0  0  0  0  0  0  0  0  0
  153.3158  142.0660  161.3929 H   0  0  0  0  0  0  0  0  0  0  0  0
  152.2362  143.4460  161.5855 H   0  0  0  0  0  0  0  0  0  0  0  0
  153.6824  143.5825  160.5737 H   0  0  0  0  0  0  0  0  0  0  0  0
  152.4750  140.3728  159.9967 H   0  0  0  0  0  0  0  0  0  0  0  0
  149.9083  138.7848  156.0912 H   0  0  0  0  0  0  0  0  0  0  0  0
  148.4873  142.1290  155.7086 H   0  0  0  0  0  0  0  0  0  0  0  0
  149.8281  141.8756  154.6155 H   0  0  0  0  0  0  0  0  0  0  0  0
  147.9401  139.6093  155.3946 H   0  0  0  0  0  0  0  0  0  0  0  0
  149.4148  139.8983  153.0291 H   0  0  0  0  0  0  0  0  0  0  0  0
  146.6175  141.4718  154.2491 H   0  0  0  0  0  0  0  0  0  0  0  0
  147.7624  141.4209  152.9344 H   0  0  0  0  0  0  0  0  0  0  0  0
  146.9877  140.2367  151.0501 H   0  0  0  0  0  0  0  0  0  0  0  0
  147.9935  138.9915  151.7650 H   0  0  0  0  0  0  0  0  0  0  0  0
  145.0554  138.6765  150.9152 H   0  0  0  0  0  0  0  0  0  0  0  0
  146.4510  137.9748  150.1189 H   0  0  0  0  0  0  0  0  0  0  0  0
  144.4631  137.8923  153.1023 H   0  0  0  0  0  0  0  0  0  0  0  0
  144.9373  136.4035  155.0151 H   0  0  0  0  0  0  0  0  0  0  0  0
  144.7275  135.4484  153.5688 H   0  0  0  0  0  0  0  0  0  0  0  0
  146.0576  133.7535  155.2116 H   0  0  0  0  0  0  0  0  0  0  0  0
  147.6741  133.6627  154.5087 H   0  0  0  0  0  0  0  0  0  0  0  0
  146.2682  133.6172  153.4621 H   0  0  0  0  0  0  0  0  0  0  0  0
  146.8852  135.9618  156.3504 H   0  0  0  0  0  0  0  0  0  0  0  0
  147.5434  137.2192  155.2954 H   0  0  0  0  0  0  0  0  0  0  0  0
  148.4285  135.7166  155.5234 H   0  0  0  0  0  0  0  0  0  0  0  0
  147.3557  138.1088  154.0931 H   0  0  0  0  0  0  0  0  0  0  0  0
  145.9405  138.7974  154.8713 H   0  0  0  0  0  0  0  0  0  0  0  0
  150.1754  143.7041  157.0832 H   0  0  0  0  0  0  0  0  0  0  0  0
  150.9365  145.4964  158.4132 H   0  0  0  0  0  0  0  0  0  0  0  0
  152.5321  145.2495  159.1200 H   0  0  0  0  0  0  0  0  0  0  0  0
  151.0836  145.1228  160.1293 H   0  0  0  0  0  0  0  0  0  0  0  0
  147.2800  135.7685  153.4561 H   0  0  0  0  0  0  0  0  0  0  0  0
  145.5533  140.1023  152.9503 H   0  0  0  0  0  0  0  0  0  0  0  0
  1  2  1  0  0  0  0
  1 26  1  0  0  0  0
  1 27  1  0  0  0  0
  1 28  1  0  0  0  0
  2 24  1  0  0  0  0
  2  3  2  0  0  0  0
  3  4  1  0  0  0  0
  3 29  1  0  0  0  0
  4 22  2  0  0  0  0
  4  5  1  0  0  0  0
  5  6  2  0  0  0  0
  6  7  1  0  0  0  0
  6 30  1  0  0  0  0
  7  8  1  0  0  0  0
  7 22  1  0  0  0  0
  8  9  1  0  0  0  0
  8 31  1  0  0  0  0
  8 32  1  0  0  0  0
  9 10  1  0  0  0  0
  9 11  1  0  0  0  0
  9 33  1  0  0  0  0
 10 34  1  0  0  0  0
 11 12  1  0  0  0  0
 11 35  1  0  0  0  0
 11 36  1  0  0  0  0
 12 21  1  0  0  0  0
 12 13  1  0  0  0  0
 12 57  1  0  0  0  0
 13 14  1  0  0  0  0
 13 37  1  0  0  0  0
 13 38  1  0  0  0  0
 14 15  1  0  0  0  0
 14 39  1  0  0  0  0
 14 40  1  0  0  0  0
 15 16  1  0  0  0  0
 16 17  1  0  0  0  0
 16 21  1  0  0  0  0
 16 41  1  0  0  0  0
 17 18  1  0  0  0  0
 17 42  1  0  0  0  0
 17 43  1  0  0  0  0
 18 19  1  0  0  0  0
 18 20  1  0  0  0  0
 18 56  1  0  0  0  0
 19 44  1  0  0  0  0
 19 45  1  0  0  0  0
 19 46  1  0  0  0  0
 20 47  1  0  0  0  0
 20 48  1  0  0  0  0
 20 49  1  0  0  0  0
 21 50  1  0  0  0  0
 21 51  1  0  0  0  0
 22 23  1  0  0  0  0
 23 24  2  0  0  0  0
 23 52  1  0  0  0  0
 24 25  1  0  0  0  0
 25 53  1  0  0  0  0
 25 54  1  0  0  0  0
 25 55  1  0  0  0  0
M  CHG  1  12   1
M  CHG  1  18   1
M  END
> <s_m_source_file>
AV-unprocessed.smi

> <i_m_source_file_index>
1005

> <i_lp_mmshare_version>
43012

> <i_f3d_flags>
0

> <s_epik_input>
W0NIM11jKFtjSF0xKWMoW0NIM10pW2NIXWMoYzEyKW4oW2NIXW4yKVtDSDJdW0NASF0oW09IXSlbQ0gyXU4zW0NIMl1bQ0gyXU9bQ0BIXShbQ0gyXTMpW0NIMl1OKFtDSDNdKVtDSDNd

> <s_epik_cmdline>
J2VwaWtfcHl0aG9uJywgJy1waCcsICc3LjAnLCAnLXRuJywgJzgnLCAnLW1hJywgJzIwMCcsICctbWV0YWxfYmluZGluZycsICctaW1hZScsICc8aW5maWxlLm1hZT4nLCAnLW9tYWUnLCAnPG91dGZpbGUubWFlPic=

> <r_epik_Ionization_Penalty>
1.0968

> <r_epik_Ionization_Penalty_Charging>
1.0096

> <r_epik_Ionization_Penalty_Neutral>
0.0871956

> <r_epik_State_Penalty>
1.31185

> <r_epik_Charging_Adjusted_Penalty>
2.32145

> <i_epik_Tot_Q>
2

> <i_epik_Tot_abs_Q>
2

> <r_epik_Metal_State_Penalty>
1.22442

> <b_epik_Metal_Only>
0

> <s_lp_Force_Field>
OPLS_2005

> <r_lp_Energy>
32.7622

> <b_lp_Chiralities_Consistent>
1

> <s_lp_Variant>
AV-unprocessed.smi:1005-5

> <Gold.Version>
5.8.1

> <Gold.Id.Protein>
6NUR|6NUR_protein|mol2

> <Gold.PLP.Fitness>
56.3457

> <Gold.PLP.PLP>
-42.9668

> <Gold.PLP.part.hbond>
-2.5390

> <Gold.PLP.part.metal>
0.0000

> <Gold.PLP.part.buried>
0.8366

> <Gold.PLP.part.nonpolar>
-44.3913

> <Gold.PLP.part.repulsive>
0.8708

> <Gold.PLP.ligand.clash>
0.0009

> <Gold.PLP.ligand.torsion>
0.9969

> <Gold.PLP.Chemscore.Hbond>
4.9913

> <Gold.PLP.Chemscore.CHOScore>
0.0000

> <Gold.PLP.Chemscore.Metal>
0.0000

> <Gold.Chemscore.Hbonds>
donor molecule, donor type, donor heavy atom, donor atom, acceptor molecule, acceptor atom, score
      L1  H    10    34       P1  7957  1.00
      L1  H    12    57       P1 10175  2.00
      L1  H    18    56       P1  7948  0.39

> <Gold.PLP.Chemscore.Internal.Correction>
0.3999

> <Gold.Rescore>
     Score         DG    S(hbond)    S(metal)    S(lipo)     H(rot)  DE(clash)    DE(int)     intcor
     20.02     -24.54       2.80        0.00     137.34       2.48       2.17       2.35       ----

> <Gold.Chemscore.Fitness>
20.0181

> <Gold.Chemscore.DG>
-24.5420

> <Gold.Chemscore.ZeroCoef>
-5.4800

> <Gold.Chemscore.Hbond>
2.7980

> <Gold.Chemscore.Metal>
0.0000

> <Gold.Chemscore.Lipo>
137.3413

> <Gold.Chemscore.Internal_Hbond>
0.0000

> <Gold.Chemscore.DEClash>
2.1721

> <Gold.Chemscore.DEInternal>
2.3518

> <Gold.Chemscore.Rot>
2.4814

> <Gold.Chemscore.Internal.Correction>
   9.000000E+99

> <Gold.Chemscore.Hbonds>
donor molecule, donor type, donor heavy atom, donor atom, acceptor molecule, acceptor atom, score
      L1  H    10    34       P1  7957  0.98
      L1  H    12    57       P1 10175  0.97
      L1  H    18    56       P1  7948  0.21

> <Gold.Chemscore.Hbond.Weighted>
-9.3454

> <Gold.Chemscore.Metal.Weighted>
-0.0000

> <Gold.Chemscore.Lipo.Weighted>
-16.0689

> <Gold.Chemscore.Internal_Hbond.Weighted>
0.0000

> <Gold.Chemscore.DEClash.Weighted>
2.1721

> <Gold.Chemscore.DEInternal.Weighted>
2.3518

> <Gold.Chemscore.Rot.Weighted>
6.3524

> <Gold.Chemscore.Internal.Correction.Weighted>
   9.000000E+99

> <Gold.Protein.RotatedTorsions>
[ 6907 6896 6895 6894 ] final   56.62 input  -60.11 | X-H torsion
[ 7974 7965 7964 7962 ] final    0.90 input  175.53 | X-H torsion
[ 8008 7997 7996 7995 ] final  -81.53 input   59.86 | X-H torsion
[ 10167 10162 10161 10158 ] final   -5.49 input  -65.29 | X-H torsion
[ 10718 10713 10712 10709 ] final  177.78 input   66.30 | X-H torsion
[ 10763 10752 10751 10750 ] final  105.70 input  -60.55 | X-H torsion
[ 11005 11000 10999 10996 ] final  -61.55 input  -57.11 | X-H torsion

> <Gold.Protein.ActiveResidues>
 VAL166  LYS551  ARG553  GLY616  TRP617  ASP618  TYR619  PRO620  LYS621  CYS622 
 ASP623  PHE694  ASN695  SER759  ASP760  ASP761  ALA762  ILE779  LEU786  VAL792 
 PHE793  MET794  SER795  GLU796  ALA797  LYS798  CYS799  TRP800  GLU811  SER814 

> <Gold.Protein.RotatedAtoms>
  152.3653  134.6813  160.0193 H   0  0  0  0  0  0  0  0  0  0  0  0  # atno 6907 bound_to 6896
  151.7123  133.3307  159.3302 H   0  0  0  0  0  0  0  0  0  0  0  0  # atno 6908 bound_to 6896
  150.7634  134.6456  159.6305 H   0  0  0  0  0  0  0  0  0  0  0  0  # atno 6909 bound_to 6896
  146.2437  140.1068  142.8345 H   0  0  0  0  0  0  0  0  0  0  0  0  # atno 7974 bound_to 7965
  154.5993  140.0646  156.9346 H   0  0  0  0  0  0  0  0  0  0  0  0  # atno 8008 bound_to 7997
  155.2160  140.3326  155.4304 H   0  0  0  0  0  0  0  0  0  0  0  0  # atno 8009 bound_to 7997
  156.2307  140.1840  156.7232 H   0  0  0  0  0  0  0  0  0  0  0  0  # atno 8010 bound_to 7997
  140.6965  143.6302  150.8530 H   0  0  0  0  0  0  0  0  0  0  0  0  # atno 10167 bound_to 10162
  156.9003  130.9876  151.3036 H   0  0  0  0  0  0  0  0  0  0  0  0  # atno 10718 bound_to 10713
  153.3830  135.3901  155.1870 H   0  0  0  0  0  0  0  0  0  0  0  0  # atno 10763 bound_to 10752
  154.8710  135.3730  154.4833 H   0  0  0  0  0  0  0  0  0  0  0  0  # atno 10764 bound_to 10752
  153.5312  135.7086  153.5743 H   0  0  0  0  0  0  0  0  0  0  0  0  # atno 10765 bound_to 10752
  141.1328  133.6631  156.5393 H   0  0  0  0  0  0  0  0  0  0  0  0  # atno 11005 bound_to 11000
  145.0521  140.9025  143.4989 LP  0  0  0  0  0  0  0  0  0  0  0  0  # atno 17320 bound_to 7965
  145.1168  139.2720  143.5609 LP  0  0  0  0  0  0  0  0  0  0  0  0  # atno 17321 bound_to 7965
  140.0020  143.5734  152.2872 LP  0  0  0  0  0  0  0  0  0  0  0  0  # atno 17342 bound_to 10162
  139.6427  144.7656  151.2307 LP  0  0  0  0  0  0  0  0  0  0  0  0  # atno 17343 bound_to 10162
  157.6030  130.8526  149.8831 LP  0  0  0  0  0  0  0  0  0  0  0  0  # atno 17370 bound_to 10713
  156.0585  130.3704  150.1036 LP  0  0  0  0  0  0  0  0  0  0  0  0  # atno 17371 bound_to 10713
  140.4153  134.7236  157.4859 LP  0  0  0  0  0  0  0  0  0  0  0  0  # atno 17394 bound_to 11000
  140.0398  134.6283  155.8995 LP  0  0  0  0  0  0  0  0  0  0  0  0  # atno 17395 bound_to 11000

$$$$
