AV-unprocessed.smi:910|AV-procd|sdf|4127|dock6
  -GOLD-   22720 2 33D 1   1.00000     0.00000
 Structure written by MMmdl.
 46 47  0  0  0  0  0  0  0  0  1 V2000
  146.3704  132.7912  161.1461 C   0  0  0  0  0  0  0  0  0  0  0  0
  146.4678  134.2933  160.9956 C   0  0  0  0  0  0  0  0  0  0  0  0
  147.5019  134.8907  160.3294 N   0  0  0  0  0  0  0  0  0  0  0  0
  147.3051  136.2692  160.3637 C   0  0  0  0  0  0  0  0  0  0  0  0
  147.9812  137.2710  159.8904 N   0  0  0  0  0  0  0  0  0  0  0  0
  149.1466  137.0428  159.1727 C   0  0  0  0  0  0  0  0  0  0  0  0
  149.7831  135.9906  159.0569 O   0  0  0  0  0  0  0  0  0  0  0  0
  149.5544  138.1777  158.5859 N   0  0  0  0  0  0  0  0  0  0  0  0
  150.7589  138.3314  157.7763 C   0  0  0  0  0  0  0  0  0  0  0  0
  151.0907  139.8097  157.5268 C   0  0  0  0  0  0  0  0  0  0  0  0
  151.2240  140.4663  158.7786 O   0  0  0  0  0  0  0  0  0  0  0  0
  151.8665  141.7330  158.7153 C   0  0  1  0  0  0  0  0  0  0  0  0
  150.9005  142.7693  158.1038 C   0  0  0  0  0  0  0  0  0  0  0  0
  151.4946  144.1848  158.1419 C   0  0  0  0  0  0  0  0  0  0  0  0
  151.8846  144.5789  159.5733 C   0  0  0  0  0  0  0  0  0  0  0  0
  152.8543  143.5550  160.1831 C   0  0  0  0  0  0  0  0  0  0  0  0
  152.2730  142.1268  160.1533 C   0  0  2  0  0  0  0  0  0  0  0  0
  153.2691  141.1218  160.7564 C   0  0  0  0  0  0  0  0  0  0  0  0
  146.1421  136.4716  161.0634 O   0  0  0  0  0  0  0  0  0  0  0  0
  145.6565  135.2533  161.4319 C   0  0  0  0  0  0  0  0  0  0  0  0
  144.3688  135.1916  162.2218 C   0  0  0  0  0  0  0  0  0  0  0  0
  146.3574  132.5183  162.2015 H   0  0  0  0  0  0  0  0  0  0  0  0
  147.2179  132.2948  160.6726 H   0  0  0  0  0  0  0  0  0  0  0  0
  145.4541  132.4244  160.6832 H   0  0  0  0  0  0  0  0  0  0  0  0
  148.2582  134.3791  159.8981 H   0  0  0  0  0  0  0  0  0  0  0  0
  148.9947  139.0064  158.7265 H   0  0  0  0  0  0  0  0  0  0  0  0
  151.5991  137.8317  158.2608 H   0  0  0  0  0  0  0  0  0  0  0  0
  150.6016  137.8216  156.8255 H   0  0  0  0  0  0  0  0  0  0  0  0
  152.0120  139.8979  156.9490 H   0  0  0  0  0  0  0  0  0  0  0  0
  150.2950  140.2696  156.9406 H   0  0  0  0  0  0  0  0  0  0  0  0
  152.7716  141.6720  158.1076 H   0  0  0  0  0  0  0  0  0  0  0  0
  150.6606  142.5078  157.0734 H   0  0  0  0  0  0  0  0  0  0  0  0
  149.9575  142.7570  158.6523 H   0  0  0  0  0  0  0  0  0  0  0  0
  152.3726  144.2314  157.4962 H   0  0  0  0  0  0  0  0  0  0  0  0
  150.7764  144.9006  157.7413 H   0  0  0  0  0  0  0  0  0  0  0  0
  152.3405  145.5694  159.5752 H   0  0  0  0  0  0  0  0  0  0  0  0
  150.9885  144.6489  160.1914 H   0  0  0  0  0  0  0  0  0  0  0  0
  153.7976  143.5803  159.6357 H   0  0  0  0  0  0  0  0  0  0  0  0
  153.0866  143.8416  161.2094 H   0  0  0  0  0  0  0  0  0  0  0  0
  151.3761  142.1180  160.7744 H   0  0  0  0  0  0  0  0  0  0  0  0
  154.1850  141.0688  160.1667 H   0  0  0  0  0  0  0  0  0  0  0  0
  152.8451  140.1182  160.7999 H   0  0  0  0  0  0  0  0  0  0  0  0
  153.5439  141.4039  161.7731 H   0  0  0  0  0  0  0  0  0  0  0  0
  143.7587  134.3503  161.8921 H   0  0  0  0  0  0  0  0  0  0  0  0
  143.7942  136.1080  162.0867 H   0  0  0  0  0  0  0  0  0  0  0  0
  144.5838  135.0699  163.2834 H   0  0  0  0  0  0  0  0  0  0  0  0
  1 22  1  0  0  0  0
  1 23  1  0  0  0  0
  1 24  1  0  0  0  0
  1  2  1  0  0  0  0
  2  3  1  0  0  0  0
  2 20  2  0  0  0  0
  3 25  1  0  0  0  0
  3  4  1  0  0  0  0
  4 19  1  0  0  0  0
  4  5  2  0  0  0  0
  5  6  1  0  0  0  0
  6  8  1  0  0  0  0
  6  7  2  0  0  0  0
  8  9  1  0  0  0  0
  8 26  1  0  0  0  0
  9 10  1  0  0  0  0
  9 27  1  0  0  0  0
  9 28  1  0  0  0  0
 10 11  1  0  0  0  0
 10 29  1  0  0  0  0
 10 30  1  0  0  0  0
 11 12  1  0  0  0  0
 12 17  1  0  0  0  0
 12 13  1  0  0  0  0
 12 31  1  0  0  0  0
 13 14  1  0  0  0  0
 13 32  1  0  0  0  0
 13 33  1  0  0  0  0
 14 15  1  0  0  0  0
 14 34  1  0  0  0  0
 14 35  1  0  0  0  0
 15 16  1  0  0  0  0
 15 36  1  0  0  0  0
 15 37  1  0  0  0  0
 16 17  1  0  0  0  0
 16 38  1  0  0  0  0
 16 39  1  0  0  0  0
 17 18  1  0  0  0  0
 17 40  1  0  0  0  0
 18 41  1  0  0  0  0
 18 42  1  0  0  0  0
 18 43  1  0  0  0  0
 19 20  1  0  0  0  0
 20 21  1  0  0  0  0
 21 44  1  0  0  0  0
 21 45  1  0  0  0  0
 21 46  1  0  0  0  0
M  END
> <s_m_source_file>
AV-unprocessed.smi

> <i_m_source_file_index>
910

> <i_lp_mmshare_version>
43012

> <i_f3d_flags>
0

> <s_epik_input>
W0NIM11jMW5jKG9jMVtDSDNdKVtOSF1DKD1PKVtOSF1bQ0gyXVtDSDJdT1tDQEBIXTJbQ0gyXVtDSDJdW0NIMl1bQ0gyXVtDQEhdMltDSDNd

> <s_epik_cmdline>
J2VwaWtfcHl0aG9uJywgJy1waCcsICc3LjAnLCAnLXRuJywgJzgnLCAnLW1hJywgJzIwMCcsICctbWV0YWxfYmluZGluZycsICctaW1hZScsICc8aW5maWxlLm1hZT4nLCAnLW9tYWUnLCAnPG91dGZpbGUubWFlPic=

> <r_lp_tautomer_probability>
0.107061

> <r_epik_Ionization_Penalty>
0.727192

> <r_epik_Ionization_Penalty_Charging>
0.726719

> <r_epik_Ionization_Penalty_Neutral>
0.000473387

> <r_epik_State_Penalty>
2.53712

> <r_epik_Charging_Adjusted_Penalty>
3.26383

> <i_epik_Tot_Q>
0

> <i_epik_Tot_abs_Q>
0

> <r_epik_Metal_State_Penalty>
3.71015

> <b_epik_Metal_Only>
0

> <s_lp_Force_Field>
OPLS_2005

> <r_lp_Energy>
31.2477

> <b_lp_Chiralities_Consistent>
1

> <s_lp_Variant>
AV-unprocessed.smi:910-12

> <Gold.Version>
5.8.1

> <Gold.Id.Protein>
6NUR|6NUR_protein|mol2

> <Gold.PLP.Fitness>
45.6530

> <Gold.PLP.PLP>
-40.1541

> <Gold.PLP.part.hbond>
-3.0000

> <Gold.PLP.part.metal>
0.0000

> <Gold.PLP.part.buried>
-6.5169

> <Gold.PLP.part.nonpolar>
-32.3117

> <Gold.PLP.part.repulsive>
0.2745

> <Gold.PLP.ligand.clash>
0.0000

> <Gold.PLP.ligand.torsion>
0.2686

> <Gold.PLP.Chemscore.Hbond>
2.0088

> <Gold.PLP.Chemscore.CHOScore>
0.0000

> <Gold.PLP.Chemscore.Metal>
0.0000

> <Gold.Chemscore.Hbonds>
donor molecule, donor type, donor heavy atom, donor atom, acceptor molecule, acceptor atom, score
      P1  H  6896  6908       L1     7  1.00
      P1  H  6934  6947       L1     5  0.45

> <Gold.PLP.Chemscore.Internal.Correction>
0.0098

> <Gold.Rescore>
     Score         DG    S(hbond)    S(metal)    S(lipo)     H(rot)  DE(clash)    DE(int)     intcor
     17.45     -19.10       1.70        0.00     104.00       1.66       0.00       1.65       ----

> <Gold.Chemscore.Fitness>
17.4516

> <Gold.Chemscore.DG>
-19.0968

> <Gold.Chemscore.ZeroCoef>
-5.4800

> <Gold.Chemscore.Hbond>
1.7042

> <Gold.Chemscore.Metal>
0.0000

> <Gold.Chemscore.Lipo>
104.0020

> <Gold.Chemscore.Internal_Hbond>
0.0000

> <Gold.Chemscore.DEClash>
0.0000

> <Gold.Chemscore.DEInternal>
1.6452

> <Gold.Chemscore.Rot>
1.6576

> <Gold.Chemscore.Internal.Correction>
   9.000000E+99

> <Gold.Chemscore.Hbonds>
donor molecule, donor type, donor heavy atom, donor atom, acceptor molecule, acceptor atom, score
      P1  H  6896  6908       L1     7  1.00
      P1  H  6934  6947       L1     5  0.25

> <Gold.Chemscore.Hbond.Weighted>
-5.6921

> <Gold.Chemscore.Metal.Weighted>
-0.0000

> <Gold.Chemscore.Lipo.Weighted>
-12.1682

> <Gold.Chemscore.Internal_Hbond.Weighted>
0.0000

> <Gold.Chemscore.DEClash.Weighted>
0.0000

> <Gold.Chemscore.DEInternal.Weighted>
1.6452

> <Gold.Chemscore.Rot.Weighted>
4.2436

> <Gold.Chemscore.Internal.Correction.Weighted>
   9.000000E+99

> <Gold.Protein.RotatedTorsions>
[ 6907 6896 6895 6894 ] final -178.54 input  -60.11 | X-H torsion
[ 7974 7965 7964 7962 ] final   -1.59 input  175.53 | X-H torsion
[ 8008 7997 7996 7995 ] final  135.70 input   59.86 | X-H torsion
[ 10167 10162 10161 10158 ] final   27.31 input  -65.29 | X-H torsion
[ 10718 10713 10712 10709 ] final  -51.12 input   66.30 | X-H torsion
[ 10763 10752 10751 10750 ] final   71.00 input  -60.55 | X-H torsion
[ 11005 11000 10999 10996 ] final  130.95 input  -57.11 | X-H torsion

> <Gold.Protein.ActiveResidues>
 VAL166  LYS551  ARG553  GLY616  TRP617  ASP618  TYR619  PRO620  LYS621  CYS622 
 ASP623  PHE694  ASN695  SER759  ASP760  ASP761  ALA762  ILE779  LEU786  VAL792 
 PHE793  MET794  SER795  GLU796  ALA797  LYS798  CYS799  TRP800  GLU811  SER814 

> <Gold.Protein.RotatedAtoms>
  151.6389  133.3327  159.3125 H   0  0  0  0  0  0  0  0  0  0  0  0  # atno 6907 bound_to 6896
  150.8018  134.7121  159.6619 H   0  0  0  0  0  0  0  0  0  0  0  0  # atno 6908 bound_to 6896
  152.4111  134.6127  160.0081 H   0  0  0  0  0  0  0  0  0  0  0  0  # atno 6909 bound_to 6896
  146.2415  140.1443  142.8335 H   0  0  0  0  0  0  0  0  0  0  0  0  # atno 7974 bound_to 7965
  156.3003  140.2464  156.3625 H   0  0  0  0  0  0  0  0  0  0  0  0  # atno 8008 bound_to 7997
  154.8864  140.0411  157.1832 H   0  0  0  0  0  0  0  0  0  0  0  0  # atno 8009 bound_to 7997
  154.8643  140.2925  155.5524 H   0  0  0  0  0  0  0  0  0  0  0  0  # atno 8010 bound_to 7997
  140.4949  144.0408  150.6310 H   0  0  0  0  0  0  0  0  0  0  0  0  # atno 10167 bound_to 10162
  156.1738  130.4149  149.9607 H   0  0  0  0  0  0  0  0  0  0  0  0  # atno 10718 bound_to 10713
  153.0374  135.5153  154.7527 H   0  0  0  0  0  0  0  0  0  0  0  0  # atno 10763 bound_to 10752
  154.6493  135.2923  155.0010 H   0  0  0  0  0  0  0  0  0  0  0  0  # atno 10764 bound_to 10752
  154.0900  135.6651  153.4903 H   0  0  0  0  0  0  0  0  0  0  0  0  # atno 10765 bound_to 10752
  139.9701  134.9580  156.9367 H   0  0  0  0  0  0  0  0  0  0  0  0  # atno 11005 bound_to 11000
  145.0221  140.8802  143.5161 LP  0  0  0  0  0  0  0  0  0  0  0  0  # atno 17320 bound_to 7965
  145.1493  139.2524  143.5449 LP  0  0  0  0  0  0  0  0  0  0  0  0  # atno 17321 bound_to 7965
  140.3688  143.2866  152.0302 LP  0  0  0  0  0  0  0  0  0  0  0  0  # atno 17342 bound_to 10162
  139.4859  144.6246  151.7189 LP  0  0  0  0  0  0  0  0  0  0  0  0  # atno 17343 bound_to 10162
  156.7399  130.9075  151.3631 LP  0  0  0  0  0  0  0  0  0  0  0  0  # atno 17370 bound_to 10713
  157.6822  130.9150  150.0295 LP  0  0  0  0  0  0  0  0  0  0  0  0  # atno 17371 bound_to 10713
  140.5311  134.0813  155.7316 LP  0  0  0  0  0  0  0  0  0  0  0  0  # atno 17394 bound_to 11000
  141.1381  133.9186  157.2388 LP  0  0  0  0  0  0  0  0  0  0  0  0  # atno 17395 bound_to 11000

$$$$
