AV-unprocessed.smi:3291|AV-procd|sdf|12620|dock4
  -GOLD-   2272018553D 1   1.00000     0.00000
 Structure written by MMmdl.
 43 45  0  0  0  0  0  0  0  0  2 V2000
  143.8399  135.6785  151.7765 C   0  0  0  0  0  0  0  0  0  0  0  0
  143.8490  136.6211  152.9460 C   0  0  0  0  0  0  0  0  0  0  0  0
  142.7979  136.6764  153.7445 N   0  0  0  0  0  0  0  0  0  0  0  0
  143.1069  137.6305  154.7167 O   0  0  0  0  0  0  0  0  0  0  0  0
  144.3473  138.1192  154.4645 C   0  0  0  0  0  0  0  0  0  0  0  0
  144.8468  139.1552  155.4159 C   0  0  0  0  0  0  0  0  0  0  0  0
  144.8811  137.5157  153.3545 C   0  0  0  0  0  0  0  0  0  0  0  0
  146.2275  137.7137  152.6905 C   0  0  1  0  0  0  0  0  0  0  0  0
  146.0926  137.6857  151.1609 C   0  0  0  0  0  0  0  0  0  0  0  0
  146.9249  138.9999  153.1706 C   0  0  0  0  0  0  0  0  0  0  0  0
  148.3918  138.9081  153.0086 N   0  3  0  0  0  0  0  0  0  0  0  0
  149.1844  139.2835  154.1985 C   0  0  0  0  0  0  0  0  0  0  0  0
  149.1875  140.7960  154.3266 C   0  0  0  0  0  0  0  0  0  0  0  0
  148.7614  141.4747  155.6080 C   0  0  0  0  0  0  0  0  0  0  0  0
  147.8947  141.5763  154.3755 C   0  0  0  0  0  0  0  0  0  0  0  0
  150.6033  138.7447  154.0894 C   0  0  0  0  0  0  0  0  0  0  0  0
  151.1167  137.6755  155.0279 C   0  0  0  0  0  0  0  0  0  0  0  0
  151.6482  139.0834  155.1288 C   0  0  0  0  0  0  0  0  0  0  0  0
  143.9208  136.2248  150.8367 H   0  0  0  0  0  0  0  0  0  0  0  0
  142.9233  135.0888  151.7381 H   0  0  0  0  0  0  0  0  0  0  0  0
  144.6770  134.9825  151.8299 H   0  0  0  0  0  0  0  0  0  0  0  0
  145.3814  139.9463  154.8914 H   0  0  0  0  0  0  0  0  0  0  0  0
  145.5245  138.7133  156.1457 H   0  0  0  0  0  0  0  0  0  0  0  0
  144.0224  139.6161  155.9604 H   0  0  0  0  0  0  0  0  0  0  0  0
  146.8844  136.8842  152.9551 H   0  0  0  0  0  0  0  0  0  0  0  0
  145.6519  136.7464  150.8250 H   0  0  0  0  0  0  0  0  0  0  0  0
  147.0659  137.7809  150.6791 H   0  0  0  0  0  0  0  0  0  0  0  0
  145.4632  138.4969  150.7952 H   0  0  0  0  0  0  0  0  0  0  0  0
  146.5624  139.8551  152.5986 H   0  0  0  0  0  0  0  0  0  0  0  0
  146.6750  139.1925  154.2127 H   0  0  0  0  0  0  0  0  0  0  0  0
  148.6336  137.9634  152.7451 H   0  0  0  0  0  0  0  0  0  0  0  0
  148.7099  138.8661  155.0885 H   0  0  0  0  0  0  0  0  0  0  0  0
  150.0097  141.2757  153.7979 H   0  0  0  0  0  0  0  0  0  0  0  0
  148.3943  140.8529  156.4219 H   0  0  0  0  0  0  0  0  0  0  0  0
  149.3113  142.3632  155.9119 H   0  0  0  0  0  0  0  0  0  0  0  0
  147.8658  142.5337  153.8590 H   0  0  0  0  0  0  0  0  0  0  0  0
  146.9612  141.0169  154.3735 H   0  0  0  0  0  0  0  0  0  0  0  0
  150.9723  138.6982  153.0660 H   0  0  0  0  0  0  0  0  0  0  0  0
  150.4554  137.3332  155.8215 H   0  0  0  0  0  0  0  0  0  0  0  0
  151.7748  136.9163  154.6102 H   0  0  0  0  0  0  0  0  0  0  0  0
  152.6631  139.2639  154.7804 H   0  0  0  0  0  0  0  0  0  0  0  0
  151.3433  139.6663  155.9954 H   0  0  0  0  0  0  0  0  0  0  0  0
  148.6529  139.5264  152.2538 H   0  0  0  0  0  0  0  0  0  0  0  0
  1  2  1  0  0  0  0
  1 19  1  0  0  0  0
  1 20  1  0  0  0  0
  1 21  1  0  0  0  0
  2  7  1  0  0  0  0
  2  3  2  0  0  0  0
  3  4  1  0  0  0  0
  4  5  1  0  0  0  0
  5  6  1  0  0  0  0
  5  7  2  0  0  0  0
  6 22  1  0  0  0  0
  6 23  1  0  0  0  0
  6 24  1  0  0  0  0
  7  8  1  0  0  0  0
  8  9  1  0  0  0  0
  8 10  1  0  0  0  0
  8 25  1  0  0  0  0
  9 26  1  0  0  0  0
  9 27  1  0  0  0  0
  9 28  1  0  0  0  0
 10 11  1  0  0  0  0
 10 29  1  0  0  0  0
 10 30  1  0  0  0  0
 11 12  1  0  0  0  0
 11 31  1  0  0  0  0
 11 43  1  0  0  0  0
 12 13  1  0  0  0  0
 12 16  1  0  0  0  0
 12 32  1  0  0  0  0
 13 15  1  0  0  0  0
 13 14  1  0  0  0  0
 13 33  1  0  0  0  0
 14 15  1  0  0  0  0
 14 34  1  0  0  0  0
 14 35  1  0  0  0  0
 15 36  1  0  0  0  0
 15 37  1  0  0  0  0
 16 18  1  0  0  0  0
 16 17  1  0  0  0  0
 16 38  1  0  0  0  0
 17 18  1  0  0  0  0
 17 39  1  0  0  0  0
 17 40  1  0  0  0  0
 18 41  1  0  0  0  0
 18 42  1  0  0  0  0
M  CHG  1  11   1
M  END
> <s_m_source_file>
AV-unprocessed.smi

> <i_m_source_file_index>
3291

> <i_lp_mmshare_version>
43012

> <i_f3d_flags>
0

> <s_epik_input>
W0NIM11jMW5vYyhbQ0gzXSljMVtDQEhdKFtDSDNdKVtDSDJdW05IXVtDSF0oW0NIXTJbQ0gyXVtDSDJdMilbQ0hdM1tDSDJdW0NIMl0z

> <s_epik_cmdline>
J2VwaWtfcHl0aG9uJywgJy1waCcsICc3LjAnLCAnLXRuJywgJzgnLCAnLW1hJywgJzIwMCcsICctbWV0YWxfYmluZGluZycsICctaW1hZScsICc8aW5maWxlLm1hZT4nLCAnLW9tYWUnLCAnPG91dGZpbGUubWFlPic=

> <r_lp_tautomer_probability>
1

> <r_epik_Ionization_Penalty>
0.000158108

> <r_epik_Ionization_Penalty_Charging>
0.000158108

> <r_epik_Ionization_Penalty_Neutral>
1.14678e-10

> <r_epik_State_Penalty>
-0

> <r_epik_Charging_Adjusted_Penalty>
0.000158108

> <i_epik_Tot_Q>
1

> <i_epik_Tot_abs_Q>
1

> <r_epik_Metal_State_Penalty>
-0

> <b_epik_Metal_Only>
0

> <s_lp_Force_Field>
OPLS_2005

> <r_lp_Energy>
24.4944

> <b_lp_Chiralities_Consistent>
1

> <s_lp_Variant>
AV-unprocessed.smi:3291-2

> <Gold.Version>
5.8.1

> <Gold.Id.Protein>
6NUR|6NUR_protein|mol2

> <Gold.PLP.Fitness>
36.0615

> <Gold.PLP.PLP>
-30.1795

> <Gold.PLP.part.hbond>
-1.8201

> <Gold.PLP.part.metal>
0.0000

> <Gold.PLP.part.buried>
0.4021

> <Gold.PLP.part.nonpolar>
-30.0197

> <Gold.PLP.part.repulsive>
0.2314

> <Gold.PLP.ligand.clash>
0.0000

> <Gold.PLP.ligand.torsion>
2.6617

> <Gold.PLP.Chemscore.Hbond>
3.0000

> <Gold.PLP.Chemscore.CHOScore>
0.0000

> <Gold.PLP.Chemscore.Metal>
0.0000

> <Gold.Chemscore.Hbonds>
donor molecule, donor type, donor heavy atom, donor atom, acceptor molecule, acceptor atom, score
      L1  H    11    31       P1  7948  2.00
      L1  H    11    43       P1  7957  0.99

> <Gold.PLP.Chemscore.Internal.Correction>
2.2054

> <Gold.Rescore>
     Score         DG    S(hbond)    S(metal)    S(lipo)     H(rot)  DE(clash)    DE(int)     intcor
     13.68     -17.90       1.96        0.00      83.05       1.50       1.09       3.13       ----

> <Gold.Chemscore.Fitness>
13.6780

> <Gold.Chemscore.DG>
-17.8984

> <Gold.Chemscore.ZeroCoef>
-5.4800

> <Gold.Chemscore.Hbond>
1.9595

> <Gold.Chemscore.Metal>
0.0000

> <Gold.Chemscore.Lipo>
83.0545

> <Gold.Chemscore.Internal_Hbond>
0.0000

> <Gold.Chemscore.DEClash>
1.0917

> <Gold.Chemscore.DEInternal>
3.1286

> <Gold.Chemscore.Rot>
1.5015

> <Gold.Chemscore.Internal.Correction>
   9.000000E+99

> <Gold.Chemscore.Hbonds>
donor molecule, donor type, donor heavy atom, donor atom, acceptor molecule, acceptor atom, score
      L1  H    11    31       P1  7948  0.99
      L1  H    11    43       P1  7957  0.90

> <Gold.Chemscore.Hbond.Weighted>
-6.5448

> <Gold.Chemscore.Metal.Weighted>
-0.0000

> <Gold.Chemscore.Lipo.Weighted>
-9.7174

> <Gold.Chemscore.Internal_Hbond.Weighted>
0.0000

> <Gold.Chemscore.DEClash.Weighted>
1.0917

> <Gold.Chemscore.DEInternal.Weighted>
3.1286

> <Gold.Chemscore.Rot.Weighted>
3.8438

> <Gold.Chemscore.Internal.Correction.Weighted>
   9.000000E+99

> <Gold.Protein.RotatedTorsions>
[ 6907 6896 6895 6894 ] final   66.73 input  -60.11 | X-H torsion
[ 7974 7965 7964 7962 ] final  104.12 input  175.53 | X-H torsion
[ 8008 7997 7996 7995 ] final  -58.56 input   59.86 | X-H torsion
[ 10167 10162 10161 10158 ] final  140.73 input  -65.29 | X-H torsion
[ 10718 10713 10712 10709 ] final -125.74 input   66.30 | X-H torsion
[ 10763 10752 10751 10750 ] final  -47.24 input  -60.55 | X-H torsion
[ 11005 11000 10999 10996 ] final  -86.06 input  -57.11 | X-H torsion

> <Gold.Protein.ActiveResidues>
 VAL166  LYS551  ARG553  GLY616  TRP617  ASP618  TYR619  PRO620  LYS621  CYS622 
 ASP623  PHE694  ASN695  SER759  ASP760  ASP761  ALA762  ILE779  LEU786  VAL792 
 PHE793  MET794  SER795  GLU796  ALA797  LYS798  CYS799  TRP800  GLU811  SER814 

> <Gold.Protein.RotatedAtoms>
  152.4502  134.5410  159.9838 H   0  0  0  0  0  0  0  0  0  0  0  0  # atno 6907 bound_to 6896
  151.5485  133.3415  159.2956 H   0  0  0  0  0  0  0  0  0  0  0  0  # atno 6908 bound_to 6896
  150.8428  134.7758  159.7010 H   0  0  0  0  0  0  0  0  0  0  0  0  # atno 6909 bound_to 6896
  145.3370  139.2472  143.3630 H   0  0  0  0  0  0  0  0  0  0  0  0  # atno 7974 bound_to 7965
  154.4314  140.1081  156.5976 H   0  0  0  0  0  0  0  0  0  0  0  0  # atno 8008 bound_to 7997
  155.5945  140.3492  155.4557 H   0  0  0  0  0  0  0  0  0  0  0  0  # atno 8009 bound_to 7997
  156.0221  140.1242  157.0336 H   0  0  0  0  0  0  0  0  0  0  0  0  # atno 8010 bound_to 7997
  139.5040  144.6216  151.6037 H   0  0  0  0  0  0  0  0  0  0  0  0  # atno 10167 bound_to 10162
  156.1702  130.6662  151.0170 H   0  0  0  0  0  0  0  0  0  0  0  0  # atno 10718 bound_to 10713
  154.0582  135.6621  153.4808 H   0  0  0  0  0  0  0  0  0  0  0  0  # atno 10763 bound_to 10752
  153.0437  135.5128  154.7685 H   0  0  0  0  0  0  0  0  0  0  0  0  # atno 10764 bound_to 10752
  154.6713  135.3030  154.9705 H   0  0  0  0  0  0  0  0  0  0  0  0  # atno 10765 bound_to 10752
  141.1634  133.7433  156.9106 H   0  0  0  0  0  0  0  0  0  0  0  0  # atno 11005 bound_to 11000
  146.3023  140.3959  142.8700 LP  0  0  0  0  0  0  0  0  0  0  0  0  # atno 17320 bound_to 7965
  144.8820  140.7412  143.5981 LP  0  0  0  0  0  0  0  0  0  0  0  0  # atno 17321 bound_to 7965
  140.5920  143.9763  150.6331 LP  0  0  0  0  0  0  0  0  0  0  0  0  # atno 17342 bound_to 10162
  140.2946  143.3301  152.1030 LP  0  0  0  0  0  0  0  0  0  0  0  0  # atno 17343 bound_to 10162
  157.6797  131.0841  150.7401 LP  0  0  0  0  0  0  0  0  0  0  0  0  # atno 17370 bound_to 10713
  156.7461  130.4754  149.5467 LP  0  0  0  0  0  0  0  0  0  0  0  0  # atno 17371 bound_to 10713
  140.1519  134.9224  157.2604 LP  0  0  0  0  0  0  0  0  0  0  0  0  # atno 17394 bound_to 11000
  140.2712  134.3458  155.7373 LP  0  0  0  0  0  0  0  0  0  0  0  0  # atno 17395 bound_to 11000

$$$$
