AV-unprocessed.smi:36|AV-procd|sdf|289|dock2
  -GOLD-   2262016 73D 1   1.00000     0.00000
 Structure written by MMmdl.
 64 67  0  0  0  0  0  0  0  0  1 V2000
  144.7837  136.0294  156.7017 C   0  0  0  0  0  0  0  0  0  0  0  0
  144.7460  137.4436  157.3044 C   0  0  0  0  0  0  0  0  0  0  0  0
  143.9711  137.4267  158.6331 C   0  0  0  0  0  0  0  0  0  0  0  0
  146.1782  137.9480  157.5474 C   0  0  0  0  0  0  0  0  0  0  0  0
  143.8651  138.6276  156.0919 Si  0  0  0  0  0  0  0  0  0  0  0  0
  142.1002  138.0364  155.7126 C   0  0  0  0  0  0  0  0  0  0  0  0
  143.8076  140.3948  156.7902 C   0  0  0  0  0  0  0  0  0  0  0  0
  144.7424  138.6240  154.6435 O   0  0  0  0  0  0  0  0  0  0  0  0
  145.0880  137.4584  153.9232 C   0  0  0  0  0  0  0  0  0  0  0  0
  146.3986  137.6916  153.1590 C   0  0  2  0  0  0  0  0  0  0  0  0
  147.4209  138.0283  154.0920 O   0  0  0  0  0  0  0  0  0  0  0  0
  148.2913  138.9059  153.4639 C   0  0  2  0  0  0  0  0  0  0  0  0
  149.0401  139.6674  154.5046 N   0  0  0  0  0  0  0  0  0  0  0  0
  148.9622  140.9858  154.7686 C   0  0  0  0  0  0  0  0  0  0  0  0
  149.7478  141.4157  155.7526 N   0  0  0  0  0  0  0  0  0  0  0  0
  150.3960  140.2521  156.1543 C   0  0  0  0  0  0  0  0  0  0  0  0
  151.4099  140.0371  157.2091 C   0  0  0  0  0  0  0  0  0  0  0  0
  151.7823  141.0681  157.9052 N   0  0  0  0  0  0  0  0  0  0  0  0
  152.7321  140.9264  158.9082 C   0  0  0  0  0  0  0  0  0  0  0  0
  153.5821  140.0431  159.0507 O   0  0  0  0  0  0  0  0  0  0  0  0
  152.6810  142.0192  159.9252 C   0  0  0  0  0  0  0  0  0  0  0  0
  153.0501  141.7595  161.2621 C   0  0  0  0  0  0  0  0  0  0  0  0
  152.9912  142.7878  162.2231 C   0  0  0  0  0  0  0  0  0  0  0  0
  152.5614  144.0765  161.8512 C   0  0  0  0  0  0  0  0  0  0  0  0
  152.1908  144.3377  160.5179 C   0  0  0  0  0  0  0  0  0  0  0  0
  152.2491  143.3106  159.5556 C   0  0  0  0  0  0  0  0  0  0  0  0
  151.7824  138.6869  157.2428 N   0  0  0  0  0  0  0  0  0  0  0  0
  151.2816  137.6737  156.4103 C   0  0  0  0  0  0  0  0  0  0  0  0
  150.3851  137.8490  155.4762 N   0  0  0  0  0  0  0  0  0  0  0  0
  149.9807  139.1744  155.4023 C   0  0  0  0  0  0  0  0  0  0  0  0
  147.4034  139.8316  152.6470 C   0  0  0  0  0  0  0  0  0  0  0  0
  146.3351  138.8664  152.1582 C   0  0  1  0  0  0  0  0  0  0  0  0
  146.6433  138.4161  150.8534 O   0  0  0  0  0  0  0  0  0  0  0  0
  145.2806  135.3265  157.3713 H   0  0  0  0  0  0  0  0  0  0  0  0
  145.3212  136.0160  155.7532 H   0  0  0  0  0  0  0  0  0  0  0  0
  143.7786  135.6501  156.5157 H   0  0  0  0  0  0  0  0  0  0  0  0
  142.9532  137.0610  158.4960 H   0  0  0  0  0  0  0  0  0  0  0  0
  143.9049  138.4256  159.0662 H   0  0  0  0  0  0  0  0  0  0  0  0
  144.4551  136.7809  159.3665 H   0  0  0  0  0  0  0  0  0  0  0  0
  146.7088  137.3094  158.2544 H   0  0  0  0  0  0  0  0  0  0  0  0
  146.1771  138.9598  157.9542 H   0  0  0  0  0  0  0  0  0  0  0  0
  146.7567  137.9654  156.6236 H   0  0  0  0  0  0  0  0  0  0  0  0
  141.4879  137.9984  156.6133 H   0  0  0  0  0  0  0  0  0  0  0  0
  142.0965  137.0387  155.2741 H   0  0  0  0  0  0  0  0  0  0  0  0
  141.5998  138.7010  155.0085 H   0  0  0  0  0  0  0  0  0  0  0  0
  143.2317  140.4403  157.7142 H   0  0  0  0  0  0  0  0  0  0  0  0
  143.3454  141.0882  156.0879 H   0  0  0  0  0  0  0  0  0  0  0  0
  144.8053  140.7729  157.0116 H   0  0  0  0  0  0  0  0  0  0  0  0
  145.1904  136.6248  154.6184 H   0  0  0  0  0  0  0  0  0  0  0  0
  144.2855  137.2001  153.2310 H   0  0  0  0  0  0  0  0  0  0  0  0
  146.7073  136.7751  152.6551 H   0  0  0  0  0  0  0  0  0  0  0  0
  149.0364  138.3684  152.8752 H   0  0  0  0  0  0  0  0  0  0  0  0
  148.3107  141.6511  154.2209 H   0  0  0  0  0  0  0  0  0  0  0  0
  153.3778  140.7725  161.5555 H   0  0  0  0  0  0  0  0  0  0  0  0
  153.2745  142.5872  163.2459 H   0  0  0  0  0  0  0  0  0  0  0  0
  152.5150  144.8640  162.5889 H   0  0  0  0  0  0  0  0  0  0  0  0
  151.8599  145.3256  160.2335 H   0  0  0  0  0  0  0  0  0  0  0  0
  151.9597  143.5175  158.5353 H   0  0  0  0  0  0  0  0  0  0  0  0
  151.7093  136.6891  156.6040 H   0  0  0  0  0  0  0  0  0  0  0  0
  146.9596  140.5798  153.3058 H   0  0  0  0  0  0  0  0  0  0  0  0
  147.9653  140.3357  151.8594 H   0  0  0  0  0  0  0  0  0  0  0  0
  145.3567  139.3483  152.1396 H   0  0  0  0  0  0  0  0  0  0  0  0
  145.9062  138.5992  150.2912 H   0  0  0  0  0  0  0  0  0  0  0  0
  152.4737  138.4197  157.9287 H   0  0  0  0  0  0  0  0  0  0  0  0
  1  2  1  0  0  0  0
  1 34  1  0  0  0  0
  1 35  1  0  0  0  0
  1 36  1  0  0  0  0
  2  3  1  0  0  0  0
  2  4  1  0  0  0  0
  2  5  1  0  0  0  0
  3 37  1  0  0  0  0
  3 38  1  0  0  0  0
  3 39  1  0  0  0  0
  4 40  1  0  0  0  0
  4 41  1  0  0  0  0
  4 42  1  0  0  0  0
  5  6  1  0  0  0  0
  5  7  1  0  0  0  0
  5  8  1  0  0  0  0
  6 43  1  0  0  0  0
  6 44  1  0  0  0  0
  6 45  1  0  0  0  0
  7 46  1  0  0  0  0
  7 47  1  0  0  0  0
  7 48  1  0  0  0  0
  8  9  1  0  0  0  0
  9 10  1  0  0  0  0
  9 49  1  0  0  0  0
  9 50  1  0  0  0  0
 10 32  1  0  0  0  0
 10 11  1  0  0  0  0
 10 51  1  0  0  0  0
 11 12  1  0  0  0  0
 12 13  1  0  0  0  0
 12 31  1  0  0  0  0
 12 52  1  0  0  0  0
 13 30  1  0  0  0  0
 13 14  1  0  0  0  0
 14 15  2  0  0  0  0
 14 53  1  0  0  0  0
 15 16  1  0  0  0  0
 16 30  2  0  0  0  0
 16 17  1  0  0  0  0
 17 18  2  0  0  0  0
 17 27  1  0  0  0  0
 18 19  1  0  0  0  0
 19 20  2  0  0  0  0
 19 21  1  0  0  0  0
 21 26  1  0  0  0  0
 21 22  2  0  0  0  0
 22 23  1  0  0  0  0
 22 54  1  0  0  0  0
 23 24  2  0  0  0  0
 23 55  1  0  0  0  0
 24 25  1  0  0  0  0
 24 56  1  0  0  0  0
 25 26  2  0  0  0  0
 25 57  1  0  0  0  0
 26 58  1  0  0  0  0
 27 28  1  0  0  0  0
 27 64  1  0  0  0  0
 28 29  2  0  0  0  0
 28 59  1  0  0  0  0
 29 30  1  0  0  0  0
 31 32  1  0  0  0  0
 31 60  1  0  0  0  0
 31 61  1  0  0  0  0
 32 33  1  0  0  0  0
 32 62  1  0  0  0  0
 33 63  1  0  0  0  0
M  END
> <s_m_source_file>
AV-unprocessed.smi

> <i_m_source_file_index>
36

> <i_lp_mmshare_version>
43012

> <i_f3d_flags>
0

> <s_epik_input>
W0NIM11DKFtDSDNdKShbQ0gzXSlbU2ldKFtDSDNdKShbQ0gzXSlPW0NIMl1bQ0BASF0xT1tDQEhdKFtDSDJdW0NASF0xW09IXSluKFtjSF1uMiljKGMyMyluW2NIXW5jM1tOSF1DKD1PKWM0W2NIXVtjSF1bY0hdW2NIXVtjSF00

> <s_epik_cmdline>
J2VwaWtfcHl0aG9uJywgJy1waCcsICc3LjAnLCAnLXRuJywgJzgnLCAnLW1hJywgJzIwMCcsICctbWV0YWxfYmluZGluZycsICctaW1hZScsICc8aW5maWxlLm1hZT4nLCAnLW9tYWUnLCAnPG91dGZpbGUubWFlPic=

> <r_epik_Ionization_Penalty>
0.0850405

> <r_epik_Ionization_Penalty_Charging>
0.0850403

> <r_epik_Ionization_Penalty_Neutral>
1.47497e-07

> <r_epik_State_Penalty>
2.6133

> <r_epik_Charging_Adjusted_Penalty>
2.69834

> <i_epik_Tot_Q>
0

> <i_epik_Tot_abs_Q>
0

> <r_epik_Metal_State_Penalty>
2.92945

> <b_epik_Metal_Only>
0

> <s_epik_Chemistry_Notes>
This compound contains an acetal/aminal-like group ( X-CH(R)-Y where X, Y are N, S, or O) that may be acid/base labile, releasing an aldehyde.

> <s_lp_Force_Field>
OPLS_2005

> <r_lp_Energy>
44.9546

> <b_lp_Chiralities_Consistent>
1

> <s_lp_Variant>
AV-unprocessed.smi:36-11

> <Gold.Version>
5.8.1

> <Gold.Id.Protein>
6NUR|6NUR_protein|mol2

> <Gold.PLP.Fitness>
50.7426

> <Gold.PLP.PLP>
-43.3143

> <Gold.PLP.part.hbond>
-3.0333

> <Gold.PLP.part.metal>
0.0000

> <Gold.PLP.part.buried>
0.7203

> <Gold.PLP.part.nonpolar>
-40.9040

> <Gold.PLP.part.repulsive>
0.4930

> <Gold.PLP.ligand.clash>
0.0000

> <Gold.PLP.ligand.torsion>
0.7590

> <Gold.PLP.Chemscore.Hbond>
2.8642

> <Gold.PLP.Chemscore.CHOScore>
0.0000

> <Gold.PLP.Chemscore.Metal>
0.0000

> <Gold.Chemscore.Hbonds>
donor molecule, donor type, donor heavy atom, donor atom, acceptor molecule, acceptor atom, score
      L1  H    33    63       P1 10171  0.91
      P1  H  7954  7966       L1    33  1.00
      P1  H  7997  8010       L1    20  0.51

> <Gold.PLP.Chemscore.Internal.Correction>
0.3538

> <Gold.Rescore>
     Score         DG    S(hbond)    S(metal)    S(lipo)     H(rot)  DE(clash)    DE(int)     intcor
     16.51     -18.16       2.51        0.00      95.94       2.70       0.95       0.71       ----

> <Gold.Chemscore.Fitness>
16.5052

> <Gold.Chemscore.DG>
-18.1639

> <Gold.Chemscore.ZeroCoef>
-5.4800

> <Gold.Chemscore.Hbond>
2.5095

> <Gold.Chemscore.Metal>
0.0000

> <Gold.Chemscore.Lipo>
95.9377

> <Gold.Chemscore.Internal_Hbond>
0.0000

> <Gold.Chemscore.DEClash>
0.9474

> <Gold.Chemscore.DEInternal>
0.7113

> <Gold.Chemscore.Rot>
2.7041

> <Gold.Chemscore.Internal.Correction>
   9.000000E+99

> <Gold.Chemscore.Hbonds>
donor molecule, donor type, donor heavy atom, donor atom, acceptor molecule, acceptor atom, score
      L1  H    33    63       P1 10171  0.85
      P1  H  7954  7966       L1    33  0.78
      P1  H  7997  8010       L1    20  0.34

> <Gold.Chemscore.Hbond.Weighted>
-8.3817

> <Gold.Chemscore.Metal.Weighted>
-0.0000

> <Gold.Chemscore.Lipo.Weighted>
-11.2247

> <Gold.Chemscore.Internal_Hbond.Weighted>
0.0000

> <Gold.Chemscore.DEClash.Weighted>
0.9474

> <Gold.Chemscore.DEInternal.Weighted>
0.7113

> <Gold.Chemscore.Rot.Weighted>
6.9225

> <Gold.Chemscore.Internal.Correction.Weighted>
   9.000000E+99

> <Gold.Protein.RotatedTorsions>
[ 6907 6896 6895 6894 ] final -147.50 input  -60.11 | X-H torsion
[ 7974 7965 7964 7962 ] final  -19.40 input  175.53 | X-H torsion
[ 8008 7997 7996 7995 ] final   11.35 input   59.86 | X-H torsion
[ 10167 10162 10161 10158 ] final -129.43 input  -65.29 | X-H torsion
[ 10718 10713 10712 10709 ] final  -21.30 input   66.30 | X-H torsion
[ 10763 10752 10751 10750 ] final   51.43 input  -60.55 | X-H torsion
[ 11005 11000 10999 10996 ] final   24.87 input  -57.11 | X-H torsion

> <Gold.Protein.ActiveResidues>
 VAL166  LYS551  ARG553  GLY616  TRP617  ASP618  TYR619  PRO620  LYS621  CYS622 
 ASP623  PHE694  ASN695  SER759  ASP760  ASP761  ALA762  ILE779  LEU786  VAL792 
 PHE793  MET794  SER795  GLU796  ALA797  LYS798  CYS799  TRP800  GLU811  SER814 

> <Gold.Protein.RotatedAtoms>
  151.1565  133.4873  159.2594 H   0  0  0  0  0  0  0  0  0  0  0  0  # atno 6907 bound_to 6896
  151.1499  135.0222  159.8673 H   0  0  0  0  0  0  0  0  0  0  0  0  # atno 6908 bound_to 6896
  152.5463  134.1450  159.8548 H   0  0  0  0  0  0  0  0  0  0  0  0  # atno 6909 bound_to 6896
  146.1843  140.4056  142.8482 H   0  0  0  0  0  0  0  0  0  0  0  0  # atno 7974 bound_to 7965
  154.8057  140.2859  155.5889 H   0  0  0  0  0  0  0  0  0  0  0  0  # atno 8008 bound_to 7997
  156.2982  140.2578  156.2865 H   0  0  0  0  0  0  0  0  0  0  0  0  # atno 8009 bound_to 7997
  154.9506  140.0379  157.2131 H   0  0  0  0  0  0  0  0  0  0  0  0  # atno 8010 bound_to 7997
  139.9399  143.6175  152.2506 H   0  0  0  0  0  0  0  0  0  0  0  0  # atno 10167 bound_to 10162
  156.5200  130.4630  149.6602 H   0  0  0  0  0  0  0  0  0  0  0  0  # atno 10718 bound_to 10713
  152.9785  135.5846  154.4414 H   0  0  0  0  0  0  0  0  0  0  0  0  # atno 10763 bound_to 10752
  154.4015  135.2769  155.2096 H   0  0  0  0  0  0  0  0  0  0  0  0  # atno 10764 bound_to 10752
  154.3924  135.6122  153.5905 H   0  0  0  0  0  0  0  0  0  0  0  0  # atno 10765 bound_to 10752
  140.3540  134.2197  155.7677 H   0  0  0  0  0  0  0  0  0  0  0  0  # atno 11005 bound_to 11000
  144.8370  140.6797  143.6254 LP  0  0  0  0  0  0  0  0  0  0  0  0  # atno 17320 bound_to 7965
  145.3984  139.1602  143.4191 LP  0  0  0  0  0  0  0  0  0  0  0  0  # atno 17321 bound_to 7965
  139.6713  144.7660  151.1778 LP  0  0  0  0  0  0  0  0  0  0  0  0  # atno 17342 bound_to 10162
  140.7614  143.5861  150.8845 LP  0  0  0  0  0  0  0  0  0  0  0  0  # atno 17343 bound_to 10162
  156.3158  130.7254  151.2156 LP  0  0  0  0  0  0  0  0  0  0  0  0  # atno 17370 bound_to 10713
  157.7438  131.0469  150.4916 LP  0  0  0  0  0  0  0  0  0  0  0  0  # atno 17371 bound_to 10713
  141.2004  133.7989  157.0492 LP  0  0  0  0  0  0  0  0  0  0  0  0  # atno 17394 bound_to 11000
  140.0680  134.9718  157.1418 LP  0  0  0  0  0  0  0  0  0  0  0  0  # atno 17395 bound_to 11000

$$$$
