#       Name:                AV-unprocessed.smi:1005
#       Creating user name   scv26
#       Creation time:       Fri Mar 27 02:28:38 2020


#       File generated by GOLD software.
#

@<TRIPOS>MOLECULE
AV-unprocessed.smi:1005
    62    64     1
SMALL
NO_CHARGES


@<TRIPOS>ATOM
      1 ****        -3.1263   2.5143   5.5867 C.3            1 S1                 0.0000
      2 ****        -2.8715   2.4999   4.0897 C.ar           1 S1                 0.0000
      3 ****        -1.9786   3.4445   3.5355 C.ar           1 S1                 0.0000
      4 ****        -1.7122   3.4627   2.1492 C.ar           1 S1                 0.0000
      5 ****        -0.8849   4.2844   1.4032 N.2            1 S1                 0.0000
      6 ****        -1.0641   3.8042   0.1766 C.2            1 S1                 0.0000
      7 ****        -1.9004   2.7567   0.0409 N.pl3          1 S1                 0.0000
      8 ****        -2.2362   2.0562  -1.1856 C.3            1 S1                 0.0000
      9 ****        -1.6582   0.6272  -1.2252 C.3            1 S1                 0.0000
     10 ****        -1.9987   0.0527  -2.4707 O.3            1 S1                 0.0000
     11 ****        -0.1228   0.5807  -1.0626 C.3            1 S1                 0.0000
     12 ****         0.3980  -0.8072  -0.9787 N.4            1 S1                 1.0000
     13 ****         0.1994  -1.4343   0.3512 C.3            1 S1                 0.0000
     14 ****         0.7307  -2.8763   0.3468 C.3            1 S1                 0.0000
     15 ****         2.1019  -2.8757  -0.0318 O.3            1 S1                 0.0000
     16 ****         2.3053  -2.3687  -1.3464 C.3            1 S1                 0.0000
     17 ****         3.8091  -2.5048  -1.6601 C.3            1 S1                 0.0000
     18 ****         4.1596  -2.1200  -3.0521 N.4            1 S1                 1.0000
     19 ****         3.7551  -3.1270  -4.0606 C.3            1 S1                 0.0000
     20 ****         5.5900  -1.7652  -3.1860 C.3            1 S1                 0.0000
     21 ****         1.8196  -0.9039  -1.3882 C.3            1 S1                 0.0000
     22 ****        -2.3674   2.5009   1.3258 C.ar           1 S1                 0.0000
     23 ****        -3.2621   1.5595   1.8646 C.ar           1 S1                 0.0000
     24 ****        -3.5166   1.5551   3.2519 C.ar           1 S1                 0.0000
     25 ****        -4.4821   0.5326   3.8247 C.3            1 S1                 0.0000
     26 ****        -2.5661   3.3100   6.0787 H              1 S1                 0.0000
     27 ****        -2.8247   1.5668   6.0342 H              1 S1                 0.0000
     28 ****        -4.1846   2.6743   5.7934 H              1 S1                 0.0000
     29 ****        -1.4887   4.1657   4.1732 H              1 S1                 0.0000
     30 ****        -0.5480   4.2312  -0.6710 H              1 S1                 0.0000
     31 ****        -3.3231   2.0307  -1.2753 H              1 S1                 0.0000
     32 ****        -1.8654   2.6391  -2.0302 H              1 S1                 0.0000
     33 ****        -2.1397   0.0396  -0.4448 H              1 S1                 0.0000
     34 ****        -2.9387   0.0829  -2.5698 H              1 S1                 0.0000
     35 ****         0.3287   1.0963  -1.9118 H              1 S1                 0.0000
     36 ****         0.1990   1.1253  -0.1740 H              1 S1                 0.0000
     37 ****         0.7186  -0.8510   1.1137 H              1 S1                 0.0000
     38 ****        -0.8563  -1.4405   0.6203 H              1 S1                 0.0000
     39 ****         0.6396  -3.3123   1.3418 H              1 S1                 0.0000
     40 ****         0.1511  -3.5051  -0.3309 H              1 S1                 0.0000
     41 ****         1.7232  -2.9753  -2.0410 H              1 S1                 0.0000
     42 ****         4.3620  -1.8778  -0.9589 H              1 S1                 0.0000
     43 ****         4.1425  -3.5278  -1.4777 H              1 S1                 0.0000
     44 ****         4.2633  -4.0772  -3.8908 H              1 S1                 0.0000
     45 ****         4.0063  -2.7844  -5.0650 H              1 S1                 0.0000
     46 ****         2.6809  -3.3055  -4.0416 H              1 S1                 0.0000
     47 ****         6.2285  -2.6188  -2.9543 H              1 S1                 0.0000
     48 ****         5.8516  -0.9483  -2.5124 H              1 S1                 0.0000
     49 ****         5.8139  -1.4365  -4.2014 H              1 S1                 0.0000
     50 ****         1.9318  -0.5069  -2.3979 H              1 S1                 0.0000
     51 ****         2.4291  -0.2830  -0.7292 H              1 S1                 0.0000
     52 ****        -3.7495   0.8467   1.2164 H              1 S1                 0.0000
     53 ****        -4.8909  -0.1103   3.0446 H              1 S1                 0.0000
     54 ****        -5.3171   1.0303   4.3188 H              1 S1                 0.0000
     55 ****        -3.9775  -0.1034   4.5525 H              1 S1                 0.0000
     56 ****         3.6470  -1.2750  -3.2598 H              1 S1                 0.0000
     57 ****        -0.1312  -1.3492  -1.6476 H              1 S1                 0.0000
     58 ****        -0.3051   5.0403   1.7070 LP             1 S1                 0.0000
     59 ****        -1.6872  -0.8971  -2.5001 LP             1 S1                 0.0000
     60 ****        -1.5653   0.5687  -3.2095 LP             1 S1                 0.0000
     61 ****         2.4454  -3.8141   0.0065 LP             1 S1                 0.0000
     62 ****         2.6123  -2.3073   0.6135 LP             1 S1                 0.0000
@<TRIPOS>BOND
    1    1    2 1     
    2    1   26 1     
    3    1   27 1     
    4    1   28 1     
    5    2   24 ar    
    6    2    3 ar    
    7    3    4 ar    
    8    3   29 1     
    9    4   22 ar    
   10    4    5 1     
   11    5    6 2     
   12    6    7 1     
   13    6   30 1     
   14    7    8 1     
   15    7   22 1     
   16    8    9 1     
   17    8   31 1     
   18    8   32 1     
   19    9   10 1     
   20    9   11 1     
   21    9   33 1     
   22   10   34 1     
   23   11   12 1     
   24   11   35 1     
   25   11   36 1     
   26   12   21 1     
   27   12   13 1     
   28   12   57 1     
   29   13   14 1     
   30   13   37 1     
   31   13   38 1     
   32   14   15 1     
   33   14   39 1     
   34   14   40 1     
   35   15   16 1     
   36   16   17 1     
   37   16   21 1     
   38   16   41 1     
   39   17   18 1     
   40   17   42 1     
   41   17   43 1     
   42   18   19 1     
   43   18   20 1     
   44   18   56 1     
   45   19   44 1     
   46   19   45 1     
   47   19   46 1     
   48   20   47 1     
   49   20   48 1     
   50   20   49 1     
   51   21   50 1     
   52   21   51 1     
   53   22   23 ar    
   54   23   24 ar    
   55   23   52 1     
   56   24   25 1     
   57   25   53 1     
   58   25   54 1     
   59   25   55 1     
   60    5   58 1     
   61   10   59 1     
   62   10   60 1     
   63   15   61 1     
   64   15   62 1     
@<TRIPOS>SUBSTRUCTURE
      1 S1             1
@<TRIPOS>SET
LONE_PAIRS      STATIC     ATOMS    <user>   **** ""
5 58 59 60 61 62
DONOR_HYDROGENS      STATIC     ATOMS    <user>   **** ""
3 34 57 56
ATOM$BLUE        STATIC     ATOMS    COLORGROUP SYSTEM
5 58 59 60 61 62
ATOM$RED        STATIC     ATOMS    COLORGROUP SYSTEM
3 34 57 56
