AV-unprocessed.smi:218|AV-procd|sdf|1663|dock6
  -GOLD-   2262020 63D 1   1.00000     0.00000
 Structure written by MMmdl.
 54 57  0  0  0  0  0  0  0  0  1 V2000
  152.6108  143.0601  161.6536 C   0  0  0  0  0  0  0  0  0  0  0  0
  152.6894  142.4849  160.2341 C   0  0  0  0  0  0  0  0  0  0  0  0
  153.3206  143.4942  159.2593 C   0  0  0  0  0  0  0  0  0  0  0  0
  151.3520  142.1771  159.8353 O   0  0  0  0  0  0  0  0  0  0  0  0
  151.1048  141.6536  158.5807 C   0  0  0  0  0  0  0  0  0  0  0  0
  151.2253  140.2602  158.4023 C   0  0  0  0  0  0  0  0  0  0  0  0
  150.9844  139.7139  157.1254 C   0  0  0  0  0  0  0  0  0  0  0  0
  151.0989  138.2233  156.8907 C   0  0  0  0  0  0  0  0  0  0  0  0
  150.1535  137.4528  157.6862 N   0  0  0  0  0  0  0  0  0  0  0  0
  149.6133  136.3227  157.1821 C   0  0  0  0  0  0  0  0  0  0  0  0
  150.0009  135.1016  157.6344 N   0  0  0  0  0  0  0  0  0  0  0  0
  149.4545  133.9958  157.1213 C   0  0  0  0  0  0  0  0  0  0  0  0
  148.5256  133.8901  156.1693 N   0  0  0  0  0  0  0  0  0  0  0  0
  148.1315  135.1129  155.7097 C   0  0  0  0  0  0  0  0  0  0  0  0
  148.6245  136.3679  156.1650 C   0  0  0  0  0  0  0  0  0  0  0  0
  147.9965  137.3979  155.4778 N   0  0  0  0  0  0  0  0  0  0  0  0
  147.1804  136.7829  154.6649 C   0  0  0  0  0  0  0  0  0  0  0  0
  147.1945  135.4076  154.7375 N   0  0  0  0  0  0  0  0  0  0  0  0
  146.3699  134.4505  153.9280 C   0  0  1  0  0  0  0  0  0  0  0  0
  145.6317  135.1614  152.9771 O   0  0  0  0  0  0  0  0  0  0  0  0
  145.9541  134.7177  151.6600 C   0  0  2  0  0  0  0  0  0  0  0  0
  144.7164  134.8650  150.7610 C   0  0  0  0  0  0  0  0  0  0  0  0
  144.8139  136.0269  149.9655 O   0  0  0  0  0  0  0  0  0  0  0  0
  146.4342  133.2800  151.8772 C   0  0  1  0  0  0  0  0  0  0  0  0
  147.2203  132.7737  150.8154 O   0  0  0  0  0  0  0  0  0  0  0  0
  147.2115  133.3970  153.1812 C   0  0  1  0  0  0  0  0  0  0  0  0
  148.5620  133.7865  152.9796 O   0  0  0  0  0  0  0  0  0  0  0  0
  150.6246  140.5813  156.0753 C   0  0  0  0  0  0  0  0  0  0  0  0
  150.5295  141.9592  156.3495 C   0  0  0  0  0  0  0  0  0  0  0  0
  150.7641  142.4896  157.5683 N   0  0  0  0  0  0  0  0  0  0  0  0
  145.6792  134.0060  154.6456 H   0  0  0  0  0  0  0  0  0  0  0  0
  146.7710  135.3365  151.2860 H   0  0  0  0  0  0  0  0  0  0  0  0
  145.5753  132.6242  152.0271 H   0  0  0  0  0  0  0  0  0  0  0  0
  147.2059  132.4614  153.7414 H   0  0  0  0  0  0  0  0  0  0  0  0
  153.6017  143.3150  162.0303 H   0  0  0  0  0  0  0  0  0  0  0  0
  152.1709  142.3385  162.3423 H   0  0  0  0  0  0  0  0  0  0  0  0
  151.9997  143.9627  161.6817 H   0  0  0  0  0  0  0  0  0  0  0  0
  153.3019  141.5833  160.2858 H   0  0  0  0  0  0  0  0  0  0  0  0
  154.3291  143.7619  159.5750 H   0  0  0  0  0  0  0  0  0  0  0  0
  152.7333  144.4113  159.2080 H   0  0  0  0  0  0  0  0  0  0  0  0
  153.3925  143.0918  158.2492 H   0  0  0  0  0  0  0  0  0  0  0  0
  151.4994  139.6239  159.2313 H   0  0  0  0  0  0  0  0  0  0  0  0
  150.9390  138.0152  155.8318 H   0  0  0  0  0  0  0  0  0  0  0  0
  152.1161  137.9093  157.1292 H   0  0  0  0  0  0  0  0  0  0  0  0
  149.9286  137.8240  158.5982 H   0  0  0  0  0  0  0  0  0  0  0  0
  149.8123  133.0630  157.5313 H   0  0  0  0  0  0  0  0  0  0  0  0
  146.5380  137.3217  153.9833 H   0  0  0  0  0  0  0  0  0  0  0  0
  144.5857  133.9901  150.1239 H   0  0  0  0  0  0  0  0  0  0  0  0
  143.8200  134.9528  151.3753 H   0  0  0  0  0  0  0  0  0  0  0  0
  145.1321  135.7808  149.1103 H   0  0  0  0  0  0  0  0  0  0  0  0
  147.6516  131.9880  151.1166 H   0  0  0  0  0  0  0  0  0  0  0  0
  148.5897  134.7251  152.8721 H   0  0  0  0  0  0  0  0  0  0  0  0
  150.4263  140.2033  155.0830 H   0  0  0  0  0  0  0  0  0  0  0  0
  150.2577  142.6545  155.5691 H   0  0  0  0  0  0  0  0  0  0  0  0
  1  2  1  0  0  0  0
  1 35  1  0  0  0  0
  1 36  1  0  0  0  0
  1 37  1  0  0  0  0
  2  3  1  0  0  0  0
  2  4  1  0  0  0  0
  2 38  1  0  0  0  0
  3 39  1  0  0  0  0
  3 40  1  0  0  0  0
  3 41  1  0  0  0  0
  4  5  1  0  0  0  0
  5 30  1  0  0  0  0
  5  6  2  0  0  0  0
  6  7  1  0  0  0  0
  6 42  1  0  0  0  0
  7  8  1  0  0  0  0
  7 28  2  0  0  0  0
  8  9  1  0  0  0  0
  8 43  1  0  0  0  0
  8 44  1  0  0  0  0
  9 10  1  0  0  0  0
  9 45  1  0  0  0  0
 10 15  1  0  0  0  0
 10 11  2  0  0  0  0
 11 12  1  0  0  0  0
 12 13  2  0  0  0  0
 12 46  1  0  0  0  0
 13 14  1  0  0  0  0
 14 18  1  0  0  0  0
 14 15  2  0  0  0  0
 15 16  1  0  0  0  0
 16 17  2  0  0  0  0
 17 18  1  0  0  0  0
 17 47  1  0  0  0  0
 18 19  1  0  0  0  0
 19 31  1  0  0  0  0
 19 26  1  0  0  0  0
 19 20  1  0  0  0  0
 20 21  1  0  0  0  0
 21 32  1  0  0  0  0
 21 22  1  0  0  0  0
 21 24  1  0  0  0  0
 22 23  1  0  0  0  0
 22 48  1  0  0  0  0
 22 49  1  0  0  0  0
 23 50  1  0  0  0  0
 24 33  1  0  0  0  0
 24 25  1  0  0  0  0
 24 26  1  0  0  0  0
 25 51  1  0  0  0  0
 26 34  1  0  0  0  0
 26 27  1  0  0  0  0
 27 52  1  0  0  0  0
 28 29  1  0  0  0  0
 28 53  1  0  0  0  0
 29 30  2  0  0  0  0
 29 54  1  0  0  0  0
M  END
> <s_m_source_file>
AV-unprocessed.smi

> <i_m_source_file_index>
218

> <i_lp_mmshare_version>
43012

> <i_f3d_flags>
0

> <s_epik_input>
W0NIM11bQ0hdKFtDSDNdKU9jMVtjSF1jKFtjSF1bY0hdbjEpW0NIMl1bTkhdYyhuW2NIXW4yKWMoYzIzKW5bY0hdbjNbQ0BASF00T1tDQEhdKFtDSDJdW09IXSlbQ0BASF0oW09IXSlbQ0BIXTRbT0hd

> <s_epik_cmdline>
J2VwaWtfcHl0aG9uJywgJy1waCcsICc3LjAnLCAnLXRuJywgJzgnLCAnLW1hJywgJzIwMCcsICctbWV0YWxfYmluZGluZycsICctaW1hZScsICc8aW5maWxlLm1hZT4nLCAnLW9tYWUnLCAnPG91dGZpbGUubWFlPic=

> <r_lp_tautomer_probability>
1

> <r_epik_Ionization_Penalty>
0.00457014

> <r_epik_Ionization_Penalty_Charging>
0

> <r_epik_Ionization_Penalty_Neutral>
0.00457014

> <r_epik_State_Penalty>
-0

> <r_epik_Charging_Adjusted_Penalty>
0

> <i_epik_Tot_Q>
0

> <i_epik_Tot_abs_Q>
0

> <r_epik_Metal_State_Penalty>
-0

> <b_epik_Metal_Only>
0

> <s_epik_Chemistry_Notes>
This compound contains an acetal/aminal-like group ( X-CH(R)-Y where X, Y are N, S, or O) that may be acid/base labile, releasing an aldehyde.

> <s_lp_Force_Field>
OPLS_2005

> <r_lp_Energy>
45.6959

> <b_lp_Chiralities_Consistent>
1

> <s_lp_Variant>
AV-unprocessed.smi:218-2

> <Gold.Version>
5.8.1

> <Gold.Id.Protein>
6NUR|6NUR_protein|mol2

> <Gold.PLP.Fitness>
50.6382

> <Gold.PLP.PLP>
-40.8138

> <Gold.PLP.part.hbond>
-6.0000

> <Gold.PLP.part.metal>
0.0000

> <Gold.PLP.part.buried>
-6.8943

> <Gold.PLP.part.nonpolar>
-29.0249

> <Gold.PLP.part.repulsive>
0.2941

> <Gold.PLP.ligand.clash>
0.0000

> <Gold.PLP.ligand.torsion>
1.8063

> <Gold.PLP.Chemscore.Hbond>
3.4166

> <Gold.PLP.Chemscore.CHOScore>
0.9798

> <Gold.PLP.Chemscore.Metal>
0.0000

> <Gold.Chemscore.Hbonds>
donor molecule, donor type, donor heavy atom, donor atom, acceptor molecule, acceptor atom, score
      L1  H    23    50       P1  7921  1.00
      L1  H    25    51       P1 10747  0.62
      L1  H    27    52       P1  7948  0.99
      P1  H  6896  6907       L1    11  0.74
      L1  C    29    54       P1  8028  1.00

> <Gold.PLP.Chemscore.Internal.Correction>
0.2477

> <Gold.Rescore>
     Score         DG    S(hbond)    S(metal)    S(lipo)     H(rot)  DE(clash)    DE(int)     intcor
      8.69     -10.57       2.38        0.00      82.81       4.90       0.24       1.65       ----

> <Gold.Chemscore.Fitness>
8.6863

> <Gold.Chemscore.DG>
-10.5708

> <Gold.Chemscore.ZeroCoef>
-5.4800

> <Gold.Chemscore.Hbond>
2.3814

> <Gold.Chemscore.Metal>
0.0000

> <Gold.Chemscore.Lipo>
82.8061

> <Gold.Chemscore.Internal_Hbond>
0.0000

> <Gold.Chemscore.DEClash>
0.2386

> <Gold.Chemscore.DEInternal>
1.6459

> <Gold.Chemscore.Rot>
4.9029

> <Gold.Chemscore.Internal.Correction>
   9.000000E+99

> <Gold.Chemscore.Hbonds>
donor molecule, donor type, donor heavy atom, donor atom, acceptor molecule, acceptor atom, score
      L1  H    23    50       P1  7921  0.94
      L1  H    25    51       P1 10747  0.62
      L1  H    27    52       P1  7948  0.24
      P1  H  6896  6907       L1    11  0.16

> <Gold.Chemscore.Hbond.Weighted>
-7.9540

> <Gold.Chemscore.Metal.Weighted>
-0.0000

> <Gold.Chemscore.Lipo.Weighted>
-9.6883

> <Gold.Chemscore.Internal_Hbond.Weighted>
0.0000

> <Gold.Chemscore.DEClash.Weighted>
0.2386

> <Gold.Chemscore.DEInternal.Weighted>
1.6459

> <Gold.Chemscore.Rot.Weighted>
12.5515

> <Gold.Chemscore.Internal.Correction.Weighted>
   9.000000E+99

> <Gold.Protein.RotatedTorsions>
[ 6907 6896 6895 6894 ] final  -85.52 input  -60.11 | X-H torsion
[ 7974 7965 7964 7962 ] final  -25.03 input  175.53 | X-H torsion
[ 8008 7997 7996 7995 ] final  176.33 input   59.86 | X-H torsion
[ 10167 10162 10161 10158 ] final  -52.73 input  -65.29 | X-H torsion
[ 10718 10713 10712 10709 ] final   -0.64 input   66.30 | X-H torsion
[ 10763 10752 10751 10750 ] final   -2.46 input  -60.55 | X-H torsion
[ 11005 11000 10999 10996 ] final   27.41 input  -57.11 | X-H torsion

> <Gold.Protein.ActiveResidues>
 VAL166  LYS551  ARG553  GLY616  TRP617  ASP618  TYR619  PRO620  LYS621  CYS622 
 ASP623  PHE694  ASN695  SER759  ASP760  ASP761  ALA762  ILE779  LEU786  VAL792 
 PHE793  MET794  SER795  GLU796  ALA797  LYS798  CYS799  TRP800  GLU811  SER814 

> <Gold.Protein.RotatedAtoms>
  150.6870  134.3191  159.4778 H   0  0  0  0  0  0  0  0  0  0  0  0  # atno 6907 bound_to 6896
  152.1069  134.9300  160.0577 H   0  0  0  0  0  0  0  0  0  0  0  0  # atno 6908 bound_to 6896
  152.0557  133.4004  159.4433 H   0  0  0  0  0  0  0  0  0  0  0  0  # atno 6909 bound_to 6896
  146.1517  140.4832  142.8608 H   0  0  0  0  0  0  0  0  0  0  0  0  # atno 7974 bound_to 7965
  156.0776  140.1386  156.9752 H   0  0  0  0  0  0  0  0  0  0  0  0  # atno 8008 bound_to 7997
  154.4567  140.0959  156.6826 H   0  0  0  0  0  0  0  0  0  0  0  0  # atno 8009 bound_to 7997
  155.5127  140.3454  155.4394 H   0  0  0  0  0  0  0  0  0  0  0  0  # atno 8010 bound_to 7997
  140.6522  143.2574  151.4690 H   0  0  0  0  0  0  0  0  0  0  0  0  # atno 10167 bound_to 10162
  156.8174  130.5445  149.5701 H   0  0  0  0  0  0  0  0  0  0  0  0  # atno 10718 bound_to 10713
  153.3584  135.6989  153.6732 H   0  0  0  0  0  0  0  0  0  0  0  0  # atno 10763 bound_to 10752
  153.5431  135.3569  155.2727 H   0  0  0  0  0  0  0  0  0  0  0  0  # atno 10764 bound_to 10752
  154.8664  135.4208  154.2835 H   0  0  0  0  0  0  0  0  0  0  0  0  # atno 10765 bound_to 10752
  140.3266  134.2484  155.7708 H   0  0  0  0  0  0  0  0  0  0  0  0  # atno 11005 bound_to 11000
  144.7912  140.6035  143.6540 LP  0  0  0  0  0  0  0  0  0  0  0  0  # atno 17320 bound_to 7965
  145.4807  139.1495  143.3763 LP  0  0  0  0  0  0  0  0  0  0  0  0  # atno 17321 bound_to 7965
  139.5739  144.1865  152.1875 LP  0  0  0  0  0  0  0  0  0  0  0  0  # atno 17342 bound_to 10162
  140.1170  144.5407  150.6888 LP  0  0  0  0  0  0  0  0  0  0  0  0  # atno 17343 bound_to 10162
  156.1009  130.5968  150.9892 LP  0  0  0  0  0  0  0  0  0  0  0  0  # atno 17370 bound_to 10713
  157.6474  131.0902  150.8123 LP  0  0  0  0  0  0  0  0  0  0  0  0  # atno 17371 bound_to 10713
  141.2074  133.7808  157.0123 LP  0  0  0  0  0  0  0  0  0  0  0  0  # atno 17394 bound_to 11000
  140.0896  134.9600  157.1755 LP  0  0  0  0  0  0  0  0  0  0  0  0  # atno 17395 bound_to 11000

$$$$
