#       Name:                AV-unprocessed.smi:1879
#       Creating user name   scv26
#       Creation time:       Fri Mar 27 09:35:57 2020


#       File generated by GOLD software.
#

@<TRIPOS>MOLECULE
AV-unprocessed.smi:1879
    52    54     1
SMALL
NO_CHARGES


@<TRIPOS>ATOM
      1 ****         0.5208   2.4340   0.6042 O.2            1 S1                 0.0000
      2 ****         0.1738   1.2530   0.6127 C.2            1 S1                 0.0000
      3 ****         1.0086   0.2004   0.5958 N.am           1 S1                 0.0000
      4 ****         2.4324   0.2020   0.5626 C.ar           1 S1                 0.0000
      5 ****         3.1854   1.2448   1.1619 C.ar           1 S1                 0.0000
      6 ****         4.5911   1.2261   1.0937 C.ar           1 S1                 0.0000
      7 ****         5.2258   0.1624   0.4306 C.ar           1 S1                 0.0000
      8 ****         4.4834  -0.8248  -0.1112 N.pl3          1 S1                 1.0000
      9 ****         3.1285  -0.8715  -0.0660 C.ar           1 S1                 0.0000
     10 ****         2.4866  -1.9800  -0.6643 N.3            1 S1                 0.0000
     11 ****         3.2445  -2.9170  -1.4857 C.3            1 S1                 0.0000
     12 ****         2.3364  -4.1339  -1.6388 C.3            1 S1                 0.0000
     13 ****         1.6279  -4.1851  -0.2889 C.3            1 S1                 0.0000
     14 ****         1.4801  -2.7102   0.1000 C.3            1 S1                 0.0000
     15 ****        -1.1060   0.8546   0.6183 N.am           1 S1                 0.0000
     16 ****        -2.2666   1.7400   0.6249 C.3            1 S1                 0.0000
     17 ****        -3.4717   0.9974   1.2306 C.3            1 S1                 0.0000
     18 ****        -4.7435   1.8630   1.2067 C.3            1 S1                 0.0000
     19 ****        -5.0665   2.3847  -0.2058 C.3            1 S1                 0.0000
     20 ****        -5.4827   1.3156  -1.0323 O.3            1 S1                 0.0000
     21 ****        -3.8549   3.0976  -0.8347 C.3            1 S1                 0.0000
     22 ****        -2.5853   2.2285  -0.8030 C.3            1 S1                 0.0000
     23 ****         0.5730  -0.7054   0.5038 H              1 S1                 0.0000
     24 ****         2.7067   2.0606   1.6817 H              1 S1                 0.0000
     25 ****         5.1724   2.0180   1.5430 H              1 S1                 0.0000
     26 ****         6.2967   0.0659   0.3254 H              1 S1                 0.0000
     27 ****         3.5042  -2.4820  -2.4512 H              1 S1                 0.0000
     28 ****         4.1657  -3.2108  -0.9806 H              1 S1                 0.0000
     29 ****         1.6097  -3.9619  -2.4343 H              1 S1                 0.0000
     30 ****         2.8844  -5.0477  -1.8699 H              1 S1                 0.0000
     31 ****         0.6738  -4.7114  -0.3281 H              1 S1                 0.0000
     32 ****         2.2627  -4.6944   0.4372 H              1 S1                 0.0000
     33 ****         1.5977  -2.5707   1.1756 H              1 S1                 0.0000
     34 ****         0.4922  -2.3474  -0.1853 H              1 S1                 0.0000
     35 ****        -1.2969  -0.1367   0.6182 H              1 S1                 0.0000
     36 ****        -2.0504   2.6055   1.2546 H              1 S1                 0.0000
     37 ****        -3.6523   0.0732   0.6795 H              1 S1                 0.0000
     38 ****        -3.2508   0.7030   2.2573 H              1 S1                 0.0000
     39 ****        -5.5882   1.2991   1.6042 H              1 S1                 0.0000
     40 ****        -4.6047   2.7131   1.8759 H              1 S1                 0.0000
     41 ****        -5.9012   3.0840  -0.1455 H              1 S1                 0.0000
     42 ****        -5.7130   1.6634  -1.8802 H              1 S1                 0.0000
     43 ****        -4.0802   3.3949  -1.8597 H              1 S1                 0.0000
     44 ****        -3.6630   4.0209  -0.2866 H              1 S1                 0.0000
     45 ****        -1.7468   2.8006  -1.2017 H              1 S1                 0.0000
     46 ****        -2.7143   1.3721  -1.4664 H              1 S1                 0.0000
     47 ****         4.9737  -1.5889  -0.5762 H              1 S1                 0.0000
     48 ****         1.4925   2.6695   0.5832 LP             1 S1                 0.0000
     49 ****        -0.1689   3.1579   0.6183 LP             1 S1                 0.0000
     50 ****         2.0108  -1.3793  -1.3068 LP             1 S1                 0.0000
     51 ****        -6.2772   0.8647  -0.6257 LP             1 S1                 0.0000
     52 ****        -4.7382   0.6552  -1.1297 LP             1 S1                 0.0000
@<TRIPOS>BOND
    1    1    2 2     
    2    2    3 am    
    3    2   15 am    
    4    3    4 1     
    5    3   23 1     
    6    4    9 ar    
    7    4    5 ar    
    8    5    6 ar    
    9    5   24 1     
   10    6    7 ar    
   11    6   25 1     
   12    7    8 ar    
   13    7   26 1     
   14    8    9 ar    
   15    8   47 1     
   16    9   10 1     
   17   10   14 1     
   18   10   11 1     
   19   11   12 1     
   20   11   27 1     
   21   11   28 1     
   22   12   13 1     
   23   12   29 1     
   24   12   30 1     
   25   13   14 1     
   26   13   31 1     
   27   13   32 1     
   28   14   33 1     
   29   14   34 1     
   30   15   16 1     
   31   15   35 1     
   32   16   22 1     
   33   16   17 1     
   34   16   36 1     
   35   17   18 1     
   36   17   37 1     
   37   17   38 1     
   38   18   19 1     
   39   18   39 1     
   40   18   40 1     
   41   19   20 1     
   42   19   21 1     
   43   19   41 1     
   44   20   42 1     
   45   21   22 1     
   46   21   43 1     
   47   21   44 1     
   48   22   45 1     
   49   22   46 1     
   50    1   48 1     
   51    1   49 1     
   52   10   50 1     
   53   20   51 1     
   54   20   52 1     
@<TRIPOS>SUBSTRUCTURE
      1 S1             1
@<TRIPOS>SET
LONE_PAIRS      STATIC     ATOMS    <user>   **** ""
5 48 49 50 51 52
DONOR_HYDROGENS      STATIC     ATOMS    <user>   **** ""
4 23 47 35 42
ATOM$BLUE        STATIC     ATOMS    COLORGROUP SYSTEM
5 48 49 50 51 52
ATOM$RED        STATIC     ATOMS    COLORGROUP SYSTEM
4 23 47 35 42
