#       Name:                AV-unprocessed.smi:1138
#       Creating user name   scv26
#       Creation time:       Fri Mar 27 03:43:50 2020


#       File generated by GOLD software.
#

@<TRIPOS>MOLECULE
AV-unprocessed.smi:1138
    54    56     1
SMALL
NO_CHARGES


@<TRIPOS>ATOM
      1 ****        -7.2574  -0.5127  -2.9715 C.3            1 S1                 0.0000
      2 ****        -6.6070   0.4382  -2.0791 N.pl3          1 S1                 0.0000
      3 ****        -7.3951   1.4392  -1.3691 C.3            1 S1                 0.0000
      4 ****        -5.2108   0.3732  -1.8806 C.ar           1 S1                 0.0000
      5 ****        -4.3724  -0.5406  -2.5652 C.ar           1 S1                 0.0000
      6 ****        -2.9848  -0.5421  -2.3156 C.ar           1 S1                 0.0000
      7 ****        -2.4382   0.3593  -1.3788 C.ar           1 S1                 0.0000
      8 ****        -1.0319   0.3317  -1.1755 N.am           1 S1                 0.0000
      9 ****        -0.3224   0.8337  -0.1502 C.2            1 S1                 0.0000
     10 ****        -0.7982   1.3882   0.8403 O.2            1 S1                 0.0000
     11 ****         0.9912   0.6353  -0.3291 N.am           1 S1                 0.0000
     12 ****         2.0420   1.0416   0.5992 C.3            1 S1                 0.0000
     13 ****         3.3623   1.2452  -0.1754 C.3            1 S1                 0.0000
     14 ****         4.5464   1.4700   0.7818 C.3            1 S1                 0.0000
     15 ****         4.6245   0.3354   1.7096 N.am           1 S1                 0.0000
     16 ****         5.5836  -0.6191   1.6127 C.2            1 S1                 0.0000
     17 ****         6.4808  -0.5680   0.7701 O.2            1 S1                 0.0000
     18 ****         5.5269  -1.7439   2.5984 C.3            1 S1                 0.0000
     19 ****         6.2227  -3.0440   2.2380 C.3            1 S1                 0.0000
     20 ****         4.7191  -2.9639   2.2066 C.3            1 S1                 0.0000
     21 ****         3.4469   0.2857   2.5875 C.3            1 S1                 0.0000
     22 ****         2.2027  -0.0028   1.7286 C.3            1 S1                 0.0000
     23 ****        -3.3149   1.2584  -0.7265 C.ar           1 S1                 0.0000
     24 ****        -4.6378   1.2273  -0.9976 N.pl3          1 S1                 1.0000
     25 ****        -6.8943  -0.3900  -3.9925 H              1 S1                 0.0000
     26 ****        -8.3382  -0.3703  -2.9828 H              1 S1                 0.0000
     27 ****        -7.0608  -1.5363  -2.6507 H              1 S1                 0.0000
     28 ****        -7.0231   2.4424  -1.5800 H              1 S1                 0.0000
     29 ****        -7.3485   1.2698  -0.2930 H              1 S1                 0.0000
     30 ****        -8.4427   1.4048  -1.6692 H              1 S1                 0.0000
     31 ****        -4.7700  -1.2408  -3.2845 H              1 S1                 0.0000
     32 ****        -2.3465  -1.2371  -2.8418 H              1 S1                 0.0000
     33 ****        -0.5022  -0.1648  -1.8771 H              1 S1                 0.0000
     34 ****         1.2909   0.1671  -1.1718 H              1 S1                 0.0000
     35 ****         1.7739   1.9988   1.0507 H              1 S1                 0.0000
     36 ****         3.5684   0.3703  -0.7943 H              1 S1                 0.0000
     37 ****         3.2700   2.0910  -0.8577 H              1 S1                 0.0000
     38 ****         5.4650   1.6144   0.2115 H              1 S1                 0.0000
     39 ****         4.4031   2.3923   1.3467 H              1 S1                 0.0000
     40 ****         5.5608  -1.4659   3.6503 H              1 S1                 0.0000
     41 ****         6.7325  -3.1250   1.2795 H              1 S1                 0.0000
     42 ****         6.6871  -3.5967   3.0522 H              1 S1                 0.0000
     43 ****         4.1606  -3.4594   2.9979 H              1 S1                 0.0000
     44 ****         4.2373  -2.9677   1.2302 H              1 S1                 0.0000
     45 ****         3.5206  -0.4511   3.3858 H              1 S1                 0.0000
     46 ****         3.3347   1.2462   3.0924 H              1 S1                 0.0000
     47 ****         1.3134  -0.0152   2.3598 H              1 S1                 0.0000
     48 ****         2.2903  -1.0022   1.2994 H              1 S1                 0.0000
     49 ****        -3.0182   2.0097  -0.0104 H              1 S1                 0.0000
     50 ****        -5.2405   1.8899  -0.5094 H              1 S1                 0.0000
     51 ****        -1.7889   1.4935   0.9268 LP             1 S1                 0.0000
     52 ****        -0.1941   1.7335   1.5585 LP             1 S1                 0.0000
     53 ****         6.5194   0.1965   0.1266 LP             1 S1                 0.0000
     54 ****         7.1704  -1.2910   0.7296 LP             1 S1                 0.0000
@<TRIPOS>BOND
    1    1    2 1     
    2    1   25 1     
    3    1   26 1     
    4    1   27 1     
    5    2    3 1     
    6    2    4 1     
    7    3   28 1     
    8    3   29 1     
    9    3   30 1     
   10    4   24 ar    
   11    4    5 ar    
   12    5    6 ar    
   13    5   31 1     
   14    6    7 ar    
   15    6   32 1     
   16    7    8 1     
   17    7   23 ar    
   18    8    9 am    
   19    8   33 1     
   20    9   10 2     
   21    9   11 am    
   22   11   12 1     
   23   11   34 1     
   24   12   22 1     
   25   12   13 1     
   26   12   35 1     
   27   13   14 1     
   28   13   36 1     
   29   13   37 1     
   30   14   15 1     
   31   14   38 1     
   32   14   39 1     
   33   15   16 am    
   34   15   21 1     
   35   16   17 2     
   36   16   18 1     
   37   18   20 1     
   38   18   19 1     
   39   18   40 1     
   40   19   20 1     
   41   19   41 1     
   42   19   42 1     
   43   20   43 1     
   44   20   44 1     
   45   21   22 1     
   46   21   45 1     
   47   21   46 1     
   48   22   47 1     
   49   22   48 1     
   50   23   24 ar    
   51   23   49 1     
   52   24   50 1     
   53   10   51 1     
   54   10   52 1     
   55   17   53 1     
   56   17   54 1     
@<TRIPOS>SUBSTRUCTURE
      1 S1             1
@<TRIPOS>SET
LONE_PAIRS      STATIC     ATOMS    <user>   **** ""
4 51 52 53 54
DONOR_HYDROGENS      STATIC     ATOMS    <user>   **** ""
3 33 34 50
ATOM$BLUE        STATIC     ATOMS    COLORGROUP SYSTEM
4 51 52 53 54
ATOM$RED        STATIC     ATOMS    COLORGROUP SYSTEM
3 33 34 50
