#       Name:                AV-unprocessed.smi:2224
#       Creating user name   scv26
#       Creation time:       Fri Mar 27 12:20:26 2020


#       File generated by GOLD software.
#

@<TRIPOS>MOLECULE
AV-unprocessed.smi:2224
    49    51     1
SMALL
NO_CHARGES


@<TRIPOS>ATOM
      1 ****        -5.1798   3.5991  -0.2027 C.3            1 S1                 0.0000
      2 ****        -4.5294   2.2351  -0.1062 C.ar           1 S1                 0.0000
      3 ****        -5.3045   1.0597  -0.1233 C.ar           1 S1                 0.0000
      4 ****        -4.6375  -0.1776  -0.0283 C.ar           1 S1                 0.0000
      5 ****        -5.4074  -1.4816  -0.0441 C.3            1 S1                 0.0000
      6 ****        -3.2957  -0.2853   0.0790 N.ar           1 S1                 0.0000
      7 ****        -2.5398   0.8404   0.0980 C.ar           1 S1                 0.0000
      8 ****        -1.1242   0.8375   0.2078 N.am           1 S1                 0.0000
      9 ****        -0.3071  -0.2120   0.4041 C.2            1 S1                 0.0000
     10 ****        -0.6660  -1.3832   0.5300 O.2            1 S1                 0.0000
     11 ****         0.9740   0.1770   0.4553 N.am           1 S1                 0.0000
     12 ****         2.1026  -0.7186   0.6794 C.3            1 S1                 0.0000
     13 ****         3.4425   0.0175   0.6555 C.3            1 S1                 0.0000
     14 ****         4.4907   0.3147   1.6676 C.3            1 S1                 0.0000
     15 ****         5.7262  -0.0881   0.8183 C.3            1 S1                 0.0000
     16 ****         5.2017  -0.7612  -0.3526 O.3            1 S1                 0.0000
     17 ****         3.9662  -1.2869   0.0874 C.3            1 S1                 0.0000
     18 ****         2.6072  -1.4467  -0.6237 C.3            1 S1                 0.0000
     19 ****         2.1282  -2.8888  -0.7935 C.3            1 S1                 0.0000
     20 ****         2.4296  -0.7665  -1.9966 C.3            1 S1                 0.0000
     21 ****        -3.1291   2.1210   0.0033 C.ar           1 S1                 0.0000
     22 ****        -6.2671   3.5202  -0.2279 H              1 S1                 0.0000
     23 ****        -4.8531   4.1094  -1.1089 H              1 S1                 0.0000
     24 ****        -4.9028   4.2116   0.6558 H              1 S1                 0.0000
     25 ****        -6.3807   1.1052  -0.2070 H              1 S1                 0.0000
     26 ****        -6.4836  -1.3063  -0.0461 H              1 S1                 0.0000
     27 ****        -5.1621  -2.0790   0.8346 H              1 S1                 0.0000
     28 ****        -5.1541  -2.0582  -0.9340 H              1 S1                 0.0000
     29 ****        -0.6830   1.7426   0.1434 H              1 S1                 0.0000
     30 ****         1.1834   1.1576   0.3399 H              1 S1                 0.0000
     31 ****         1.9885  -1.3752   1.5469 H              1 S1                 0.0000
     32 ****         3.4180   0.8253  -0.0797 H              1 S1                 0.0000
     33 ****         4.5100   1.3640   1.9634 H              1 S1                 0.0000
     34 ****         4.3863  -0.3061   2.5586 H              1 S1                 0.0000
     35 ****         6.3089   0.7801   0.5092 H              1 S1                 0.0000
     36 ****         6.3827  -0.7544   1.3794 H              1 S1                 0.0000
     37 ****         4.1260  -2.0653   0.8425 H              1 S1                 0.0000
     38 ****         2.7271  -3.4253  -1.5300 H              1 S1                 0.0000
     39 ****         1.0882  -2.9313  -1.1188 H              1 S1                 0.0000
     40 ****         2.1934  -3.4452   0.1421 H              1 S1                 0.0000
     41 ****         3.0204  -1.2698  -2.7625 H              1 S1                 0.0000
     42 ****         2.7303   0.2793  -2.0111 H              1 S1                 0.0000
     43 ****         1.3891  -0.7967  -2.3215 H              1 S1                 0.0000
     44 ****        -2.5157   3.0106   0.0183 H              1 S1                 0.0000
     45 ****        -2.8643  -1.1851   0.1437 LP             1 S1                 0.0000
     46 ****        -1.6377  -1.6155   0.4889 LP             1 S1                 0.0000
     47 ****         0.0143  -2.1019   0.6733 LP             1 S1                 0.0000
     48 ****         5.8157  -1.4932  -0.6479 LP             1 S1                 0.0000
     49 ****         5.0670  -0.1157  -1.1044 LP             1 S1                 0.0000
@<TRIPOS>BOND
    1    1    2 1     
    2    1   22 1     
    3    1   23 1     
    4    1   24 1     
    5    2   21 ar    
    6    2    3 ar    
    7    3    4 ar    
    8    3   25 1     
    9    4    5 1     
   10    4    6 ar    
   11    5   26 1     
   12    5   27 1     
   13    5   28 1     
   14    6    7 ar    
   15    7    8 1     
   16    7   21 ar    
   17    8    9 am    
   18    8   29 1     
   19    9   10 2     
   20    9   11 am    
   21   11   12 1     
   22   11   30 1     
   23   12   18 1     
   24   12   13 1     
   25   12   31 1     
   26   13   17 1     
   27   13   14 1     
   28   13   32 1     
   29   14   15 1     
   30   14   33 1     
   31   14   34 1     
   32   15   16 1     
   33   15   35 1     
   34   15   36 1     
   35   16   17 1     
   36   17   18 1     
   37   17   37 1     
   38   18   19 1     
   39   18   20 1     
   40   19   38 1     
   41   19   39 1     
   42   19   40 1     
   43   20   41 1     
   44   20   42 1     
   45   20   43 1     
   46   21   44 1     
   47    6   45 1     
   48   10   46 1     
   49   10   47 1     
   50   16   48 1     
   51   16   49 1     
@<TRIPOS>SUBSTRUCTURE
      1 S1             1
@<TRIPOS>SET
LONE_PAIRS      STATIC     ATOMS    <user>   **** ""
5 45 46 47 48 49
DONOR_HYDROGENS      STATIC     ATOMS    <user>   **** ""
2 29 30
ATOM$BLUE        STATIC     ATOMS    COLORGROUP SYSTEM
5 45 46 47 48 49
ATOM$RED        STATIC     ATOMS    COLORGROUP SYSTEM
2 29 30
