AV-unprocessed.smi:224|AV-procd|sdf|1714|dock6
  -GOLD-   2262020183D 1   1.00000     0.00000
 Structure written by MMmdl.
 56 59  0  0  0  0  0  0  0  0  2 V2000
  144.3988  132.1673  149.6235 C   0  0  0  0  0  0  0  0  0  0  0  0
  145.5832  132.6783  150.4537 C   0  0  1  0  0  0  0  0  0  0  0  0
  145.4842  134.0867  150.5275 O   0  0  0  0  0  0  0  0  0  0  0  0
  145.5788  132.0838  151.8777 C   0  0  0  0  0  0  0  0  0  0  0  0
  146.9246  132.0209  152.5121 N   0  3  1  0  0  0  0  0  0  0  0  0
  147.5932  133.3496  152.5373 C   0  0  0  0  0  0  0  0  0  0  0  0
  149.0412  133.2368  153.0472 C   0  0  0  0  0  0  0  0  0  0  0  0
  149.0873  132.5444  154.3291 N   0  0  0  0  0  0  0  0  0  0  0  0
  149.1411  133.2269  155.5073 C   0  0  0  0  0  0  0  0  0  0  0  0
  148.8901  132.5249  156.6436 N   0  0  0  0  0  0  0  0  0  0  0  0
  148.9293  133.1183  157.8389 C   0  0  0  0  0  0  0  0  0  0  0  0
  149.1935  134.3921  158.1262 N   0  0  0  0  0  0  0  0  0  0  0  0
  149.4431  135.1123  156.9965 C   0  0  0  0  0  0  0  0  0  0  0  0
  149.4426  134.6164  155.6589 C   0  0  0  0  0  0  0  0  0  0  0  0
  149.7366  135.6585  154.7852 N   0  0  0  0  0  0  0  0  0  0  0  0
  149.9123  136.6959  155.5553 C   0  0  0  0  0  0  0  0  0  0  0  0
  149.7431  136.4601  156.8993 N   0  0  0  0  0  0  0  0  0  0  0  0
  149.8740  137.4315  157.9755 C   0  0  0  0  0  0  0  0  0  0  0  0
  151.3236  137.9271  158.1905 C   0  0  2  0  0  0  0  0  0  0  0  0
  152.0516  136.9340  158.8931 O   0  0  0  0  0  0  0  0  0  0  0  0
  151.3948  139.2246  158.9854 C   0  0  0  0  0  0  0  0  0  0  0  0
  152.6846  139.8562  158.4793 C   0  0  0  0  0  0  0  0  0  0  0  0
  152.6581  139.5657  157.0918 O   0  0  0  0  0  0  0  0  0  0  0  0
  152.0916  138.2726  156.8978 C   0  0  0  0  0  0  0  0  0  0  0  0
  148.4627  131.2220  154.3133 C   0  0  0  0  0  0  0  0  0  0  0  0
  147.0005  131.2979  153.8217 C   0  0  1  0  0  0  0  0  0  0  0  0
  146.0616  131.8764  154.9017 C   0  0  0  0  0  0  0  0  0  0  0  0
  144.4348  131.0826  149.5171 H   0  0  0  0  0  0  0  0  0  0  0  0
  144.4071  132.5959  148.6206 H   0  0  0  0  0  0  0  0  0  0  0  0
  143.4456  132.4241  150.0872 H   0  0  0  0  0  0  0  0  0  0  0  0
  146.4982  132.4187  149.9227 H   0  0  0  0  0  0  0  0  0  0  0  0
  144.7673  134.3154  151.0984 H   0  0  0  0  0  0  0  0  0  0  0  0
  144.9287  132.6991  152.5016 H   0  0  0  0  0  0  0  0  0  0  0  0
  145.1263  131.0920  151.8741 H   0  0  0  0  0  0  0  0  0  0  0  0
  147.6037  133.7757  151.5337 H   0  0  0  0  0  0  0  0  0  0  0  0
  147.0166  134.0345  153.1587 H   0  0  0  0  0  0  0  0  0  0  0  0
  149.6255  132.6523  152.3359 H   0  0  0  0  0  0  0  0  0  0  0  0
  149.5300  134.2090  153.0910 H   0  0  0  0  0  0  0  0  0  0  0  0
  148.7205  132.4812  158.6858 H   0  0  0  0  0  0  0  0  0  0  0  0
  150.1646  137.6699  155.1614 H   0  0  0  0  0  0  0  0  0  0  0  0
  149.2179  138.2752  157.7575 H   0  0  0  0  0  0  0  0  0  0  0  0
  149.4914  136.9782  158.8910 H   0  0  0  0  0  0  0  0  0  0  0  0
  152.5848  136.4604  158.2729 H   0  0  0  0  0  0  0  0  0  0  0  0
  150.5573  139.8740  158.7264 H   0  0  0  0  0  0  0  0  0  0  0  0
  151.3811  139.0803  160.0666 H   0  0  0  0  0  0  0  0  0  0  0  0
  152.7323  140.9293  158.6657 H   0  0  0  0  0  0  0  0  0  0  0  0
  153.5570  139.3863  158.9360 H   0  0  0  0  0  0  0  0  0  0  0  0
  152.8742  137.5463  156.6726 H   0  0  0  0  0  0  0  0  0  0  0  0
  151.4351  138.3239  156.0303 H   0  0  0  0  0  0  0  0  0  0  0  0
  149.0394  130.5960  153.6313 H   0  0  0  0  0  0  0  0  0  0  0  0
  148.5068  130.7192  155.2793 H   0  0  0  0  0  0  0  0  0  0  0  0
  146.6946  130.2663  153.6541 H   0  0  0  0  0  0  0  0  0  0  0  0
  146.1901  131.3463  155.8457 H   0  0  0  0  0  0  0  0  0  0  0  0
  145.0125  131.7738  154.6253 H   0  0  0  0  0  0  0  0  0  0  0  0
  146.2556  132.9312  155.0951 H   0  0  0  0  0  0  0  0  0  0  0  0
  147.4849  131.4701  151.8778 H   0  0  0  0  0  0  0  0  0  0  0  0
  1  2  1  0  0  0  0
  1 28  1  0  0  0  0
  1 29  1  0  0  0  0
  1 30  1  0  0  0  0
  2  3  1  0  0  0  0
  2  4  1  0  0  0  0
  2 31  1  0  0  0  0
  3 32  1  0  0  0  0
  4  5  1  0  0  0  0
  4 33  1  0  0  0  0
  4 34  1  0  0  0  0
  5 26  1  0  0  0  0
  5  6  1  0  0  0  0
  5 56  1  0  0  0  0
  6  7  1  0  0  0  0
  6 35  1  0  0  0  0
  6 36  1  0  0  0  0
  7  8  1  0  0  0  0
  7 37  1  0  0  0  0
  7 38  1  0  0  0  0
  8  9  1  0  0  0  0
  8 25  1  0  0  0  0
  9 14  1  0  0  0  0
  9 10  2  0  0  0  0
 10 11  1  0  0  0  0
 11 12  2  0  0  0  0
 11 39  1  0  0  0  0
 12 13  1  0  0  0  0
 13 17  1  0  0  0  0
 13 14  2  0  0  0  0
 14 15  1  0  0  0  0
 15 16  2  0  0  0  0
 16 17  1  0  0  0  0
 16 40  1  0  0  0  0
 17 18  1  0  0  0  0
 18 19  1  0  0  0  0
 18 41  1  0  0  0  0
 18 42  1  0  0  0  0
 19 24  1  0  0  0  0
 19 20  1  0  0  0  0
 19 21  1  0  0  0  0
 20 43  1  0  0  0  0
 21 22  1  0  0  0  0
 21 44  1  0  0  0  0
 21 45  1  0  0  0  0
 22 23  1  0  0  0  0
 22 46  1  0  0  0  0
 22 47  1  0  0  0  0
 23 24  1  0  0  0  0
 24 48  1  0  0  0  0
 24 49  1  0  0  0  0
 25 26  1  0  0  0  0
 25 50  1  0  0  0  0
 25 51  1  0  0  0  0
 26 27  1  0  0  0  0
 26 52  1  0  0  0  0
 27 53  1  0  0  0  0
 27 54  1  0  0  0  0
 27 55  1  0  0  0  0
M  CHG  1   5   1
M  END
> <s_m_source_file>
AV-unprocessed.smi

> <i_m_source_file_index>
224

> <i_lp_mmshare_version>
43012

> <i_f3d_flags>
0

> <s_epik_input>
W0NIM11bQ0BIXShbT0hdKVtDSDJdTjFbQ0gyXVtDSDJdTihbQ0gyXVtDQEhdMVtDSDNdKWMobltjSF1uMiljKGMyMyluW2NIXW4zW0NIMl1bQ0BAXTQoW09IXSlbQ0gyXVtDSDJdT1tDSDJdNA==

> <s_epik_cmdline>
J2VwaWtfcHl0aG9uJywgJy1waCcsICc3LjAnLCAnLXRuJywgJzgnLCAnLW1hJywgJzIwMCcsICctbWV0YWxfYmluZGluZycsICctaW1hZScsICc8aW5maWxlLm1hZT4nLCAnLW9tYWUnLCAnPG91dGZpbGUubWFlPic=

> <r_lp_tautomer_probability>
1

> <r_epik_Ionization_Penalty>
0.00516958

> <r_epik_Ionization_Penalty_Charging>
0.00509693

> <r_epik_Ionization_Penalty_Neutral>
7.26542e-05

> <r_epik_State_Penalty>
-0

> <r_epik_Charging_Adjusted_Penalty>
0.00509693

> <i_epik_Tot_Q>
1

> <i_epik_Tot_abs_Q>
1

> <r_epik_Metal_State_Penalty>
-0

> <b_epik_Metal_Only>
0

> <s_lp_Force_Field>
OPLS_2005

> <r_lp_Energy>
50.9618

> <b_lp_Chiralities_Consistent>
1

> <s_lp_Variant>
AV-unprocessed.smi:224-8

> <Gold.Version>
5.8.1

> <Gold.Id.Protein>
6NUR|6NUR_protein|mol2

> <Gold.PLP.Fitness>
45.9431

> <Gold.PLP.PLP>
-35.8384

> <Gold.PLP.part.hbond>
-4.5399

> <Gold.PLP.part.metal>
0.0000

> <Gold.PLP.part.buried>
-5.8932

> <Gold.PLP.part.nonpolar>
-25.7279

> <Gold.PLP.part.repulsive>
0.1755

> <Gold.PLP.ligand.clash>
0.0000

> <Gold.PLP.ligand.torsion>
0.6946

> <Gold.PLP.Chemscore.Hbond>
3.7520

> <Gold.PLP.Chemscore.CHOScore>
0.0000

> <Gold.PLP.Chemscore.Metal>
0.0000

> <Gold.Chemscore.Hbonds>
donor molecule, donor type, donor heavy atom, donor atom, acceptor molecule, acceptor atom, score
      L1  H     5    56       P1 10747  0.39
      P1  H  6896  6908       L1    12  0.65
      P1  H  6896  6909       L1    20  0.38
      P1  H  7997  8009       L1    23  0.85

> <Gold.PLP.Chemscore.Internal.Correction>
0.2379

> <Gold.Rescore>
     Score         DG    S(hbond)    S(metal)    S(lipo)     H(rot)  DE(clash)    DE(int)     intcor
     14.05     -15.57       2.54        0.00      79.96       3.02       0.13       1.39       ----

> <Gold.Chemscore.Fitness>
14.0487

> <Gold.Chemscore.DG>
-15.5698

> <Gold.Chemscore.ZeroCoef>
-5.4800

> <Gold.Chemscore.Hbond>
2.5370

> <Gold.Chemscore.Metal>
0.0000

> <Gold.Chemscore.Lipo>
79.9611

> <Gold.Chemscore.Internal_Hbond>
0.0000

> <Gold.Chemscore.DEClash>
0.1283

> <Gold.Chemscore.DEInternal>
1.3928

> <Gold.Chemscore.Rot>
3.0231

> <Gold.Chemscore.Internal.Correction>
   9.000000E+99

> <Gold.Chemscore.Hbonds>
donor molecule, donor type, donor heavy atom, donor atom, acceptor molecule, acceptor atom, score
      L1  H     5    56       P1 10747  0.39
      P1  H  6896  6908       L1    12  0.05
      P1  H  6896  6909       L1    20  0.02
      P1  H  7997  8009       L1    23  0.15

> <Gold.Chemscore.Hbond.Weighted>
-8.4735

> <Gold.Chemscore.Metal.Weighted>
-0.0000

> <Gold.Chemscore.Lipo.Weighted>
-9.3554

> <Gold.Chemscore.Internal_Hbond.Weighted>
0.0000

> <Gold.Chemscore.DEClash.Weighted>
0.1283

> <Gold.Chemscore.DEInternal.Weighted>
1.3928

> <Gold.Chemscore.Rot.Weighted>
7.7391

> <Gold.Chemscore.Internal.Correction.Weighted>
   9.000000E+99

> <Gold.Protein.RotatedTorsions>
[ 6907 6896 6895 6894 ] final  128.16 input  -60.11 | X-H torsion
[ 7974 7965 7964 7962 ] final   26.03 input  175.53 | X-H torsion
[ 8008 7997 7996 7995 ] final  173.84 input   59.86 | X-H torsion
[ 10167 10162 10161 10158 ] final -122.33 input  -65.29 | X-H torsion
[ 10718 10713 10712 10709 ] final  -45.18 input   66.30 | X-H torsion
[ 10763 10752 10751 10750 ] final -134.78 input  -60.55 | X-H torsion
[ 11005 11000 10999 10996 ] final  113.65 input  -57.11 | X-H torsion

> <Gold.Protein.ActiveResidues>
 VAL166  LYS551  ARG553  GLY616  TRP617  ASP618  TYR619  PRO620  LYS621  CYS622 
 ASP623  PHE694  ASN695  SER759  ASP760  ASP761  ALA762  ILE779  LEU786  VAL792 
 PHE793  MET794  SER795  GLU796  ALA797  LYS798  CYS799  TRP800  GLU811  SER814 

> <Gold.Protein.RotatedAtoms>
  152.3745  133.6463  159.6112 H   0  0  0  0  0  0  0  0  0  0  0  0  # atno 6907 bound_to 6896
  150.7693  133.9216  159.3408 H   0  0  0  0  0  0  0  0  0  0  0  0  # atno 6908 bound_to 6896
  151.7032  135.0927  160.0306 H   0  0  0  0  0  0  0  0  0  0  0  0  # atno 6909 bound_to 6896
  146.1858  139.7384  142.8867 H   0  0  0  0  0  0  0  0  0  0  0  0  # atno 7974 bound_to 7965
  156.1034  140.1449  156.9436 H   0  0  0  0  0  0  0  0  0  0  0  0  # atno 8008 bound_to 7997
  154.4718  140.0907  156.7208 H   0  0  0  0  0  0  0  0  0  0  0  0  # atno 8009 bound_to 7997
  155.4720  140.3442  155.4329 H   0  0  0  0  0  0  0  0  0  0  0  0  # atno 8010 bound_to 7997
  140.0154  143.5399  152.2245 H   0  0  0  0  0  0  0  0  0  0  0  0  # atno 10167 bound_to 10162
  156.2309  130.4172  149.8875 H   0  0  0  0  0  0  0  0  0  0  0  0  # atno 10718 bound_to 10713
  154.8714  135.3724  154.4791 H   0  0  0  0  0  0  0  0  0  0  0  0  # atno 10763 bound_to 10752
  153.5445  135.7026  153.5625 H   0  0  0  0  0  0  0  0  0  0  0  0  # atno 10764 bound_to 10752
  153.3772  135.4006  155.1795 H   0  0  0  0  0  0  0  0  0  0  0  0  # atno 10765 bound_to 10752
  139.8959  134.9554  156.6772 H   0  0  0  0  0  0  0  0  0  0  0  0  # atno 11005 bound_to 11000
  145.3942  141.0376  143.3107 LP  0  0  0  0  0  0  0  0  0  0  0  0  # atno 17320 bound_to 7965
  144.8395  139.5495  143.6907 LP  0  0  0  0  0  0  0  0  0  0  0  0  # atno 17321 bound_to 7965
  139.6176  144.7622  151.2811 LP  0  0  0  0  0  0  0  0  0  0  0  0  # atno 17342 bound_to 10162
  140.7364  143.6707  150.8084 LP  0  0  0  0  0  0  0  0  0  0  0  0  # atno 17343 bound_to 10162
  156.6490  130.8736  151.3528 LP  0  0  0  0  0  0  0  0  0  0  0  0  # atno 17370 bound_to 10713
  157.7133  130.9466  150.1164 LP  0  0  0  0  0  0  0  0  0  0  0  0  # atno 17371 bound_to 10713
  140.7327  133.9045  155.8223 LP  0  0  0  0  0  0  0  0  0  0  0  0  # atno 17394 bound_to 11000
  141.0140  134.0981  157.4191 LP  0  0  0  0  0  0  0  0  0  0  0  0  # atno 17395 bound_to 11000

$$$$
