AV-unprocessed.smi:2131|AV-procd|sdf|8688|dock6
  -GOLD-   2272011443D 1   1.00000     0.00000
 Structure written by MMmdl.
 40 42  0  0  0  0  0  0  0  0  1 V2000
  141.1137  145.2428  153.7190 N   0  0  0  0  0  0  0  0  0  0  0  0
  141.9924  145.1876  154.4697 C   0  0  0  0  0  0  0  0  0  0  0  0
  143.1096  145.1178  155.4237 C   0  0  0  0  0  0  0  0  0  0  0  0
  144.1867  144.1561  154.9673 C   0  0  0  0  0  0  0  0  0  0  0  0
  144.7984  144.3227  153.7097 C   0  0  0  0  0  0  0  0  0  0  0  0
  145.7986  143.4262  153.2872 C   0  0  0  0  0  0  0  0  0  0  0  0
  146.2040  142.3553  154.1100 C   0  0  0  0  0  0  0  0  0  0  0  0
  147.1903  141.5278  153.6180 O   0  0  0  0  0  0  0  0  0  0  0  0
  147.6094  140.4293  154.4174 C   0  0  0  0  0  0  0  0  0  0  0  0
  149.1085  140.5759  154.7170 C   0  0  1  0  0  0  0  0  0  0  0  0
  149.7875  140.8342  153.5039 O   0  0  0  0  0  0  0  0  0  0  0  0
  149.3983  141.7036  155.7269 C   0  0  0  0  0  0  0  0  0  0  0  0
  150.5614  141.4264  156.5500 N   0  0  0  0  0  0  0  0  0  0  0  0
  151.4218  140.3975  156.4241 C   0  0  0  0  0  0  0  0  0  0  0  0
  152.4279  140.3354  157.2916 N   0  0  0  0  0  0  0  0  0  0  0  0
  152.1961  141.4571  158.0692 C   0  0  0  0  0  0  0  0  0  0  0  0
  152.9102  141.9700  159.1757 C   0  0  0  0  0  0  0  0  0  0  0  0
  152.4779  143.1470  159.8215 C   0  0  0  0  0  0  0  0  0  0  0  0
  151.3290  143.8295  159.3712 C   0  0  0  0  0  0  0  0  0  0  0  0
  150.6022  143.3389  158.2694 C   0  0  0  0  0  0  0  0  0  0  0  0
  151.0359  142.1630  157.6295 C   0  0  0  0  0  0  0  0  0  0  0  0
  145.5838  142.1937  155.3749 C   0  0  0  0  0  0  0  0  0  0  0  0
  144.5812  143.0885  155.7971 C   0  0  0  0  0  0  0  0  0  0  0  0
  143.5258  146.1185  155.5425 H   0  0  0  0  0  0  0  0  0  0  0  0
  142.7177  144.8083  156.3928 H   0  0  0  0  0  0  0  0  0  0  0  0
  144.5017  145.1374  153.0655 H   0  0  0  0  0  0  0  0  0  0  0  0
  146.2597  143.5619  152.3199 H   0  0  0  0  0  0  0  0  0  0  0  0
  147.0466  140.4288  155.3526 H   0  0  0  0  0  0  0  0  0  0  0  0
  147.4205  139.4829  153.9073 H   0  0  0  0  0  0  0  0  0  0  0  0
  149.4851  139.6292  155.1061 H   0  0  0  0  0  0  0  0  0  0  0  0
  149.5077  140.1979  152.8634 H   0  0  0  0  0  0  0  0  0  0  0  0
  149.5540  142.6507  155.2077 H   0  0  0  0  0  0  0  0  0  0  0  0
  148.5434  141.8482  156.3886 H   0  0  0  0  0  0  0  0  0  0  0  0
  151.3007  139.6498  155.6537 H   0  0  0  0  0  0  0  0  0  0  0  0
  153.7922  141.4563  159.5285 H   0  0  0  0  0  0  0  0  0  0  0  0
  153.0308  143.5284  160.6671 H   0  0  0  0  0  0  0  0  0  0  0  0
  151.0058  144.7301  159.8726 H   0  0  0  0  0  0  0  0  0  0  0  0
  149.7219  143.8589  157.9211 H   0  0  0  0  0  0  0  0  0  0  0  0
  145.8589  141.3905  156.0414 H   0  0  0  0  0  0  0  0  0  0  0  0
  144.1148  142.9527  156.7618 H   0  0  0  0  0  0  0  0  0  0  0  0
  1  2  3  0  0  0  0
  2  3  1  0  0  0  0
  3  4  1  0  0  0  0
  3 24  1  0  0  0  0
  3 25  1  0  0  0  0
  4 23  1  0  0  0  0
  4  5  2  0  0  0  0
  5  6  1  0  0  0  0
  5 26  1  0  0  0  0
  6  7  2  0  0  0  0
  6 27  1  0  0  0  0
  7  8  1  0  0  0  0
  7 22  1  0  0  0  0
  8  9  1  0  0  0  0
  9 10  1  0  0  0  0
  9 28  1  0  0  0  0
  9 29  1  0  0  0  0
 10 11  1  0  0  0  0
 10 12  1  0  0  0  0
 10 30  1  0  0  0  0
 11 31  1  0  0  0  0
 12 13  1  0  0  0  0
 12 32  1  0  0  0  0
 12 33  1  0  0  0  0
 13 21  1  0  0  0  0
 13 14  1  0  0  0  0
 14 15  2  0  0  0  0
 14 34  1  0  0  0  0
 15 16  1  0  0  0  0
 16 21  2  0  0  0  0
 16 17  1  0  0  0  0
 17 18  2  0  0  0  0
 17 35  1  0  0  0  0
 18 19  1  0  0  0  0
 18 36  1  0  0  0  0
 19 20  2  0  0  0  0
 19 37  1  0  0  0  0
 20 21  1  0  0  0  0
 20 38  1  0  0  0  0
 22 23  2  0  0  0  0
 22 39  1  0  0  0  0
 23 40  1  0  0  0  0
M  END
> <s_m_source_file>
AV-unprocessed.smi

> <i_m_source_file_index>
2131

> <i_lp_mmshare_version>
43012

> <i_f3d_flags>
0

> <s_epik_input>
TiNDW0NIMl1jMVtjSF1bY0hdYyhbY0hdW2NIXTEpT1tDSDJdW0NASF0oW09IXSlbQ0gyXW4oW2NIXW4yKWMoYzIzKVtjSF1bY0hdW2NIXVtjSF0z

> <s_epik_cmdline>
J2VwaWtfcHl0aG9uJywgJy1waCcsICc3LjAnLCAnLXRuJywgJzgnLCAnLW1hJywgJzIwMCcsICctbWV0YWxfYmluZGluZycsICctaW1hZScsICc8aW5maWxlLm1hZT4nLCAnLW9tYWUnLCAnPG91dGZpbGUubWFlPic=

> <r_lp_tautomer_probability>
1

> <r_epik_Ionization_Penalty>
0.0609831

> <r_epik_Ionization_Penalty_Charging>
0

> <r_epik_Ionization_Penalty_Neutral>
0.0609831

> <r_epik_State_Penalty>
0.0529032

> <r_epik_Charging_Adjusted_Penalty>
0.0529032

> <i_epik_Tot_Q>
0

> <i_epik_Tot_abs_Q>
0

> <r_epik_Metal_State_Penalty>
5.53344e-05

> <b_epik_Metal_Only>
0

> <s_lp_Force_Field>
OPLS_2005

> <r_lp_Energy>
14.7938

> <b_lp_Chiralities_Consistent>
1

> <s_lp_Variant>
AV-unprocessed.smi:2131-2

> <Gold.Version>
5.8.1

> <Gold.Id.Protein>
6NUR|6NUR_protein|mol2

> <Gold.PLP.Fitness>
54.6316

> <Gold.PLP.PLP>
-47.9371

> <Gold.PLP.part.hbond>
-5.4397

> <Gold.PLP.part.metal>
0.0000

> <Gold.PLP.part.buried>
-3.8966

> <Gold.PLP.part.nonpolar>
-37.7548

> <Gold.PLP.part.repulsive>
0.2921

> <Gold.PLP.ligand.clash>
0.0000

> <Gold.PLP.ligand.torsion>
0.8892

> <Gold.PLP.Chemscore.Hbond>
2.8036

> <Gold.PLP.Chemscore.CHOScore>
0.0000

> <Gold.PLP.Chemscore.Metal>
0.0000

> <Gold.Chemscore.Hbonds>
donor molecule, donor type, donor heavy atom, donor atom, acceptor molecule, acceptor atom, score
      L1  H    11    31       P1  7957  0.70
      P1  H  7989  7998       L1    11  0.34
      P1  H  7997  8008       L1    15  0.87
      P1  H  8011  8017       L1    11  0.90
      P1  H 10162 10167       L1     1  0.02

> <Gold.PLP.Chemscore.Internal.Correction>
0.0622

> <Gold.Rescore>
     Score         DG    S(hbond)    S(metal)    S(lipo)     H(rot)  DE(clash)    DE(int)     intcor
     17.96     -19.64       2.14        0.00     119.30       2.72       0.79       0.89       ----

> <Gold.Chemscore.Fitness>
17.9641

> <Gold.Chemscore.DG>
-19.6426

> <Gold.Chemscore.ZeroCoef>
-5.4800

> <Gold.Chemscore.Hbond>
2.1446

> <Gold.Chemscore.Metal>
0.0000

> <Gold.Chemscore.Lipo>
119.3020

> <Gold.Chemscore.Internal_Hbond>
0.0000

> <Gold.Chemscore.DEClash>
0.7861

> <Gold.Chemscore.DEInternal>
0.8923

> <Gold.Chemscore.Rot>
2.7183

> <Gold.Chemscore.Internal.Correction>
   9.000000E+99

> <Gold.Chemscore.Hbonds>
donor molecule, donor type, donor heavy atom, donor atom, acceptor molecule, acceptor atom, score
      L1  H    11    31       P1  7957  0.72
      P1  H  7989  7998       L1    11  0.20
      P1  H  7997  8008       L1    15  0.71
      P1  H  8011  8017       L1    11  0.17
      P1  H 10162 10167       L1     1  0.04

> <Gold.Chemscore.Hbond.Weighted>
-7.1631

> <Gold.Chemscore.Metal.Weighted>
-0.0000

> <Gold.Chemscore.Lipo.Weighted>
-13.9583

> <Gold.Chemscore.Internal_Hbond.Weighted>
0.0000

> <Gold.Chemscore.DEClash.Weighted>
0.7861

> <Gold.Chemscore.DEInternal.Weighted>
0.8923

> <Gold.Chemscore.Rot.Weighted>
6.9588

> <Gold.Chemscore.Internal.Correction.Weighted>
   9.000000E+99

> <Gold.Protein.RotatedTorsions>
[ 6907 6896 6895 6894 ] final  125.78 input  -60.11 | X-H torsion
[ 7974 7965 7964 7962 ] final   -2.31 input  175.53 | X-H torsion
[ 8008 7997 7996 7995 ] final  -66.38 input   59.86 | X-H torsion
[ 10167 10162 10161 10158 ] final -179.58 input  -65.29 | X-H torsion
[ 10718 10713 10712 10709 ] final  144.27 input   66.30 | X-H torsion
[ 10763 10752 10751 10750 ] final -148.83 input  -60.55 | X-H torsion
[ 11005 11000 10999 10996 ] final -144.91 input  -57.11 | X-H torsion

> <Gold.Protein.ActiveResidues>
 VAL166  LYS551  ARG553  GLY616  TRP617  ASP618  TYR619  PRO620  LYS621  CYS622 
 ASP623  PHE694  ASN695  SER759  ASP760  ASP761  ALA762  ILE779  LEU786  VAL792 
 PHE793  MET794  SER795  GLU796  ALA797  LYS798  CYS799  TRP800  GLU811  SER814 

> <Gold.Protein.RotatedAtoms>
  152.3962  133.6750  159.6277 H   0  0  0  0  0  0  0  0  0  0  0  0  # atno 6907 bound_to 6896
  150.7861  133.8870  159.3311 H   0  0  0  0  0  0  0  0  0  0  0  0  # atno 6908 bound_to 6896
  151.6646  135.0986  160.0237 H   0  0  0  0  0  0  0  0  0  0  0  0  # atno 6909 bound_to 6896
  146.2406  140.1552  142.8333 H   0  0  0  0  0  0  0  0  0  0  0  0  # atno 7974 bound_to 7965
  154.4731  140.0914  156.7194 H   0  0  0  0  0  0  0  0  0  0  0  0  # atno 8008 bound_to 7997
  155.4670  140.3463  155.4302 H   0  0  0  0  0  0  0  0  0  0  0  0  # atno 8009 bound_to 7997
  156.1072  140.1438  156.9377 H   0  0  0  0  0  0  0  0  0  0  0  0  # atno 8010 bound_to 7997
  139.5380  144.2443  152.0835 H   0  0  0  0  0  0  0  0  0  0  0  0  # atno 10167 bound_to 10162
  157.3592  131.0962  151.0931 H   0  0  0  0  0  0  0  0  0  0  0  0  # atno 10718 bound_to 10713
  154.8211  135.3324  154.7035 H   0  0  0  0  0  0  0  0  0  0  0  0  # atno 10763 bound_to 10752
  153.7668  135.6928  153.4919 H   0  0  0  0  0  0  0  0  0  0  0  0  # atno 10764 bound_to 10752
  153.2072  135.4495  155.0286 H   0  0  0  0  0  0  0  0  0  0  0  0  # atno 10765 bound_to 10752
  140.7976  134.2895  157.4990 H   0  0  0  0  0  0  0  0  0  0  0  0  # atno 11005 bound_to 11000
  145.0135  140.8734  143.5210 LP  0  0  0  0  0  0  0  0  0  0  0  0  # atno 17320 bound_to 7965
  145.1589  139.2470  143.5402 LP  0  0  0  0  0  0  0  0  0  0  0  0  # atno 17321 bound_to 7965
  140.1917  144.4745  150.6476 LP  0  0  0  0  0  0  0  0  0  0  0  0  # atno 17342 bound_to 10162
  140.6596  143.2248  151.5887 LP  0  0  0  0  0  0  0  0  0  0  0  0  # atno 17343 bound_to 10162
  157.2077  130.6423  149.5762 LP  0  0  0  0  0  0  0  0  0  0  0  0  # atno 17370 bound_to 10713
  155.9734  130.4670  150.6310 LP  0  0  0  0  0  0  0  0  0  0  0  0  # atno 17371 bound_to 10713
  139.8725  134.9411  156.3787 LP  0  0  0  0  0  0  0  0  0  0  0  0  # atno 17394 bound_to 11000
  140.9327  133.7568  156.0045 LP  0  0  0  0  0  0  0  0  0  0  0  0  # atno 17395 bound_to 11000

$$$$
