AV-unprocessed.smi:1406|AV-procd|sdf|5715|dock5
  -GOLD-   22720 5343D 1   1.00000     0.00000
 Structure written by MMmdl.
 41 43  0  0  0  0  0  0  0  0  2 V2000
  149.7003  140.7262  156.9579 C   0  0  0  0  0  0  0  0  0  0  0  0
  150.2180  140.7308  155.5052 C   0  0  2  0  0  0  0  0  0  0  0  0
  149.0915  140.8373  154.4643 C   0  0  0  0  0  0  0  0  0  0  0  0
  148.9167  141.8744  153.8238 O   0  0  0  0  0  0  0  0  0  0  0  0
  148.3072  139.7551  154.3313 N   0  0  0  0  0  0  0  0  0  0  0  0
  147.1013  139.6797  153.5103 C   0  0  1  0  0  0  0  0  0  0  0  0
  147.3767  139.9306  152.0150 C   0  0  0  0  0  0  0  0  0  0  0  0
  146.5207  138.8920  151.2826 C   0  0  0  0  0  0  0  0  0  0  0  0
  146.5291  137.7504  152.2044 N   0  3  2  0  0  0  0  0  0  0  0  0
  145.6006  136.6300  151.9506 C   0  0  0  0  0  0  0  0  0  0  0  0
  145.9322  135.4889  152.9361 C   0  0  0  0  0  0  0  0  0  0  0  0
  145.9626  135.9730  154.4035 C   0  0  0  0  0  0  0  0  0  0  0  0
  146.8490  137.2248  154.5765 C   0  0  0  0  0  0  0  0  0  0  0  0
  146.4036  138.2987  153.5658 C   0  0  1  0  0  0  0  0  0  0  0  0
  151.0492  139.5664  155.2209 N   0  0  0  0  0  0  0  0  0  0  0  0
  152.2253  139.2041  155.7383 C   0  0  0  0  0  0  0  0  0  0  0  0
  152.7365  138.1071  155.1979 N   0  0  0  0  0  0  0  0  0  0  0  0
  151.7572  137.8227  154.2888 C   0  0  0  0  0  0  0  0  0  0  0  0
  150.7307  138.6717  154.2522 N   0  0  0  0  0  0  0  0  0  0  0  0
  149.1310  141.6304  157.1758 H   0  0  0  0  0  0  0  0  0  0  0  0
  150.5296  140.6858  157.6646 H   0  0  0  0  0  0  0  0  0  0  0  0
  149.0538  139.8713  157.1595 H   0  0  0  0  0  0  0  0  0  0  0  0
  150.8479  141.6138  155.3867 H   0  0  0  0  0  0  0  0  0  0  0  0
  148.5305  138.9426  154.8875 H   0  0  0  0  0  0  0  0  0  0  0  0
  146.3918  140.4367  153.8510 H   0  0  0  0  0  0  0  0  0  0  0  0
  147.1435  140.9514  151.7102 H   0  0  0  0  0  0  0  0  0  0  0  0
  148.4290  139.7525  151.7876 H   0  0  0  0  0  0  0  0  0  0  0  0
  145.5001  139.2559  151.1549 H   0  0  0  0  0  0  0  0  0  0  0  0
  146.9216  138.6295  150.3033 H   0  0  0  0  0  0  0  0  0  0  0  0
  144.5684  136.9620  152.0707 H   0  0  0  0  0  0  0  0  0  0  0  0
  145.7128  136.2836  150.9227 H   0  0  0  0  0  0  0  0  0  0  0  0
  145.2121  134.6777  152.8248 H   0  0  0  0  0  0  0  0  0  0  0  0
  146.9066  135.0699  152.6816 H   0  0  0  0  0  0  0  0  0  0  0  0
  144.9465  136.2055  154.7249 H   0  0  0  0  0  0  0  0  0  0  0  0
  146.3145  135.1728  155.0552 H   0  0  0  0  0  0  0  0  0  0  0  0
  146.7614  137.5972  155.5974 H   0  0  0  0  0  0  0  0  0  0  0  0
  147.8972  136.9650  154.4212 H   0  0  0  0  0  0  0  0  0  0  0  0
  145.3445  138.5000  153.7407 H   0  0  0  0  0  0  0  0  0  0  0  0
  152.7233  139.7607  156.5186 H   0  0  0  0  0  0  0  0  0  0  0  0
  151.8071  136.9704  153.6273 H   0  0  0  0  0  0  0  0  0  0  0  0
  147.4612  137.3658  152.1452 H   0  0  0  0  0  0  0  0  0  0  0  0
  1  2  1  0  0  0  0
  1 20  1  0  0  0  0
  1 21  1  0  0  0  0
  1 22  1  0  0  0  0
  2  3  1  0  0  0  0
  2 15  1  0  0  0  0
  2 23  1  0  0  0  0
  3  4  2  0  0  0  0
  3  5  1  0  0  0  0
  5  6  1  0  0  0  0
  5 24  1  0  0  0  0
  6 14  1  0  0  0  0
  6  7  1  0  0  0  0
  6 25  1  0  0  0  0
  7  8  1  0  0  0  0
  7 26  1  0  0  0  0
  7 27  1  0  0  0  0
  8  9  1  0  0  0  0
  8 28  1  0  0  0  0
  8 29  1  0  0  0  0
  9 14  1  0  0  0  0
  9 10  1  0  0  0  0
  9 41  1  0  0  0  0
 10 11  1  0  0  0  0
 10 30  1  0  0  0  0
 10 31  1  0  0  0  0
 11 12  1  0  0  0  0
 11 32  1  0  0  0  0
 11 33  1  0  0  0  0
 12 13  1  0  0  0  0
 12 34  1  0  0  0  0
 12 35  1  0  0  0  0
 13 14  1  0  0  0  0
 13 36  1  0  0  0  0
 13 37  1  0  0  0  0
 14 38  1  0  0  0  0
 15 19  1  0  0  0  0
 15 16  1  0  0  0  0
 16 17  2  0  0  0  0
 16 39  1  0  0  0  0
 17 18  1  0  0  0  0
 18 19  2  0  0  0  0
 18 40  1  0  0  0  0
M  CHG  1   9   1
M  END
> <s_m_source_file>
AV-unprocessed.smi

> <i_m_source_file_index>
1406

> <i_lp_mmshare_version>
43012

> <i_f3d_flags>
0

> <s_epik_input>
bjFbY0hdbltjSF1uMVtDQEhdKFtDSDNdKUMoPU8pW05IXVtDQEhdKFtDSDJdW0NIMl0yKVtDQEBIXShOMjMpW0NIMl1bQ0gyXVtDSDJdW0NIMl0z

> <s_epik_cmdline>
J2VwaWtfcHl0aG9uJywgJy1waCcsICc3LjAnLCAnLXRuJywgJzgnLCAnLW1hJywgJzIwMCcsICctbWV0YWxfYmluZGluZycsICctaW1hZScsICc8aW5maWxlLm1hZT4nLCAnLW9tYWUnLCAnPG91dGZpbGUubWFlPic=

> <r_lp_tautomer_probability>
1

> <r_epik_Ionization_Penalty>
0.00197066

> <r_epik_Ionization_Penalty_Charging>
0.00196223

> <r_epik_Ionization_Penalty_Neutral>
8.43107e-06

> <r_epik_State_Penalty>
0.00133866

> <r_epik_Charging_Adjusted_Penalty>
0.00330089

> <i_epik_Tot_Q>
1

> <i_epik_Tot_abs_Q>
1

> <r_epik_Metal_State_Penalty>
-0

> <b_epik_Metal_Only>
0

> <s_lp_Force_Field>
OPLS_2005

> <r_lp_Energy>
45.8752

> <b_lp_Chiralities_Consistent>
1

> <s_lp_Variant>
AV-unprocessed.smi:1406-7

> <Gold.Version>
5.8.1

> <Gold.Id.Protein>
6NUR|6NUR_protein|mol2

> <Gold.PLP.Fitness>
39.6209

> <Gold.PLP.PLP>
-29.3437

> <Gold.PLP.part.hbond>
-2.8686

> <Gold.PLP.part.metal>
0.0000

> <Gold.PLP.part.buried>
3.6428

> <Gold.PLP.part.nonpolar>
-30.6388

> <Gold.PLP.part.repulsive>
0.5538

> <Gold.PLP.ligand.clash>
0.0000

> <Gold.PLP.ligand.torsion>
0.2272

> <Gold.PLP.Chemscore.Hbond>
2.5440

> <Gold.PLP.Chemscore.CHOScore>
1.0000

> <Gold.PLP.Chemscore.Metal>
0.0000

> <Gold.Chemscore.Hbonds>
donor molecule, donor type, donor heavy atom, donor atom, acceptor molecule, acceptor atom, score
      L1  H     9    41       P1  7948  2.00
      P1  H  8011  8017       L1     4  0.53
      L1  C    18    40       P1  7949  1.00

> <Gold.PLP.Chemscore.Internal.Correction>
0.0996

> <Gold.Rescore>
     Score         DG    S(hbond)    S(metal)    S(lipo)     H(rot)  DE(clash)    DE(int)     intcor
      8.10     -12.08       1.54        0.00      53.77       1.89       1.94       2.04       ----

> <Gold.Chemscore.Fitness>
8.1001

> <Gold.Chemscore.DG>
-12.0811

> <Gold.Chemscore.ZeroCoef>
-5.4800

> <Gold.Chemscore.Hbond>
1.5389

> <Gold.Chemscore.Metal>
0.0000

> <Gold.Chemscore.Lipo>
53.7661

> <Gold.Chemscore.Internal_Hbond>
0.0000

> <Gold.Chemscore.DEClash>
1.9390

> <Gold.Chemscore.DEInternal>
2.0419

> <Gold.Chemscore.Rot>
1.8865

> <Gold.Chemscore.Internal.Correction>
   9.000000E+99

> <Gold.Chemscore.Hbonds>
donor molecule, donor type, donor heavy atom, donor atom, acceptor molecule, acceptor atom, score
      L1  H     9    41       P1  7948  1.00
      P1  H  8011  8017       L1     4  0.52

> <Gold.Chemscore.Hbond.Weighted>
-5.1400

> <Gold.Chemscore.Metal.Weighted>
-0.0000

> <Gold.Chemscore.Lipo.Weighted>
-6.2906

> <Gold.Chemscore.Internal_Hbond.Weighted>
0.0000

> <Gold.Chemscore.DEClash.Weighted>
1.9390

> <Gold.Chemscore.DEInternal.Weighted>
2.0419

> <Gold.Chemscore.Rot.Weighted>
4.8295

> <Gold.Chemscore.Internal.Correction.Weighted>
   9.000000E+99

> <Gold.Protein.RotatedTorsions>
[ 6907 6896 6895 6894 ] final  -54.38 input  -60.11 | X-H torsion
[ 7974 7965 7964 7962 ] final   32.96 input  175.53 | X-H torsion
[ 8008 7997 7996 7995 ] final -126.43 input   59.86 | X-H torsion
[ 10167 10162 10161 10158 ] final  140.89 input  -65.29 | X-H torsion
[ 10718 10713 10712 10709 ] final -153.42 input   66.30 | X-H torsion
[ 10763 10752 10751 10750 ] final  142.96 input  -60.55 | X-H torsion
[ 11005 11000 10999 10996 ] final  112.32 input  -57.11 | X-H torsion

> <Gold.Protein.ActiveResidues>
 VAL166  LYS551  ARG553  GLY616  TRP617  ASP618  TYR619  PRO620  LYS621  CYS622 
 ASP623  PHE694  ASN695  SER759  ASP760  ASP761  ALA762  ILE779  LEU786  VAL792 
 PHE793  MET794  SER795  GLU796  ALA797  LYS798  CYS799  TRP800  GLU811  SER814 

> <Gold.Protein.RotatedAtoms>
  150.8343  134.7609  159.6879 H   0  0  0  0  0  0  0  0  0  0  0  0  # atno 6907 bound_to 6896
  152.4442  134.5525  159.9881 H   0  0  0  0  0  0  0  0  0  0  0  0  # atno 6908 bound_to 6896
  151.5679  133.3356  159.3019 H   0  0  0  0  0  0  0  0  0  0  0  0  # atno 6909 bound_to 6896
  146.1452  139.6458  142.9136 H   0  0  0  0  0  0  0  0  0  0  0  0  # atno 7974 bound_to 7965
  155.2296  140.0425  157.2960 H   0  0  0  0  0  0  0  0  0  0  0  0  # atno 8008 bound_to 7997
  154.5897  140.2423  155.7909 H   0  0  0  0  0  0  0  0  0  0  0  0  # atno 8009 bound_to 7997
  156.2250  140.2957  156.0054 H   0  0  0  0  0  0  0  0  0  0  0  0  # atno 8010 bound_to 7997
  139.5036  144.6206  151.6060 H   0  0  0  0  0  0  0  0  0  0  0  0  # atno 10167 bound_to 10162
  156.4856  130.8323  151.2548 H   0  0  0  0  0  0  0  0  0  0  0  0  # atno 10718 bound_to 10713
  153.9644  135.2957  155.3431 H   0  0  0  0  0  0  0  0  0  0  0  0  # atno 10763 bound_to 10752
  154.7357  135.5047  153.9040 H   0  0  0  0  0  0  0  0  0  0  0  0  # atno 10764 bound_to 10752
  153.0930  135.6713  153.9927 H   0  0  0  0  0  0  0  0  0  0  0  0  # atno 10765 bound_to 10752
  139.8924  134.9527  156.6568 H   0  0  0  0  0  0  0  0  0  0  0  0  # atno 11005 bound_to 11000
  145.4954  141.0438  143.2570 LP  0  0  0  0  0  0  0  0  0  0  0  0  # atno 17320 bound_to 7965
  144.7838  139.6470  143.7143 LP  0  0  0  0  0  0  0  0  0  0  0  0  # atno 17321 bound_to 7965
  140.5907  143.9785  150.6323 LP  0  0  0  0  0  0  0  0  0  0  0  0  # atno 17342 bound_to 10162
  140.2964  143.3289  152.1013 LP  0  0  0  0  0  0  0  0  0  0  0  0  # atno 17343 bound_to 10162
  157.7479  131.0030  150.3023 LP  0  0  0  0  0  0  0  0  0  0  0  0  # atno 17370 bound_to 10713
  156.3478  130.3826  149.7355 LP  0  0  0  0  0  0  0  0  0  0  0  0  # atno 17371 bound_to 10713
  140.7478  133.8923  155.8324 LP  0  0  0  0  0  0  0  0  0  0  0  0  # atno 17394 bound_to 11000
  141.0025  134.1130  157.4303 LP  0  0  0  0  0  0  0  0  0  0  0  0  # atno 17395 bound_to 11000

$$$$
