AV-unprocessed.smi:2973|AV-procd|sdf|11342|dock4
  -GOLD-   2272016253D 1   1.00000     0.00000
 Structure written by MMmdl.
 50 52  0  0  0  0  0  0  0  0  2 V2000
  149.7807  139.1768  153.7771 C   0  0  0  0  0  0  0  0  0  0  0  0
  150.6203  139.6242  154.9926 C   0  0  1  0  0  0  0  0  0  0  0  0
  150.0684  140.9500  155.5608 C   0  0  0  0  0  0  0  0  0  0  0  0
  150.9150  141.4710  156.7329 C   0  0  0  0  0  0  0  0  0  0  0  0
  151.0301  140.4224  157.8479 C   0  0  0  0  0  0  0  0  0  0  0  0
  151.5942  139.1017  157.3011 C   0  0  0  0  0  0  0  0  0  0  0  0
  150.7524  138.5562  156.1222 C   0  0  1  0  0  0  0  0  0  0  0  0
  149.4596  138.0798  156.5856 N   0  0  0  0  0  0  0  0  0  0  0  0
  149.3016  136.7598  156.4274 C   0  0  0  0  0  0  0  0  0  0  0  0
  148.3057  136.1205  156.7612 O   0  0  0  0  0  0  0  0  0  0  0  0
  150.4147  136.2662  155.8551 N   0  0  0  0  0  0  0  0  0  0  0  0
  150.6306  134.8435  155.5507 C   0  0  0  0  0  0  0  0  0  0  0  0
  149.3532  134.0499  155.2230 C   0  0  0  0  0  0  0  0  0  0  0  0
  149.0869  133.0468  155.8840 O   0  0  0  0  0  0  0  0  0  0  0  0
  148.5667  134.4887  154.2253 N   0  0  0  0  0  0  0  0  0  0  0  0
  147.3178  133.8687  153.8031 C   0  0  0  0  0  0  0  0  0  0  0  0
  147.5633  132.7539  152.7728 C   0  0  0  0  0  0  0  0  0  0  0  0
  146.4345  132.6456  151.7669 C   0  0  0  0  0  0  0  0  0  0  0  0
  145.2277  133.3642  151.9104 C   0  0  0  0  0  0  0  0  0  0  0  0
  144.2222  133.2239  150.9311 C   0  0  0  0  0  0  0  0  0  0  0  0
  144.4446  132.3698  149.8310 C   0  0  0  0  0  0  0  0  0  0  0  0
  145.6682  131.6757  149.7382 C   0  0  0  0  0  0  0  0  0  0  0  0
  146.6070  131.8367  150.6965 N   0  3  0  0  0  0  0  0  0  0  0  0
  151.3209  137.2293  155.6349 C   0  0  0  0  0  0  0  0  0  0  0  0
  152.4408  137.0965  155.1412 O   0  0  0  0  0  0  0  0  0  0  0  0
  148.7510  138.9545  154.0582 H   0  0  0  0  0  0  0  0  0  0  0  0
  150.1960  138.2888  153.3003 H   0  0  0  0  0  0  0  0  0  0  0  0
  149.7500  139.9593  153.0184 H   0  0  0  0  0  0  0  0  0  0  0  0
  151.6250  139.8320  154.6201 H   0  0  0  0  0  0  0  0  0  0  0  0
  150.0391  141.7071  154.7764 H   0  0  0  0  0  0  0  0  0  0  0  0
  149.0377  140.8127  155.8901 H   0  0  0  0  0  0  0  0  0  0  0  0
  151.9112  141.7346  156.3751 H   0  0  0  0  0  0  0  0  0  0  0  0
  150.4769  142.3877  157.1291 H   0  0  0  0  0  0  0  0  0  0  0  0
  151.6722  140.7977  158.6452 H   0  0  0  0  0  0  0  0  0  0  0  0
  150.0508  140.2518  158.2966 H   0  0  0  0  0  0  0  0  0  0  0  0
  152.6215  139.2684  156.9726 H   0  0  0  0  0  0  0  0  0  0  0  0
  151.6502  138.3676  158.1067 H   0  0  0  0  0  0  0  0  0  0  0  0
  148.7674  138.6908  156.9945 H   0  0  0  0  0  0  0  0  0  0  0  0
  151.3199  134.7436  154.7107 H   0  0  0  0  0  0  0  0  0  0  0  0
  151.1284  134.3602  156.3932 H   0  0  0  0  0  0  0  0  0  0  0  0
  148.8556  135.3183  153.7272 H   0  0  0  0  0  0  0  0  0  0  0  0
  146.8306  133.4566  154.6875 H   0  0  0  0  0  0  0  0  0  0  0  0
  146.6432  134.6265  153.4007 H   0  0  0  0  0  0  0  0  0  0  0  0
  148.4948  132.9322  152.2335 H   0  0  0  0  0  0  0  0  0  0  0  0
  147.6822  131.7963  153.2818 H   0  0  0  0  0  0  0  0  0  0  0  0
  145.0729  134.0160  152.7579 H   0  0  0  0  0  0  0  0  0  0  0  0
  143.2923  133.7660  151.0220 H   0  0  0  0  0  0  0  0  0  0  0  0
  143.6873  132.2494  149.0701 H   0  0  0  0  0  0  0  0  0  0  0  0
  145.9233  131.0034  148.9321 H   0  0  0  0  0  0  0  0  0  0  0  0
  147.4861  131.3261  150.6087 H   0  0  0  0  0  0  0  0  0  0  0  0
  1  2  1  0  0  0  0
  1 26  1  0  0  0  0
  1 27  1  0  0  0  0
  1 28  1  0  0  0  0
  2  7  1  0  0  0  0
  2  3  1  0  0  0  0
  2 29  1  0  0  0  0
  3  4  1  0  0  0  0
  3 30  1  0  0  0  0
  3 31  1  0  0  0  0
  4  5  1  0  0  0  0
  4 32  1  0  0  0  0
  4 33  1  0  0  0  0
  5  6  1  0  0  0  0
  5 34  1  0  0  0  0
  5 35  1  0  0  0  0
  6  7  1  0  0  0  0
  6 36  1  0  0  0  0
  6 37  1  0  0  0  0
  7 24  1  0  0  0  0
  7  8  1  0  0  0  0
  8  9  1  0  0  0  0
  8 38  1  0  0  0  0
  9 10  2  0  0  0  0
  9 11  1  0  0  0  0
 11 12  1  0  0  0  0
 11 24  1  0  0  0  0
 12 13  1  0  0  0  0
 12 39  1  0  0  0  0
 12 40  1  0  0  0  0
 13 14  2  0  0  0  0
 13 15  1  0  0  0  0
 15 16  1  0  0  0  0
 15 41  1  0  0  0  0
 16 17  1  0  0  0  0
 16 42  1  0  0  0  0
 16 43  1  0  0  0  0
 17 18  1  0  0  0  0
 17 44  1  0  0  0  0
 17 45  1  0  0  0  0
 18 23  1  0  0  0  0
 18 19  2  0  0  0  0
 19 20  1  0  0  0  0
 19 46  1  0  0  0  0
 20 21  2  0  0  0  0
 20 47  1  0  0  0  0
 21 22  1  0  0  0  0
 21 48  1  0  0  0  0
 22 23  2  0  0  0  0
 22 49  1  0  0  0  0
 23 50  1  0  0  0  0
 24 25  2  0  0  0  0
M  CHG  1  23   1
M  END
> <s_m_source_file>
AV-unprocessed.smi

> <i_m_source_file_index>
2973

> <i_lp_mmshare_version>
43012

> <i_f3d_flags>
0

> <s_epik_input>
W0NIMl0xW0NIMl1bQ0gyXVtDSDJdW0NAQEhdKFtDSDNdKVtDQF0xMltOSF1DKD1PKU4oQzI9TylbQ0gyXUMoPU8pW05IXVtDSDJdW0NIMl1jM1tjSF1bY0hdW2NIXVtjSF1uMw==

> <s_epik_cmdline>
J2VwaWtfcHl0aG9uJywgJy1waCcsICc3LjAnLCAnLXRuJywgJzgnLCAnLW1hJywgJzIwMCcsICctbWV0YWxfYmluZGluZycsICctaW1hZScsICc8aW5maWxlLm1hZT4nLCAnLW9tYWUnLCAnPG91dGZpbGUubWFlPic=

> <r_lp_tautomer_probability>
1

> <r_epik_Ionization_Penalty>
1.90043

> <r_epik_Ionization_Penalty_Charging>
1.90039

> <r_epik_Ionization_Penalty_Neutral>
4.65525e-05

> <r_epik_State_Penalty>
2.02162

> <r_epik_Charging_Adjusted_Penalty>
3.922

> <i_epik_Tot_Q>
1

> <i_epik_Tot_abs_Q>
1

> <r_epik_Metal_State_Penalty>
2.06631

> <b_epik_Metal_Only>
0

> <s_lp_Force_Field>
OPLS_2005

> <r_lp_Energy>
28.0299

> <b_lp_Chiralities_Consistent>
1

> <s_lp_Variant>
AV-unprocessed.smi:2973-6

> <Gold.Version>
5.8.1

> <Gold.Id.Protein>
6NUR|6NUR_protein|mol2

> <Gold.PLP.Fitness>
45.9002

> <Gold.PLP.PLP>
-40.1685

> <Gold.PLP.part.hbond>
-2.9355

> <Gold.PLP.part.metal>
0.0000

> <Gold.PLP.part.buried>
-3.0078

> <Gold.PLP.part.nonpolar>
-34.9245

> <Gold.PLP.part.repulsive>
0.1599

> <Gold.PLP.ligand.clash>
0.0000

> <Gold.PLP.ligand.torsion>
0.8650

> <Gold.PLP.Chemscore.Hbond>
2.4720

> <Gold.PLP.Chemscore.CHOScore>
0.0000

> <Gold.PLP.Chemscore.Metal>
0.0000

> <Gold.Chemscore.Hbonds>
donor molecule, donor type, donor heavy atom, donor atom, acceptor molecule, acceptor atom, score
      L1  H    15    41       P1  7948  0.83
      L1  H    23    50       P1 10747  1.00
      P1  H 10752 10765       L1    25  0.72

> <Gold.PLP.Chemscore.Internal.Correction>
0.0458

> <Gold.Rescore>
     Score         DG    S(hbond)    S(metal)    S(lipo)     H(rot)  DE(clash)    DE(int)     intcor
     18.47     -22.22       2.85        0.00     104.60       1.96       1.53       2.22       ----

> <Gold.Chemscore.Fitness>
18.4663

> <Gold.Chemscore.DG>
-22.2217

> <Gold.Chemscore.ZeroCoef>
-5.4800

> <Gold.Chemscore.Hbond>
2.8536

> <Gold.Chemscore.Metal>
0.0000

> <Gold.Chemscore.Lipo>
104.5986

> <Gold.Chemscore.Internal_Hbond>
0.0000

> <Gold.Chemscore.DEClash>
1.5325

> <Gold.Chemscore.DEInternal>
2.2229

> <Gold.Chemscore.Rot>
1.9638

> <Gold.Chemscore.Internal.Correction>
   9.000000E+99

> <Gold.Chemscore.Hbonds>
donor molecule, donor type, donor heavy atom, donor atom, acceptor molecule, acceptor atom, score
      L1  H    15    41       P1  7948  0.61
      L1  H    23    50       P1 10747  0.98
      P1  H 10752 10765       L1    25  0.71

> <Gold.Chemscore.Hbond.Weighted>
-9.5311

> <Gold.Chemscore.Metal.Weighted>
-0.0000

> <Gold.Chemscore.Lipo.Weighted>
-12.2380

> <Gold.Chemscore.Internal_Hbond.Weighted>
0.0000

> <Gold.Chemscore.DEClash.Weighted>
1.5325

> <Gold.Chemscore.DEInternal.Weighted>
2.2229

> <Gold.Chemscore.Rot.Weighted>
5.0274

> <Gold.Chemscore.Internal.Correction.Weighted>
   9.000000E+99

> <Gold.Protein.RotatedTorsions>
[ 6907 6896 6895 6894 ] final   99.62 input  -60.11 | X-H torsion
[ 7974 7965 7964 7962 ] final   -4.16 input  175.53 | X-H torsion
[ 8008 7997 7996 7995 ] final   97.61 input   59.86 | X-H torsion
[ 10167 10162 10161 10158 ] final  -56.12 input  -65.29 | X-H torsion
[ 10718 10713 10712 10709 ] final  -15.85 input   66.30 | X-H torsion
[ 10763 10752 10751 10750 ] final -173.54 input  -60.55 | X-H torsion
[ 11005 11000 10999 10996 ] final  -14.29 input  -57.11 | X-H torsion

> <Gold.Protein.ActiveResidues>
 VAL166  LYS551  ARG553  GLY616  TRP617  ASP618  TYR619  PRO620  LYS621  CYS622 
 ASP623  PHE694  ASN695  SER759  ASP760  ASP761  ALA762  ILE779  LEU786  VAL792 
 PHE793  MET794  SER795  GLU796  ALA797  LYS798  CYS799  TRP800  GLU811  SER814 

> <Gold.Protein.RotatedAtoms>
  152.5388  134.0401  159.8063 H   0  0  0  0  0  0  0  0  0  0  0  0  # atno 6907 bound_to 6896
  151.0558  133.5578  159.2645 H   0  0  0  0  0  0  0  0  0  0  0  0  # atno 6908 bound_to 6896
  151.2495  135.0625  159.9110 H   0  0  0  0  0  0  0  0  0  0  0  0  # atno 6909 bound_to 6896
  146.2377  140.1830  142.8332 H   0  0  0  0  0  0  0  0  0  0  0  0  # atno 7974 bound_to 7965
  156.0919  140.3256  155.7827 H   0  0  0  0  0  0  0  0  0  0  0  0  # atno 8008 bound_to 7997
  155.4983  140.0567  157.2960 H   0  0  0  0  0  0  0  0  0  0  0  0  # atno 8009 bound_to 7997
  154.4643  140.1981  156.0177 H   0  0  0  0  0  0  0  0  0  0  0  0  # atno 8010 bound_to 7997
  140.6336  143.2471  151.5178 H   0  0  0  0  0  0  0  0  0  0  0  0  # atno 10167 bound_to 10162
  156.5959  130.4811  149.6260 H   0  0  0  0  0  0  0  0  0  0  0  0  # atno 10718 bound_to 10713
  154.6067  135.2860  155.0477 H   0  0  0  0  0  0  0  0  0  0  0  0  # atno 10763 bound_to 10752
  154.1722  135.6470  153.5016 H   0  0  0  0  0  0  0  0  0  0  0  0  # atno 10764 bound_to 10752
  153.0178  135.5403  154.6805 H   0  0  0  0  0  0  0  0  0  0  0  0  # atno 10765 bound_to 10752
  140.7849  133.8333  155.9326 H   0  0  0  0  0  0  0  0  0  0  0  0  # atno 11005 bound_to 11000
  144.9919  140.8554  143.5334 LP  0  0  0  0  0  0  0  0  0  0  0  0  # atno 17320 bound_to 7965
  145.1837  139.2338  143.5279 LP  0  0  0  0  0  0  0  0  0  0  0  0  # atno 17321 bound_to 7965
  139.5548  144.2304  152.1592 LP  0  0  0  0  0  0  0  0  0  0  0  0  # atno 17342 bound_to 10162
  140.1555  144.5075  150.6663 LP  0  0  0  0  0  0  0  0  0  0  0  0  # atno 17343 bound_to 10162
  156.2510  130.6907  151.1644 LP  0  0  0  0  0  0  0  0  0  0  0  0  # atno 17370 bound_to 10713
  157.7292  131.0626  150.5786 LP  0  0  0  0  0  0  0  0  0  0  0  0  # atno 17371 bound_to 10713
  140.9446  134.1856  157.4772 LP  0  0  0  0  0  0  0  0  0  0  0  0  # atno 17394 bound_to 11000
  139.8738  134.9885  156.5417 LP  0  0  0  0  0  0  0  0  0  0  0  0  # atno 17395 bound_to 11000

$$$$
