AV-unprocessed.smi:103|AV-procd|sdf|983|dock3
  -GOLD-   2262017553D 1   1.00000     0.00000
 Structure written by MMmdl.
 53 55  0  0  0  0  0  0  0  0  1 V2000
  155.2067  136.7174  159.0421 C   0  0  0  0  0  0  0  0  0  0  0  0
  154.2815  136.3616  157.8859 C   0  0  0  0  0  0  0  0  0  0  0  0
  154.7182  135.9126  156.8261 O   0  0  0  0  0  0  0  0  0  0  0  0
  152.9935  136.5966  158.1735 O   0  0  0  0  0  0  0  0  0  0  0  0
  151.9803  136.1734  157.2761 C   0  0  0  0  0  0  0  0  0  0  0  0
  150.6408  136.7900  157.6951 C   0  0  2  0  0  0  0  0  0  0  0  0
  150.3319  136.4042  159.0250 O   0  0  0  0  0  0  0  0  0  0  0  0
  148.9542  136.4604  159.2201 C   0  0  2  0  0  0  0  0  0  0  0  0
  148.5631  135.2637  160.0377 N   0  0  0  0  0  0  0  0  0  0  0  0
  147.7974  135.1850  161.1843 C   0  0  0  0  0  0  0  0  0  0  0  0
  147.0052  136.5475  162.0327 S   0  0  0  0  0  0  0  0  0  0  0  0
  148.2619  136.9974  163.2982 C   0  0  0  0  0  0  0  0  0  0  0  0
  146.8866  137.6472  161.0624 O   0  0  0  0  0  0  0  0  0  0  0  0
  145.8104  136.0082  162.6996 O   0  0  0  0  0  0  0  0  0  0  0  0
  147.5703  133.9893  161.6568 N   0  0  0  0  0  0  0  0  0  0  0  0
  148.2587  133.1664  160.7773 C   0  0  0  0  0  0  0  0  0  0  0  0
  148.4503  131.7649  160.6844 C   0  0  0  0  0  0  0  0  0  0  0  0
  147.9302  130.8955  161.5621 N   0  0  0  0  0  0  0  0  0  0  0  0
  149.1906  131.2798  159.6604 N   0  0  0  0  0  0  0  0  0  0  0  0
  149.7176  132.1259  158.7694 C   0  0  0  0  0  0  0  0  0  0  0  0
  149.6259  133.4576  158.7267 N   0  0  0  0  0  0  0  0  0  0  0  0
  148.8832  133.9475  159.7631 C   0  0  0  0  0  0  0  0  0  0  0  0
  148.2754  136.4792  157.8331 C   0  0  2  0  0  0  0  0  0  0  0  0
  147.3206  135.4328  157.6797 O   0  0  0  0  0  0  0  0  0  0  0  0
  146.7468  135.2031  156.4894 C   0  0  0  0  0  0  0  0  0  0  0  0
  145.7149  134.0856  156.5533 C   0  0  0  0  0  0  0  0  0  0  0  0
  146.9887  135.7988  155.4397 O   0  0  0  0  0  0  0  0  0  0  0  0
  149.4452  136.3005  156.8772 C   0  0  1  0  0  0  0  0  0  0  0  0
  149.2415  137.1132  155.7275 O   0  0  0  0  0  0  0  0  0  0  0  0
  150.2078  137.2446  154.8022 C   0  0  0  0  0  0  0  0  0  0  0  0
  150.0101  138.4769  153.9304 C   0  0  0  0  0  0  0  0  0  0  0  0
  151.1680  136.4918  154.6403 O   0  0  0  0  0  0  0  0  0  0  0  0
  155.1533  135.9528  159.8171 H   0  0  0  0  0  0  0  0  0  0  0  0
  154.9198  137.6746  159.4783 H   0  0  0  0  0  0  0  0  0  0  0  0
  156.2384  136.7908  158.6977 H   0  0  0  0  0  0  0  0  0  0  0  0
  152.2197  136.4613  156.2511 H   0  0  0  0  0  0  0  0  0  0  0  0
  151.9181  135.0849  157.3042 H   0  0  0  0  0  0  0  0  0  0  0  0
  150.6952  137.8801  157.6765 H   0  0  0  0  0  0  0  0  0  0  0  0
  148.7007  137.3314  159.8179 H   0  0  0  0  0  0  0  0  0  0  0  0
  147.9155  137.8649  163.8593 H   0  0  0  0  0  0  0  0  0  0  0  0
  149.2043  137.2363  162.8055 H   0  0  0  0  0  0  0  0  0  0  0  0
  148.4120  136.1638  163.9823 H   0  0  0  0  0  0  0  0  0  0  0  0
  147.3723  131.2323  162.3337 H   0  0  0  0  0  0  0  0  0  0  0  0
  148.1030  129.9066  161.4549 H   0  0  0  0  0  0  0  0  0  0  0  0
  150.2951  131.6715  157.9778 H   0  0  0  0  0  0  0  0  0  0  0  0
  147.8216  137.4647  157.7140 H   0  0  0  0  0  0  0  0  0  0  0  0
  144.9328  134.3339  157.2709 H   0  0  0  0  0  0  0  0  0  0  0  0
  146.1868  133.1531  156.8631 H   0  0  0  0  0  0  0  0  0  0  0  0
  145.2540  133.9325  155.5772 H   0  0  0  0  0  0  0  0  0  0  0  0
  149.5642  135.2409  156.6444 H   0  0  0  0  0  0  0  0  0  0  0  0
  148.9615  138.5830  153.6519 H   0  0  0  0  0  0  0  0  0  0  0  0
  150.6024  138.3990  153.0187 H   0  0  0  0  0  0  0  0  0  0  0  0
  150.3195  139.3728  154.4689 H   0  0  0  0  0  0  0  0  0  0  0  0
  1  2  1  0  0  0  0
  1 33  1  0  0  0  0
  1 34  1  0  0  0  0
  1 35  1  0  0  0  0
  2  3  2  0  0  0  0
  2  4  1  0  0  0  0
  4  5  1  0  0  0  0
  5  6  1  0  0  0  0
  5 36  1  0  0  0  0
  5 37  1  0  0  0  0
  6 28  1  0  0  0  0
  6  7  1  0  0  0  0
  6 38  1  0  0  0  0
  7  8  1  0  0  0  0
  8  9  1  0  0  0  0
  8 23  1  0  0  0  0
  8 39  1  0  0  0  0
  9 22  1  0  0  0  0
  9 10  1  0  0  0  0
 10 11  1  0  0  0  0
 10 15  2  0  0  0  0
 11 12  1  0  0  0  0
 11 13  2  0  0  0  0
 11 14  2  0  0  0  0
 12 40  1  0  0  0  0
 12 41  1  0  0  0  0
 12 42  1  0  0  0  0
 15 16  1  0  0  0  0
 16 22  2  0  0  0  0
 16 17  1  0  0  0  0
 17 18  1  0  0  0  0
 17 19  2  0  0  0  0
 18 43  1  0  0  0  0
 18 44  1  0  0  0  0
 19 20  1  0  0  0  0
 20 21  2  0  0  0  0
 20 45  1  0  0  0  0
 21 22  1  0  0  0  0
 23 24  1  0  0  0  0
 23 28  1  0  0  0  0
 23 46  1  0  0  0  0
 24 25  1  0  0  0  0
 25 26  1  0  0  0  0
 25 27  2  0  0  0  0
 26 47  1  0  0  0  0
 26 48  1  0  0  0  0
 26 49  1  0  0  0  0
 28 29  1  0  0  0  0
 28 50  1  0  0  0  0
 29 30  1  0  0  0  0
 30 31  1  0  0  0  0
 30 32  2  0  0  0  0
 31 51  1  0  0  0  0
 31 52  1  0  0  0  0
 31 53  1  0  0  0  0
M  END
> <s_m_source_file>
AV-unprocessed.smi

> <i_m_source_file_index>
103

> <i_lp_mmshare_version>
43012

> <i_f3d_flags>
0

> <s_epik_input>
W0NIM11DKD1PKU9bQ0gyXVtDQEBIXTFPW0NASF0oW0NAQEhdKE9DKD1PKVtDSDNdKVtDQEhdMU9DKD1PKVtDSDNdKW4oYyhuMilTKD1PKSg9TylbQ0gzXSljKGMyMyluW2NIXW5jM1tOSDJd

> <s_epik_cmdline>
J2VwaWtfcHl0aG9uJywgJy1waCcsICc3LjAnLCAnLXRuJywgJzgnLCAnLW1hJywgJzIwMCcsICctbWV0YWxfYmluZGluZycsICctaW1hZScsICc8aW5maWxlLm1hZT4nLCAnLW9tYWUnLCAnPG91dGZpbGUubWFlPic=

> <r_lp_tautomer_probability>
1

> <r_epik_Ionization_Penalty>
1.51338e-05

> <r_epik_Ionization_Penalty_Charging>
0

> <r_epik_Ionization_Penalty_Neutral>
1.51338e-05

> <r_epik_State_Penalty>
-0

> <r_epik_Charging_Adjusted_Penalty>
0

> <i_epik_Tot_Q>
0

> <i_epik_Tot_abs_Q>
0

> <r_epik_Metal_State_Penalty>
-0

> <b_epik_Metal_Only>
0

> <s_epik_Chemistry_Notes>
This compound has an ester and may undergo hydrolysis at high or low pH. This compound contains an acetal/aminal-like group ( X-CH(R)-Y where X, Y are N, S, or O) that may be acid/base labile, releasing an aldehyde.

> <s_lp_Force_Field>
OPLS_2005

> <r_lp_Energy>
14.5233

> <b_lp_Chiralities_Consistent>
1

> <s_lp_Variant>
AV-unprocessed.smi:103-7

> <Gold.Version>
5.8.1

> <Gold.Id.Protein>
6NUR|6NUR_protein|mol2

> <Gold.PLP.Fitness>
41.8375

> <Gold.PLP.PLP>
-29.1742

> <Gold.PLP.part.hbond>
-6.0000

> <Gold.PLP.part.metal>
0.0000

> <Gold.PLP.part.buried>
-4.0744

> <Gold.PLP.part.nonpolar>
-19.5471

> <Gold.PLP.part.repulsive>
0.2903

> <Gold.PLP.ligand.clash>
0.0000

> <Gold.PLP.ligand.torsion>
1.5497

> <Gold.PLP.Chemscore.Hbond>
4.4787

> <Gold.PLP.Chemscore.CHOScore>
0.0000

> <Gold.PLP.Chemscore.Metal>
0.0000

> <Gold.Chemscore.Hbonds>
donor molecule, donor type, donor heavy atom, donor atom, acceptor molecule, acceptor atom, score
      P1  H  6896  6907       L1    21  0.27
      P1  H  6896  6908       L1     7  1.00
      P1  H  6931  6943       L1    13  0.02
      P1  H  6934  6947       L1    13  0.70
      P1  H 10752 10763       L1    32  1.00
      P1  H 10752 10764       L1     3  1.00

> <Gold.PLP.Chemscore.Internal.Correction>
2.3266

> <Gold.Rescore>
     Score         DG    S(hbond)    S(metal)    S(lipo)     H(rot)  DE(clash)    DE(int)     intcor
      7.11     -12.04       3.93        0.00      36.85       4.25       0.16       4.77       ----

> <Gold.Chemscore.Fitness>
7.1117

> <Gold.Chemscore.DG>
-12.0362

> <Gold.Chemscore.ZeroCoef>
-5.4800

> <Gold.Chemscore.Hbond>
3.9260

> <Gold.Chemscore.Metal>
0.0000

> <Gold.Chemscore.Lipo>
36.8542

> <Gold.Chemscore.Internal_Hbond>
0.0000

> <Gold.Chemscore.DEClash>
0.1564

> <Gold.Chemscore.DEInternal>
4.7681

> <Gold.Chemscore.Rot>
4.2456

> <Gold.Chemscore.Internal.Correction>
   9.000000E+99

> <Gold.Chemscore.Hbonds>
donor molecule, donor type, donor heavy atom, donor atom, acceptor molecule, acceptor atom, score
      P1  H  6896  6908       L1     7  0.88
      P1  H  6934  6947       L1    13  0.69
      P1  H 10752 10763       L1    32  0.97
      P1  H 10752 10764       L1     3  1.00

> <Gold.Chemscore.Hbond.Weighted>
-13.1129

> <Gold.Chemscore.Metal.Weighted>
-0.0000

> <Gold.Chemscore.Lipo.Weighted>
-4.3119

> <Gold.Chemscore.Internal_Hbond.Weighted>
0.0000

> <Gold.Chemscore.DEClash.Weighted>
0.1564

> <Gold.Chemscore.DEInternal.Weighted>
4.7681

> <Gold.Chemscore.Rot.Weighted>
10.8687

> <Gold.Chemscore.Internal.Correction.Weighted>
   9.000000E+99

> <Gold.Protein.RotatedTorsions>
[ 6907 6896 6895 6894 ] final -140.78 input  -60.11 | X-H torsion
[ 7974 7965 7964 7962 ] final   68.29 input  175.53 | X-H torsion
[ 8008 7997 7996 7995 ] final   82.41 input   59.86 | X-H torsion
[ 10167 10162 10161 10158 ] final  157.49 input  -65.29 | X-H torsion
[ 10718 10713 10712 10709 ] final  -45.89 input   66.30 | X-H torsion
[ 10763 10752 10751 10750 ] final   41.01 input  -60.55 | X-H torsion
[ 11005 11000 10999 10996 ] final   23.21 input  -57.11 | X-H torsion

> <Gold.Protein.ActiveResidues>
 VAL166  LYS551  ARG553  GLY616  TRP617  ASP618  TYR619  PRO620  LYS621  CYS622 
 ASP623  PHE694  ASN695  SER759  ASP760  ASP761  ALA762  ILE779  LEU786  VAL792 
 PHE793  MET794  SER795  GLU796  ALA797  LYS798  CYS799  TRP800  GLU811  SER814 

> <Gold.Protein.RotatedAtoms>
  151.0652  133.5511  159.2631 H   0  0  0  0  0  0  0  0  0  0  0  0  # atno 6907 bound_to 6896
  151.2472  135.0609  159.9058 H   0  0  0  0  0  0  0  0  0  0  0  0  # atno 6908 bound_to 6896
  152.5403  134.0418  159.8124 H   0  0  0  0  0  0  0  0  0  0  0  0  # atno 6909 bound_to 6896
  145.8043  139.2999  143.1136 H   0  0  0  0  0  0  0  0  0  0  0  0  # atno 7974 bound_to 7965
  155.9103  140.3428  155.6093 H   0  0  0  0  0  0  0  0  0  0  0  0  # atno 8008 bound_to 7997
  155.7396  140.0806  157.2271 H   0  0  0  0  0  0  0  0  0  0  0  0  # atno 8009 bound_to 7997
  154.4055  140.1573  156.2588 H   0  0  0  0  0  0  0  0  0  0  0  0  # atno 8010 bound_to 7997
  139.4823  144.4913  151.8304 H   0  0  0  0  0  0  0  0  0  0  0  0  # atno 10167 bound_to 10162
  156.2238  130.4168  149.8960 H   0  0  0  0  0  0  0  0  0  0  0  0  # atno 10718 bound_to 10713
  152.9920  135.6174  154.2718 H   0  0  0  0  0  0  0  0  0  0  0  0  # atno 10763 bound_to 10752
  154.2450  135.2787  155.2840 H   0  0  0  0  0  0  0  0  0  0  0  0  # atno 10764 bound_to 10752
  154.5337  135.5781  153.6838 H   0  0  0  0  0  0  0  0  0  0  0  0  # atno 10765 bound_to 10752
  140.3721  134.2011  155.7666 H   0  0  0  0  0  0  0  0  0  0  0  0  # atno 11005 bound_to 11000
  145.9844  140.8655  143.0098 LP  0  0  0  0  0  0  0  0  0  0  0  0  # atno 17320 bound_to 7965
  144.6765  140.2126  143.7375 LP  0  0  0  0  0  0  0  0  0  0  0  0  # atno 17321 bound_to 7965
  140.4397  144.2003  150.5891 LP  0  0  0  0  0  0  0  0  0  0  0  0  # atno 17342 bound_to 10162
  140.4696  143.2418  151.9108 LP  0  0  0  0  0  0  0  0  0  0  0  0  # atno 17343 bound_to 10162
  156.6597  130.8777  151.3545 LP  0  0  0  0  0  0  0  0  0  0  0  0  # atno 17370 bound_to 10713
  157.7100  130.9429  150.1058 LP  0  0  0  0  0  0  0  0  0  0  0  0  # atno 17371 bound_to 10713
  141.1951  133.8113  157.0729 LP  0  0  0  0  0  0  0  0  0  0  0  0  # atno 17394 bound_to 11000
  140.0544  134.9788  157.1193 LP  0  0  0  0  0  0  0  0  0  0  0  0  # atno 17395 bound_to 11000

$$$$
