AV-unprocessed.smi:35|AV-procd|sdf|272|dock6
  -GOLD-   2262016 43D 1   1.00000     0.00000
 Structure written by MMmdl.
 28 29  0  0  0  0  0  0  0  0  2 V2000
  149.8846  135.3810  158.2348 O   0  0  0  0  0  0  0  0  0  0  0  0
  150.0466  136.4594  157.6667 C   0  0  0  0  0  0  0  0  0  0  0  0
  150.2528  137.6281  158.3389 N   0  5  0  0  0  0  0  0  0  0  0  0
  150.4112  138.8266  157.7039 C   0  0  0  0  0  0  0  0  0  0  0  0
  150.6532  139.8724  158.3060 O   0  0  0  0  0  0  0  0  0  0  0  0
  150.3049  138.8783  156.2844 N   0  0  0  0  0  0  0  0  0  0  0  0
  150.4995  140.2074  155.5695 C   0  0  1  0  0  0  0  0  0  0  0  0
  150.2957  140.0308  154.1934 O   0  0  0  0  0  0  0  0  0  0  0  0
  149.0458  140.5746  153.7692 C   0  0  1  0  0  0  0  0  0  0  0  0
  147.9154  139.5254  153.8860 C   0  0  0  0  0  0  0  0  0  0  0  0
  148.0188  138.5844  152.8389 O   0  0  0  0  0  0  0  0  0  0  0  0
  148.9102  141.7813  154.7039 C   0  0  1  0  0  0  0  0  0  0  0  0
  147.5773  142.2322  154.8469 O   0  0  0  0  0  0  0  0  0  0  0  0
  149.4812  141.2800  156.0234 C   0  0  2  0  0  0  0  0  0  0  0  0
  150.1095  142.3517  156.6973 O   0  0  0  0  0  0  0  0  0  0  0  0
  150.1671  137.6933  155.5763 C   0  0  0  0  0  0  0  0  0  0  0  0
  150.0287  136.5109  156.2085 C   0  0  0  0  0  0  0  0  0  0  0  0
  149.8171  134.9091  155.0617 Br  0  0  0  0  0  0  0  0  0  0  0  0
  151.5424  140.4693  155.7564 H   0  0  0  0  0  0  0  0  0  0  0  0
  149.1183  140.9127  152.7346 H   0  0  0  0  0  0  0  0  0  0  0  0
  147.9049  139.0257  154.8533 H   0  0  0  0  0  0  0  0  0  0  0  0
  146.9409  139.9998  153.7725 H   0  0  0  0  0  0  0  0  0  0  0  0
  148.7724  138.8038  152.3128 H   0  0  0  0  0  0  0  0  0  0  0  0
  149.5235  142.5948  154.3114 H   0  0  0  0  0  0  0  0  0  0  0  0
  147.5960  143.1646  155.0007 H   0  0  0  0  0  0  0  0  0  0  0  0
  148.7022  140.8262  156.6389 H   0  0  0  0  0  0  0  0  0  0  0  0
  149.9182  143.1469  156.2215 H   0  0  0  0  0  0  0  0  0  0  0  0
  150.1668  137.6945  154.4973 H   0  0  0  0  0  0  0  0  0  0  0  0
  1  2  2  0  0  0  0
  2 17  1  0  0  0  0
  2  3  1  0  0  0  0
  3  4  1  0  0  0  0
  4  5  2  0  0  0  0
  4  6  1  0  0  0  0
  6  7  1  0  0  0  0
  6 16  1  0  0  0  0
  7 14  1  0  0  0  0
  7  8  1  0  0  0  0
  7 19  1  0  0  0  0
  8  9  1  0  0  0  0
  9 10  1  0  0  0  0
  9 12  1  0  0  0  0
  9 20  1  0  0  0  0
 10 11  1  0  0  0  0
 10 21  1  0  0  0  0
 10 22  1  0  0  0  0
 11 23  1  0  0  0  0
 12 13  1  0  0  0  0
 12 14  1  0  0  0  0
 12 24  1  0  0  0  0
 13 25  1  0  0  0  0
 14 15  1  0  0  0  0
 14 26  1  0  0  0  0
 15 27  1  0  0  0  0
 16 17  2  0  0  0  0
 16 28  1  0  0  0  0
 17 18  1  0  0  0  0
M  CHG  1   3  -1
M  END
> <s_m_source_file>
AV-unprocessed.smi

> <i_m_source_file_index>
35

> <i_lp_mmshare_version>
43012

> <i_f3d_flags>
0

> <s_epik_input>
Tz1jMVtuSF1jKD1PKW4oW2NIXWMxQnIpW0NAQEhdMk9bQ0BASF0oW0NIMl1bT0hdKVtDQEBIXShbT0hdKVtDQEhdMltPSF0=

> <s_epik_cmdline>
J2VwaWtfcHl0aG9uJywgJy1waCcsICc3LjAnLCAnLXRuJywgJzgnLCAnLW1hJywgJzIwMCcsICctbWV0YWxfYmluZGluZycsICctaW1hZScsICc8aW5maWxlLm1hZT4nLCAnLW9tYWUnLCAnPG91dGZpbGUubWFlPic=

> <r_epik_Ionization_Penalty>
1.06112

> <r_epik_Ionization_Penalty_Charging>
2.1796e-09

> <r_epik_Ionization_Penalty_Neutral>
1.06112

> <r_epik_State_Penalty>
1.11484

> <r_epik_Charging_Adjusted_Penalty>
1.11484

> <i_epik_Tot_Q>
-1

> <i_epik_Tot_abs_Q>
1

> <r_epik_Metal_State_Penalty>
0.0032876

> <b_epik_Metal_Only>
0

> <s_epik_Chemistry_Notes>
This compound contains an acetal/aminal-like group ( X-CH(R)-Y where X, Y are N, S, or O) that may be acid/base labile, releasing an aldehyde.

> <s_lp_Force_Field>
OPLS_2005

> <r_lp_Energy>
39.1744

> <b_lp_Chiralities_Consistent>
1

> <s_lp_Variant>
AV-unprocessed.smi:35-26

> <Gold.Version>
5.8.1

> <Gold.Id.Protein>
6NUR|6NUR_protein|mol2

> <Gold.PLP.Fitness>
36.3910

> <Gold.PLP.PLP>
-21.9970

> <Gold.PLP.part.hbond>
-6.0000

> <Gold.PLP.part.metal>
0.0000

> <Gold.PLP.part.buried>
-0.0848

> <Gold.PLP.part.nonpolar>
-16.2265

> <Gold.PLP.part.repulsive>
0.3943

> <Gold.PLP.ligand.clash>
0.0000

> <Gold.PLP.ligand.torsion>
0.1526

> <Gold.PLP.Chemscore.Hbond>
4.8793

> <Gold.PLP.Chemscore.CHOScore>
0.0000

> <Gold.PLP.Chemscore.Metal>
0.0000

> <Gold.Chemscore.Hbonds>
donor molecule, donor type, donor heavy atom, donor atom, acceptor molecule, acceptor atom, score
      L1  H    11    23       P1  7957  0.96
      L1  H    13    25       P1  8028  0.74
      L1  H    15    27       P1  8028  1.00
      P1  H  6896  6907       L1     1  0.98
      P1  H  7989  7998       L1     8  1.00

> <Gold.PLP.Chemscore.Internal.Correction>
0.0615

> <Gold.Rescore>
     Score         DG    S(hbond)    S(metal)    S(lipo)     H(rot)  DE(clash)    DE(int)     intcor
     11.58     -13.03       3.71        0.00      37.96       3.63       1.19       0.25       ----

> <Gold.Chemscore.Fitness>
11.5828

> <Gold.Chemscore.DG>
-13.0293

> <Gold.Chemscore.ZeroCoef>
-5.4800

> <Gold.Chemscore.Hbond>
3.7097

> <Gold.Chemscore.Metal>
0.0000

> <Gold.Chemscore.Lipo>
37.9636

> <Gold.Chemscore.Internal_Hbond>
0.0000

> <Gold.Chemscore.DEClash>
1.1933

> <Gold.Chemscore.DEInternal>
0.2531

> <Gold.Chemscore.Rot>
3.6261

> <Gold.Chemscore.Internal.Correction>
   9.000000E+99

> <Gold.Chemscore.Hbonds>
donor molecule, donor type, donor heavy atom, donor atom, acceptor molecule, acceptor atom, score
      L1  H    11    23       P1  7957  0.87
      L1  H    13    25       P1  8028  0.32
      L1  H    15    27       P1  8028  0.98
      P1  H  6896  6907       L1     1  0.93
      P1  H  7989  7998       L1     8  0.34

> <Gold.Chemscore.Hbond.Weighted>
-12.3903

> <Gold.Chemscore.Metal.Weighted>
-0.0000

> <Gold.Chemscore.Lipo.Weighted>
-4.4417

> <Gold.Chemscore.Internal_Hbond.Weighted>
0.0000

> <Gold.Chemscore.DEClash.Weighted>
1.1933

> <Gold.Chemscore.DEInternal.Weighted>
0.2531

> <Gold.Chemscore.Rot.Weighted>
9.2828

> <Gold.Chemscore.Internal.Correction.Weighted>
   9.000000E+99

> <Gold.Protein.RotatedTorsions>
[ 6907 6896 6895 6894 ] final  -80.75 input  -60.11 | X-H torsion
[ 7974 7965 7964 7962 ] final -157.52 input  175.53 | X-H torsion
[ 8008 7997 7996 7995 ] final   96.54 input   59.86 | X-H torsion
[ 10167 10162 10161 10158 ] final   65.12 input  -65.29 | X-H torsion
[ 10718 10713 10712 10709 ] final  -76.22 input   66.30 | X-H torsion
[ 10763 10752 10751 10750 ] final   15.16 input  -60.55 | X-H torsion
[ 11005 11000 10999 10996 ] final  -16.72 input  -57.11 | X-H torsion

> <Gold.Protein.ActiveResidues>
 VAL166  LYS551  ARG553  GLY616  TRP617  ASP618  TYR619  PRO620  LYS621  CYS622 
 ASP623  PHE694  ASN695  SER759  ASP760  ASP761  ALA762  ILE779  LEU786  VAL792 
 PHE793  MET794  SER795  GLU796  ALA797  LYS798  CYS799  TRP800  GLU811  SER814 

> <Gold.Protein.RotatedAtoms>
  150.6924  134.3922  159.5081 H   0  0  0  0  0  0  0  0  0  0  0  0  # atno 6907 bound_to 6896
  152.1709  134.8832  160.0543 H   0  0  0  0  0  0  0  0  0  0  0  0  # atno 6908 bound_to 6896
  151.9859  133.3739  159.4162 H   0  0  0  0  0  0  0  0  0  0  0  0  # atno 6909 bound_to 6896
  144.7545  140.3957  143.6023 H   0  0  0  0  0  0  0  0  0  0  0  0  # atno 7974 bound_to 7965
  156.0807  140.3271  155.7690 H   0  0  0  0  0  0  0  0  0  0  0  0  # atno 8008 bound_to 7997
  155.5158  140.0581  157.2933 H   0  0  0  0  0  0  0  0  0  0  0  0  # atno 8009 bound_to 7997
  154.4580  140.1952  156.0340 H   0  0  0  0  0  0  0  0  0  0  0  0  # atno 8010 bound_to 7997
  140.1148  144.4786  150.6956 H   0  0  0  0  0  0  0  0  0  0  0  0  # atno 10167 bound_to 10162
  156.0182  130.4460  150.3161 H   0  0  0  0  0  0  0  0  0  0  0  0  # atno 10718 bound_to 10713
  153.1552  135.6786  153.8823 H   0  0  0  0  0  0  0  0  0  0  0  0  # atno 10763 bound_to 10752
  153.8236  135.3127  155.3413 H   0  0  0  0  0  0  0  0  0  0  0  0  # atno 10764 bound_to 10752
  154.7892  135.4844  154.0102 H   0  0  0  0  0  0  0  0  0  0  0  0  # atno 10765 bound_to 10752
  140.8096  133.8151  155.9550 H   0  0  0  0  0  0  0  0  0  0  0  0  # atno 11005 bound_to 11000
  145.6828  139.1622  143.2691 LP  0  0  0  0  0  0  0  0  0  0  0  0  # atno 17320 bound_to 7965
  146.1537  140.6888  142.9310 LP  0  0  0  0  0  0  0  0  0  0  0  0  # atno 17321 bound_to 7965
  140.6906  143.2374  151.5142 LP  0  0  0  0  0  0  0  0  0  0  0  0  # atno 17342 bound_to 10162
  139.5600  144.2180  152.1676 LP  0  0  0  0  0  0  0  0  0  0  0  0  # atno 17343 bound_to 10162
  157.1262  131.0260  151.2988 LP  0  0  0  0  0  0  0  0  0  0  0  0  # atno 17370 bound_to 10713
  157.4587  130.7641  149.7217 LP  0  0  0  0  0  0  0  0  0  0  0  0  # atno 17371 bound_to 10713
  140.9211  134.2140  157.4925 LP  0  0  0  0  0  0  0  0  0  0  0  0  # atno 17394 bound_to 11000
  139.8715  134.9793  156.5030 LP  0  0  0  0  0  0  0  0  0  0  0  0  # atno 17395 bound_to 11000

$$$$
