AV-unprocessed.smi:33|AV-procd|sdf|205|dock1
  -GOLD-   2262015493D 1   1.00000     0.00000
 Structure written by MMmdl.
 67 72  0  0  0  0  0  0  0  0  1 V2000
  152.1489  140.2467  159.7751 O   0  0  0  0  0  0  0  0  0  0  0  0
  151.8729  141.1662  159.0019 C   0  0  0  0  0  0  0  0  0  0  0  0
  151.8004  141.0204  157.6650 O   0  0  0  0  0  0  0  0  0  0  0  0
  151.9956  139.7454  157.0746 C   0  0  0  0  0  0  0  0  0  0  0  0
  150.8616  139.4676  156.0756 C   0  0  2  0  0  0  0  0  0  0  0  0
  149.8405  138.7464  156.7645 O   0  0  0  0  0  0  0  0  0  0  0  0
  149.5655  137.5366  156.1228 C   0  0  2  0  0  0  0  0  0  0  0  0
  149.1819  136.4972  157.1360 N   0  0  0  0  0  0  0  0  0  0  0  0
  149.5872  136.4030  158.4517 C   0  0  0  0  0  0  0  0  0  0  0  0
  149.1483  135.3610  159.1043 N   0  0  0  0  0  0  0  0  0  0  0  0
  148.4112  134.6619  158.1590 C   0  0  0  0  0  0  0  0  0  0  0  0
  147.6855  133.4402  158.1799 C   0  0  0  0  0  0  0  0  0  0  0  0
  147.5830  132.6626  159.2836 N   0  0  0  0  0  0  0  0  0  0  0  0
  147.1384  133.3131  160.5255 C   0  0  0  0  0  0  0  0  0  0  0  0
  147.4578  132.8280  161.6127 O   0  0  0  0  0  0  0  0  0  0  0  0
  146.3497  134.5912  160.4794 C   0  0  0  0  0  0  0  0  0  0  0  0
  146.5694  135.5910  161.4523 C   0  0  0  0  0  0  0  0  0  0  0  0
  145.8229  136.7849  161.4250 C   0  0  0  0  0  0  0  0  0  0  0  0
  144.8397  136.9792  160.4362 C   0  0  0  0  0  0  0  0  0  0  0  0
  144.5962  135.9750  159.4800 C   0  0  0  0  0  0  0  0  0  0  0  0
  145.3420  134.7808  159.5068 C   0  0  0  0  0  0  0  0  0  0  0  0
  147.9325  131.2420  159.1390 C   0  0  0  0  0  0  0  0  0  0  0  0
  148.7022  130.8924  158.2425 O   0  0  0  0  0  0  0  0  0  0  0  0
  147.3936  130.2245  160.1042 C   0  0  0  0  0  0  0  0  0  0  0  0
  146.0015  130.0075  160.2001 C   0  0  0  0  0  0  0  0  0  0  0  0
  145.4919  129.0607  161.1099 C   0  0  0  0  0  0  0  0  0  0  0  0
  146.3688  128.3410  161.9439 C   0  0  0  0  0  0  0  0  0  0  0  0
  147.7554  128.5748  161.8747 C   0  0  0  0  0  0  0  0  0  0  0  0
  148.2661  129.5188  160.9632 C   0  0  0  0  0  0  0  0  0  0  0  0
  147.0836  133.0355  157.0318 N   0  0  0  0  0  0  0  0  0  0  0  0
  147.1907  133.7813  155.9289 C   0  0  0  0  0  0  0  0  0  0  0  0
  147.8351  134.9385  155.7631 N   0  0  0  0  0  0  0  0  0  0  0  0
  148.4354  135.3550  156.9169 C   0  0  0  0  0  0  0  0  0  0  0  0
  150.8292  137.1841  155.3268 C   0  0  2  0  0  0  0  0  0  0  0  0
  151.8239  136.5499  156.1132 O   0  0  0  0  0  0  0  0  0  0  0  0
  151.2498  138.5739  154.8896 C   0  0  2  0  0  0  0  0  0  0  0  0
  152.5263  138.6504  154.5084 F   0  0  0  0  0  0  0  0  0  0  0  0
  151.5852  142.5597  159.4489 C   0  0  0  0  0  0  0  0  0  0  0  0
  151.1168  143.5068  158.5086 C   0  0  0  0  0  0  0  0  0  0  0  0
  150.8369  144.8301  158.9018 C   0  0  0  0  0  0  0  0  0  0  0  0
  151.0229  145.2227  160.2399 C   0  0  0  0  0  0  0  0  0  0  0  0
  151.4889  144.2902  161.1849 C   0  0  0  0  0  0  0  0  0  0  0  0
  151.7685  142.9663  160.7938 C   0  0  0  0  0  0  0  0  0  0  0  0
  152.9682  139.6855  156.5851 H   0  0  0  0  0  0  0  0  0  0  0  0
  151.9833  138.9943  157.8655 H   0  0  0  0  0  0  0  0  0  0  0  0
  150.4455  140.4117  155.7219 H   0  0  0  0  0  0  0  0  0  0  0  0
  148.6836  137.6467  155.4900 H   0  0  0  0  0  0  0  0  0  0  0  0
  150.2236  137.1398  158.9203 H   0  0  0  0  0  0  0  0  0  0  0  0
  147.3212  135.4524  162.2160 H   0  0  0  0  0  0  0  0  0  0  0  0
  146.0044  137.5512  162.1640 H   0  0  0  0  0  0  0  0  0  0  0  0
  144.2677  137.8951  160.4158 H   0  0  0  0  0  0  0  0  0  0  0  0
  143.8362  136.1198  158.7262 H   0  0  0  0  0  0  0  0  0  0  0  0
  145.1423  134.0154  158.7707 H   0  0  0  0  0  0  0  0  0  0  0  0
  145.3197  130.5534  159.5639 H   0  0  0  0  0  0  0  0  0  0  0  0
  144.4276  128.8867  161.1684 H   0  0  0  0  0  0  0  0  0  0  0  0
  145.9773  127.6151  162.6411 H   0  0  0  0  0  0  0  0  0  0  0  0
  148.4279  128.0309  162.5214 H   0  0  0  0  0  0  0  0  0  0  0  0
  149.3318  129.6933  160.9214 H   0  0  0  0  0  0  0  0  0  0  0  0
  146.6907  133.3953  155.0530 H   0  0  0  0  0  0  0  0  0  0  0  0
  150.5775  136.5420  154.4823 H   0  0  0  0  0  0  0  0  0  0  0  0
  151.4086  135.8898  156.6471 H   0  0  0  0  0  0  0  0  0  0  0  0
  150.6562  138.8647  154.0218 H   0  0  0  0  0  0  0  0  0  0  0  0
  150.9661  143.2289  157.4752 H   0  0  0  0  0  0  0  0  0  0  0  0
  150.4790  145.5441  158.1748 H   0  0  0  0  0  0  0  0  0  0  0  0
  150.8086  146.2375  160.5412 H   0  0  0  0  0  0  0  0  0  0  0  0
  151.6324  144.5905  162.2124 H   0  0  0  0  0  0  0  0  0  0  0  0
  152.1248  142.2763  161.5446 H   0  0  0  0  0  0  0  0  0  0  0  0
  1  2  2  0  0  0  0
  2  3  1  0  0  0  0
  2 38  1  0  0  0  0
  3  4  1  0  0  0  0
  4  5  1  0  0  0  0
  4 44  1  0  0  0  0
  4 45  1  0  0  0  0
  5 36  1  0  0  0  0
  5  6  1  0  0  0  0
  5 46  1  0  0  0  0
  6  7  1  0  0  0  0
  7  8  1  0  0  0  0
  7 34  1  0  0  0  0
  7 47  1  0  0  0  0
  8 33  1  0  0  0  0
  8  9  1  0  0  0  0
  9 10  2  0  0  0  0
  9 48  1  0  0  0  0
 10 11  1  0  0  0  0
 11 33  2  0  0  0  0
 11 12  1  0  0  0  0
 12 13  1  0  0  0  0
 12 30  2  0  0  0  0
 13 14  1  0  0  0  0
 13 22  1  0  0  0  0
 14 15  2  0  0  0  0
 14 16  1  0  0  0  0
 16 21  1  0  0  0  0
 16 17  2  0  0  0  0
 17 18  1  0  0  0  0
 17 49  1  0  0  0  0
 18 19  2  0  0  0  0
 18 50  1  0  0  0  0
 19 20  1  0  0  0  0
 19 51  1  0  0  0  0
 20 21  2  0  0  0  0
 20 52  1  0  0  0  0
 21 53  1  0  0  0  0
 22 23  2  0  0  0  0
 22 24  1  0  0  0  0
 24 29  1  0  0  0  0
 24 25  2  0  0  0  0
 25 26  1  0  0  0  0
 25 54  1  0  0  0  0
 26 27  2  0  0  0  0
 26 55  1  0  0  0  0
 27 28  1  0  0  0  0
 27 56  1  0  0  0  0
 28 29  2  0  0  0  0
 28 57  1  0  0  0  0
 29 58  1  0  0  0  0
 30 31  1  0  0  0  0
 31 32  2  0  0  0  0
 31 59  1  0  0  0  0
 32 33  1  0  0  0  0
 34 35  1  0  0  0  0
 34 36  1  0  0  0  0
 34 60  1  0  0  0  0
 35 61  1  0  0  0  0
 36 37  1  0  0  0  0
 36 62  1  0  0  0  0
 38 43  1  0  0  0  0
 38 39  2  0  0  0  0
 39 40  1  0  0  0  0
 39 63  1  0  0  0  0
 40 41  2  0  0  0  0
 40 64  1  0  0  0  0
 41 42  1  0  0  0  0
 41 65  1  0  0  0  0
 42 43  2  0  0  0  0
 42 66  1  0  0  0  0
 43 67  1  0  0  0  0
M  END
> <s_m_source_file>
AV-unprocessed.smi

> <i_m_source_file_index>
33

> <i_lp_mmshare_version>
43012

> <i_f3d_flags>
0

> <s_epik_input>
W2NIXTFbY0hdW2NIXVtjSF1bY0hdYzFDKD1PKU9bQ0gyXVtDQEBIXTJPW0NASF0oW0NAQEhdKFtPSF0pW0NAQEhdMkYpbihbY0hdbjMpYyhjMzQpbltjSF1uYzROKEMoPU8pYzVbY0hdW2NIXVtjSF1bY0hdW2NIXTUpQyg9TyljNltjSF1bY0hdW2NIXVtjSF1bY0hdNg==

> <s_epik_cmdline>
J2VwaWtfcHl0aG9uJywgJy1waCcsICc3LjAnLCAnLXRuJywgJzgnLCAnLW1hJywgJzIwMCcsICctbWV0YWxfYmluZGluZycsICctaW1hZScsICc8aW5maWxlLm1hZT4nLCAnLW9tYWUnLCAnPG91dGZpbGUubWFlPic=

> <r_lp_tautomer_probability>
1

> <r_epik_Ionization_Penalty>
0.00067664

> <r_epik_Ionization_Penalty_Charging>
0

> <r_epik_Ionization_Penalty_Neutral>
0.00067664

> <r_epik_State_Penalty>
0.000428095

> <r_epik_Charging_Adjusted_Penalty>
0.000428095

> <i_epik_Tot_Q>
0

> <i_epik_Tot_abs_Q>
0

> <r_epik_Metal_State_Penalty>
-0

> <b_epik_Metal_Only>
0

> <s_epik_Chemistry_Notes>
This compound has an ester and may undergo hydrolysis at high or low pH. This compound contains an acetal/aminal-like group ( X-CH(R)-Y where X, Y are N, S, or O) that may be acid/base labile, releasing an aldehyde.

> <s_lp_Force_Field>
OPLS_2005

> <r_lp_Energy>
85.1188

> <b_lp_Chiralities_Consistent>
1

> <s_lp_Variant>
AV-unprocessed.smi:33-7

> <Gold.Version>
5.8.1

> <Gold.Id.Protein>
6NUR|6NUR_protein|mol2

> <Gold.PLP.Fitness>
57.5325

> <Gold.PLP.PLP>
-55.7456

> <Gold.PLP.part.hbond>
-2.0000

> <Gold.PLP.part.metal>
0.0000

> <Gold.PLP.part.buried>
-5.1538

> <Gold.PLP.part.nonpolar>
-48.1413

> <Gold.PLP.part.repulsive>
0.0243

> <Gold.PLP.ligand.clash>
0.0000

> <Gold.PLP.ligand.torsion>
4.6378

> <Gold.PLP.Chemscore.Hbond>
1.9913

> <Gold.PLP.Chemscore.CHOScore>
0.0000

> <Gold.PLP.Chemscore.Metal>
0.0000

> <Gold.Chemscore.Hbonds>
donor molecule, donor type, donor heavy atom, donor atom, acceptor molecule, acceptor atom, score
      P1  H  6896  6908       L1    10  1.00
      P1  H 10752 10765       L1    35  1.00

> <Gold.PLP.Chemscore.Internal.Correction>
5.0887

> <Gold.Rescore>
     Score         DG    S(hbond)    S(metal)    S(lipo)     H(rot)  DE(clash)    DE(int)     intcor
     12.22     -20.42       1.12        0.00     150.91       2.52       0.27       7.93       ----

> <Gold.Chemscore.Fitness>
12.2161

> <Gold.Chemscore.DG>
-20.4224

> <Gold.Chemscore.ZeroCoef>
-5.4800

> <Gold.Chemscore.Hbond>
1.1226

> <Gold.Chemscore.Metal>
0.0000

> <Gold.Chemscore.Lipo>
150.9068

> <Gold.Chemscore.Internal_Hbond>
0.0000

> <Gold.Chemscore.DEClash>
0.2737

> <Gold.Chemscore.DEInternal>
7.9326

> <Gold.Chemscore.Rot>
2.5247

> <Gold.Chemscore.Internal.Correction>
   9.000000E+99

> <Gold.Chemscore.Hbonds>
donor molecule, donor type, donor heavy atom, donor atom, acceptor molecule, acceptor atom, score
      P1  H  6896  6908       L1    10  0.24
      P1  H 10752 10765       L1    35  0.33

> <Gold.Chemscore.Hbond.Weighted>
-3.7496

> <Gold.Chemscore.Metal.Weighted>
-0.0000

> <Gold.Chemscore.Lipo.Weighted>
-17.6561

> <Gold.Chemscore.Internal_Hbond.Weighted>
0.0000

> <Gold.Chemscore.DEClash.Weighted>
0.2737

> <Gold.Chemscore.DEInternal.Weighted>
7.9326

> <Gold.Chemscore.Rot.Weighted>
6.4633

> <Gold.Chemscore.Internal.Correction.Weighted>
   9.000000E+99

> <Gold.Protein.RotatedTorsions>
[ 6907 6896 6895 6894 ] final  174.04 input  -60.11 | X-H torsion
[ 7974 7965 7964 7962 ] final -174.77 input  175.53 | X-H torsion
[ 8008 7997 7996 7995 ] final  -76.17 input   59.86 | X-H torsion
[ 10167 10162 10161 10158 ] final    3.92 input  -65.29 | X-H torsion
[ 10718 10713 10712 10709 ] final  -63.56 input   66.30 | X-H torsion
[ 10763 10752 10751 10750 ] final -152.96 input  -60.55 | X-H torsion
[ 11005 11000 10999 10996 ] final   79.03 input  -57.11 | X-H torsion

> <Gold.Protein.ActiveResidues>
 VAL166  LYS551  ARG553  GLY616  TRP617  ASP618  TYR619  PRO620  LYS621  CYS622 
 ASP623  PHE694  ASN695  SER759  ASP760  ASP761  ALA762  ILE779  LEU786  VAL792 
 PHE793  MET794  SER795  GLU796  ALA797  LYS798  CYS799  TRP800  GLU811  SER814 

> <Gold.Protein.RotatedAtoms>
  151.7587  133.3332  159.3411 H   0  0  0  0  0  0  0  0  0  0  0  0  # atno 6907 bound_to 6896
  150.7506  134.6126  159.6103 H   0  0  0  0  0  0  0  0  0  0  0  0  # atno 6908 bound_to 6896
  152.3420  134.7124  160.0312 H   0  0  0  0  0  0  0  0  0  0  0  0  # atno 6909 bound_to 6896
  144.7130  140.1421  143.6391 H   0  0  0  0  0  0  0  0  0  0  0  0  # atno 7974 bound_to 7965
  154.5481  140.0731  156.8623 H   0  0  0  0  0  0  0  0  0  0  0  0  # atno 8008 bound_to 7997
  155.3046  140.3386  155.4228 H   0  0  0  0  0  0  0  0  0  0  0  0  # atno 8009 bound_to 7997
  156.1937  140.1695  156.8027 H   0  0  0  0  0  0  0  0  0  0  0  0  # atno 8010 bound_to 7997
  140.6561  143.7423  150.7656 H   0  0  0  0  0  0  0  0  0  0  0  0  # atno 10167 bound_to 10162
  156.0784  130.4222  150.1294 H   0  0  0  0  0  0  0  0  0  0  0  0  # atno 10718 bound_to 10713
  154.7959  135.3224  154.7667 H   0  0  0  0  0  0  0  0  0  0  0  0  # atno 10763 bound_to 10752
  153.8345  135.6876  153.4814 H   0  0  0  0  0  0  0  0  0  0  0  0  # atno 10764 bound_to 10752
  153.1651  135.4645  154.9768 H   0  0  0  0  0  0  0  0  0  0  0  0  # atno 10765 bound_to 10752
  139.9189  134.7810  156.1726 H   0  0  0  0  0  0  0  0  0  0  0  0  # atno 11005 bound_to 11000
  145.9192  139.2535  143.1391 LP  0  0  0  0  0  0  0  0  0  0  0  0  # atno 17320 bound_to 7965
  145.9637  140.8815  143.0198 LP  0  0  0  0  0  0  0  0  0  0  0  0  # atno 17321 bound_to 7965
  140.1083  143.4723  152.2385 LP  0  0  0  0  0  0  0  0  0  0  0  0  # atno 17342 bound_to 10162
  139.5784  144.7499  151.3704 LP  0  0  0  0  0  0  0  0  0  0  0  0  # atno 17343 bound_to 10162
  156.9330  130.9720  151.3529 LP  0  0  0  0  0  0  0  0  0  0  0  0  # atno 17370 bound_to 10713
  157.5889  130.8430  149.8630 LP  0  0  0  0  0  0  0  0  0  0  0  0  # atno 17371 bound_to 10713
  141.0691  133.6805  156.2104 LP  0  0  0  0  0  0  0  0  0  0  0  0  # atno 17394 bound_to 11000
  140.6536  134.5041  157.5579 LP  0  0  0  0  0  0  0  0  0  0  0  0  # atno 17395 bound_to 11000

$$$$
