#       Name:                AV-unprocessed.smi:2448
#       Creating user name   scv26
#       Creation time:       Fri Mar 27 13:29:17 2020


#       File generated by GOLD software.
#

@<TRIPOS>MOLECULE
AV-unprocessed.smi:2448
    41    42     1
SMALL
NO_CHARGES


@<TRIPOS>ATOM
      1 ****        -3.1808  -0.1066  -1.6860 O.3            1 S1                 0.0000
      2 ****        -2.7963   0.6237  -0.5336 C.3            1 S1                 0.0000
      3 ****        -1.2556   0.6733  -0.4890 C.3            1 S1                 0.0000
      4 ****        -0.6714  -0.6805  -0.3581 N.4            1 S1                 1.0000
      5 ****         0.8057  -0.7601  -0.4424 C.3            1 S1                 0.0000
      6 ****         1.4525  -0.2347   0.8631 C.3            1 S1                 0.0000
      7 ****         2.9701  -0.2670   0.8648 C.ar           1 S1                 0.0000
      8 ****         3.6709  -1.1761   1.6844 C.ar           1 S1                 0.0000
      9 ****         5.0796  -1.1694   1.6437 C.ar           1 S1                 0.0000
     10 ****         5.7944  -0.3341   0.8597 N.ar           1 S1                 0.0000
     11 ****         5.1173   0.5367   0.0810 C.ar           1 S1                 0.0000
     12 ****         3.7102   0.6116   0.0463 C.ar           1 S1                 0.0000
     13 ****         1.2109  -2.2095  -0.7975 C.3            1 S1                 0.0000
     14 ****         0.5422  -2.6022  -1.8825 F              1 S1                 0.0000
     15 ****         2.5117  -2.3037  -1.0692 F              1 S1                 0.0000
     16 ****         0.9133  -3.0338   0.2072 F              1 S1                 0.0000
     17 ****        -3.4199   2.0257  -0.6342 C.3            1 S1                 0.0000
     18 ****        -4.9201   1.8932  -0.3529 C.3            1 S1                 0.0000
     19 ****        -5.1305   0.5752   0.8696 S.3            1 S1                 0.0000
     20 ****        -3.4247  -0.0185   0.7169 C.3            1 S1                 0.0000
     21 ****        -2.9394   0.3881  -2.4546 H              1 S1                 0.0000
     22 ****        -0.8741   1.1470  -1.3947 H              1 S1                 0.0000
     23 ****        -0.9348   1.2905   0.3502 H              1 S1                 0.0000
     24 ****        -0.9744  -1.0951   0.5116 H              1 S1                 0.0000
     25 ****         1.1219  -0.1252  -1.2715 H              1 S1                 0.0000
     26 ****         1.1567   0.7982   1.0462 H              1 S1                 0.0000
     27 ****         1.0825  -0.8072   1.7148 H              1 S1                 0.0000
     28 ****         3.1468  -1.8676   2.3278 H              1 S1                 0.0000
     29 ****         5.6467  -1.8543   2.2568 H              1 S1                 0.0000
     30 ****         5.7149   1.1931  -0.5340 H              1 S1                 0.0000
     31 ****         3.2165   1.3259  -0.5961 H              1 S1                 0.0000
     32 ****        -2.9793   2.6729   0.1256 H              1 S1                 0.0000
     33 ****        -3.2306   2.4987  -1.5988 H              1 S1                 0.0000
     34 ****        -5.3571   2.8279  -0.0009 H              1 S1                 0.0000
     35 ****        -5.4485   1.6021  -1.2614 H              1 S1                 0.0000
     36 ****        -3.3920  -1.1086   0.6943 H              1 S1                 0.0000
     37 ****        -2.8910   0.3041   1.6116 H              1 S1                 0.0000
     38 ****        -1.0446  -1.2337  -1.1171 H              1 S1                 0.0000
     39 ****        -4.1701  -0.2523  -1.6771 LP             1 S1                 0.0000
     40 ****        -2.7137  -0.9908  -1.6950 LP             1 S1                 0.0000
     41 ****         6.7941  -0.3596   0.8559 LP             1 S1                 0.0000
@<TRIPOS>BOND
    1    1    2 1     
    2    1   21 1     
    3    2   20 1     
    4    2    3 1     
    5    2   17 1     
    6    3    4 1     
    7    3   22 1     
    8    3   23 1     
    9    4    5 1     
   10    4   24 1     
   11    4   38 1     
   12    5    6 1     
   13    5   13 1     
   14    5   25 1     
   15    6    7 1     
   16    6   26 1     
   17    6   27 1     
   18    7   12 ar    
   19    7    8 ar    
   20    8    9 ar    
   21    8   28 1     
   22    9   10 ar    
   23    9   29 1     
   24   10   11 ar    
   25   11   12 ar    
   26   11   30 1     
   27   12   31 1     
   28   13   14 1     
   29   13   15 1     
   30   13   16 1     
   31   17   18 1     
   32   17   32 1     
   33   17   33 1     
   34   18   19 1     
   35   18   34 1     
   36   18   35 1     
   37   19   20 1     
   38   20   36 1     
   39   20   37 1     
   40    1   39 1     
   41    1   40 1     
   42   10   41 1     
@<TRIPOS>SUBSTRUCTURE
      1 S1             1
@<TRIPOS>SET
LONE_PAIRS      STATIC     ATOMS    <user>   **** ""
3 39 40 41
DONOR_HYDROGENS      STATIC     ATOMS    <user>   **** ""
3 21 24 38
ATOM$BLUE        STATIC     ATOMS    COLORGROUP SYSTEM
3 39 40 41
ATOM$RED        STATIC     ATOMS    COLORGROUP SYSTEM
3 21 24 38
