AV-unprocessed.smi:1518|AV-procd|sdf|6124|dock5
  -GOLD-   22720 6263D 1   1.00000     0.00000
 Structure written by MMmdl.
 45 47  0  0  0  0  0  0  0  0  1 V2000
  144.9049  144.3088  152.4717 C   0  0  0  0  0  0  0  0  0  0  0  0
  144.3166  143.8914  153.8187 C   0  0  0  0  0  0  0  0  0  0  0  0
  143.4883  144.6280  154.3533 O   0  0  0  0  0  0  0  0  0  0  0  0
  144.7839  142.6082  154.4180 C   0  0  0  0  0  0  0  0  0  0  0  0
  143.8873  141.8460  155.2002 C   0  0  0  0  0  0  0  0  0  0  0  0
  144.3000  140.6328  155.7799 C   0  0  0  0  0  0  0  0  0  0  0  0
  145.6125  140.1688  155.5820 C   0  0  0  0  0  0  0  0  0  0  0  0
  146.5258  140.9065  154.8038 C   0  0  0  0  0  0  0  0  0  0  0  0
  147.7900  140.3759  154.6630 O   0  0  0  0  0  0  0  0  0  0  0  0
  148.8745  141.2606  154.4099 C   0  0  0  0  0  0  0  0  0  0  0  0
  150.0793  140.8692  155.2803 C   0  0  2  0  0  0  0  0  0  0  0  0
  150.9698  140.0841  154.5132 O   0  0  0  0  0  0  0  0  0  0  0  0
  149.6843  140.1681  156.5968 C   0  0  0  0  0  0  0  0  0  0  0  0
  150.6033  140.4595  157.6886 N   0  0  0  0  0  0  0  0  0  0  0  0
  151.2115  139.5824  158.5265 C   0  0  0  0  0  0  0  0  0  0  0  0
  150.9903  138.1011  158.4038 C   0  0  0  0  0  0  0  0  0  0  0  0
  151.7618  137.3287  159.3015 O   0  0  0  0  0  0  0  0  0  0  0  0
  152.0180  140.1250  159.4420 N   0  0  0  0  0  0  0  0  0  0  0  0
  151.9222  141.4762  159.1732 C   0  0  0  0  0  0  0  0  0  0  0  0
  152.5418  142.5830  159.7965 C   0  0  0  0  0  0  0  0  0  0  0  0
  152.2898  143.8932  159.3393 C   0  0  0  0  0  0  0  0  0  0  0  0
  151.4170  144.1148  158.2545 C   0  0  0  0  0  0  0  0  0  0  0  0
  150.7900  143.0259  157.6190 C   0  0  0  0  0  0  0  0  0  0  0  0
  151.0447  141.7200  158.0796 C   0  0  0  0  0  0  0  0  0  0  0  0
  146.1022  142.1289  154.2224 C   0  0  0  0  0  0  0  0  0  0  0  0
  144.6396  143.5865  151.6997 H   0  0  0  0  0  0  0  0  0  0  0  0
  145.9912  144.3775  152.5325 H   0  0  0  0  0  0  0  0  0  0  0  0
  144.5197  145.2840  152.1726 H   0  0  0  0  0  0  0  0  0  0  0  0
  142.8742  142.1837  155.3659 H   0  0  0  0  0  0  0  0  0  0  0  0
  143.6086  140.0573  156.3772 H   0  0  0  0  0  0  0  0  0  0  0  0
  145.9213  139.2363  156.0311 H   0  0  0  0  0  0  0  0  0  0  0  0
  149.1491  141.2534  153.3536 H   0  0  0  0  0  0  0  0  0  0  0  0
  148.5746  142.2772  154.6691 H   0  0  0  0  0  0  0  0  0  0  0  0
  150.6219  141.7840  155.5195 H   0  0  0  0  0  0  0  0  0  0  0  0
  150.5291  139.2845  154.2687 H   0  0  0  0  0  0  0  0  0  0  0  0
  148.6775  140.4623  156.8939 H   0  0  0  0  0  0  0  0  0  0  0  0
  149.6518  139.0867  156.4591 H   0  0  0  0  0  0  0  0  0  0  0  0
  149.9393  137.8736  158.5791 H   0  0  0  0  0  0  0  0  0  0  0  0
  151.2263  137.7917  157.3854 H   0  0  0  0  0  0  0  0  0  0  0  0
  152.6729  137.5466  159.1800 H   0  0  0  0  0  0  0  0  0  0  0  0
  153.2126  142.4231  160.6276 H   0  0  0  0  0  0  0  0  0  0  0  0
  152.7686  144.7317  159.8233 H   0  0  0  0  0  0  0  0  0  0  0  0
  151.2289  145.1214  157.9106 H   0  0  0  0  0  0  0  0  0  0  0  0
  150.1199  143.1928  156.7889 H   0  0  0  0  0  0  0  0  0  0  0  0
  146.7901  142.7038  153.6231 H   0  0  0  0  0  0  0  0  0  0  0  0
  1  2  1  0  0  0  0
  1 26  1  0  0  0  0
  1 27  1  0  0  0  0
  1 28  1  0  0  0  0
  2  3  2  0  0  0  0
  2  4  1  0  0  0  0
  4 25  1  0  0  0  0
  4  5  2  0  0  0  0
  5  6  1  0  0  0  0
  5 29  1  0  0  0  0
  6  7  2  0  0  0  0
  6 30  1  0  0  0  0
  7  8  1  0  0  0  0
  7 31  1  0  0  0  0
  8  9  1  0  0  0  0
  8 25  2  0  0  0  0
  9 10  1  0  0  0  0
 10 11  1  0  0  0  0
 10 32  1  0  0  0  0
 10 33  1  0  0  0  0
 11 12  1  0  0  0  0
 11 13  1  0  0  0  0
 11 34  1  0  0  0  0
 12 35  1  0  0  0  0
 13 14  1  0  0  0  0
 13 36  1  0  0  0  0
 13 37  1  0  0  0  0
 14 24  1  0  0  0  0
 14 15  1  0  0  0  0
 15 16  1  0  0  0  0
 15 18  2  0  0  0  0
 16 17  1  0  0  0  0
 16 38  1  0  0  0  0
 16 39  1  0  0  0  0
 17 40  1  0  0  0  0
 18 19  1  0  0  0  0
 19 24  2  0  0  0  0
 19 20  1  0  0  0  0
 20 21  2  0  0  0  0
 20 41  1  0  0  0  0
 21 22  1  0  0  0  0
 21 42  1  0  0  0  0
 22 23  2  0  0  0  0
 22 43  1  0  0  0  0
 23 24  1  0  0  0  0
 23 44  1  0  0  0  0
 25 45  1  0  0  0  0
M  END
> <s_m_source_file>
AV-unprocessed.smi

> <i_m_source_file_index>
1518

> <i_lp_mmshare_version>
43012

> <i_f3d_flags>
0

> <s_epik_input>
W0NIM11DKD1PKWMxW2NIXVtjSF1bY0hdYyhbY0hdMSlPW0NIMl1bQ0BIXShbT0hdKVtDSDJdbihjKG4yKVtDSDJdW09IXSljKGMyMylbY0hdW2NIXVtjSF1bY0hdMw==

> <s_epik_cmdline>
J2VwaWtfcHl0aG9uJywgJy1waCcsICc3LjAnLCAnLXRuJywgJzgnLCAnLW1hJywgJzIwMCcsICctbWV0YWxfYmluZGluZycsICctaW1hZScsICc8aW5maWxlLm1hZT4nLCAnLW9tYWUnLCAnPG91dGZpbGUubWFlPic=

> <r_lp_tautomer_probability>
0.99995

> <r_epik_Ionization_Penalty>
0.0583159

> <r_epik_Ionization_Penalty_Charging>
0

> <r_epik_Ionization_Penalty_Neutral>
0.0583159

> <r_epik_State_Penalty>
0.0503525

> <r_epik_Charging_Adjusted_Penalty>
0.0503525

> <i_epik_Tot_Q>
0

> <i_epik_Tot_abs_Q>
0

> <r_epik_Metal_State_Penalty>
5.25517e-05

> <b_epik_Metal_Only>
0

> <s_lp_Force_Field>
OPLS_2005

> <r_lp_Energy>
22.7276

> <b_lp_Chiralities_Consistent>
1

> <s_lp_Variant>
AV-unprocessed.smi:1518-1

> <Gold.Version>
5.8.1

> <Gold.Id.Protein>
6NUR|6NUR_protein|mol2

> <Gold.PLP.Fitness>
50.7777

> <Gold.PLP.PLP>
-49.5373

> <Gold.PLP.part.hbond>
-1.7777

> <Gold.PLP.part.metal>
0.0000

> <Gold.PLP.part.buried>
-6.7854

> <Gold.PLP.part.nonpolar>
-42.0693

> <Gold.PLP.part.repulsive>
0.1645

> <Gold.PLP.ligand.clash>
0.0000

> <Gold.PLP.ligand.torsion>
2.0698

> <Gold.PLP.Chemscore.Hbond>
1.7475

> <Gold.PLP.Chemscore.CHOScore>
0.0000

> <Gold.PLP.Chemscore.Metal>
0.0000

> <Gold.Chemscore.Hbonds>
donor molecule, donor type, donor heavy atom, donor atom, acceptor molecule, acceptor atom, score
      P1  H  6896  6909       L1    17  0.39
      P1  H  7989  7998       L1    12  0.78

> <Gold.PLP.Chemscore.Internal.Correction>
0.1373

> <Gold.Rescore>
     Score         DG    S(hbond)    S(metal)    S(lipo)     H(rot)  DE(clash)    DE(int)     intcor
     12.34     -14.08       1.61        0.00      98.54       3.25       0.00       1.74       ----

> <Gold.Chemscore.Fitness>
12.3353

> <Gold.Chemscore.DG>
-14.0786

> <Gold.Chemscore.ZeroCoef>
-5.4800

> <Gold.Chemscore.Hbond>
1.6123

> <Gold.Chemscore.Metal>
0.0000

> <Gold.Chemscore.Lipo>
98.5382

> <Gold.Chemscore.Internal_Hbond>
0.0000

> <Gold.Chemscore.DEClash>
0.0000

> <Gold.Chemscore.DEInternal>
1.7433

> <Gold.Chemscore.Rot>
3.2482

> <Gold.Chemscore.Internal.Correction>
   9.000000E+99

> <Gold.Chemscore.Hbonds>
donor molecule, donor type, donor heavy atom, donor atom, acceptor molecule, acceptor atom, score
      P1  H  6896  6909       L1    17  0.32
      P1  H  7989  7998       L1    12  0.61

> <Gold.Chemscore.Hbond.Weighted>
-5.3851

> <Gold.Chemscore.Metal.Weighted>
-0.0000

> <Gold.Chemscore.Lipo.Weighted>
-11.5290

> <Gold.Chemscore.Internal_Hbond.Weighted>
0.0000

> <Gold.Chemscore.DEClash.Weighted>
0.0000

> <Gold.Chemscore.DEInternal.Weighted>
1.7433

> <Gold.Chemscore.Rot.Weighted>
8.3155

> <Gold.Chemscore.Internal.Correction.Weighted>
   9.000000E+99

> <Gold.Protein.RotatedTorsions>
[ 6907 6896 6895 6894 ] final  114.01 input  -60.11 | X-H torsion
[ 7974 7965 7964 7962 ] final -123.69 input  175.53 | X-H torsion
[ 8008 7997 7996 7995 ] final  -99.97 input   59.86 | X-H torsion
[ 10167 10162 10161 10158 ] final -114.48 input  -65.29 | X-H torsion
[ 10718 10713 10712 10709 ] final  118.78 input   66.30 | X-H torsion
[ 10763 10752 10751 10750 ] final -136.70 input  -60.55 | X-H torsion
[ 11005 11000 10999 10996 ] final -158.45 input  -57.11 | X-H torsion

> <Gold.Protein.ActiveResidues>
 VAL166  LYS551  ARG553  GLY616  TRP617  ASP618  TYR619  PRO620  LYS621  CYS622 
 ASP623  PHE694  ASN695  SER759  ASP760  ASP761  ALA762  ILE779  LEU786  VAL792 
 PHE793  MET794  SER795  GLU796  ALA797  LYS798  CYS799  TRP800  GLU811  SER814 

> <Gold.Protein.RotatedAtoms>
  152.4828  133.8296  159.7095 H   0  0  0  0  0  0  0  0  0  0  0  0  # atno 6907 bound_to 6896
  150.8890  133.7259  159.2916 H   0  0  0  0  0  0  0  0  0  0  0  0  # atno 6908 bound_to 6896
  151.4738  135.1051  159.9811 H   0  0  0  0  0  0  0  0  0  0  0  0  # atno 6909 bound_to 6896
  145.0159  140.7947  143.4410 H   0  0  0  0  0  0  0  0  0  0  0  0  # atno 7974 bound_to 7965
  154.8222  140.0444  157.1418 H   0  0  0  0  0  0  0  0  0  0  0  0  # atno 8008 bound_to 7997
  154.9247  140.3031  155.5178 H   0  0  0  0  0  0  0  0  0  0  0  0  # atno 8009 bound_to 7997
  156.2981  140.2334  156.4301 H   0  0  0  0  0  0  0  0  0  0  0  0  # atno 8010 bound_to 7997
  140.1005  143.4617  152.1815 H   0  0  0  0  0  0  0  0  0  0  0  0  # atno 10167 bound_to 10162
  157.6006  131.1051  150.7805 H   0  0  0  0  0  0  0  0  0  0  0  0  # atno 10718 bound_to 10713
  154.8678  135.3664  154.5104 H   0  0  0  0  0  0  0  0  0  0  0  0  # atno 10763 bound_to 10752
  153.5739  135.7020  153.5497 H   0  0  0  0  0  0  0  0  0  0  0  0  # atno 10764 bound_to 10752
  153.3517  135.4070  155.1614 H   0  0  0  0  0  0  0  0  0  0  0  0  # atno 10765 bound_to 10752
  140.6534  134.4426  157.5235 H   0  0  0  0  0  0  0  0  0  0  0  0  # atno 11005 bound_to 11000
  145.1960  139.2276  143.5218 LP  0  0  0  0  0  0  0  0  0  0  0  0  # atno 17320 bound_to 7965
  146.3478  140.1766  142.8589 LP  0  0  0  0  0  0  0  0  0  0  0  0  # atno 17321 bound_to 7965
  139.5674  144.7443  151.3985 LP  0  0  0  0  0  0  0  0  0  0  0  0  # atno 17342 bound_to 10162
  140.6980  143.7701  150.7358 LP  0  0  0  0  0  0  0  0  0  0  0  0  # atno 17343 bound_to 10162
  156.8205  130.4982  149.5344 LP  0  0  0  0  0  0  0  0  0  0  0  0  # atno 17370 bound_to 10713
  156.1079  130.6018  151.0000 LP  0  0  0  0  0  0  0  0  0  0  0  0  # atno 17371 bound_to 10713
  139.9038  134.8496  156.1789 LP  0  0  0  0  0  0  0  0  0  0  0  0  # atno 17394 bound_to 11000
  141.0519  133.6884  156.1788 LP  0  0  0  0  0  0  0  0  0  0  0  0  # atno 17395 bound_to 11000

$$$$
