#       Name:                AV-unprocessed.smi:1741
#       Creating user name   scv26
#       Creation time:       Fri Mar 27 08:23:35 2020


#       File generated by GOLD software.
#

@<TRIPOS>MOLECULE
AV-unprocessed.smi:1741
    43    44     1
SMALL
NO_CHARGES


@<TRIPOS>ATOM
      1 ****        -6.1795  -0.1422   0.7021 C.3            1 S1                 0.0000
      2 ****        -5.6837   0.1345  -0.7218 C.3            1 S1                 0.0000
      3 ****        -4.3959   0.8001  -0.7188 N.pl3          1 S1                 0.0000
      4 ****        -3.1406   0.2274  -0.7682 C.2            1 S1                 0.0000
      5 ****        -2.2579   1.2694  -0.7312 C.2            1 S1                 0.0000
      6 ****        -0.8405   1.2493  -0.7571 N.am           1 S1                 0.0000
      7 ****        -0.0403   0.1711  -0.7832 C.2            1 S1                 0.0000
      8 ****        -0.4295  -0.9969  -0.7836 O.2            1 S1                 0.0000
      9 ****         1.2516   0.5287  -0.8052 N.am           1 S1                 0.0000
     10 ****         2.3934  -0.3833  -0.8043 C.3            1 S1                 0.0000
     11 ****         3.2410  -0.1154  -2.0578 C.3            1 S1                 0.0000
     12 ****         3.1914  -0.1979   0.5014 C.3            1 S1                 0.0000
     13 ****         4.3977  -1.1263   0.6501 C.3            1 S1                 0.0000
     14 ****         4.5735  -1.1626   2.1504 C.3            1 S1                 0.0000
     15 ****         3.1264  -1.1754   2.6321 C.3            1 S1                 0.0000
     16 ****         2.3731  -0.4939   1.6323 O.3            1 S1                 0.0000
     17 ****        -3.0493   2.4450  -0.6607 C.2            1 S1                 0.0000
     18 ****        -4.3412   2.1533  -0.6506 N.2            1 S1                 0.0000
     19 ****        -7.1453  -0.6474   0.6846 H              1 S1                 0.0000
     20 ****        -6.2980   0.7841   1.2650 H              1 S1                 0.0000
     21 ****        -5.4808  -0.7785   1.2461 H              1 S1                 0.0000
     22 ****        -5.5907  -0.7995  -1.2774 H              1 S1                 0.0000
     23 ****        -6.4024   0.7532  -1.2613 H              1 S1                 0.0000
     24 ****        -2.9998  -0.8421  -0.8220 H              1 S1                 0.0000
     25 ****        -0.3879   2.1517  -0.7486 H              1 S1                 0.0000
     26 ****         1.4661   1.5150  -0.7988 H              1 S1                 0.0000
     27 ****         2.0505  -1.4185  -0.8508 H              1 S1                 0.0000
     28 ****         4.0766  -0.8117  -2.1291 H              1 S1                 0.0000
     29 ****         3.6492   0.8959  -2.0536 H              1 S1                 0.0000
     30 ****         2.6463  -0.2313  -2.9645 H              1 S1                 0.0000
     31 ****         3.5253   0.8369   0.5972 H              1 S1                 0.0000
     32 ****         4.1652  -2.1252   0.2781 H              1 S1                 0.0000
     33 ****         5.2826  -0.7626   0.1270 H              1 S1                 0.0000
     34 ****         5.1464  -2.0231   2.4967 H              1 S1                 0.0000
     35 ****         5.0762  -0.2559   2.4897 H              1 S1                 0.0000
     36 ****         2.7570  -2.1991   2.7038 H              1 S1                 0.0000
     37 ****         3.0103  -0.7042   3.6083 H              1 S1                 0.0000
     38 ****        -2.7367   3.4778  -0.6148 H              1 S1                 0.0000
     39 ****        -1.4089  -1.1976  -0.7635 LP             1 S1                 0.0000
     40 ****         0.2338  -1.7450  -0.8041 LP             1 S1                 0.0000
     41 ****         1.6106  -1.0729   1.3436 LP             1 S1                 0.0000
     42 ****         2.0178   0.3597   2.0133 LP             1 S1                 0.0000
     43 ****        -5.1092   2.7920  -0.6031 LP             1 S1                 0.0000
@<TRIPOS>BOND
    1    1    2 1     
    2    1   19 1     
    3    1   20 1     
    4    1   21 1     
    5    2    3 1     
    6    2   22 1     
    7    2   23 1     
    8    3   18 1     
    9    3    4 1     
   10    4    5 2     
   11    4   24 1     
   12    5    6 1     
   13    5   17 1     
   14    6    7 am    
   15    6   25 1     
   16    7    8 2     
   17    7    9 am    
   18    9   10 1     
   19    9   26 1     
   20   10   11 1     
   21   10   12 1     
   22   10   27 1     
   23   11   28 1     
   24   11   29 1     
   25   11   30 1     
   26   12   16 1     
   27   12   13 1     
   28   12   31 1     
   29   13   14 1     
   30   13   32 1     
   31   13   33 1     
   32   14   15 1     
   33   14   34 1     
   34   14   35 1     
   35   15   16 1     
   36   15   36 1     
   37   15   37 1     
   38   17   18 2     
   39   17   38 1     
   40    8   39 1     
   41    8   40 1     
   42   16   41 1     
   43   16   42 1     
   44   18   43 1     
@<TRIPOS>SUBSTRUCTURE
      1 S1             1
@<TRIPOS>SET
LONE_PAIRS      STATIC     ATOMS    <user>   **** ""
5 39 40 41 42 43
DONOR_HYDROGENS      STATIC     ATOMS    <user>   **** ""
2 25 26
ATOM$BLUE        STATIC     ATOMS    COLORGROUP SYSTEM
5 39 40 41 42 43
ATOM$RED        STATIC     ATOMS    COLORGROUP SYSTEM
2 25 26
