#       Name:                AV-unprocessed.smi:1936
#       Creating user name   scv26
#       Creation time:       Fri Mar 27 09:57:41 2020


#       File generated by GOLD software.
#

@<TRIPOS>MOLECULE
AV-unprocessed.smi:1936
    44    45     1
SMALL
NO_CHARGES


@<TRIPOS>ATOM
      1 ****        -2.1862  -0.4502  -2.1509 C.3            1 S1                 0.0000
      2 ****        -1.4346  -0.2040  -0.8324 C.3            1 S1                 0.0000
      3 ****        -1.9898  -1.0875   0.3063 C.3            1 S1                 0.0000
      4 ****        -1.9869  -0.4734   1.6348 N.3            1 S1                 0.0000
      5 ****        -0.6383  -0.2324   2.1442 C.3            1 S1                 0.0000
      6 ****        -0.6558   0.3810   3.5552 C.3            1 S1                 0.0000
      7 ****        -1.3902  -0.4627   4.4359 O.3            1 S1                 0.0000
      8 ****        -2.7282  -0.6768   3.9989 C.3            1 S1                 0.0000
      9 ****        -2.7150  -1.2995   2.5923 C.3            1 S1                 0.0000
     10 ****        -0.0152  -0.4898  -1.0318 N.am           1 S1                 0.0000
     11 ****         0.9030   0.3869  -1.4663 C.2            1 S1                 0.0000
     12 ****         0.6342   1.5520  -1.7638 O.2            1 S1                 0.0000
     13 ****         2.3349  -0.1527  -1.5724 C.3            1 S1                 0.0000
     14 ****         3.2594   0.8012  -2.1640 N.pl3          1 S1                 0.0000
     15 ****         3.4694   1.0760  -3.4996 C.2            1 S1                 0.0000
     16 ****         4.4297   2.0442  -3.5696 C.2            1 S1                 0.0000
     17 ****         4.7504   2.3011  -2.2073 C.2            1 S1                 0.0000
     18 ****         4.0506   1.5542  -1.3684 N.2            1 S1                 0.0000
     19 ****        -3.2484  -0.2277  -2.0446 H              1 S1                 0.0000
     20 ****        -2.0939  -1.4879  -2.4734 H              1 S1                 0.0000
     21 ****        -1.8007   0.1833  -2.9505 H              1 S1                 0.0000
     22 ****        -1.5732   0.8451  -0.5624 H              1 S1                 0.0000
     23 ****        -3.0250  -1.3273   0.0599 H              1 S1                 0.0000
     24 ****        -1.4724  -2.0482   0.3307 H              1 S1                 0.0000
     25 ****        -0.0773  -1.1680   2.1636 H              1 S1                 0.0000
     26 ****        -0.0995   0.4433   1.4806 H              1 S1                 0.0000
     27 ****         0.3609   0.4923   3.9324 H              1 S1                 0.0000
     28 ****        -1.1021   1.3766   3.5378 H              1 S1                 0.0000
     29 ****        -3.2316  -1.3394   4.7029 H              1 S1                 0.0000
     30 ****        -3.2750   0.2675   3.9993 H              1 S1                 0.0000
     31 ****        -3.7418  -1.4421   2.2533 H              1 S1                 0.0000
     32 ****        -2.2632  -2.2914   2.6435 H              1 S1                 0.0000
     33 ****         0.2934  -1.4256  -0.8112 H              1 S1                 0.0000
     34 ****         2.6916  -0.4315  -0.5794 H              1 S1                 0.0000
     35 ****         2.3381  -1.0577  -2.1813 H              1 S1                 0.0000
     36 ****         2.9219   0.5669  -4.2791 H              1 S1                 0.0000
     37 ****         4.8395   2.5007  -4.4583 H              1 S1                 0.0000
     38 ****         5.4665   3.0029  -1.8059 H              1 S1                 0.0000
     39 ****        -2.4414   0.4112   1.5303 LP             1 S1                 0.0000
     40 ****        -1.4128  -0.0386   5.3413 LP             1 S1                 0.0000
     41 ****        -0.9265  -1.3468   4.4935 LP             1 S1                 0.0000
     42 ****        -0.3060   1.8837  -1.6861 LP             1 S1                 0.0000
     43 ****         1.3562   2.1659  -2.0829 LP             1 S1                 0.0000
     44 ****         4.0970   1.5484  -0.3695 LP             1 S1                 0.0000
@<TRIPOS>BOND
    1    1    2 1     
    2    1   19 1     
    3    1   20 1     
    4    1   21 1     
    5    2    3 1     
    6    2   10 1     
    7    2   22 1     
    8    3    4 1     
    9    3   23 1     
   10    3   24 1     
   11    4    9 1     
   12    4    5 1     
   13    5    6 1     
   14    5   25 1     
   15    5   26 1     
   16    6    7 1     
   17    6   27 1     
   18    6   28 1     
   19    7    8 1     
   20    8    9 1     
   21    8   29 1     
   22    8   30 1     
   23    9   31 1     
   24    9   32 1     
   25   10   11 am    
   26   10   33 1     
   27   11   12 2     
   28   11   13 1     
   29   13   14 1     
   30   13   34 1     
   31   13   35 1     
   32   14   18 1     
   33   14   15 1     
   34   15   16 2     
   35   15   36 1     
   36   16   17 1     
   37   16   37 1     
   38   17   18 2     
   39   17   38 1     
   40    4   39 1     
   41    7   40 1     
   42    7   41 1     
   43   12   42 1     
   44   12   43 1     
   45   18   44 1     
@<TRIPOS>SUBSTRUCTURE
      1 S1             1
@<TRIPOS>SET
LONE_PAIRS      STATIC     ATOMS    <user>   **** ""
6 39 40 41 42 43 44
DONOR_HYDROGENS      STATIC     ATOMS    <user>   **** ""
1 33
ATOM$BLUE        STATIC     ATOMS    COLORGROUP SYSTEM
6 39 40 41 42 43 44
ATOM$RED        STATIC     ATOMS    COLORGROUP SYSTEM
1 33
