#       Name:                AV-unprocessed.smi:1033
#       Creating user name   scv26
#       Creation time:       Fri Mar 27 02:47:48 2020


#       File generated by GOLD software.
#

@<TRIPOS>MOLECULE
AV-unprocessed.smi:1033
    62    64     1
SMALL
NO_CHARGES


@<TRIPOS>ATOM
      1 ****        -6.6337   2.2200   3.5811 C.3            1 S1                 0.0000
      2 ****        -5.4544   2.2089   2.6246 C.ar           1 S1                 0.0000
      3 ****        -5.6909   2.0196   1.2443 C.ar           1 S1                 0.0000
      4 ****        -4.6213   1.9964   0.3229 C.ar           1 S1                 0.0000
      5 ****        -4.6211   1.8213  -1.0503 N.2            1 S1                 0.0000
      6 ****        -3.3230   1.8890  -1.3296 C.2            1 S1                 0.0000
      7 ****        -2.4796   2.0844  -0.2978 N.pl3          1 S1                 0.0000
      8 ****        -1.0313   2.1738  -0.3606 C.3            1 S1                 0.0000
      9 ****        -0.3564   0.7943  -0.2343 C.3            1 S1                 0.0000
     10 ****        -0.6649   0.2354   1.0284 O.3            1 S1                 0.0000
     11 ****         1.1766   0.8866  -0.3679 C.3            1 S1                 0.0000
     12 ****         1.8370  -0.4419  -0.2997 N.4            1 S1                 1.0000
     13 ****         3.2668  -0.3495   0.0925 C.3            1 S1                 0.0000
     14 ****         3.8778  -1.7595   0.2333 C.3            1 S1                 0.0000
     15 ****         3.7507  -2.5694  -0.9784 N.3            1 S1                 0.0000
     16 ****         4.6435  -2.1222  -2.0572 C.3            1 S1                 0.0000
     17 ****         4.7846  -3.0617  -3.2761 C.3            1 S1                 0.0000
     18 ****         4.8908  -4.5545  -2.9267 C.3            1 S1                 0.0000
     19 ****         3.7382  -2.8423  -4.1999 O.3            1 S1                 0.0000
     20 ****         2.3329  -2.6393  -1.3405 C.3            1 S1                 0.0000
     21 ****         1.6847  -1.2549  -1.5357 C.3            1 S1                 0.0000
     22 ****        -3.2979   2.1691   0.8241 C.ar           1 S1                 0.0000
     23 ****        -3.0503   2.3633   2.1945 C.ar           1 S1                 0.0000
     24 ****        -4.1304   2.3832   3.1015 C.ar           1 S1                 0.0000
     25 ****        -3.8523   2.5891   4.5801 C.3            1 S1                 0.0000
     26 ****        -7.5763   2.0705   3.0536 H              1 S1                 0.0000
     27 ****        -6.6917   3.1738   4.1058 H              1 S1                 0.0000
     28 ****        -6.5341   1.4234   4.3188 H              1 S1                 0.0000
     29 ****        -6.6993   1.8864   0.8808 H              1 S1                 0.0000
     30 ****        -2.9631   1.7843  -2.3427 H              1 S1                 0.0000
     31 ****        -0.7604   2.6389  -1.3095 H              1 S1                 0.0000
     32 ****        -0.6870   2.8477   0.4254 H              1 S1                 0.0000
     33 ****        -0.7659   0.1422  -1.0049 H              1 S1                 0.0000
     34 ****        -1.6057   0.2017   1.1205 H              1 S1                 0.0000
     35 ****         1.4524   1.3790  -1.3016 H              1 S1                 0.0000
     36 ****         1.5549   1.5217   0.4351 H              1 S1                 0.0000
     37 ****         3.8169   0.2445  -0.6384 H              1 S1                 0.0000
     38 ****         3.3496   0.1719   1.0468 H              1 S1                 0.0000
     39 ****         4.9272  -1.6823   0.5204 H              1 S1                 0.0000
     40 ****         3.3839  -2.2761   1.0574 H              1 S1                 0.0000
     41 ****         4.3786  -1.1205  -2.3950 H              1 S1                 0.0000
     42 ****         5.6436  -2.0226  -1.6328 H              1 S1                 0.0000
     43 ****         5.6987  -2.7795  -3.7998 H              1 S1                 0.0000
     44 ****         5.7062  -4.7339  -2.2257 H              1 S1                 0.0000
     45 ****         5.0854  -5.1510  -3.8186 H              1 S1                 0.0000
     46 ****         3.9735  -4.9320  -2.4743 H              1 S1                 0.0000
     47 ****         3.7993  -1.9549  -4.5186 H              1 S1                 0.0000
     48 ****         2.1937  -3.2477  -2.2326 H              1 S1                 0.0000
     49 ****         1.7949  -3.1659  -0.5511 H              1 S1                 0.0000
     50 ****         0.6304  -1.3947  -1.7702 H              1 S1                 0.0000
     51 ****         2.1272  -0.7339  -2.3855 H              1 S1                 0.0000
     52 ****        -2.0367   2.4911   2.5451 H              1 S1                 0.0000
     53 ****        -2.7849   2.7013   4.7726 H              1 S1                 0.0000
     54 ****        -4.2083   1.7365   5.1590 H              1 S1                 0.0000
     55 ****        -4.3534   3.4873   4.9417 H              1 S1                 0.0000
     56 ****         1.3758  -0.9475   0.4436 H              1 S1                 0.0000
     57 ****        -5.3939   1.6809  -1.6692 LP             1 S1                 0.0000
     58 ****        -0.2753   0.8039   1.7531 LP             1 S1                 0.0000
     59 ****        -0.2868  -0.6883   1.0898 LP             1 S1                 0.0000
     60 ****         4.0656  -3.5020  -0.8024 LP             1 S1                 0.0000
     61 ****         2.8562  -2.9784  -3.7487 LP             1 S1                 0.0000
     62 ****         3.8237  -3.4815  -4.9641 LP             1 S1                 0.0000
@<TRIPOS>BOND
    1    1    2 1     
    2    1   26 1     
    3    1   27 1     
    4    1   28 1     
    5    2   24 ar    
    6    2    3 ar    
    7    3    4 ar    
    8    3   29 1     
    9    4   22 ar    
   10    4    5 1     
   11    5    6 2     
   12    6    7 1     
   13    6   30 1     
   14    7    8 1     
   15    7   22 1     
   16    8    9 1     
   17    8   31 1     
   18    8   32 1     
   19    9   10 1     
   20    9   11 1     
   21    9   33 1     
   22   10   34 1     
   23   11   12 1     
   24   11   35 1     
   25   11   36 1     
   26   12   21 1     
   27   12   13 1     
   28   12   56 1     
   29   13   14 1     
   30   13   37 1     
   31   13   38 1     
   32   14   15 1     
   33   14   39 1     
   34   14   40 1     
   35   15   16 1     
   36   15   20 1     
   37   16   17 1     
   38   16   41 1     
   39   16   42 1     
   40   17   18 1     
   41   17   19 1     
   42   17   43 1     
   43   18   44 1     
   44   18   45 1     
   45   18   46 1     
   46   19   47 1     
   47   20   21 1     
   48   20   48 1     
   49   20   49 1     
   50   21   50 1     
   51   21   51 1     
   52   22   23 ar    
   53   23   24 ar    
   54   23   52 1     
   55   24   25 1     
   56   25   53 1     
   57   25   54 1     
   58   25   55 1     
   59    5   57 1     
   60   10   58 1     
   61   10   59 1     
   62   15   60 1     
   63   19   61 1     
   64   19   62 1     
@<TRIPOS>SUBSTRUCTURE
      1 S1             1
@<TRIPOS>SET
LONE_PAIRS      STATIC     ATOMS    <user>   **** ""
6 57 58 59 60 61 62
DONOR_HYDROGENS      STATIC     ATOMS    <user>   **** ""
3 34 56 47
ATOM$BLUE        STATIC     ATOMS    COLORGROUP SYSTEM
6 57 58 59 60 61 62
ATOM$RED        STATIC     ATOMS    COLORGROUP SYSTEM
3 34 56 47
