AV-unprocessed.smi:1036|AV-procd|sdf|4519|dock2
  -GOLD-   22720 2533D 1   1.00000     0.00000
 Structure written by MMmdl.
 41 43  0  0  0  0  0  0  0  0  1 V2000
  151.6989  137.1686  153.9986 O   0  0  0  0  0  0  0  0  0  0  0  0
  150.7311  137.9073  154.7133 C   0  0  0  0  0  0  0  0  0  0  0  0
  151.2927  139.2863  155.0867 C   0  0  0  0  0  0  0  0  0  0  0  0
  151.9819  139.2642  156.3636 N   0  0  0  0  0  0  0  0  0  0  0  0
  152.1322  140.2197  157.3614 C   0  0  0  0  0  0  0  0  0  0  0  0
  151.6053  141.4418  157.3049 N   0  0  0  0  0  0  0  0  0  0  0  0
  152.0150  141.9935  158.5043 C   0  0  0  0  0  0  0  0  0  0  0  0
  151.7827  143.2755  159.0523 C   0  0  0  0  0  0  0  0  0  0  0  0
  152.3084  143.6184  160.3153 C   0  0  0  0  0  0  0  0  0  0  0  0
  153.0719  142.6865  161.0482 C   0  0  0  0  0  0  0  0  0  0  0  0
  153.3162  141.4037  160.5213 C   0  0  0  0  0  0  0  0  0  0  0  0
  152.7909  141.0666  159.2596 C   0  0  0  0  0  0  0  0  0  0  0  0
  152.8446  139.9198  158.4739 N   0  0  0  0  0  0  0  0  0  0  0  0
  153.5267  138.6769  158.8119 C   0  0  0  0  0  0  0  0  0  0  0  0
  152.7185  137.8070  159.7943 C   0  0  1  0  0  0  0  0  0  0  0  0
  151.8737  136.9263  159.0773 O   0  0  0  0  0  0  0  0  0  0  0  0
  153.6382  137.0741  160.7618 C   0  0  0  0  0  0  0  0  0  0  0  0
  153.5561  137.3164  162.1519 C   0  0  0  0  0  0  0  0  0  0  0  0
  154.4015  136.6308  163.0457 C   0  0  0  0  0  0  0  0  0  0  0  0
  154.3173  136.8704  164.3757 F   0  0  0  0  0  0  0  0  0  0  0  0
  155.3322  135.6949  162.5571 C   0  0  0  0  0  0  0  0  0  0  0  0
  155.4140  135.4422  161.1746 C   0  0  0  0  0  0  0  0  0  0  0  0
  154.5692  136.1265  160.2786 C   0  0  0  0  0  0  0  0  0  0  0  0
  154.6550  135.8636  158.9524 F   0  0  0  0  0  0  0  0  0  0  0  0
  151.3011  136.8404  153.2070 H   0  0  0  0  0  0  0  0  0  0  0  0
  149.8653  138.0293  154.0625 H   0  0  0  0  0  0  0  0  0  0  0  0
  150.3967  137.3527  155.5909 H   0  0  0  0  0  0  0  0  0  0  0  0
  151.9572  139.6651  154.3097 H   0  0  0  0  0  0  0  0  0  0  0  0
  150.4719  139.9991  155.1710 H   0  0  0  0  0  0  0  0  0  0  0  0
  152.3674  138.3595  156.5934 H   0  0  0  0  0  0  0  0  0  0  0  0
  151.1985  143.9965  158.4995 H   0  0  0  0  0  0  0  0  0  0  0  0
  152.1242  144.6010  160.7242 H   0  0  0  0  0  0  0  0  0  0  0  0
  153.4703  142.9570  162.0151 H   0  0  0  0  0  0  0  0  0  0  0  0
  153.9001  140.6876  161.0805 H   0  0  0  0  0  0  0  0  0  0  0  0
  153.7526  138.1226  157.9002 H   0  0  0  0  0  0  0  0  0  0  0  0
  154.4904  138.9343  159.2532 H   0  0  0  0  0  0  0  0  0  0  0  0
  152.0569  138.4539  160.3717 H   0  0  0  0  0  0  0  0  0  0  0  0
  152.1769  136.8807  158.1834 H   0  0  0  0  0  0  0  0  0  0  0  0
  152.8416  138.0272  162.5407 H   0  0  0  0  0  0  0  0  0  0  0  0
  155.9804  135.1687  163.2421 H   0  0  0  0  0  0  0  0  0  0  0  0
  156.1247  134.7202  160.8004 H   0  0  0  0  0  0  0  0  0  0  0  0
  1  2  1  0  0  0  0
  1 25  1  0  0  0  0
  2  3  1  0  0  0  0
  2 26  1  0  0  0  0
  2 27  1  0  0  0  0
  3  4  1  0  0  0  0
  3 28  1  0  0  0  0
  3 29  1  0  0  0  0
  4  5  1  0  0  0  0
  4 30  1  0  0  0  0
  5 13  1  0  0  0  0
  5  6  2  0  0  0  0
  6  7  1  0  0  0  0
  7 12  2  0  0  0  0
  7  8  1  0  0  0  0
  8  9  2  0  0  0  0
  8 31  1  0  0  0  0
  9 10  1  0  0  0  0
  9 32  1  0  0  0  0
 10 11  2  0  0  0  0
 10 33  1  0  0  0  0
 11 12  1  0  0  0  0
 11 34  1  0  0  0  0
 12 13  1  0  0  0  0
 13 14  1  0  0  0  0
 14 15  1  0  0  0  0
 14 35  1  0  0  0  0
 14 36  1  0  0  0  0
 15 16  1  0  0  0  0
 15 17  1  0  0  0  0
 15 37  1  0  0  0  0
 16 38  1  0  0  0  0
 17 23  1  0  0  0  0
 17 18  2  0  0  0  0
 18 19  1  0  0  0  0
 18 39  1  0  0  0  0
 19 20  1  0  0  0  0
 19 21  2  0  0  0  0
 21 22  1  0  0  0  0
 21 40  1  0  0  0  0
 22 23  2  0  0  0  0
 22 41  1  0  0  0  0
 23 24  1  0  0  0  0
M  END
> <s_m_source_file>
AV-unprocessed.smi

> <i_m_source_file_index>
1036

> <i_lp_mmshare_version>
43012

> <i_f3d_flags>
0

> <s_epik_input>
W09IXVtDSDJdW0NIMl1bTkhdYyhuMSluKGMoYzEyKVtjSF1bY0hdW2NIXVtjSF0yKVtDSDJdW0NASF0oW09IXSljM1tjSF1jKEYpW2NIXVtjSF1jM0Y=

> <s_epik_cmdline>
J2VwaWtfcHl0aG9uJywgJy1waCcsICc3LjAnLCAnLXRuJywgJzgnLCAnLW1hJywgJzIwMCcsICctbWV0YWxfYmluZGluZycsICctaW1hZScsICc8aW5maWxlLm1hZT4nLCAnLW9tYWUnLCAnPG91dGZpbGUubWFlPic=

> <r_epik_Ionization_Penalty>
1.30972

> <r_epik_Ionization_Penalty_Charging>
0

> <r_epik_Ionization_Penalty_Neutral>
1.30972

> <r_epik_State_Penalty>
1.38438

> <r_epik_Charging_Adjusted_Penalty>
1.38438

> <i_epik_Tot_Q>
0

> <i_epik_Tot_abs_Q>
0

> <r_epik_Metal_State_Penalty>
0.00551145

> <b_epik_Metal_Only>
0

> <s_lp_Force_Field>
OPLS_2005

> <r_lp_Energy>
10.9481

> <b_lp_Chiralities_Consistent>
1

> <s_lp_Variant>
AV-unprocessed.smi:1036-4

> <Gold.Version>
5.8.1

> <Gold.Id.Protein>
6NUR|6NUR_protein|mol2

> <Gold.PLP.Fitness>
56.3784

> <Gold.PLP.PLP>
-49.4881

> <Gold.PLP.part.hbond>
-3.0000

> <Gold.PLP.part.metal>
0.0000

> <Gold.PLP.part.buried>
-4.5081

> <Gold.PLP.part.nonpolar>
-41.2294

> <Gold.PLP.part.repulsive>
0.1439

> <Gold.PLP.ligand.clash>
0.0000

> <Gold.PLP.ligand.torsion>
1.0645

> <Gold.PLP.Chemscore.Hbond>
2.9920

> <Gold.PLP.Chemscore.CHOScore>
0.0000

> <Gold.PLP.Chemscore.Metal>
0.0000

> <Gold.Chemscore.Hbonds>
donor molecule, donor type, donor heavy atom, donor atom, acceptor molecule, acceptor atom, score
      L1  H     1    25       P1  7949  1.00
      P1  H  6896  6907       L1    16  1.00
      P1  H 10752 10765       L1     1  0.99

> <Gold.PLP.Chemscore.Internal.Correction>
0.0434

> <Gold.Rescore>
     Score         DG    S(hbond)    S(metal)    S(lipo)     H(rot)  DE(clash)    DE(int)     intcor
     15.25     -17.58       1.86        0.00     120.71       3.22       0.05       2.29       ----

> <Gold.Chemscore.Fitness>
15.2524

> <Gold.Chemscore.DG>
-17.5844

> <Gold.Chemscore.ZeroCoef>
-5.4800

> <Gold.Chemscore.Hbond>
1.8631

> <Gold.Chemscore.Metal>
0.0000

> <Gold.Chemscore.Lipo>
120.7129

> <Gold.Chemscore.Internal_Hbond>
0.0000

> <Gold.Chemscore.DEClash>
0.0465

> <Gold.Chemscore.DEInternal>
2.2855

> <Gold.Chemscore.Rot>
3.2194

> <Gold.Chemscore.Internal.Correction>
   9.000000E+99

> <Gold.Chemscore.Hbonds>
donor molecule, donor type, donor heavy atom, donor atom, acceptor molecule, acceptor atom, score
      L1  H     1    25       P1  7949  0.69
      P1  H  6896  6907       L1    16  0.74
      P1  H 10752 10765       L1     1  0.23

> <Gold.Chemscore.Hbond.Weighted>
-6.2226

> <Gold.Chemscore.Metal.Weighted>
-0.0000

> <Gold.Chemscore.Lipo.Weighted>
-14.1234

> <Gold.Chemscore.Internal_Hbond.Weighted>
0.0000

> <Gold.Chemscore.DEClash.Weighted>
0.0465

> <Gold.Chemscore.DEInternal.Weighted>
2.2855

> <Gold.Chemscore.Rot.Weighted>
8.2416

> <Gold.Chemscore.Internal.Correction.Weighted>
   9.000000E+99

> <Gold.Protein.RotatedTorsions>
[ 6907 6896 6895 6894 ] final   -0.14 input  -60.11 | X-H torsion
[ 7974 7965 7964 7962 ] final  141.76 input  175.53 | X-H torsion
[ 8008 7997 7996 7995 ] final  144.70 input   59.86 | X-H torsion
[ 10167 10162 10161 10158 ] final -174.20 input  -65.29 | X-H torsion
[ 10718 10713 10712 10709 ] final -165.07 input   66.30 | X-H torsion
[ 10763 10752 10751 10750 ] final  170.64 input  -60.55 | X-H torsion
[ 11005 11000 10999 10996 ] final -100.02 input  -57.11 | X-H torsion

> <Gold.Protein.ActiveResidues>
 VAL166  LYS551  ARG553  GLY616  TRP617  ASP618  TYR619  PRO620  LYS621  CYS622 
 ASP623  PHE694  ASN695  SER759  ASP760  ASP761  ALA762  ILE779  LEU786  VAL792 
 PHE793  MET794  SER795  GLU796  ALA797  LYS798  CYS799  TRP800  GLU811  SER814 

> <Gold.Protein.RotatedAtoms>
  151.5670  135.1064  159.9985 H   0  0  0  0  0  0  0  0  0  0  0  0  # atno 6907 bound_to 6896
  152.4419  133.7460  159.6678 H   0  0  0  0  0  0  0  0  0  0  0  0  # atno 6908 bound_to 6896
  150.8326  133.7997  159.3116 H   0  0  0  0  0  0  0  0  0  0  0  0  # atno 6909 bound_to 6896
  144.9068  139.5347  143.5727 H   0  0  0  0  0  0  0  0  0  0  0  0  # atno 7974 bound_to 7965
  156.2902  140.2229  156.5095 H   0  0  0  0  0  0  0  0  0  0  0  0  # atno 8008 bound_to 7997
  154.7621  140.0472  157.1003 H   0  0  0  0  0  0  0  0  0  0  0  0  # atno 8009 bound_to 7997
  154.9978  140.3098  155.4883 H   0  0  0  0  0  0  0  0  0  0  0  0  # atno 8010 bound_to 7997
  139.5646  144.1786  152.1293 H   0  0  0  0  0  0  0  0  0  0  0  0  # atno 10167 bound_to 10162
  156.6481  130.8996  151.3008 H   0  0  0  0  0  0  0  0  0  0  0  0  # atno 10718 bound_to 10713
  154.4005  135.2755  155.2100 H   0  0  0  0  0  0  0  0  0  0  0  0  # atno 10763 bound_to 10752
  154.4128  135.6018  153.5966 H   0  0  0  0  0  0  0  0  0  0  0  0  # atno 10764 bound_to 10752
  152.9831  135.5953  154.4272 H   0  0  0  0  0  0  0  0  0  0  0  0  # atno 10765 bound_to 10752
  141.1287  133.8366  157.1047 H   0  0  0  0  0  0  0  0  0  0  0  0  # atno 11005 bound_to 11000
  146.3138  139.7842  142.8999 LP  0  0  0  0  0  0  0  0  0  0  0  0  # atno 17320 bound_to 7965
  145.3522  141.0310  143.3332 LP  0  0  0  0  0  0  0  0  0  0  0  0  # atno 17321 bound_to 7965
  140.1306  144.5292  150.6805 LP  0  0  0  0  0  0  0  0  0  0  0  0  # atno 17342 bound_to 10162
  140.6929  143.2386  151.5081 LP  0  0  0  0  0  0  0  0  0  0  0  0  # atno 17343 bound_to 10162
  157.7150  130.9486  150.1222 LP  0  0  0  0  0  0  0  0  0  0  0  0  # atno 17370 bound_to 10713
  156.2106  130.3666  149.8675 LP  0  0  0  0  0  0  0  0  0  0  0  0  # atno 17371 bound_to 10713
  140.0311  134.9900  157.0783 LP  0  0  0  0  0  0  0  0  0  0  0  0  # atno 17394 bound_to 11000
  140.4283  134.1807  155.7167 LP  0  0  0  0  0  0  0  0  0  0  0  0  # atno 17395 bound_to 11000

$$$$
