AV-unprocessed.smi:148|AV-procd|sdf|1221|dock4
  -GOLD-   2262018413D 1   1.00000     0.00000
 Structure written by MMmdl.
 63 67  0  0  0  0  0  0  0  0  1 V2000
  145.9817  139.5116  153.8008 O   0  0  0  0  0  0  0  0  0  0  0  0
  146.0974  138.5329  154.8124 C   0  0  0  0  0  0  0  0  0  0  0  0
  145.3899  138.9818  156.1153 C   0  0  1  0  0  0  0  0  0  0  0  0
  145.4080  140.5233  156.2946 C   0  0  0  0  0  0  0  0  0  0  0  0
  146.6796  141.0269  156.7826 N   0  0  0  0  0  0  0  0  0  0  0  0
  146.9106  141.6458  157.9896 C   0  0  0  0  0  0  0  0  0  0  0  0
  148.1477  142.0034  158.2020 N   0  0  0  0  0  0  0  0  0  0  0  0
  148.8208  141.5985  157.0550 C   0  0  0  0  0  0  0  0  0  0  0  0
  150.1756  141.6570  156.6183 C   0  0  0  0  0  0  0  0  0  0  0  0
  151.2012  142.1849  157.3262 N   0  0  0  0  0  0  0  0  0  0  0  0
  150.9742  143.6199  157.5073 C   0  0  0  0  0  0  0  0  0  0  0  0
  152.2104  144.3214  158.0849 C   0  0  0  0  0  0  0  0  0  0  0  0
  152.6523  143.6399  159.3837 C   0  0  0  0  0  0  0  0  0  0  0  0
  152.9026  142.1497  159.1223 C   0  0  0  0  0  0  0  0  0  0  0  0
  151.6470  141.4569  158.5297 C   0  0  2  0  0  0  0  0  0  0  0  0
  151.8437  139.9217  158.3059 C   0  0  2  0  0  0  0  0  0  0  0  0
  150.5327  139.1059  158.3402 C   0  0  0  0  0  0  0  0  0  0  0  0
  150.8301  137.8221  159.1271 C   0  0  0  0  0  0  0  0  0  0  0  0
  152.3527  137.7284  159.1935 C   0  0  0  0  0  0  0  0  0  0  0  0
  152.7994  139.1871  159.2690 C   0  0  1  0  0  0  0  0  0  0  0  0
  154.1551  139.3140  158.8955 O   0  0  0  0  0  0  0  0  0  0  0  0
  150.4674  141.1695  155.3870 N   0  0  0  0  0  0  0  0  0  0  0  0
  149.5042  140.6270  154.6362 C   0  0  0  0  0  0  0  0  0  0  0  0
  148.2075  140.4842  154.9175 N   0  0  0  0  0  0  0  0  0  0  0  0
  147.9077  140.9935  156.1466 C   0  0  0  0  0  0  0  0  0  0  0  0
  143.9696  138.3594  156.2352 C   0  0  1  0  0  0  0  0  0  0  0  0
  143.0007  138.6393  155.1004 C   0  0  0  0  0  0  0  0  0  0  0  0
  141.9032  137.6216  155.3903 C   0  0  0  0  0  0  0  0  0  0  0  0
  142.5793  136.4762  155.8997 O   0  0  0  0  0  0  0  0  0  0  0  0
  143.8889  136.8318  156.3393 C   0  0  0  0  0  0  0  0  0  0  0  0
  145.0672  139.6138  153.5846 H   0  0  0  0  0  0  0  0  0  0  0  0
  145.6560  137.6200  154.4136 H   0  0  0  0  0  0  0  0  0  0  0  0
  147.1514  138.3215  154.9940 H   0  0  0  0  0  0  0  0  0  0  0  0
  145.9759  138.5751  156.9413 H   0  0  0  0  0  0  0  0  0  0  0  0
  145.1836  141.0282  155.3560 H   0  0  0  0  0  0  0  0  0  0  0  0
  144.6461  140.8401  157.0056 H   0  0  0  0  0  0  0  0  0  0  0  0
  146.1277  141.8200  158.7136 H   0  0  0  0  0  0  0  0  0  0  0  0
  150.7109  144.0827  156.5547 H   0  0  0  0  0  0  0  0  0  0  0  0
  150.1237  143.7662  158.1753 H   0  0  0  0  0  0  0  0  0  0  0  0
  153.0223  144.2927  157.3570 H   0  0  0  0  0  0  0  0  0  0  0  0
  151.9917  145.3737  158.2675 H   0  0  0  0  0  0  0  0  0  0  0  0
  153.5566  144.1126  159.7677 H   0  0  0  0  0  0  0  0  0  0  0  0
  151.8843  143.7598  160.1489 H   0  0  0  0  0  0  0  0  0  0  0  0
  153.7456  142.0676  158.4375 H   0  0  0  0  0  0  0  0  0  0  0  0
  153.2143  141.6751  160.0515 H   0  0  0  0  0  0  0  0  0  0  0  0
  150.8557  141.5692  159.2708 H   0  0  0  0  0  0  0  0  0  0  0  0
  152.2284  139.7563  157.2994 H   0  0  0  0  0  0  0  0  0  0  0  0
  149.7014  139.6443  158.7927 H   0  0  0  0  0  0  0  0  0  0  0  0
  150.2237  138.8647  157.3222 H   0  0  0  0  0  0  0  0  0  0  0  0
  150.4293  137.9151  160.1374 H   0  0  0  0  0  0  0  0  0  0  0  0
  150.3784  136.9392  158.6740 H   0  0  0  0  0  0  0  0  0  0  0  0
  152.7016  137.1358  160.0399 H   0  0  0  0  0  0  0  0  0  0  0  0
  152.7288  137.2628  158.2810 H   0  0  0  0  0  0  0  0  0  0  0  0
  152.6794  139.5292  160.2951 H   0  0  0  0  0  0  0  0  0  0  0  0
  154.5947  138.4970  159.0776 H   0  0  0  0  0  0  0  0  0  0  0  0
  149.8177  140.2515  153.6734 H   0  0  0  0  0  0  0  0  0  0  0  0
  143.5023  138.7652  157.1342 H   0  0  0  0  0  0  0  0  0  0  0  0
  142.6350  139.6664  155.0899 H   0  0  0  0  0  0  0  0  0  0  0  0
  143.4393  138.4195  154.1279 H   0  0  0  0  0  0  0  0  0  0  0  0
  141.2266  137.9991  156.1581 H   0  0  0  0  0  0  0  0  0  0  0  0
  141.3122  137.3778  154.5072 H   0  0  0  0  0  0  0  0  0  0  0  0
  144.6061  136.3381  155.6853 H   0  0  0  0  0  0  0  0  0  0  0  0
  144.0678  136.4802  157.3557 H   0  0  0  0  0  0  0  0  0  0  0  0
  1  2  1  0  0  0  0
  1 31  1  0  0  0  0
  2  3  1  0  0  0  0
  2 32  1  0  0  0  0
  2 33  1  0  0  0  0
  3  4  1  0  0  0  0
  3 26  1  0  0  0  0
  3 34  1  0  0  0  0
  4  5  1  0  0  0  0
  4 35  1  0  0  0  0
  4 36  1  0  0  0  0
  5 25  1  0  0  0  0
  5  6  1  0  0  0  0
  6  7  2  0  0  0  0
  6 37  1  0  0  0  0
  7  8  1  0  0  0  0
  8 25  2  0  0  0  0
  8  9  1  0  0  0  0
  9 10  1  0  0  0  0
  9 22  2  0  0  0  0
 10 15  1  0  0  0  0
 10 11  1  0  0  0  0
 11 12  1  0  0  0  0
 11 38  1  0  0  0  0
 11 39  1  0  0  0  0
 12 13  1  0  0  0  0
 12 40  1  0  0  0  0
 12 41  1  0  0  0  0
 13 14  1  0  0  0  0
 13 42  1  0  0  0  0
 13 43  1  0  0  0  0
 14 15  1  0  0  0  0
 14 44  1  0  0  0  0
 14 45  1  0  0  0  0
 15 16  1  0  0  0  0
 15 46  1  0  0  0  0
 16 20  1  0  0  0  0
 16 17  1  0  0  0  0
 16 47  1  0  0  0  0
 17 18  1  0  0  0  0
 17 48  1  0  0  0  0
 17 49  1  0  0  0  0
 18 19  1  0  0  0  0
 18 50  1  0  0  0  0
 18 51  1  0  0  0  0
 19 20  1  0  0  0  0
 19 52  1  0  0  0  0
 19 53  1  0  0  0  0
 20 21  1  0  0  0  0
 20 54  1  0  0  0  0
 21 55  1  0  0  0  0
 22 23  1  0  0  0  0
 23 24  2  0  0  0  0
 23 56  1  0  0  0  0
 24 25  1  0  0  0  0
 26 30  1  0  0  0  0
 26 27  1  0  0  0  0
 26 57  1  0  0  0  0
 27 28  1  0  0  0  0
 27 58  1  0  0  0  0
 27 59  1  0  0  0  0
 28 29  1  0  0  0  0
 28 60  1  0  0  0  0
 28 61  1  0  0  0  0
 29 30  1  0  0  0  0
 30 62  1  0  0  0  0
 30 63  1  0  0  0  0
M  END
> <s_m_source_file>
AV-unprocessed.smi

> <i_m_source_file_index>
148

> <i_lp_mmshare_version>
43012

> <i_f3d_flags>
0

> <s_epik_input>
W0NIMl0xT1tDSDJdW0NIMl1bQ0BIXTFbQ0BIXShbQ0gyXVtPSF0pW0NIMl1uKFtjSF1uMiljKGMyMyluW2NIXW5jM040W0NIMl1bQ0gyXVtDSDJdW0NIMl1bQ0BIXTRbQ0BASF01W0NIMl1bQ0gyXVtDSDJdW0NASF01W09IXQ==

> <s_epik_cmdline>
J2VwaWtfcHl0aG9uJywgJy1waCcsICc3LjAnLCAnLXRuJywgJzgnLCAnLW1hJywgJzIwMCcsICctbWV0YWxfYmluZGluZycsICctaW1hZScsICc8aW5maWxlLm1hZT4nLCAnLW9tYWUnLCAnPG91dGZpbGUubWFlPic=

> <r_lp_tautomer_probability>
1

> <r_epik_Ionization_Penalty>
0.00556303

> <r_epik_Ionization_Penalty_Charging>
0

> <r_epik_Ionization_Penalty_Neutral>
0.00556303

> <r_epik_State_Penalty>
0.00401767

> <r_epik_Charging_Adjusted_Penalty>
0.00401767

> <i_epik_Tot_Q>
0

> <i_epik_Tot_abs_Q>
0

> <r_epik_Metal_State_Penalty>
-0

> <b_epik_Metal_Only>
0

> <s_lp_Force_Field>
OPLS_2005

> <r_lp_Energy>
68.4806

> <b_lp_Chiralities_Consistent>
1

> <s_lp_Variant>
AV-unprocessed.smi:148-20

> <Gold.Version>
5.8.1

> <Gold.Id.Protein>
6NUR|6NUR_protein|mol2

> <Gold.PLP.Fitness>
44.0538

> <Gold.PLP.PLP>
-37.2782

> <Gold.PLP.part.hbond>
-3.1055

> <Gold.PLP.part.metal>
0.0000

> <Gold.PLP.part.buried>
-3.6952

> <Gold.PLP.part.nonpolar>
-30.5656

> <Gold.PLP.part.repulsive>
0.3473

> <Gold.PLP.ligand.clash>
0.0000

> <Gold.PLP.ligand.torsion>
1.4295

> <Gold.PLP.Chemscore.Hbond>
2.0082

> <Gold.PLP.Chemscore.CHOScore>
1.0000

> <Gold.PLP.Chemscore.Metal>
0.0000

> <Gold.Chemscore.Hbonds>
donor molecule, donor type, donor heavy atom, donor atom, acceptor molecule, acceptor atom, score
      L1  H     1    31       P1 10175  0.98
      P1  H  7989  7998       L1    22  0.03
      P1  H  7997  8009       L1    21  1.00
      L1  C    23    56       P1  7957  1.00

> <Gold.PLP.Chemscore.Internal.Correction>
0.6098

> <Gold.Rescore>
     Score         DG    S(hbond)    S(metal)    S(lipo)     H(rot)  DE(clash)    DE(int)     intcor
      8.95     -13.34       1.91        0.00      85.42       3.32       0.01       4.38       ----

> <Gold.Chemscore.Fitness>
8.9472

> <Gold.Chemscore.DG>
-13.3444

> <Gold.Chemscore.ZeroCoef>
-5.4800

> <Gold.Chemscore.Hbond>
1.9074

> <Gold.Chemscore.Metal>
0.0000

> <Gold.Chemscore.Lipo>
85.4170

> <Gold.Chemscore.Internal_Hbond>
0.0000

> <Gold.Chemscore.DEClash>
0.0149

> <Gold.Chemscore.DEInternal>
4.3823

> <Gold.Chemscore.Rot>
3.3203

> <Gold.Chemscore.Internal.Correction>
   9.000000E+99

> <Gold.Chemscore.Hbonds>
donor molecule, donor type, donor heavy atom, donor atom, acceptor molecule, acceptor atom, score
      L1  H     1    31       P1 10175  0.91
      P1  H  7997  8009       L1    21  0.72

> <Gold.Chemscore.Hbond.Weighted>
-6.3706

> <Gold.Chemscore.Metal.Weighted>
-0.0000

> <Gold.Chemscore.Lipo.Weighted>
-9.9938

> <Gold.Chemscore.Internal_Hbond.Weighted>
0.0000

> <Gold.Chemscore.DEClash.Weighted>
0.0149

> <Gold.Chemscore.DEInternal.Weighted>
4.3823

> <Gold.Chemscore.Rot.Weighted>
8.5000

> <Gold.Chemscore.Internal.Correction.Weighted>
   9.000000E+99

> <Gold.Protein.RotatedTorsions>
[ 6907 6896 6895 6894 ] final -167.91 input  -60.11 | X-H torsion
[ 7974 7965 7964 7962 ] final   -3.77 input  175.53 | X-H torsion
[ 8008 7997 7996 7995 ] final  145.94 input   59.86 | X-H torsion
[ 10167 10162 10161 10158 ] final  -76.42 input  -65.29 | X-H torsion
[ 10718 10713 10712 10709 ] final   11.18 input   66.30 | X-H torsion
[ 10763 10752 10751 10750 ] final -143.87 input  -60.55 | X-H torsion
[ 11005 11000 10999 10996 ] final -130.17 input  -57.11 | X-H torsion

> <Gold.Protein.ActiveResidues>
 VAL166  LYS551  ARG553  GLY616  TRP617  ASP618  TYR619  PRO620  LYS621  CYS622 
 ASP623  PHE694  ASN695  SER759  ASP760  ASP761  ALA762  ILE779  LEU786  VAL792 
 PHE793  MET794  SER795  GLU796  ALA797  LYS798  CYS799  TRP800  GLU811  SER814 

> <Gold.Protein.RotatedAtoms>
  151.4671  133.3578  159.2817 H   0  0  0  0  0  0  0  0  0  0  0  0  # atno 6907 bound_to 6896
  150.8986  134.8398  159.7355 H   0  0  0  0  0  0  0  0  0  0  0  0  # atno 6908 bound_to 6896
  152.4866  134.4589  159.9650 H   0  0  0  0  0  0  0  0  0  0  0  0  # atno 6909 bound_to 6896
  146.2384  140.1772  142.8332 H   0  0  0  0  0  0  0  0  0  0  0  0  # atno 7974 bound_to 7965
  156.2869  140.2196  156.5296 H   0  0  0  0  0  0  0  0  0  0  0  0  # atno 8008 bound_to 7997
  154.7460  140.0484  157.0874 H   0  0  0  0  0  0  0  0  0  0  0  0  # atno 8009 bound_to 7997
  155.0170  140.3119  155.4811 H   0  0  0  0  0  0  0  0  0  0  0  0  # atno 8010 bound_to 7997
  140.4859  143.2391  151.7985 H   0  0  0  0  0  0  0  0  0  0  0  0  # atno 10167 bound_to 10162
  156.9918  130.6045  149.5687 H   0  0  0  0  0  0  0  0  0  0  0  0  # atno 10718 bound_to 10713
  154.8452  135.3456  154.6257 H   0  0  0  0  0  0  0  0  0  0  0  0  # atno 10763 bound_to 10752
  153.6866  135.6977  153.5107 H   0  0  0  0  0  0  0  0  0  0  0  0  # atno 10764 bound_to 10752
  153.2627  135.4318  155.0866 H   0  0  0  0  0  0  0  0  0  0  0  0  # atno 10765 bound_to 10752
  140.9368  134.1246  157.4186 H   0  0  0  0  0  0  0  0  0  0  0  0  # atno 11005 bound_to 11000
  144.9964  140.8593  143.5308 LP  0  0  0  0  0  0  0  0  0  0  0  0  # atno 17320 bound_to 7965
  145.1785  139.2365  143.5305 LP  0  0  0  0  0  0  0  0  0  0  0  0  # atno 17321 bound_to 7965
  139.4842  144.4713  151.9422 LP  0  0  0  0  0  0  0  0  0  0  0  0  # atno 17342 bound_to 10162
  140.3799  144.2749  150.5910 LP  0  0  0  0  0  0  0  0  0  0  0  0  # atno 17343 bound_to 10162
  156.0204  130.5299  150.8259 LP  0  0  0  0  0  0  0  0  0  0  0  0  # atno 17370 bound_to 10713
  157.5453  131.0942  150.9771 LP  0  0  0  0  0  0  0  0  0  0  0  0  # atno 17371 bound_to 10713
  139.8810  135.0023  156.6121 LP  0  0  0  0  0  0  0  0  0  0  0  0  # atno 17394 bound_to 11000
  140.7788  133.8677  155.8551 LP  0  0  0  0  0  0  0  0  0  0  0  0  # atno 17395 bound_to 11000

$$$$
