#       Name:                AV-unprocessed.smi:1740
#       Creating user name   scv26
#       Creation time:       Fri Mar 27 08:22:33 2020


#       File generated by GOLD software.
#

@<TRIPOS>MOLECULE
AV-unprocessed.smi:1740
    58    60     1
SMALL
NO_CHARGES


@<TRIPOS>ATOM
      1 ****        -4.1372  -5.5059  -0.6456 N.am           1 S1                 0.0000
      2 ****        -4.3662  -4.2007  -0.4871 C.2            1 S1                 0.0000
      3 ****        -5.4227  -3.6746  -0.8326 O.2            1 S1                 0.0000
      4 ****        -3.2516  -3.3777   0.1677 C.3            1 S1                 0.0000
      5 ****        -3.3910  -1.9183  -0.0730 N.4            1 S1                 1.0000
      6 ****        -2.9635  -1.5068  -1.4367 C.3            1 S1                 0.0000
      7 ****        -3.2790  -0.0221  -1.6913 C.3            1 S1                 0.0000
      8 ****        -2.6622   0.8960  -0.6213 C.3            1 S1                 0.0000
      9 ****        -1.2124   0.9937  -0.7925 N.am           1 S1                 0.0000
     10 ****        -0.4592   2.0244  -0.3812 C.2            1 S1                 0.0000
     11 ****        -0.9108   3.0064   0.2076 O.2            1 S1                 0.0000
     12 ****         0.8390   1.8360  -0.6706 N.am           1 S1                 0.0000
     13 ****         1.9181   2.7153  -0.3742 C.ar           1 S1                 0.0000
     14 ****         1.7680   4.1176  -0.5262 C.ar           1 S1                 0.0000
     15 ****         2.8644   4.9706  -0.3011 C.ar           1 S1                 0.0000
     16 ****         4.1009   4.4071   0.0570 C.ar           1 S1                 0.0000
     17 ****         4.2146   3.0687   0.1829 N.pl3          1 S1                 1.0000
     18 ****         3.1929   2.1959  -0.0048 C.ar           1 S1                 0.0000
     19 ****         3.4579   0.8196   0.1813 N.3            1 S1                 0.0000
     20 ****         4.8229   0.3553   0.4043 C.3            1 S1                 0.0000
     21 ****         4.6775  -1.0682   0.9355 C.3            1 S1                 0.0000
     22 ****         3.3978  -0.9808   1.7612 C.3            1 S1                 0.0000
     23 ****         2.5377   0.0247   0.9893 C.3            1 S1                 0.0000
     24 ****        -3.0371   0.3940   0.7873 C.3            1 S1                 0.0000
     25 ****        -2.7254  -1.1016   0.9730 C.3            1 S1                 0.0000
     26 ****        -4.8456  -6.0895  -1.0676 H              1 S1                 0.0000
     27 ****        -3.2639  -5.9114  -0.3413 H              1 S1                 0.0000
     28 ****        -3.3046  -3.5807   1.2381 H              1 S1                 0.0000
     29 ****        -2.2721  -3.7216  -0.1688 H              1 S1                 0.0000
     30 ****        -1.8954  -1.6933  -1.5574 H              1 S1                 0.0000
     31 ****        -3.4725  -2.1106  -2.1883 H              1 S1                 0.0000
     32 ****        -2.9379   0.2703  -2.6852 H              1 S1                 0.0000
     33 ****        -4.3617   0.1118  -1.6932 H              1 S1                 0.0000
     34 ****        -3.0850   1.8930  -0.7594 H              1 S1                 0.0000
     35 ****        -0.7557   0.2317  -1.2722 H              1 S1                 0.0000
     36 ****         1.0940   0.9366  -1.0519 H              1 S1                 0.0000
     37 ****         0.8275   4.5499  -0.8346 H              1 S1                 0.0000
     38 ****         2.7602   6.0399  -0.4144 H              1 S1                 0.0000
     39 ****         4.9976   4.9807   0.2421 H              1 S1                 0.0000
     40 ****         5.4101   0.3863  -0.5141 H              1 S1                 0.0000
     41 ****         5.3201   0.9736   1.1529 H              1 S1                 0.0000
     42 ****         4.5396  -1.7648   0.1072 H              1 S1                 0.0000
     43 ****         5.5404  -1.3956   1.5160 H              1 S1                 0.0000
     44 ****         2.9077  -1.9458   1.8932 H              1 S1                 0.0000
     45 ****         3.6284  -0.5831   2.7506 H              1 S1                 0.0000
     46 ****         1.9446   0.6400   1.6674 H              1 S1                 0.0000
     47 ****         1.8551  -0.5028   0.3225 H              1 S1                 0.0000
     48 ****        -2.5286   0.9810   1.5530 H              1 S1                 0.0000
     49 ****        -4.1041   0.5538   0.9481 H              1 S1                 0.0000
     50 ****        -3.0687  -1.4148   1.9597 H              1 S1                 0.0000
     51 ****        -1.6484  -1.2745   0.9434 H              1 S1                 0.0000
     52 ****        -4.3793  -1.7199  -0.0016 H              1 S1                 0.0000
     53 ****         5.1253   2.6911   0.4446 H              1 S1                 0.0000
     54 ****        -6.1447  -4.2282  -1.2476 LP             1 S1                 0.0000
     55 ****        -5.5598  -2.6932  -0.6985 LP             1 S1                 0.0000
     56 ****        -1.8897   3.0656   0.4034 LP             1 S1                 0.0000
     57 ****        -0.2989   3.7451   0.4903 LP             1 S1                 0.0000
     58 ****         3.2604   0.6342  -0.7813 LP             1 S1                 0.0000
@<TRIPOS>BOND
    1    1    2 am    
    2    1   26 1     
    3    1   27 1     
    4    2    3 2     
    5    2    4 1     
    6    4    5 1     
    7    4   28 1     
    8    4   29 1     
    9    5   25 1     
   10    5    6 1     
   11    5   52 1     
   12    6    7 1     
   13    6   30 1     
   14    6   31 1     
   15    7    8 1     
   16    7   32 1     
   17    7   33 1     
   18    8    9 1     
   19    8   24 1     
   20    8   34 1     
   21    9   10 am    
   22    9   35 1     
   23   10   11 2     
   24   10   12 am    
   25   12   13 1     
   26   12   36 1     
   27   13   18 ar    
   28   13   14 ar    
   29   14   15 ar    
   30   14   37 1     
   31   15   16 ar    
   32   15   38 1     
   33   16   17 ar    
   34   16   39 1     
   35   17   18 ar    
   36   17   53 1     
   37   18   19 1     
   38   19   23 1     
   39   19   20 1     
   40   20   21 1     
   41   20   40 1     
   42   20   41 1     
   43   21   22 1     
   44   21   42 1     
   45   21   43 1     
   46   22   23 1     
   47   22   44 1     
   48   22   45 1     
   49   23   46 1     
   50   23   47 1     
   51   24   25 1     
   52   24   48 1     
   53   24   49 1     
   54   25   50 1     
   55   25   51 1     
   56    3   54 1     
   57    3   55 1     
   58   11   56 1     
   59   11   57 1     
   60   19   58 1     
@<TRIPOS>SUBSTRUCTURE
      1 S1             1
@<TRIPOS>SET
LONE_PAIRS      STATIC     ATOMS    <user>   **** ""
5 54 55 56 57 58
DONOR_HYDROGENS      STATIC     ATOMS    <user>   **** ""
6 26 27 52 35 36 53
ATOM$BLUE        STATIC     ATOMS    COLORGROUP SYSTEM
5 54 55 56 57 58
ATOM$RED        STATIC     ATOMS    COLORGROUP SYSTEM
6 26 27 52 35 36 53
