AV-unprocessed.smi:1807|AV-procd|sdf|7302|dock3
  -GOLD-   22720 8563D 1   1.00000     0.00000
 Structure written by MMmdl.
 44 45  0  0  0  0  0  0  0  0  1 V2000
  148.4154  140.4316  154.2005 C   0  0  0  0  0  0  0  0  0  0  0  0
  149.7385  140.7007  154.9373 C   0  0  1  0  0  0  0  0  0  0  0  0
  149.5023  141.0229  156.4274 C   0  0  0  0  0  0  0  0  0  0  0  0
  150.8177  141.3592  157.1479 C   0  0  0  0  0  0  0  0  0  0  0  0
  151.8467  140.2298  156.9908 C   0  0  0  0  0  0  0  0  0  0  0  0
  152.0872  139.8958  155.5081 C   0  0  0  0  0  0  0  0  0  0  0  0
  150.7782  139.5630  154.7638 C   0  0  1  0  0  0  0  0  0  0  0  0
  150.2600  138.2728  155.2250 N   0  0  0  0  0  0  0  0  0  0  0  0
  150.8897  137.0903  155.1484 C   0  0  0  0  0  0  0  0  0  0  0  0
  152.0144  136.9508  154.6644 O   0  0  0  0  0  0  0  0  0  0  0  0
  150.1174  135.8949  155.7132 C   0  0  0  0  0  0  0  0  0  0  0  0
  149.0822  135.4269  154.8016 N   0  0  0  0  0  0  0  0  0  0  0  0
  149.0519  134.0822  154.4184 C   0  0  0  0  0  0  0  0  0  0  0  0
  150.0058  133.1399  154.8895 C   0  0  0  0  0  0  0  0  0  0  0  0
  149.6168  131.9763  154.2889 C   0  0  0  0  0  0  0  0  0  0  0  0
  148.5024  132.2560  153.5216 N   0  0  0  0  0  0  0  0  0  0  0  0
  147.7222  131.3472  152.7006 C   0  0  0  0  0  0  0  0  0  0  0  0
  146.2685  131.2806  153.1747 C   0  0  0  0  0  0  0  0  0  0  0  0
  145.8259  130.1025  153.6209 N   0  0  0  0  0  0  0  0  0  0  0  0
  145.5532  132.2797  153.1415 O   0  0  0  0  0  0  0  0  0  0  0  0
  148.1543  133.5598  153.5968 N   0  0  0  0  0  0  0  0  0  0  0  0
  147.8740  139.5909  154.6348 H   0  0  0  0  0  0  0  0  0  0  0  0
  148.5921  140.2072  153.1482 H   0  0  0  0  0  0  0  0  0  0  0  0
  147.7599  141.3015  154.2455 H   0  0  0  0  0  0  0  0  0  0  0  0
  150.1691  141.5937  154.4818 H   0  0  0  0  0  0  0  0  0  0  0  0
  148.8134  141.8628  156.5215 H   0  0  0  0  0  0  0  0  0  0  0  0
  149.0213  140.1769  156.9202 H   0  0  0  0  0  0  0  0  0  0  0  0
  151.2284  142.2854  156.7440 H   0  0  0  0  0  0  0  0  0  0  0  0
  150.6258  141.5422  158.2055 H   0  0  0  0  0  0  0  0  0  0  0  0
  152.7868  140.5174  157.4621 H   0  0  0  0  0  0  0  0  0  0  0  0
  151.4987  139.3411  157.5188 H   0  0  0  0  0  0  0  0  0  0  0  0
  152.5645  140.7496  155.0254 H   0  0  0  0  0  0  0  0  0  0  0  0
  152.7921  139.0679  155.4211 H   0  0  0  0  0  0  0  0  0  0  0  0
  151.0245  139.4899  153.7032 H   0  0  0  0  0  0  0  0  0  0  0  0
  149.3392  138.2832  155.6386 H   0  0  0  0  0  0  0  0  0  0  0  0
  150.8210  135.0859  155.9146 H   0  0  0  0  0  0  0  0  0  0  0  0
  149.6605  136.1789  156.6625 H   0  0  0  0  0  0  0  0  0  0  0  0
  148.4484  136.0969  154.3896 H   0  0  0  0  0  0  0  0  0  0  0  0
  150.8383  133.2907  155.5606 H   0  0  0  0  0  0  0  0  0  0  0  0
  150.0333  130.9816  154.3450 H   0  0  0  0  0  0  0  0  0  0  0  0
  147.7501  131.6784  151.6612 H   0  0  0  0  0  0  0  0  0  0  0  0
  148.1874  130.3609  152.7351 H   0  0  0  0  0  0  0  0  0  0  0  0
  144.8750  130.0092  153.9471 H   0  0  0  0  0  0  0  0  0  0  0  0
  146.4484  129.3073  153.6327 H   0  0  0  0  0  0  0  0  0  0  0  0
  1  2  1  0  0  0  0
  1 22  1  0  0  0  0
  1 23  1  0  0  0  0
  1 24  1  0  0  0  0
  2  7  1  0  0  0  0
  2  3  1  0  0  0  0
  2 25  1  0  0  0  0
  3  4  1  0  0  0  0
  3 26  1  0  0  0  0
  3 27  1  0  0  0  0
  4  5  1  0  0  0  0
  4 28  1  0  0  0  0
  4 29  1  0  0  0  0
  5  6  1  0  0  0  0
  5 30  1  0  0  0  0
  5 31  1  0  0  0  0
  6  7  1  0  0  0  0
  6 32  1  0  0  0  0
  6 33  1  0  0  0  0
  7  8  1  0  0  0  0
  7 34  1  0  0  0  0
  8  9  1  0  0  0  0
  8 35  1  0  0  0  0
  9 10  2  0  0  0  0
  9 11  1  0  0  0  0
 11 12  1  0  0  0  0
 11 36  1  0  0  0  0
 11 37  1  0  0  0  0
 12 13  1  0  0  0  0
 12 38  1  0  0  0  0
 13 21  2  0  0  0  0
 13 14  1  0  0  0  0
 14 15  2  0  0  0  0
 14 39  1  0  0  0  0
 15 16  1  0  0  0  0
 15 40  1  0  0  0  0
 16 17  1  0  0  0  0
 16 21  1  0  0  0  0
 17 18  1  0  0  0  0
 17 41  1  0  0  0  0
 17 42  1  0  0  0  0
 18 19  1  0  0  0  0
 18 20  2  0  0  0  0
 19 43  1  0  0  0  0
 19 44  1  0  0  0  0
M  END
> <s_m_source_file>
AV-unprocessed.smi

> <i_m_source_file_index>
1807

> <i_lp_mmshare_version>
43012

> <i_f3d_flags>
0

> <s_epik_input>
W0NIM11bQ0BASF0xW0NIMl1bQ0gyXVtDSDJdW0NIMl1bQ0BIXTFbTkhdQyg9TylbQ0gyXVtOSF1jMltjSF1bY0hdbihuMilbQ0gyXUMoPU8pW05IMl0=

> <s_epik_cmdline>
J2VwaWtfcHl0aG9uJywgJy1waCcsICc3LjAnLCAnLXRuJywgJzgnLCAnLW1hJywgJzIwMCcsICctbWV0YWxfYmluZGluZycsICctaW1hZScsICc8aW5maWxlLm1hZT4nLCAnLW9tYWUnLCAnPG91dGZpbGUubWFlPic=

> <r_lp_tautomer_probability>
1

> <r_epik_Ionization_Penalty>
0.000167642

> <r_epik_Ionization_Penalty_Charging>
0

> <r_epik_Ionization_Penalty_Neutral>
0.000167642

> <r_epik_State_Penalty>
-0

> <r_epik_Charging_Adjusted_Penalty>
0

> <i_epik_Tot_Q>
0

> <i_epik_Tot_abs_Q>
0

> <r_epik_Metal_State_Penalty>
-0

> <b_epik_Metal_Only>
0

> <s_lp_Force_Field>
OPLS_2005

> <r_lp_Energy>
4.94833

> <b_lp_Chiralities_Consistent>
1

> <s_lp_Variant>
AV-unprocessed.smi:1807-2

> <Gold.Version>
5.8.1

> <Gold.Id.Protein>
6NUR|6NUR_protein|mol2

> <Gold.PLP.Fitness>
37.6153

> <Gold.PLP.PLP>
-32.1379

> <Gold.PLP.part.hbond>
-2.8296

> <Gold.PLP.part.metal>
0.0000

> <Gold.PLP.part.buried>
1.1936

> <Gold.PLP.part.nonpolar>
-30.8670

> <Gold.PLP.part.repulsive>
0.4772

> <Gold.PLP.ligand.clash>
0.0000

> <Gold.PLP.ligand.torsion>
0.2720

> <Gold.PLP.Chemscore.Hbond>
2.0000

> <Gold.PLP.Chemscore.CHOScore>
0.0000

> <Gold.PLP.Chemscore.Metal>
0.0000

> <Gold.Chemscore.Hbonds>
donor molecule, donor type, donor heavy atom, donor atom, acceptor molecule, acceptor atom, score
      L1  H    19    43       P1 10956  0.85
      P1  H 10752 10765       L1    10  1.00

> <Gold.PLP.Chemscore.Internal.Correction>
0.0213

> <Gold.Rescore>
     Score         DG    S(hbond)    S(metal)    S(lipo)     H(rot)  DE(clash)    DE(int)     intcor
     11.12     -12.73       1.95        0.00      63.91       2.64       0.07       1.54       ----

> <Gold.Chemscore.Fitness>
11.1248

> <Gold.Chemscore.DG>
-12.7316

> <Gold.Chemscore.ZeroCoef>
-5.4800

> <Gold.Chemscore.Hbond>
1.9534

> <Gold.Chemscore.Metal>
0.0000

> <Gold.Chemscore.Lipo>
63.9121

> <Gold.Chemscore.Internal_Hbond>
0.0000

> <Gold.Chemscore.DEClash>
0.0695

> <Gold.Chemscore.DEInternal>
1.5373

> <Gold.Chemscore.Rot>
2.6369

> <Gold.Chemscore.Internal.Correction>
   9.000000E+99

> <Gold.Chemscore.Hbonds>
donor molecule, donor type, donor heavy atom, donor atom, acceptor molecule, acceptor atom, score
      L1  H    19    43       P1 10956  0.15
      P1  H 10752 10765       L1    10  0.94

> <Gold.Chemscore.Hbond.Weighted>
-6.5242

> <Gold.Chemscore.Metal.Weighted>
-0.0000

> <Gold.Chemscore.Lipo.Weighted>
-7.4777

> <Gold.Chemscore.Internal_Hbond.Weighted>
0.0000

> <Gold.Chemscore.DEClash.Weighted>
0.0695

> <Gold.Chemscore.DEInternal.Weighted>
1.5373

> <Gold.Chemscore.Rot.Weighted>
6.7504

> <Gold.Chemscore.Internal.Correction.Weighted>
   9.000000E+99

> <Gold.Protein.RotatedTorsions>
[ 6907 6896 6895 6894 ] final   79.23 input  -60.11 | X-H torsion
[ 7974 7965 7964 7962 ] final  128.80 input  175.53 | X-H torsion
[ 8008 7997 7996 7995 ] final   85.40 input   59.86 | X-H torsion
[ 10167 10162 10161 10158 ] final  122.91 input  -65.29 | X-H torsion
[ 10718 10713 10712 10709 ] final  115.27 input   66.30 | X-H torsion
[ 10763 10752 10751 10750 ] final  171.47 input  -60.55 | X-H torsion
[ 11005 11000 10999 10996 ] final -144.91 input  -57.11 | X-H torsion

> <Gold.Protein.ActiveResidues>
 VAL166  LYS551  ARG553  GLY616  TRP617  ASP618  TYR619  PRO620  LYS621  CYS622 
 ASP623  PHE694  ASN695  SER759  ASP760  ASP761  ALA762  ILE779  LEU786  VAL792 
 PHE793  MET794  SER795  GLU796  ALA797  LYS798  CYS799  TRP800  GLU811  SER814 

> <Gold.Protein.RotatedAtoms>
  152.5190  134.3543  159.9261 H   0  0  0  0  0  0  0  0  0  0  0  0  # atno 6907 bound_to 6896
  151.3494  133.3925  159.2686 H   0  0  0  0  0  0  0  0  0  0  0  0  # atno 6908 bound_to 6896
  150.9739  134.9125  159.7862 H   0  0  0  0  0  0  0  0  0  0  0  0  # atno 6909 bound_to 6896
  145.0356  139.4007  143.5127 H   0  0  0  0  0  0  0  0  0  0  0  0  # atno 7974 bound_to 7965
  155.9496  140.3402  155.6396 H   0  0  0  0  0  0  0  0  0  0  0  0  # atno 8008 bound_to 7997
  155.6937  140.0752  157.2456 H   0  0  0  0  0  0  0  0  0  0  0  0  # atno 8009 bound_to 7997
  154.4119  140.1652  156.2102 H   0  0  0  0  0  0  0  0  0  0  0  0  # atno 8010 bound_to 7997
  139.5831  144.6995  151.3478 H   0  0  0  0  0  0  0  0  0  0  0  0  # atno 10167 bound_to 10162
  157.6232  131.1010  150.7306 H   0  0  0  0  0  0  0  0  0  0  0  0  # atno 10718 bound_to 10713
  154.4123  135.2756  155.2029 H   0  0  0  0  0  0  0  0  0  0  0  0  # atno 10763 bound_to 10752
  154.4009  135.6044  153.5900 H   0  0  0  0  0  0  0  0  0  0  0  0  # atno 10764 bound_to 10752
  152.9831  135.5926  154.4406 H   0  0  0  0  0  0  0  0  0  0  0  0  # atno 10765 bound_to 10752
  140.7977  134.2894  157.4990 H   0  0  0  0  0  0  0  0  0  0  0  0  # atno 11005 bound_to 11000
  146.3504  139.9930  142.8684 LP  0  0  0  0  0  0  0  0  0  0  0  0  # atno 17320 bound_to 7965
  145.1713  140.9722  143.4320 LP  0  0  0  0  0  0  0  0  0  0  0  0  # atno 17321 bound_to 7965
  140.7106  143.7399  150.7561 LP  0  0  0  0  0  0  0  0  0  0  0  0  # atno 17342 bound_to 10162
  140.0937  143.4853  152.2464 LP  0  0  0  0  0  0  0  0  0  0  0  0  # atno 17343 bound_to 10162
  156.7659  130.4813  149.5427 LP  0  0  0  0  0  0  0  0  0  0  0  0  # atno 17370 bound_to 10713
  156.1388  130.6230  151.0439 LP  0  0  0  0  0  0  0  0  0  0  0  0  # atno 17371 bound_to 10713
  139.8724  134.9411  156.3788 LP  0  0  0  0  0  0  0  0  0  0  0  0  # atno 17394 bound_to 11000
  140.9326  133.7569  156.0044 LP  0  0  0  0  0  0  0  0  0  0  0  0  # atno 17395 bound_to 11000

$$$$
