AV-unprocessed.smi:39|AV-procd|sdf|359|dock8
  -GOLD-   2262016203D 1   1.00000     0.00000
 Structure written by MMmdl.
 31 32  0  0  0  0  0  0  0  0  4 V2000
  151.9793  143.2415  161.0212 C   0  0  0  0  0  0  0  0  0  0  0  0
  153.0230  142.1902  161.3560 C   0  0  0  0  0  0  0  0  0  0  0  0
  153.5040  141.3310  160.4304 C   0  0  0  0  0  0  0  0  0  0  0  0
  154.4524  140.3714  160.7405 N   0  0  0  0  0  0  0  0  0  0  0  0
  154.9663  139.4111  159.6884 C   0  0  1  0  0  0  0  0  0  0  0  0
  154.6657  137.9661  160.0963 C   0  0  0  0  0  0  0  0  0  0  0  0
  153.3869  137.6889  159.3287 C   0  0  2  0  0  0  0  0  0  0  0  0
  153.1630  136.2609  159.0923 N   0  0  0  0  0  0  0  0  0  0  0  0
  153.2709  135.8740  157.9214 N   0  3  0  0  0  0  0  0  0  0  0  0
  153.3096  135.6215  156.8124 N   0  5  0  0  0  0  0  0  0  0  0  0
  153.6432  138.4665  158.0352 C   0  0  1  0  0  0  0  0  0  0  0  0
  152.3589  138.8320  157.2744 C   0  0  0  0  0  0  0  0  0  0  0  0
  152.6324  139.8202  156.3041 O   0  0  0  0  0  0  0  0  0  0  0  0
  154.3027  139.6506  158.4801 O   0  0  0  0  0  0  0  0  0  0  0  0
  154.9248  140.2595  162.0745 C   0  0  0  0  0  0  0  0  0  0  0  0
  155.7410  139.3732  162.3281 O   0  0  0  0  0  0  0  0  0  0  0  0
  154.4510  141.1271  163.0137 N   0  5  0  0  0  0  0  0  0  0  0  0
  153.5292  142.0916  162.7301 C   0  0  0  0  0  0  0  0  0  0  0  0
  153.1138  142.8715  163.5865 O   0  0  0  0  0  0  0  0  0  0  0  0
  156.0292  139.6262  159.5688 H   0  0  0  0  0  0  0  0  0  0  0  0
  152.5427  138.1382  159.8560 H   0  0  0  0  0  0  0  0  0  0  0  0
  154.3271  137.8989  157.4007 H   0  0  0  0  0  0  0  0  0  0  0  0
  151.7018  143.2030  159.9676 H   0  0  0  0  0  0  0  0  0  0  0  0
  152.3624  144.2399  161.2338 H   0  0  0  0  0  0  0  0  0  0  0  0
  151.0778  143.0844  161.6141 H   0  0  0  0  0  0  0  0  0  0  0  0
  153.1267  141.3988  159.4219 H   0  0  0  0  0  0  0  0  0  0  0  0
  155.4810  137.3324  159.7444 H   0  0  0  0  0  0  0  0  0  0  0  0
  154.5694  137.8494  161.1766 H   0  0  0  0  0  0  0  0  0  0  0  0
  151.9729  137.9587  156.7481 H   0  0  0  0  0  0  0  0  0  0  0  0
  151.5761  139.1715  157.9528 H   0  0  0  0  0  0  0  0  0  0  0  0
  152.2281  140.6293  156.5776 H   0  0  0  0  0  0  0  0  0  0  0  0
  1  2  1  0  0  0  0
  1 23  1  0  0  0  0
  1 24  1  0  0  0  0
  1 25  1  0  0  0  0
  2 18  1  0  0  0  0
  2  3  2  0  0  0  0
  3  4  1  0  0  0  0
  3 26  1  0  0  0  0
  4  5  1  0  0  0  0
  4 15  1  0  0  0  0
  5 20  1  0  0  0  0
  5 14  1  0  0  0  0
  5  6  1  0  0  0  0
  6  7  1  0  0  0  0
  6 27  1  0  0  0  0
  6 28  1  0  0  0  0
  7 21  1  0  0  0  0
  7  8  1  0  0  0  0
  7 11  1  0  0  0  0
  8  9  2  0  0  0  0
  9 10  2  0  0  0  0
 11 22  1  0  0  0  0
 11 12  1  0  0  0  0
 11 14  1  0  0  0  0
 12 13  1  0  0  0  0
 12 29  1  0  0  0  0
 12 30  1  0  0  0  0
 13 31  1  0  0  0  0
 15 16  2  0  0  0  0
 15 17  1  0  0  0  0
 17 18  1  0  0  0  0
 18 19  2  0  0  0  0
M  CHG  1   9   1
M  CHG  1  10  -1
M  CHG  1  17  -1
M  END
> <s_m_source_file>
AV-unprocessed.smi

> <i_m_source_file_index>
39

> <i_lp_mmshare_version>
43012

> <i_f3d_flags>
0

> <s_epik_input>
Tz1jMVtuSF1jKD1PKW4oW2NIXWMxW0NIM10pW0NASF0yW0NIMl1bQ0BIXShOPVtOK109W04tXSlbQ0BIXShPMilbQ0gyXVtPSF0=

> <s_epik_cmdline>
J2VwaWtfcHl0aG9uJywgJy1waCcsICc3LjAnLCAnLXRuJywgJzgnLCAnLW1hJywgJzIwMCcsICctbWV0YWxfYmluZGluZycsICctaW1hZScsICc8aW5maWxlLm1hZT4nLCAnLW9tYWUnLCAnPG91dGZpbGUubWFlPic=

> <r_lp_tautomer_probability>
0.999537

> <r_epik_Ionization_Penalty>
3.6393

> <r_epik_Ionization_Penalty_Charging>
9.76484e-08

> <r_epik_Ionization_Penalty_Neutral>
3.6393

> <r_epik_State_Penalty>
3.63887

> <r_epik_Charging_Adjusted_Penalty>
3.63887

> <i_epik_Tot_Q>
-1

> <i_epik_Tot_abs_Q>
3

> <r_epik_Metal_State_Penalty>
0.225911

> <b_epik_Metal_Only>
1

> <s_epik_Chemistry_Notes>
This compound contains an acetal/aminal-like group ( X-CH(R)-Y where X, Y are N, S, or O) that may be acid/base labile, releasing an aldehyde.

> <s_lp_Force_Field>
OPLS_2005

> <r_lp_Energy>
34.0218

> <b_lp_Chiralities_Consistent>
1

> <s_lp_Variant>
AV-unprocessed.smi:39-9

> <Gold.Version>
5.8.1

> <Gold.Id.Protein>
6NUR|6NUR_protein|mol2

> <Gold.PLP.Fitness>
41.9060

> <Gold.PLP.PLP>
-32.8580

> <Gold.PLP.part.hbond>
-6.0000

> <Gold.PLP.part.metal>
0.0000

> <Gold.PLP.part.buried>
-2.4462

> <Gold.PLP.part.nonpolar>
-22.9356

> <Gold.PLP.part.repulsive>
0.1239

> <Gold.PLP.ligand.clash>
0.0000

> <Gold.PLP.ligand.torsion>
0.1415

> <Gold.PLP.Chemscore.Hbond>
3.0992

> <Gold.PLP.Chemscore.CHOScore>
0.0000

> <Gold.PLP.Chemscore.Metal>
0.0000

> <Gold.Chemscore.Hbonds>
donor molecule, donor type, donor heavy atom, donor atom, acceptor molecule, acceptor atom, score
      P1  H  6896  6909       L1     8  0.77
      P1  H  7997  8009       L1    14  0.35
      P1  H  7997  8010       L1    13  1.00
      P1  H 10752 10763       L1    10  0.91

> <Gold.PLP.Chemscore.Internal.Correction>
0.0333

> <Gold.Rescore>
     Score         DG    S(hbond)    S(metal)    S(lipo)     H(rot)  DE(clash)    DE(int)     intcor
     10.23     -12.47       2.40        0.00      50.75       2.72       0.69       1.55       ----

> <Gold.Chemscore.Fitness>
10.2270

> <Gold.Chemscore.DG>
-12.4731

> <Gold.Chemscore.ZeroCoef>
-5.4800

> <Gold.Chemscore.Hbond>
2.3971

> <Gold.Chemscore.Metal>
0.0000

> <Gold.Chemscore.Lipo>
50.7513

> <Gold.Chemscore.Internal_Hbond>
0.0000

> <Gold.Chemscore.DEClash>
0.6938

> <Gold.Chemscore.DEInternal>
1.5524

> <Gold.Chemscore.Rot>
2.7153

> <Gold.Chemscore.Internal.Correction>
   9.000000E+99

> <Gold.Chemscore.Hbonds>
donor molecule, donor type, donor heavy atom, donor atom, acceptor molecule, acceptor atom, score
      P1  H  6896  6909       L1     8  0.53
      P1  H  7997  8009       L1    14  0.12
      P1  H  7997  8010       L1    13  0.46
      P1  H 10752 10763       L1    10  0.89

> <Gold.Chemscore.Hbond.Weighted>
-8.0065

> <Gold.Chemscore.Metal.Weighted>
-0.0000

> <Gold.Chemscore.Lipo.Weighted>
-5.9379

> <Gold.Chemscore.Internal_Hbond.Weighted>
0.0000

> <Gold.Chemscore.DEClash.Weighted>
0.6938

> <Gold.Chemscore.DEInternal.Weighted>
1.5524

> <Gold.Chemscore.Rot.Weighted>
6.9512

> <Gold.Chemscore.Internal.Correction.Weighted>
   9.000000E+99

> <Gold.Protein.RotatedTorsions>
[ 6907 6896 6895 6894 ] final  140.66 input  -60.11 | X-H torsion
[ 7974 7965 7964 7962 ] final  151.31 input  175.53 | X-H torsion
[ 8008 7997 7996 7995 ] final   90.36 input   59.86 | X-H torsion
[ 10167 10162 10161 10158 ] final  171.64 input  -65.29 | X-H torsion
[ 10718 10713 10712 10709 ] final  122.08 input   66.30 | X-H torsion
[ 10763 10752 10751 10750 ] final  123.24 input  -60.55 | X-H torsion
[ 11005 11000 10999 10996 ] final -136.26 input  -57.11 | X-H torsion

> <Gold.Protein.ActiveResidues>
 VAL166  LYS551  ARG553  GLY616  TRP617  ASP618  TYR619  PRO620  LYS621  CYS622 
 ASP623  PHE694  ASN695  SER759  ASP760  ASP761  ALA762  ILE779  LEU786  VAL792 
 PHE793  MET794  SER795  GLU796  ALA797  LYS798  CYS799  TRP800  GLU811  SER814 

> <Gold.Protein.RotatedAtoms>
  152.2403  133.5130  159.5266 H   0  0  0  0  0  0  0  0  0  0  0  0  # atno 6907 bound_to 6896
  150.7062  134.1097  159.4005 H   0  0  0  0  0  0  0  0  0  0  0  0  # atno 6908 bound_to 6896
  151.9018  135.0375  160.0558 H   0  0  0  0  0  0  0  0  0  0  0  0  # atno 6909 bound_to 6896
  144.8302  139.6521  143.6062 H   0  0  0  0  0  0  0  0  0  0  0  0  # atno 7974 bound_to 7965
  156.0110  140.3350  155.6941 H   0  0  0  0  0  0  0  0  0  0  0  0  # atno 8008 bound_to 7997
  155.6157  140.0670  157.2711 H   0  0  0  0  0  0  0  0  0  0  0  0  # atno 8009 bound_to 7997
  154.4281  140.1785  156.1307 H   0  0  0  0  0  0  0  0  0  0  0  0  # atno 8010 bound_to 7997
  139.5052  144.3463  151.9967 H   0  0  0  0  0  0  0  0  0  0  0  0  # atno 10167 bound_to 10162
  157.5769  131.1078  150.8261 H   0  0  0  0  0  0  0  0  0  0  0  0  # atno 10718 bound_to 10713
  153.6425  135.3377  155.3075 H   0  0  0  0  0  0  0  0  0  0  0  0  # atno 10763 bound_to 10752
  154.8556  135.4321  154.1990 H   0  0  0  0  0  0  0  0  0  0  0  0  # atno 10764 bound_to 10752
  153.2912  135.7017  153.7365 H   0  0  0  0  0  0  0  0  0  0  0  0  # atno 10765 bound_to 10752
  140.8822  134.1918  157.4584 H   0  0  0  0  0  0  0  0  0  0  0  0  # atno 11005 bound_to 11000
  146.2605  139.6399  142.9365 LP  0  0  0  0  0  0  0  0  0  0  0  0  # atno 17320 bound_to 7965
  145.4913  141.0438  143.2591 LP  0  0  0  0  0  0  0  0  0  0  0  0  # atno 17321 bound_to 7965
  140.2901  144.3763  150.6091 LP  0  0  0  0  0  0  0  0  0  0  0  0  # atno 17342 bound_to 10162
  140.5953  143.2167  151.7176 LP  0  0  0  0  0  0  0  0  0  0  0  0  # atno 17343 bound_to 10162
  156.8718  130.5148  149.5296 LP  0  0  0  0  0  0  0  0  0  0  0  0  # atno 17370 bound_to 10713
  156.0814  130.5823  150.9570 LP  0  0  0  0  0  0  0  0  0  0  0  0  # atno 17371 bound_to 10713
  139.8721  134.9822  156.5147 LP  0  0  0  0  0  0  0  0  0  0  0  0  # atno 17394 bound_to 11000
  140.8448  133.8177  155.9110 LP  0  0  0  0  0  0  0  0  0  0  0  0  # atno 17395 bound_to 11000

$$$$
