AV-unprocessed.smi:2330|AV-procd|sdf|9310|dock6
  -GOLD-   2272012523D 1   1.00000     0.00000
 Structure written by MMmdl.
 42 43  0  0  0  0  0  0  0  0  1 V2000
  146.0654  128.7912  152.5339 C   0  0  0  0  0  0  0  0  0  0  0  0
  146.7025  130.1874  152.5833 C   0  0  2  0  0  0  0  0  0  0  0  0
  147.3534  130.4624  153.9522 C   0  0  0  0  0  0  0  0  0  0  0  0
  147.9899  131.8605  154.0075 C   0  0  0  0  0  0  0  0  0  0  0  0
  146.9666  132.9622  153.6632 C   0  0  1  0  0  0  0  0  0  0  0  0
  147.6126  134.2711  153.6437 N   0  0  0  0  0  0  0  0  0  0  0  0
  147.7685  135.0700  154.7085 C   0  0  0  0  0  0  0  0  0  0  0  0
  147.3499  134.8090  155.8365 O   0  0  0  0  0  0  0  0  0  0  0  0
  148.4600  136.1761  154.4024 N   0  0  0  0  0  0  0  0  0  0  0  0
  148.8728  137.1982  155.3607 C   0  0  0  0  0  0  0  0  0  0  0  0
  149.4925  138.4420  154.6844 C   0  0  2  0  0  0  0  0  0  0  0  0
  150.7079  138.9933  155.4436 C   0  0  0  0  0  0  0  0  0  0  0  0
  148.4855  139.5086  154.3746 C   0  0  0  0  0  0  0  0  0  0  0  0
  148.7443  140.5769  153.6134 N   0  0  0  0  0  0  0  0  0  0  0  0
  147.6448  141.4308  153.4975 C   0  0  0  0  0  0  0  0  0  0  0  0
  146.5417  141.0000  154.1895 C   0  0  0  0  0  0  0  0  0  0  0  0
  146.8442  139.4959  155.0145 S   0  0  0  0  0  0  0  0  0  0  0  0
  146.3118  132.6872  152.2974 C   0  0  0  0  0  0  0  0  0  0  0  0
  145.6775  131.2877  152.2480 C   0  0  0  0  0  0  0  0  0  0  0  0
  145.2709  128.6909  153.2741 H   0  0  0  0  0  0  0  0  0  0  0  0
  146.8049  128.0151  152.7322 H   0  0  0  0  0  0  0  0  0  0  0  0
  145.6340  128.5912  151.5526 H   0  0  0  0  0  0  0  0  0  0  0  0
  147.4873  130.2163  151.8257 H   0  0  0  0  0  0  0  0  0  0  0  0
  146.6048  130.3743  154.7410 H   0  0  0  0  0  0  0  0  0  0  0  0
  148.1128  129.7088  154.1628 H   0  0  0  0  0  0  0  0  0  0  0  0
  148.4071  132.0302  155.0009 H   0  0  0  0  0  0  0  0  0  0  0  0
  148.8283  131.9035  153.3106 H   0  0  0  0  0  0  0  0  0  0  0  0
  146.1809  132.9647  154.4215 H   0  0  0  0  0  0  0  0  0  0  0  0
  147.9959  134.5751  152.7607 H   0  0  0  0  0  0  0  0  0  0  0  0
  148.7623  136.3010  153.4473 H   0  0  0  0  0  0  0  0  0  0  0  0
  147.9830  137.4933  155.9174 H   0  0  0  0  0  0  0  0  0  0  0  0
  149.5643  136.7716  156.0891 H   0  0  0  0  0  0  0  0  0  0  0  0
  149.8769  138.1091  153.7195 H   0  0  0  0  0  0  0  0  0  0  0  0
  151.1835  139.8020  154.8880 H   0  0  0  0  0  0  0  0  0  0  0  0
  151.4564  138.2167  155.6023 H   0  0  0  0  0  0  0  0  0  0  0  0
  150.4214  139.3828  156.4210 H   0  0  0  0  0  0  0  0  0  0  0  0
  147.7357  142.3272  152.9018 H   0  0  0  0  0  0  0  0  0  0  0  0
  145.5743  141.4740  154.2636 H   0  0  0  0  0  0  0  0  0  0  0  0
  145.5512  133.4408  152.0893 H   0  0  0  0  0  0  0  0  0  0  0  0
  147.0567  132.7729  151.5047 H   0  0  0  0  0  0  0  0  0  0  0  0
  145.2548  131.1143  151.2578 H   0  0  0  0  0  0  0  0  0  0  0  0
  144.8443  131.2419  152.9508 H   0  0  0  0  0  0  0  0  0  0  0  0
  1  2  1  0  0  0  0
  1 20  1  0  0  0  0
  1 21  1  0  0  0  0
  1 22  1  0  0  0  0
  2 19  1  0  0  0  0
  2  3  1  0  0  0  0
  2 23  1  0  0  0  0
  3  4  1  0  0  0  0
  3 24  1  0  0  0  0
  3 25  1  0  0  0  0
  4  5  1  0  0  0  0
  4 26  1  0  0  0  0
  4 27  1  0  0  0  0
  5  6  1  0  0  0  0
  5 18  1  0  0  0  0
  5 28  1  0  0  0  0
  6  7  1  0  0  0  0
  6 29  1  0  0  0  0
  7  8  2  0  0  0  0
  7  9  1  0  0  0  0
  9 10  1  0  0  0  0
  9 30  1  0  0  0  0
 10 11  1  0  0  0  0
 10 31  1  0  0  0  0
 10 32  1  0  0  0  0
 11 12  1  0  0  0  0
 11 13  1  0  0  0  0
 11 33  1  0  0  0  0
 12 34  1  0  0  0  0
 12 35  1  0  0  0  0
 12 36  1  0  0  0  0
 13 17  1  0  0  0  0
 13 14  2  0  0  0  0
 14 15  1  0  0  0  0
 15 16  2  0  0  0  0
 15 37  1  0  0  0  0
 16 17  1  0  0  0  0
 16 38  1  0  0  0  0
 18 19  1  0  0  0  0
 18 39  1  0  0  0  0
 18 40  1  0  0  0  0
 19 41  1  0  0  0  0
 19 42  1  0  0  0  0
M  END
> <s_m_source_file>
AV-unprocessed.smi

> <i_m_source_file_index>
2330

> <i_lp_mmshare_version>
43012

> <i_f3d_flags>
0

> <s_epik_input>
W0NIM11bQ0BASF0xW0NIMl1bQ0gyXVtDQEhdKFtDSDJdW0NIMl0xKVtOSF1DKD1PKVtOSF1bQ0gyXVtDQEhdKFtDSDNdKWMybltjSF1bY0hdczI=

> <s_epik_cmdline>
J2VwaWtfcHl0aG9uJywgJy1waCcsICc3LjAnLCAnLXRuJywgJzgnLCAnLW1hJywgJzIwMCcsICctbWV0YWxfYmluZGluZycsICctaW1hZScsICc8aW5maWxlLm1hZT4nLCAnLW9tYWUnLCAnPG91dGZpbGUubWFlPic=

> <r_lp_tautomer_probability>
1

> <r_epik_Ionization_Penalty>
0.000331107

> <r_epik_Ionization_Penalty_Charging>
0

> <r_epik_Ionization_Penalty_Neutral>
0.000331107

> <r_epik_State_Penalty>
-0

> <r_epik_Charging_Adjusted_Penalty>
0

> <i_epik_Tot_Q>
0

> <i_epik_Tot_abs_Q>
0

> <r_epik_Metal_State_Penalty>
-0

> <b_epik_Metal_Only>
0

> <s_lp_Force_Field>
OPLS_2005

> <r_lp_Energy>
-1.82221

> <b_lp_Chiralities_Consistent>
1

> <s_lp_Variant>
AV-unprocessed.smi:2330-1

> <Gold.Version>
5.8.1

> <Gold.Id.Protein>
6NUR|6NUR_protein|mol2

> <Gold.PLP.Fitness>
43.3250

> <Gold.PLP.PLP>
-33.4532

> <Gold.PLP.part.hbond>
-3.4233

> <Gold.PLP.part.metal>
0.0000

> <Gold.PLP.part.buried>
-1.6234

> <Gold.PLP.part.nonpolar>
-27.4503

> <Gold.PLP.part.repulsive>
0.2066

> <Gold.PLP.ligand.clash>
0.0000

> <Gold.PLP.ligand.torsion>
1.0058

> <Gold.PLP.Chemscore.Hbond>
2.9280

> <Gold.PLP.Chemscore.CHOScore>
0.9939

> <Gold.PLP.Chemscore.Metal>
0.0000

> <Gold.Chemscore.Hbonds>
donor molecule, donor type, donor heavy atom, donor atom, acceptor molecule, acceptor atom, score
      L1  H     6    29       P1  7948  0.76
      L1  H     9    30       P1  7948  1.00
      L1  C    16    38       P1 10175  0.28

> <Gold.PLP.Chemscore.Internal.Correction>
0.1178

> <Gold.Rescore>
     Score         DG    S(hbond)    S(metal)    S(lipo)     H(rot)  DE(clash)    DE(int)     intcor
     17.68     -18.81       2.27        0.00      80.84       1.45       0.03       1.10       ----

> <Gold.Chemscore.Fitness>
17.6794

> <Gold.Chemscore.DG>
-18.8145

> <Gold.Chemscore.ZeroCoef>
-5.4800

> <Gold.Chemscore.Hbond>
2.2746

> <Gold.Chemscore.Metal>
0.0000

> <Gold.Chemscore.Lipo>
80.8427

> <Gold.Chemscore.Internal_Hbond>
0.0000

> <Gold.Chemscore.DEClash>
0.0311

> <Gold.Chemscore.DEInternal>
1.1039

> <Gold.Chemscore.Rot>
1.4536

> <Gold.Chemscore.Internal.Correction>
   9.000000E+99

> <Gold.Chemscore.Hbonds>
donor molecule, donor type, donor heavy atom, donor atom, acceptor molecule, acceptor atom, score
      L1  H     6    29       P1  7948  0.47
      L1  H     9    30       P1  7948  0.98

> <Gold.Chemscore.Hbond.Weighted>
-7.5971

> <Gold.Chemscore.Metal.Weighted>
-0.0000

> <Gold.Chemscore.Lipo.Weighted>
-9.4586

> <Gold.Chemscore.Internal_Hbond.Weighted>
0.0000

> <Gold.Chemscore.DEClash.Weighted>
0.0311

> <Gold.Chemscore.DEInternal.Weighted>
1.1039

> <Gold.Chemscore.Rot.Weighted>
3.7212

> <Gold.Chemscore.Internal.Correction.Weighted>
   9.000000E+99

> <Gold.Protein.RotatedTorsions>
[ 6907 6896 6895 6894 ] final   94.10 input  -60.11 | X-H torsion
[ 7974 7965 7964 7962 ] final  -41.47 input  175.53 | X-H torsion
[ 8008 7997 7996 7995 ] final -129.70 input   59.86 | X-H torsion
[ 10167 10162 10161 10158 ] final  -29.35 input  -65.29 | X-H torsion
[ 10718 10713 10712 10709 ] final   69.19 input   66.30 | X-H torsion
[ 10763 10752 10751 10750 ] final  -71.49 input  -60.55 | X-H torsion
[ 11005 11000 10999 10996 ] final -131.11 input  -57.11 | X-H torsion

> <Gold.Protein.ActiveResidues>
 VAL166  LYS551  ARG553  GLY616  TRP617  ASP618  TYR619  PRO620  LYS621  CYS622 
 ASP623  PHE694  ASN695  SER759  ASP760  ASP761  ALA762  ILE779  LEU786  VAL792 
 PHE793  MET794  SER795  GLU796  ALA797  LYS798  CYS799  TRP800  GLU811  SER814 

> <Gold.Protein.RotatedAtoms>
  152.5451  134.1246  159.8413 H   0  0  0  0  0  0  0  0  0  0  0  0  # atno 6907 bound_to 6896
  151.1298  133.5038  159.2607 H   0  0  0  0  0  0  0  0  0  0  0  0  # atno 6908 bound_to 6896
  151.1688  135.0318  159.8797 H   0  0  0  0  0  0  0  0  0  0  0  0  # atno 6909 bound_to 6896
  146.0208  140.6852  142.9179 H   0  0  0  0  0  0  0  0  0  0  0  0  # atno 7974 bound_to 7965
  155.2835  140.0445  157.3017 H   0  0  0  0  0  0  0  0  0  0  0  0  # atno 8008 bound_to 7997
  154.5583  140.2338  155.8344 H   0  0  0  0  0  0  0  0  0  0  0  0  # atno 8009 bound_to 7997
  156.2026  140.3021  155.9565 H   0  0  0  0  0  0  0  0  0  0  0  0  # atno 8010 bound_to 7997
  140.7261  143.3936  151.1387 H   0  0  0  0  0  0  0  0  0  0  0  0  # atno 10167 bound_to 10162
  157.6332  130.9412  150.0479 H   0  0  0  0  0  0  0  0  0  0  0  0  # atno 10718 bound_to 10713
  154.4325  135.5960  153.6078 H   0  0  0  0  0  0  0  0  0  0  0  0  # atno 10763 bound_to 10752
  152.9800  135.5978  154.3821 H   0  0  0  0  0  0  0  0  0  0  0  0  # atno 10764 bound_to 10752
  154.3661  135.2841  155.2271 H   0  0  0  0  0  0  0  0  0  0  0  0  # atno 10765 bound_to 10752
  140.9287  134.1348  157.4253 H   0  0  0  0  0  0  0  0  0  0  0  0  # atno 11005 bound_to 11000
  144.6989  140.3562  143.7172 LP  0  0  0  0  0  0  0  0  0  0  0  0  # atno 17320 bound_to 7965
  145.7196  139.1706  143.2492 LP  0  0  0  0  0  0  0  0  0  0  0  0  # atno 17321 bound_to 7965
  139.7545  143.8729  152.3085 LP  0  0  0  0  0  0  0  0  0  0  0  0  # atno 17342 bound_to 10162
  139.8594  144.7125  150.9118 LP  0  0  0  0  0  0  0  0  0  0  0  0  # atno 17343 bound_to 10162
  156.1550  130.3643  149.9382 LP  0  0  0  0  0  0  0  0  0  0  0  0  # atno 17370 bound_to 10713
  156.7393  130.9073  151.3631 LP  0  0  0  0  0  0  0  0  0  0  0  0  # atno 17371 bound_to 10713
  139.8791  134.9997  156.5972 LP  0  0  0  0  0  0  0  0  0  0  0  0  # atno 17394 bound_to 11000
  140.7891  133.8597  155.8631 LP  0  0  0  0  0  0  0  0  0  0  0  0  # atno 17395 bound_to 11000

$$$$
