AV-unprocessed.smi:1100|AV-procd|sdf|4761|dock1
  -GOLD-   22720 3293D 1   1.00000     0.00000
 Structure written by MMmdl.
 44 45  0  0  0  0  0  0  0  0  2 V2000
  145.7470  135.8993  150.3987 C   0  0  0  0  0  0  0  0  0  0  0  0
  144.2002  135.9248  150.4577 C   0  0  2  0  0  0  0  0  0  0  0  0
  143.7266  136.4287  151.8471 C   0  0  0  0  0  0  0  0  0  0  0  0
  144.3472  137.6899  152.2420 N   0  0  0  0  0  0  0  0  0  0  0  0
  145.5849  137.8115  152.7427 C   0  0  0  0  0  0  0  0  0  0  0  0
  146.3332  136.8508  152.9186 O   0  0  0  0  0  0  0  0  0  0  0  0
  145.8648  139.0966  153.0259 N   0  0  0  0  0  0  0  0  0  0  0  0
  147.0457  139.6521  153.5382 C   0  0  0  0  0  0  0  0  0  0  0  0
  147.1930  141.0139  154.0322 C   0  0  0  0  0  0  0  0  0  0  0  0
  148.3774  141.4538  154.5017 C   0  0  0  0  0  0  0  0  0  0  0  0
  149.5605  140.5908  154.5387 C   0  0  0  0  0  0  0  0  0  0  0  0
  150.6504  140.9863  154.9531 O   0  0  0  0  0  0  0  0  0  0  0  0
  149.3747  139.3175  154.0854 N   0  0  0  0  0  0  0  0  0  0  0  0
  150.4935  138.3719  154.0860 C   0  0  0  0  0  0  0  0  0  0  0  0
  148.1360  138.8657  153.5932 C   0  0  0  0  0  0  0  0  0  0  0  0
  143.5657  134.6027  150.1454 N   0  3  0  0  0  0  0  0  0  0  0  0
  143.8098  134.1719  148.7415 C   0  0  0  0  0  0  0  0  0  0  0  0
  143.0662  132.8643  148.4263 C   0  0  0  0  0  0  0  0  0  0  0  0
  143.4809  131.8534  149.3330 O   0  0  0  0  0  0  0  0  0  0  0  0
  143.1667  132.1962  150.6745 C   0  0  0  0  0  0  0  0  0  0  0  0
  143.9036  133.4868  151.0719 C   0  0  0  0  0  0  0  0  0  0  0  0
  146.1764  136.8687  150.6511 H   0  0  0  0  0  0  0  0  0  0  0  0
  146.1144  135.6678  149.3989 H   0  0  0  0  0  0  0  0  0  0  0  0
  146.1615  135.1687  151.0941 H   0  0  0  0  0  0  0  0  0  0  0  0
  143.8716  136.6321  149.6943 H   0  0  0  0  0  0  0  0  0  0  0  0
  142.6456  136.5574  151.8890 H   0  0  0  0  0  0  0  0  0  0  0  0
  143.9691  135.6861  152.6080 H   0  0  0  0  0  0  0  0  0  0  0  0
  143.7943  138.5270  152.1282 H   0  0  0  0  0  0  0  0  0  0  0  0
  145.1271  139.7636  152.8533 H   0  0  0  0  0  0  0  0  0  0  0  0
  146.3652  141.7035  154.0507 H   0  0  0  0  0  0  0  0  0  0  0  0
  148.4565  142.4673  154.8669 H   0  0  0  0  0  0  0  0  0  0  0  0
  150.1904  137.3614  153.8098 H   0  0  0  0  0  0  0  0  0  0  0  0
  150.9497  138.3101  155.0751 H   0  0  0  0  0  0  0  0  0  0  0  0
  151.2593  138.6908  153.3779 H   0  0  0  0  0  0  0  0  0  0  0  0
  148.1315  137.8394  153.2551 H   0  0  0  0  0  0  0  0  0  0  0  0
  143.4864  134.9327  148.0335 H   0  0  0  0  0  0  0  0  0  0  0  0
  144.8805  134.0322  148.5838 H   0  0  0  0  0  0  0  0  0  0  0  0
  141.9857  133.0049  148.4820 H   0  0  0  0  0  0  0  0  0  0  0  0
  143.2925  132.5397  147.4105 H   0  0  0  0  0  0  0  0  0  0  0  0
  142.0876  132.3124  150.7901 H   0  0  0  0  0  0  0  0  0  0  0  0
  143.4684  131.3766  151.3272 H   0  0  0  0  0  0  0  0  0  0  0  0
  144.9819  133.3196  151.0680 H   0  0  0  0  0  0  0  0  0  0  0  0
  143.6116  133.7266  152.0938 H   0  0  0  0  0  0  0  0  0  0  0  0
  142.5698  134.7415  150.2400 H   0  0  0  0  0  0  0  0  0  0  0  0
  1  2  1  0  0  0  0
  1 22  1  0  0  0  0
  1 23  1  0  0  0  0
  1 24  1  0  0  0  0
  2  3  1  0  0  0  0
  2 16  1  0  0  0  0
  2 25  1  0  0  0  0
  3  4  1  0  0  0  0
  3 26  1  0  0  0  0
  3 27  1  0  0  0  0
  4  5  1  0  0  0  0
  4 28  1  0  0  0  0
  5  6  2  0  0  0  0
  5  7  1  0  0  0  0
  7  8  1  0  0  0  0
  7 29  1  0  0  0  0
  8 15  2  0  0  0  0
  8  9  1  0  0  0  0
  9 10  2  0  0  0  0
  9 30  1  0  0  0  0
 10 11  1  0  0  0  0
 10 31  1  0  0  0  0
 11 12  2  0  0  0  0
 11 13  1  0  0  0  0
 13 14  1  0  0  0  0
 13 15  1  0  0  0  0
 14 32  1  0  0  0  0
 14 33  1  0  0  0  0
 14 34  1  0  0  0  0
 15 35  1  0  0  0  0
 16 21  1  0  0  0  0
 16 17  1  0  0  0  0
 16 44  1  0  0  0  0
 17 18  1  0  0  0  0
 17 36  1  0  0  0  0
 17 37  1  0  0  0  0
 18 19  1  0  0  0  0
 18 38  1  0  0  0  0
 18 39  1  0  0  0  0
 19 20  1  0  0  0  0
 20 21  1  0  0  0  0
 20 40  1  0  0  0  0
 20 41  1  0  0  0  0
 21 42  1  0  0  0  0
 21 43  1  0  0  0  0
M  CHG  1  16   1
M  END
> <s_m_source_file>
AV-unprocessed.smi

> <i_m_source_file_index>
1100

> <i_lp_mmshare_version>
43012

> <i_f3d_flags>
0

> <s_epik_input>
W0NIMl0xW0NIMl1PW0NIMl1bQ0gyXU4xW0NASF0oW0NIM10pW0NIMl1bTkhdQyg9TylbTkhdYzJbY0hdW2NIXWMoPU8pbihbQ0gzXSlbY0hdMg==

> <s_epik_cmdline>
J2VwaWtfcHl0aG9uJywgJy1waCcsICc3LjAnLCAnLXRuJywgJzgnLCAnLW1hJywgJzIwMCcsICctbWV0YWxfYmluZGluZycsICctaW1hZScsICc8aW5maWxlLm1hZT4nLCAnLW9tYWUnLCAnPG91dGZpbGUubWFlPic=

> <r_lp_tautomer_probability>
1

> <r_epik_Ionization_Penalty>
0.602556

> <r_epik_Ionization_Penalty_Charging>
0.602536

> <r_epik_Ionization_Penalty_Neutral>
1.99507e-05

> <r_epik_State_Penalty>
0.617039

> <r_epik_Charging_Adjusted_Penalty>
1.21958

> <i_epik_Tot_Q>
1

> <i_epik_Tot_abs_Q>
1

> <r_epik_Metal_State_Penalty>
0.619464

> <b_epik_Metal_Only>
0

> <s_lp_Force_Field>
OPLS_2005

> <r_lp_Energy>
33.1854

> <b_lp_Chiralities_Consistent>
1

> <s_lp_Variant>
AV-unprocessed.smi:1100-3

> <Gold.Version>
5.8.1

> <Gold.Id.Protein>
6NUR|6NUR_protein|mol2

> <Gold.PLP.Fitness>
52.6195

> <Gold.PLP.PLP>
-34.1082

> <Gold.PLP.part.hbond>
-6.0000

> <Gold.PLP.part.metal>
0.0000

> <Gold.PLP.part.buried>
6.7324

> <Gold.PLP.part.nonpolar>
-35.4210

> <Gold.PLP.part.repulsive>
1.7452

> <Gold.PLP.ligand.clash>
0.0000

> <Gold.PLP.ligand.torsion>
0.2080

> <Gold.PLP.Chemscore.Hbond>
5.2748

> <Gold.PLP.Chemscore.CHOScore>
1.0000

> <Gold.PLP.Chemscore.Metal>
0.0000

> <Gold.Chemscore.Hbonds>
donor molecule, donor type, donor heavy atom, donor atom, acceptor molecule, acceptor atom, score
      L1  H     4    28       P1 10175  0.96
      L1  H     7    29       P1 10175  1.00
      L1  H    16    44       P1 10186  1.86
      P1  H  7989  7998       L1    12  0.72
      P1  H 10785 10796       L1    19  0.99
      L1  C    15    35       P1  7948  1.00

> <Gold.PLP.Chemscore.Internal.Correction>
0.1030

> <Gold.Rescore>
     Score         DG    S(hbond)    S(metal)    S(lipo)     H(rot)  DE(clash)    DE(int)     intcor
     16.21     -21.60       3.02        0.00      85.15       1.54       2.52       2.87       ----

> <Gold.Chemscore.Fitness>
16.2095

> <Gold.Chemscore.DG>
-21.6001

> <Gold.Chemscore.ZeroCoef>
-5.4800

> <Gold.Chemscore.Hbond>
3.0239

> <Gold.Chemscore.Metal>
0.0000

> <Gold.Chemscore.Lipo>
85.1486

> <Gold.Chemscore.Internal_Hbond>
0.0000

> <Gold.Chemscore.DEClash>
2.5183

> <Gold.Chemscore.DEInternal>
2.8723

> <Gold.Chemscore.Rot>
1.5398

> <Gold.Chemscore.Internal.Correction>
   9.000000E+99

> <Gold.Chemscore.Hbonds>
donor molecule, donor type, donor heavy atom, donor atom, acceptor molecule, acceptor atom, score
      L1  H     4    28       P1 10175  0.92
      L1  H     7    29       P1 10175  1.00
      L1  H    16    44       P1 10186  0.27
      P1  H  7989  7998       L1    12  0.25
      P1  H 10785 10796       L1    19  0.81

> <Gold.Chemscore.Hbond.Weighted>
-10.0997

> <Gold.Chemscore.Metal.Weighted>
-0.0000

> <Gold.Chemscore.Lipo.Weighted>
-9.9624

> <Gold.Chemscore.Internal_Hbond.Weighted>
0.0000

> <Gold.Chemscore.DEClash.Weighted>
2.5183

> <Gold.Chemscore.DEInternal.Weighted>
2.8723

> <Gold.Chemscore.Rot.Weighted>
3.9420

> <Gold.Chemscore.Internal.Correction.Weighted>
   9.000000E+99

> <Gold.Protein.RotatedTorsions>
[ 6907 6896 6895 6894 ] final  176.20 input  -60.11 | X-H torsion
[ 7974 7965 7964 7962 ] final   71.82 input  175.53 | X-H torsion
[ 8008 7997 7996 7995 ] final  176.84 input   59.86 | X-H torsion
[ 10167 10162 10161 10158 ] final   30.24 input  -65.29 | X-H torsion
[ 10718 10713 10712 10709 ] final  137.88 input   66.30 | X-H torsion
[ 10763 10752 10751 10750 ] final   38.76 input  -60.55 | X-H torsion
[ 11005 11000 10999 10996 ] final  -56.05 input  -57.11 | X-H torsion

> <Gold.Protein.ActiveResidues>
 VAL166  LYS551  ARG553  GLY616  TRP617  ASP618  TYR619  PRO620  LYS621  CYS622 
 ASP623  PHE694  ASN695  SER759  ASP760  ASP761  ALA762  ILE779  LEU786  VAL792 
 PHE793  MET794  SER795  GLU796  ALA797  LYS798  CYS799  TRP800  GLU811  SER814 

> <Gold.Protein.RotatedAtoms>
  151.7240  133.3315  159.3322 H   0  0  0  0  0  0  0  0  0  0  0  0  # atno 6907 bound_to 6896
  150.7641  134.6423  159.6253 H   0  0  0  0  0  0  0  0  0  0  0  0  # atno 6908 bound_to 6896
  152.3634  134.6841  160.0251 H   0  0  0  0  0  0  0  0  0  0  0  0  # atno 6909 bound_to 6896
  145.7611  139.2801  143.1376 H   0  0  0  0  0  0  0  0  0  0  0  0  # atno 7974 bound_to 7965
  156.0722  140.1373  156.9815 H   0  0  0  0  0  0  0  0  0  0  0  0  # atno 8008 bound_to 7997
  154.4538  140.0969  156.6747 H   0  0  0  0  0  0  0  0  0  0  0  0  # atno 8009 bound_to 7997
  155.5210  140.3456  155.4409 H   0  0  0  0  0  0  0  0  0  0  0  0  # atno 8010 bound_to 7997
  140.4695  144.0784  150.6233 H   0  0  0  0  0  0  0  0  0  0  0  0  # atno 10167 bound_to 10162
  157.4313  131.1049  151.0246 H   0  0  0  0  0  0  0  0  0  0  0  0  # atno 10718 bound_to 10713
  152.9990  135.6240  154.2356 H   0  0  0  0  0  0  0  0  0  0  0  0  # atno 10763 bound_to 10752
  154.2097  135.2800  155.2964 H   0  0  0  0  0  0  0  0  0  0  0  0  # atno 10764 bound_to 10752
  154.5616  135.5703  153.7071 H   0  0  0  0  0  0  0  0  0  0  0  0  # atno 10765 bound_to 10752
  141.1102  133.6611  156.4561 H   0  0  0  0  0  0  0  0  0  0  0  0  # atno 11005 bound_to 11000
  146.0263  140.8300  142.9898 LP  0  0  0  0  0  0  0  0  0  0  0  0  # atno 17320 bound_to 7965
  144.6830  140.2703  143.7307 LP  0  0  0  0  0  0  0  0  0  0  0  0  # atno 17321 bound_to 7965
  140.3994  143.2711  151.9966 LP  0  0  0  0  0  0  0  0  0  0  0  0  # atno 17342 bound_to 10162
  139.4816  144.6010  151.7605 LP  0  0  0  0  0  0  0  0  0  0  0  0  # atno 17343 bound_to 10162
  157.1142  130.6034  149.5489 LP  0  0  0  0  0  0  0  0  0  0  0  0  # atno 17370 bound_to 10713
  155.9914  130.4969  150.7299 LP  0  0  0  0  0  0  0  0  0  0  0  0  # atno 17371 bound_to 10713
  140.4795  134.6678  157.5165 LP  0  0  0  0  0  0  0  0  0  0  0  0  # atno 17394 bound_to 11000
  139.9992  134.6863  155.9558 LP  0  0  0  0  0  0  0  0  0  0  0  0  # atno 17395 bound_to 11000

$$$$
