AV-unprocessed.smi:290|AV-procd|sdf|2216|dock4
  -GOLD-   2262022 53D 1   1.00000     0.00000
 Structure written by MMmdl.
 59 62  0  0  0  0  0  0  0  0  2 V2000
  150.8861  141.6334  156.2216 C   0  0  0  0  0  0  0  0  0  0  0  0
  150.8196  140.1267  155.9237 C   0  0  1  0  0  0  0  0  0  0  0  0
  151.1732  139.8670  154.5730 O   0  0  0  0  0  0  0  0  0  0  0  0
  151.4686  138.4852  154.4810 C   0  0  0  0  0  0  0  0  0  0  0  0
  152.3178  138.2403  155.7224 C   0  0  0  0  0  0  0  0  0  0  0  0
  151.7340  139.1978  156.7661 C   0  0  1  0  0  0  0  0  0  0  0  0
  152.8078  139.9113  157.3578 O   0  0  0  0  0  0  0  0  0  0  0  0
  150.9745  138.4456  157.8869 C   0  0  0  0  0  0  0  0  0  0  0  0
  150.0645  137.4250  157.3882 N   0  0  0  0  0  0  0  0  0  0  0  0
  150.3069  136.0715  157.3115 C   0  0  0  0  0  0  0  0  0  0  0  0
  149.3268  135.3550  156.8330 N   0  0  0  0  0  0  0  0  0  0  0  0
  148.3359  136.2868  156.5494 C   0  0  0  0  0  0  0  0  0  0  0  0
  147.0191  136.2063  156.0161 C   0  0  0  0  0  0  0  0  0  0  0  0
  146.4102  135.0624  155.6381 N   0  0  0  0  0  0  0  0  0  0  0  0
  147.1453  134.2676  154.6559 C   0  0  0  0  0  0  0  0  0  0  0  0
  146.0903  133.5766  153.7890 C   0  0  0  0  0  0  0  0  0  0  0  0
  144.9675  134.6164  153.8077 C   0  0  1  0  0  0  0  0  0  0  0  0
  143.6255  134.2104  153.2853 N   0  3  1  0  0  0  0  0  0  0  0  0
  142.6045  135.2580  153.5360 C   0  0  0  0  0  0  0  0  0  0  0  0
  143.6035  133.7224  151.8773 C   0  0  0  0  0  0  0  0  0  0  0  0
  144.4411  134.5951  150.9252 C   0  0  0  0  0  0  0  0  0  0  0  0
  144.0552  134.3660  149.5868 O   0  0  0  0  0  0  0  0  0  0  0  0
  145.0065  135.1775  155.2436 C   0  0  1  0  0  0  0  0  0  0  0  0
  144.1254  134.4666  156.2837 C   0  0  0  0  0  0  0  0  0  0  0  0
  146.3156  137.3555  155.8763 N   0  0  0  0  0  0  0  0  0  0  0  0
  146.8664  138.5210  156.2297 C   0  0  0  0  0  0  0  0  0  0  0  0
  148.0800  138.7519  156.7359 N   0  0  0  0  0  0  0  0  0  0  0  0
  148.7861  137.5943  156.8848 C   0  0  0  0  0  0  0  0  0  0  0  0
  145.3159  135.4399  153.1820 H   0  0  0  0  0  0  0  0  0  0  0  0
  144.6933  136.2225  155.2162 H   0  0  0  0  0  0  0  0  0  0  0  0
  150.6358  141.8406  157.2623 H   0  0  0  0  0  0  0  0  0  0  0  0
  150.1796  142.1806  155.5974 H   0  0  0  0  0  0  0  0  0  0  0  0
  151.8790  142.0384  156.0247 H   0  0  0  0  0  0  0  0  0  0  0  0
  149.7841  139.8010  156.0261 H   0  0  0  0  0  0  0  0  0  0  0  0
  150.5447  137.9056  154.5165 H   0  0  0  0  0  0  0  0  0  0  0  0
  151.9933  138.2444  153.5563 H   0  0  0  0  0  0  0  0  0  0  0  0
  152.3025  137.1950  156.0329 H   0  0  0  0  0  0  0  0  0  0  0  0
  153.3539  138.4949  155.4924 H   0  0  0  0  0  0  0  0  0  0  0  0
  152.6068  140.0542  158.2699 H   0  0  0  0  0  0  0  0  0  0  0  0
  151.6841  137.9698  158.5652 H   0  0  0  0  0  0  0  0  0  0  0  0
  150.3994  139.1469  158.4931 H   0  0  0  0  0  0  0  0  0  0  0  0
  151.2384  135.6281  157.6320 H   0  0  0  0  0  0  0  0  0  0  0  0
  147.7780  134.9069  154.0380 H   0  0  0  0  0  0  0  0  0  0  0  0
  147.7914  133.5415  155.1502 H   0  0  0  0  0  0  0  0  0  0  0  0
  146.4507  133.3517  152.7849 H   0  0  0  0  0  0  0  0  0  0  0  0
  145.7990  132.6413  154.2658 H   0  0  0  0  0  0  0  0  0  0  0  0
  142.8341  136.1649  152.9754 H   0  0  0  0  0  0  0  0  0  0  0  0
  142.5627  135.5148  154.5953 H   0  0  0  0  0  0  0  0  0  0  0  0
  141.6048  134.9293  153.2573 H   0  0  0  0  0  0  0  0  0  0  0  0
  143.9587  132.6913  151.8469 H   0  0  0  0  0  0  0  0  0  0  0  0
  142.5866  133.7030  151.4907 H   0  0  0  0  0  0  0  0  0  0  0  0
  144.3634  135.6568  151.1536 H   0  0  0  0  0  0  0  0  0  0  0  0
  145.4951  134.3341  151.0226 H   0  0  0  0  0  0  0  0  0  0  0  0
  144.6616  134.8137  149.0160 H   0  0  0  0  0  0  0  0  0  0  0  0
  143.0704  134.5186  156.0179 H   0  0  0  0  0  0  0  0  0  0  0  0
  144.2319  134.9386  157.2608 H   0  0  0  0  0  0  0  0  0  0  0  0
  144.4017  133.4187  156.4017 H   0  0  0  0  0  0  0  0  0  0  0  0
  146.2460  139.3934  156.0868 H   0  0  0  0  0  0  0  0  0  0  0  0
  143.3497  133.4218  153.8538 H   0  0  0  0  0  0  0  0  0  0  0  0
  1  2  1  0  0  0  0
  1 31  1  0  0  0  0
  1 32  1  0  0  0  0
  1 33  1  0  0  0  0
  2  6  1  0  0  0  0
  2  3  1  0  0  0  0
  2 34  1  0  0  0  0
  3  4  1  0  0  0  0
  4  5  1  0  0  0  0
  4 35  1  0  0  0  0
  4 36  1  0  0  0  0
  5  6  1  0  0  0  0
  5 37  1  0  0  0  0
  5 38  1  0  0  0  0
  6  7  1  0  0  0  0
  6  8  1  0  0  0  0
  7 39  1  0  0  0  0
  8  9  1  0  0  0  0
  8 40  1  0  0  0  0
  8 41  1  0  0  0  0
  9 28  1  0  0  0  0
  9 10  1  0  0  0  0
 10 11  2  0  0  0  0
 10 42  1  0  0  0  0
 11 12  1  0  0  0  0
 12 28  2  0  0  0  0
 12 13  1  0  0  0  0
 13 14  1  0  0  0  0
 13 25  2  0  0  0  0
 14 23  1  0  0  0  0
 14 15  1  0  0  0  0
 15 16  1  0  0  0  0
 15 43  1  0  0  0  0
 15 44  1  0  0  0  0
 16 17  1  0  0  0  0
 16 45  1  0  0  0  0
 16 46  1  0  0  0  0
 17 29  1  0  0  0  0
 17 18  1  0  0  0  0
 17 23  1  0  0  0  0
 18 19  1  0  0  0  0
 18 20  1  0  0  0  0
 18 59  1  0  0  0  0
 19 47  1  0  0  0  0
 19 48  1  0  0  0  0
 19 49  1  0  0  0  0
 20 21  1  0  0  0  0
 20 50  1  0  0  0  0
 20 51  1  0  0  0  0
 21 22  1  0  0  0  0
 21 52  1  0  0  0  0
 21 53  1  0  0  0  0
 22 54  1  0  0  0  0
 23 30  1  0  0  0  0
 23 24  1  0  0  0  0
 24 55  1  0  0  0  0
 24 56  1  0  0  0  0
 24 57  1  0  0  0  0
 25 26  1  0  0  0  0
 26 27  2  0  0  0  0
 26 58  1  0  0  0  0
 27 28  1  0  0  0  0
M  CHG  1  18   1
M  END
> <s_m_source_file>
AV-unprocessed.smi

> <i_m_source_file_index>
290

> <i_lp_mmshare_version>
43012

> <i_f3d_flags>
0

> <s_epik_input>
W0NIMl0xW0NIMl1PW0NAQEhdKFtDSDNdKVtDQEBdMShbT0hdKVtDSDJdbihbY0hdbjIpYyhjMjMpbltjSF1uYzNONFtDSDJdW0NIMl1bQ0BIXShbQ0BIXTRbQ0gzXSlOKFtDSDNdKVtDSDJdW0NIMl1bT0hd

> <s_epik_cmdline>
J2VwaWtfcHl0aG9uJywgJy1waCcsICc3LjAnLCAnLXRuJywgJzgnLCAnLW1hJywgJzIwMCcsICctbWV0YWxfYmluZGluZycsICctaW1hZScsICc8aW5maWxlLm1hZT4nLCAnLW9tYWUnLCAnPG91dGZpbGUubWFlPic=

> <r_lp_tautomer_probability>
1

> <r_epik_Ionization_Penalty>
0.0036983

> <r_epik_Ionization_Penalty_Charging>
0.0032725

> <r_epik_Ionization_Penalty_Neutral>
0.000425798

> <r_epik_State_Penalty>
-0

> <r_epik_Charging_Adjusted_Penalty>
0.0032725

> <i_epik_Tot_Q>
1

> <i_epik_Tot_abs_Q>
1

> <r_epik_Metal_State_Penalty>
-0

> <b_epik_Metal_Only>
0

> <s_lp_Force_Field>
OPLS_2005

> <r_lp_Energy>
65.8888

> <b_lp_Chiralities_Consistent>
1

> <s_lp_Variant>
AV-unprocessed.smi:290-2

> <Gold.Version>
5.8.1

> <Gold.Id.Protein>
6NUR|6NUR_protein|mol2

> <Gold.PLP.Fitness>
43.3270

> <Gold.PLP.PLP>
-29.6727

> <Gold.PLP.part.hbond>
-4.8052

> <Gold.PLP.part.metal>
0.0000

> <Gold.PLP.part.buried>
-6.5094

> <Gold.PLP.part.nonpolar>
-18.9395

> <Gold.PLP.part.repulsive>
0.0977

> <Gold.PLP.ligand.clash>
0.0000

> <Gold.PLP.ligand.torsion>
0.8133

> <Gold.PLP.Chemscore.Hbond>
5.0000

> <Gold.PLP.Chemscore.CHOScore>
0.0000

> <Gold.PLP.Chemscore.Metal>
0.0000

> <Gold.Chemscore.Hbonds>
donor molecule, donor type, donor heavy atom, donor atom, acceptor molecule, acceptor atom, score
      L1  H    18    59       P1 10957  2.00
      L1  H    22    54       P1  7921  1.00
      P1  H  7989  7998       L1     3  1.00
      P1  H  7997  8009       L1     7  1.00

> <Gold.PLP.Chemscore.Internal.Correction>
0.2809

> <Gold.Rescore>
     Score         DG    S(hbond)    S(metal)    S(lipo)     H(rot)  DE(clash)    DE(int)     intcor
     15.88     -16.66       3.97        0.00      62.42       3.67       0.00       0.79       ----

> <Gold.Chemscore.Fitness>
15.8751

> <Gold.Chemscore.DG>
-16.6641

> <Gold.Chemscore.ZeroCoef>
-5.4800

> <Gold.Chemscore.Hbond>
3.9718

> <Gold.Chemscore.Metal>
0.0000

> <Gold.Chemscore.Lipo>
62.4151

> <Gold.Chemscore.Internal_Hbond>
0.0000

> <Gold.Chemscore.DEClash>
0.0000

> <Gold.Chemscore.DEInternal>
0.7890

> <Gold.Chemscore.Rot>
3.6658

> <Gold.Chemscore.Internal.Correction>
   9.000000E+99

> <Gold.Chemscore.Hbonds>
donor molecule, donor type, donor heavy atom, donor atom, acceptor molecule, acceptor atom, score
      L1  H    18    59       P1 10957  0.94
      L1  H    22    54       P1  7921  0.91
      P1  H  7989  7998       L1     3  0.92
      P1  H  7997  8009       L1     7  0.86

> <Gold.Chemscore.Hbond.Weighted>
-13.2659

> <Gold.Chemscore.Metal.Weighted>
-0.0000

> <Gold.Chemscore.Lipo.Weighted>
-7.3026

> <Gold.Chemscore.Internal_Hbond.Weighted>
0.0000

> <Gold.Chemscore.DEClash.Weighted>
0.0000

> <Gold.Chemscore.DEInternal.Weighted>
0.7890

> <Gold.Chemscore.Rot.Weighted>
9.3844

> <Gold.Chemscore.Internal.Correction.Weighted>
   9.000000E+99

> <Gold.Protein.RotatedTorsions>
[ 6907 6896 6895 6894 ] final   -1.78 input  -60.11 | X-H torsion
[ 7974 7965 7964 7962 ] final   43.33 input  175.53 | X-H torsion
[ 8008 7997 7996 7995 ] final  160.42 input   59.86 | X-H torsion
[ 10167 10162 10161 10158 ] final -105.51 input  -65.29 | X-H torsion
[ 10718 10713 10712 10709 ] final  157.73 input   66.30 | X-H torsion
[ 10763 10752 10751 10750 ] final   86.15 input  -60.55 | X-H torsion
[ 11005 11000 10999 10996 ] final  136.71 input  -57.11 | X-H torsion

> <Gold.Protein.ActiveResidues>
 VAL166  LYS551  ARG553  GLY616  TRP617  ASP618  TYR619  PRO620  LYS621  CYS622 
 ASP623  PHE694  ASN695  SER759  ASP760  ASP761  ALA762  ILE779  LEU786  VAL792 
 PHE793  MET794  SER795  GLU796  ALA797  LYS798  CYS799  TRP800  GLU811  SER814 

> <Gold.Protein.RotatedAtoms>
  151.5405  135.1068  159.9924 H   0  0  0  0  0  0  0  0  0  0  0  0  # atno 6907 bound_to 6896
  152.4537  133.7676  159.6792 H   0  0  0  0  0  0  0  0  0  0  0  0  # atno 6908 bound_to 6896
  150.8474  133.7774  159.3062 H   0  0  0  0  0  0  0  0  0  0  0  0  # atno 6909 bound_to 6896
  146.0664  139.5199  142.9625 H   0  0  0  0  0  0  0  0  0  0  0  0  # atno 7974 bound_to 7965
  156.2173  140.1804  156.7559 H   0  0  0  0  0  0  0  0  0  0  0  0  # atno 8008 bound_to 7997
  154.5811  140.0666  156.9134 H   0  0  0  0  0  0  0  0  0  0  0  0  # atno 8009 bound_to 7997
  155.2501  140.3328  155.4285 H   0  0  0  0  0  0  0  0  0  0  0  0  # atno 8010 bound_to 7997
  140.1977  143.3842  152.1155 H   0  0  0  0  0  0  0  0  0  0  0  0  # atno 10167 bound_to 10162
  157.1875  131.0647  151.2097 H   0  0  0  0  0  0  0  0  0  0  0  0  # atno 10718 bound_to 10713
  153.1543  135.4591  154.9681 H   0  0  0  0  0  0  0  0  0  0  0  0  # atno 10763 bound_to 10752
  154.7849  135.3200  154.7911 H   0  0  0  0  0  0  0  0  0  0  0  0  # atno 10764 bound_to 10752
  153.8411  135.6930  153.4857 H   0  0  0  0  0  0  0  0  0  0  0  0  # atno 10765 bound_to 10752
  140.0065  134.9457  157.0185 H   0  0  0  0  0  0  0  0  0  0  0  0  # atno 11005 bound_to 11000
  145.6469  141.0272  143.1781 LP  0  0  0  0  0  0  0  0  0  0  0  0  # atno 17320 bound_to 7965
  144.7205  139.8046  143.7383 LP  0  0  0  0  0  0  0  0  0  0  0  0  # atno 17321 bound_to 7965
  139.5230  144.7065  151.5337 LP  0  0  0  0  0  0  0  0  0  0  0  0  # atno 17342 bound_to 10162
  140.6412  143.8885  150.6693 LP  0  0  0  0  0  0  0  0  0  0  0  0  # atno 17343 bound_to 10162
  157.3892  130.7273  149.6685 LP  0  0  0  0  0  0  0  0  0  0  0  0  # atno 17370 bound_to 10713
  155.9716  130.4151  150.4165 LP  0  0  0  0  0  0  0  0  0  0  0  0  # atno 17371 bound_to 10713
  140.4633  134.1462  155.7194 LP  0  0  0  0  0  0  0  0  0  0  0  0  # atno 17394 bound_to 11000
  141.1680  133.8665  157.1656 LP  0  0  0  0  0  0  0  0  0  0  0  0  # atno 17395 bound_to 11000

$$$$
