AV-unprocessed.smi:1145|AV-procd|sdf|4885|dock2
  -GOLD-   22720 3453D 1   1.00000     0.00000
 Structure written by MMmdl.
 36 37  0  0  0  0  0  0  0  0  1 V2000
  149.8091  142.0007  157.2654 C   0  0  0  0  0  0  0  0  0  0  0  0
  151.2535  141.4701  157.3257 C   0  0  1  0  0  0  0  0  0  0  0  0
  151.9264  141.7019  158.6935 C   0  0  0  0  0  0  0  0  0  0  0  0
  151.9605  143.1008  159.0800 N   0  0  0  0  0  0  0  0  0  0  0  0
  152.3966  144.1841  158.3460 C   0  0  0  0  0  0  0  0  0  0  0  0
  152.2278  145.2947  159.1223 C   0  0  0  0  0  0  0  0  0  0  0  0
  151.6712  144.7832  160.3278 C   0  0  0  0  0  0  0  0  0  0  0  0
  151.5100  143.4702  160.2983 N   0  0  0  0  0  0  0  0  0  0  0  0
  151.2788  140.0422  157.0204 N   0  0  0  0  0  0  0  0  0  0  0  0
  151.9075  139.4778  155.9772 C   0  0  0  0  0  0  0  0  0  0  0  0
  152.5418  140.1269  155.1451 O   0  0  0  0  0  0  0  0  0  0  0  0
  151.8109  137.9435  155.8734 C   0  0  1  0  0  0  0  0  0  0  0  0
  150.9122  137.3384  156.9677 C   0  0  0  0  0  0  0  0  0  0  0  0
  149.4169  137.6474  156.7648 C   0  0  0  0  0  0  0  0  0  0  0  0
  148.9479  137.5102  155.3084 C   0  0  0  0  0  0  0  0  0  0  0  0
  147.7451  137.4447  155.0658 O   0  0  0  0  0  0  0  0  0  0  0  0
  149.8635  137.5080  154.3236 N   0  0  0  0  0  0  0  0  0  0  0  0
  151.3177  137.4663  154.4888 C   0  0  0  0  0  0  0  0  0  0  0  0
  149.7726  143.0781  157.4272 H   0  0  0  0  0  0  0  0  0  0  0  0
  149.1823  141.5286  158.0224 H   0  0  0  0  0  0  0  0  0  0  0  0
  149.3574  141.8072  156.2920 H   0  0  0  0  0  0  0  0  0  0  0  0
  151.8416  141.9973  156.5720 H   0  0  0  0  0  0  0  0  0  0  0  0
  151.4027  141.1440  159.4712 H   0  0  0  0  0  0  0  0  0  0  0  0
  152.9512  141.3276  158.6792 H   0  0  0  0  0  0  0  0  0  0  0  0
  152.7877  144.0753  157.3453 H   0  0  0  0  0  0  0  0  0  0  0  0
  152.4644  146.3173  158.8680 H   0  0  0  0  0  0  0  0  0  0  0  0
  151.3792  145.3233  161.2164 H   0  0  0  0  0  0  0  0  0  0  0  0
  150.7828  139.4344  157.6558 H   0  0  0  0  0  0  0  0  0  0  0  0
  152.8201  137.5513  156.0116 H   0  0  0  0  0  0  0  0  0  0  0  0
  151.0518  136.2566  156.9818 H   0  0  0  0  0  0  0  0  0  0  0  0
  151.2277  137.6898  157.9510 H   0  0  0  0  0  0  0  0  0  0  0  0
  148.8153  136.9972  157.4007 H   0  0  0  0  0  0  0  0  0  0  0  0
  149.2054  138.6682  157.0844 H   0  0  0  0  0  0  0  0  0  0  0  0
  149.5199  137.4640  153.3752 H   0  0  0  0  0  0  0  0  0  0  0  0
  151.7774  138.0519  153.6917 H   0  0  0  0  0  0  0  0  0  0  0  0
  151.6364  136.4358  154.3284 H   0  0  0  0  0  0  0  0  0  0  0  0
  1  2  1  0  0  0  0
  1 19  1  0  0  0  0
  1 20  1  0  0  0  0
  1 21  1  0  0  0  0
  2  3  1  0  0  0  0
  2  9  1  0  0  0  0
  2 22  1  0  0  0  0
  3  4  1  0  0  0  0
  3 23  1  0  0  0  0
  3 24  1  0  0  0  0
  4  8  1  0  0  0  0
  4  5  1  0  0  0  0
  5  6  2  0  0  0  0
  5 25  1  0  0  0  0
  6  7  1  0  0  0  0
  6 26  1  0  0  0  0
  7  8  2  0  0  0  0
  7 27  1  0  0  0  0
  9 10  1  0  0  0  0
  9 28  1  0  0  0  0
 10 11  2  0  0  0  0
 10 12  1  0  0  0  0
 12 18  1  0  0  0  0
 12 13  1  0  0  0  0
 12 29  1  0  0  0  0
 13 14  1  0  0  0  0
 13 30  1  0  0  0  0
 13 31  1  0  0  0  0
 14 15  1  0  0  0  0
 14 32  1  0  0  0  0
 14 33  1  0  0  0  0
 15 16  2  0  0  0  0
 15 17  1  0  0  0  0
 17 18  1  0  0  0  0
 17 34  1  0  0  0  0
 18 35  1  0  0  0  0
 18 36  1  0  0  0  0
M  END
> <s_m_source_file>
AV-unprocessed.smi

> <i_m_source_file_index>
1145

> <i_lp_mmshare_version>
43012

> <i_f3d_flags>
0

> <s_epik_input>
bjFbY0hdW2NIXVtjSF1uMVtDSDJdW0NAQEhdKFtDSDNdKVtOSF1DKD1PKVtDQEBIXTJbQ0gyXVtDSDJdQyg9TylbTkhdW0NIMl0y

> <s_epik_cmdline>
J2VwaWtfcHl0aG9uJywgJy1waCcsICc3LjAnLCAnLXRuJywgJzgnLCAnLW1hJywgJzIwMCcsICctbWV0YWxfYmluZGluZycsICctaW1hZScsICc8aW5maWxlLm1hZT4nLCAnLW9tYWUnLCAnPG91dGZpbGUubWFlPic=

> <r_lp_tautomer_probability>
1

> <r_epik_Ionization_Penalty>
0.000314064

> <r_epik_Ionization_Penalty_Charging>
0

> <r_epik_Ionization_Penalty_Neutral>
0.000314064

> <r_epik_State_Penalty>
-0

> <r_epik_Charging_Adjusted_Penalty>
0

> <i_epik_Tot_Q>
0

> <i_epik_Tot_abs_Q>
0

> <r_epik_Metal_State_Penalty>
-0

> <b_epik_Metal_Only>
0

> <s_lp_Force_Field>
OPLS_2005

> <r_lp_Energy>
8.22521

> <b_lp_Chiralities_Consistent>
1

> <s_lp_Variant>
AV-unprocessed.smi:1145-4

> <Gold.Version>
5.8.1

> <Gold.Id.Protein>
6NUR|6NUR_protein|mol2

> <Gold.PLP.Fitness>
39.4902

> <Gold.PLP.PLP>
-33.2179

> <Gold.PLP.part.hbond>
-3.0000

> <Gold.PLP.part.metal>
0.0000

> <Gold.PLP.part.buried>
-3.5409

> <Gold.PLP.part.nonpolar>
-26.8109

> <Gold.PLP.part.repulsive>
0.2594

> <Gold.PLP.ligand.clash>
0.7610

> <Gold.PLP.ligand.torsion>
0.1501

> <Gold.PLP.Chemscore.Hbond>
2.4313

> <Gold.PLP.Chemscore.CHOScore>
0.0000

> <Gold.PLP.Chemscore.Metal>
0.0000

> <Gold.Chemscore.Hbonds>
donor molecule, donor type, donor heavy atom, donor atom, acceptor molecule, acceptor atom, score
      L1  H    17    34       P1  7948  0.91
      P1  H  7989  7998       L1    11  0.53
      P1  H  7997  8009       L1    11  0.98

> <Gold.PLP.Chemscore.Internal.Correction>
0.0397

> <Gold.Rescore>
     Score         DG    S(hbond)    S(metal)    S(lipo)     H(rot)  DE(clash)    DE(int)     intcor
     15.88     -16.85       2.03        0.00      78.62       1.80       0.00       0.96       ----

> <Gold.Chemscore.Fitness>
15.8844

> <Gold.Chemscore.DG>
-16.8455

> <Gold.Chemscore.ZeroCoef>
-5.4800

> <Gold.Chemscore.Hbond>
2.0270

> <Gold.Chemscore.Metal>
0.0000

> <Gold.Chemscore.Lipo>
78.6215

> <Gold.Chemscore.Internal_Hbond>
0.0000

> <Gold.Chemscore.DEClash>
0.0000

> <Gold.Chemscore.DEInternal>
0.9612

> <Gold.Chemscore.Rot>
1.7982

> <Gold.Chemscore.Internal.Correction>
   9.000000E+99

> <Gold.Chemscore.Hbonds>
donor molecule, donor type, donor heavy atom, donor atom, acceptor molecule, acceptor atom, score
      L1  H    17    34       P1  7948  0.77
      P1  H  7989  7998       L1    11  0.52
      P1  H  7997  8009       L1    11  0.32

> <Gold.Chemscore.Hbond.Weighted>
-6.7703

> <Gold.Chemscore.Metal.Weighted>
-0.0000

> <Gold.Chemscore.Lipo.Weighted>
-9.1987

> <Gold.Chemscore.Internal_Hbond.Weighted>
0.0000

> <Gold.Chemscore.DEClash.Weighted>
0.0000

> <Gold.Chemscore.DEInternal.Weighted>
0.9612

> <Gold.Chemscore.Rot.Weighted>
4.6035

> <Gold.Chemscore.Internal.Correction.Weighted>
   9.000000E+99

> <Gold.Protein.RotatedTorsions>
[ 6907 6896 6895 6894 ] final -157.64 input  -60.11 | X-H torsion
[ 7974 7965 7964 7962 ] final -143.50 input  175.53 | X-H torsion
[ 8008 7997 7996 7995 ] final -141.09 input   59.86 | X-H torsion
[ 10167 10162 10161 10158 ] final  -82.17 input  -65.29 | X-H torsion
[ 10718 10713 10712 10709 ] final   19.23 input   66.30 | X-H torsion
[ 10763 10752 10751 10750 ] final  176.90 input  -60.55 | X-H torsion
[ 11005 11000 10999 10996 ] final   61.80 input  -57.11 | X-H torsion

> <Gold.Protein.ActiveResidues>
 VAL166  LYS551  ARG553  GLY616  TRP617  ASP618  TYR619  PRO620  LYS621  CYS622 
 ASP623  PHE694  ASN695  SER759  ASP760  ASP761  ALA762  ILE779  LEU786  VAL792 
 PHE793  MET794  SER795  GLU796  ALA797  LYS798  CYS799  TRP800  GLU811  SER814 

> <Gold.Protein.RotatedAtoms>
  151.3059  133.4102  159.2642 H   0  0  0  0  0  0  0  0  0  0  0  0  # atno 6907 bound_to 6896
  151.0156  134.9430  159.8041 H   0  0  0  0  0  0  0  0  0  0  0  0  # atno 6908 bound_to 6896
  152.5311  134.3023  159.9135 H   0  0  0  0  0  0  0  0  0  0  0  0  # atno 6909 bound_to 6896
  144.8365  140.5827  143.5480 H   0  0  0  0  0  0  0  0  0  0  0  0  # atno 7974 bound_to 7965
  155.4721  140.0553  157.2978 H   0  0  0  0  0  0  0  0  0  0  0  0  # atno 8008 bound_to 7997
  154.4694  140.2033  155.9987 H   0  0  0  0  0  0  0  0  0  0  0  0  # atno 8009 bound_to 7997
  156.1030  140.3216  155.7973 H   0  0  0  0  0  0  0  0  0  0  0  0  # atno 8010 bound_to 7997
  140.4345  143.2536  151.8713 H   0  0  0  0  0  0  0  0  0  0  0  0  # atno 10167 bound_to 10162
  157.1076  130.6495  149.5889 H   0  0  0  0  0  0  0  0  0  0  0  0  # atno 10718 bound_to 10713
  154.4872  135.2777  155.1524 H   0  0  0  0  0  0  0  0  0  0  0  0  # atno 10763 bound_to 10752
  154.3211  135.6209  153.5512 H   0  0  0  0  0  0  0  0  0  0  0  0  # atno 10764 bound_to 10752
  152.9883  135.5743  154.5286 H   0  0  0  0  0  0  0  0  0  0  0  0  # atno 10765 bound_to 10752
  140.0136  134.6259  155.9743 H   0  0  0  0  0  0  0  0  0  0  0  0  # atno 11005 bound_to 11000
  145.4783  139.1497  143.3776 LP  0  0  0  0  0  0  0  0  0  0  0  0  # atno 17320 bound_to 7965
  146.2663  140.4919  142.8832 LP  0  0  0  0  0  0  0  0  0  0  0  0  # atno 17321 bound_to 7965
  139.4786  144.5298  151.8683 LP  0  0  0  0  0  0  0  0  0  0  0  0  # atno 17342 bound_to 10162
  140.4390  144.2013  150.5890 LP  0  0  0  0  0  0  0  0  0  0  0  0  # atno 17343 bound_to 10162
  155.9858  130.4890  150.7050 LP  0  0  0  0  0  0  0  0  0  0  0  0  # atno 17370 bound_to 10713
  157.4587  131.0881  151.0769 LP  0  0  0  0  0  0  0  0  0  0  0  0  # atno 17371 bound_to 10713
  141.1727  133.6538  156.4713 LP  0  0  0  0  0  0  0  0  0  0  0  0  # atno 17394 bound_to 11000
  140.4511  134.6928  157.5040 LP  0  0  0  0  0  0  0  0  0  0  0  0  # atno 17395 bound_to 11000

$$$$
