#       Name:                AV-unprocessed.smi:2574
#       Creating user name   scv26
#       Creation time:       Fri Mar 27 14:13:36 2020


#       File generated by GOLD software.
#

@<TRIPOS>MOLECULE
AV-unprocessed.smi:2574
    43    45     1
SMALL
NO_CHARGES


@<TRIPOS>ATOM
      1 ****        -0.3565  -2.4317   0.4403 O.2            1 S1                 0.0000
      2 ****        -1.0585  -1.4196   0.4558 C.2            1 S1                 0.0000
      3 ****        -2.5274  -1.4509   0.5241 C.2            1 S1                 0.0000
      4 ****        -3.2133  -2.8140   0.5612 C.3            1 S1                 0.0000
      5 ****        -4.5419  -2.6974   0.5836 F              1 S1                 0.0000
      6 ****        -2.8856  -3.5350  -0.5118 F              1 S1                 0.0000
      7 ****        -2.8447  -3.4927   1.6481 F              1 S1                 0.0000
      8 ****        -3.2311  -0.2928   0.5436 C.2            1 S1                 0.0000
      9 ****        -2.5434   0.9823   0.5043 C.2            1 S1                 0.0000
     10 ****        -3.2601   2.3019   0.5398 C.3            1 S1                 0.0000
     11 ****        -3.1775   3.2180   1.7383 C.3            1 S1                 0.0000
     12 ****        -4.4815   2.5329   1.4005 C.3            1 S1                 0.0000
     13 ****        -1.2548   1.0069   0.4373 N.2            1 S1                 0.0000
     14 ****        -0.5234  -0.1638   0.4064 N.am           1 S1                 0.0000
     15 ****         0.9279   0.0452   0.3235 C.3            1 S1                 0.0000
     16 ****         1.4784  -0.1975  -1.0991 C.3            1 S1                 0.0000
     17 ****         1.1184   0.8965  -1.9204 O.3            1 S1                 0.0000
     18 ****         2.9860  -0.4011  -1.0703 C.ar           1 S1                 0.0000
     19 ****         3.8631   0.6986  -0.9361 C.ar           1 S1                 0.0000
     20 ****         5.2564   0.4958  -0.9038 C.ar           1 S1                 0.0000
     21 ****         5.7815  -0.8071  -1.0014 C.ar           1 S1                 0.0000
     22 ****         4.9122  -1.9074  -1.1289 C.ar           1 S1                 0.0000
     23 ****         3.5187  -1.7051  -1.1618 C.ar           1 S1                 0.0000
     24 ****        -4.3098  -0.2952   0.5884 H              1 S1                 0.0000
     25 ****        -3.2542   2.7699  -0.4429 H              1 S1                 0.0000
     26 ****        -2.6399   2.8641   2.6160 H              1 S1                 0.0000
     27 ****        -3.1063   4.2868   1.5477 H              1 S1                 0.0000
     28 ****        -5.2785   3.1472   0.9866 H              1 S1                 0.0000
     29 ****        -4.8072   1.7328   2.0625 H              1 S1                 0.0000
     30 ****         1.2055   1.0413   0.6746 H              1 S1                 0.0000
     31 ****         1.4094  -0.6422   1.0218 H              1 S1                 0.0000
     32 ****         1.0264  -1.0907  -1.5319 H              1 S1                 0.0000
     33 ****         1.3948   0.7090  -2.8045 H              1 S1                 0.0000
     34 ****         3.4705   1.7019  -0.8560 H              1 S1                 0.0000
     35 ****         5.9225   1.3401  -0.8037 H              1 S1                 0.0000
     36 ****         6.8500  -0.9628  -0.9770 H              1 S1                 0.0000
     37 ****         5.3135  -2.9075  -1.2008 H              1 S1                 0.0000
     38 ****         2.8597  -2.5561  -1.2558 H              1 S1                 0.0000
     39 ****         0.6388  -2.3491   0.3902 LP             1 S1                 0.0000
     40 ****        -0.7819  -3.3359   0.4779 LP             1 S1                 0.0000
     41 ****        -0.7794   1.8861   0.4074 LP             1 S1                 0.0000
     42 ****         1.5701   1.7269  -1.5941 LP             1 S1                 0.0000
     43 ****         0.1270   1.0250  -1.8964 LP             1 S1                 0.0000
@<TRIPOS>BOND
    1    1    2 2     
    2    2   14 am    
    3    2    3 1     
    4    3    4 1     
    5    3    8 2     
    6    4    5 1     
    7    4    6 1     
    8    4    7 1     
    9    8    9 1     
   10    8   24 1     
   11    9   10 1     
   12    9   13 2     
   13   10   12 1     
   14   10   11 1     
   15   10   25 1     
   16   11   12 1     
   17   11   26 1     
   18   11   27 1     
   19   12   28 1     
   20   12   29 1     
   21   13   14 1     
   22   14   15 1     
   23   15   16 1     
   24   15   30 1     
   25   15   31 1     
   26   16   17 1     
   27   16   18 1     
   28   16   32 1     
   29   17   33 1     
   30   18   23 ar    
   31   18   19 ar    
   32   19   20 ar    
   33   19   34 1     
   34   20   21 ar    
   35   20   35 1     
   36   21   22 ar    
   37   21   36 1     
   38   22   23 ar    
   39   22   37 1     
   40   23   38 1     
   41    1   39 1     
   42    1   40 1     
   43   13   41 1     
   44   17   42 1     
   45   17   43 1     
@<TRIPOS>SUBSTRUCTURE
      1 S1             1
@<TRIPOS>SET
LONE_PAIRS      STATIC     ATOMS    <user>   **** ""
5 39 40 41 42 43
DONOR_HYDROGENS      STATIC     ATOMS    <user>   **** ""
1 33
ATOM$BLUE        STATIC     ATOMS    COLORGROUP SYSTEM
5 39 40 41 42 43
ATOM$RED        STATIC     ATOMS    COLORGROUP SYSTEM
1 33
