AV-unprocessed.smi:2063|AV-procd|sdf|8408|dock9
  -GOLD-   2272011 93D 1   1.00000     0.00000
 Structure written by MMmdl.
 39 40  0  0  0  0  0  0  0  0  1 V2000
  151.5420  141.4861  158.0312 C   0  0  0  0  0  0  0  0  0  0  0  0
  150.4049  141.9446  157.1065 C   0  0  0  0  0  0  0  0  0  0  0  0
  149.1186  142.3041  157.8645 C   0  0  0  0  0  0  0  0  0  0  0  0
  150.1527  140.9715  155.9971 C   0  0  0  0  0  0  0  0  0  0  0  0
  151.1264  140.4944  155.2097 N   0  0  0  0  0  0  0  0  0  0  0  0
  150.6481  139.6051  154.2582 N   0  0  0  0  0  0  0  0  0  0  0  0
  149.3223  139.4366  154.3531 C   0  0  0  0  0  0  0  0  0  0  0  0
  148.5737  138.5771  153.5060 N   0  0  0  0  0  0  0  0  0  0  0  0
  147.2377  138.4578  153.4111 C   0  0  0  0  0  0  0  0  0  0  0  0
  146.4184  139.0845  154.0832 O   0  0  0  0  0  0  0  0  0  0  0  0
  146.8980  137.5590  152.4749 N   0  0  0  0  0  0  0  0  0  0  0  0
  145.5346  137.1770  152.1084 C   0  0  2  0  0  0  0  0  0  0  0  0
  144.7372  136.9069  153.3929 C   0  0  0  0  0  0  0  0  0  0  0  0
  145.5475  135.9492  151.1735 C   0  0  2  0  0  0  0  0  0  0  0  0
  144.1687  135.4025  150.7986 C   0  0  0  0  0  0  0  0  0  0  0  0
  144.5005  133.9808  150.4097 C   0  0  0  0  0  0  0  0  0  0  0  0
  145.5779  133.6199  151.4282 C   0  0  0  0  0  0  0  0  0  0  0  0
  146.2019  134.8474  151.7989 O   0  0  0  0  0  0  0  0  0  0  0  0
  148.5435  140.3605  155.6259 S   0  0  0  0  0  0  0  0  0  0  0  0
  152.4620  141.3221  157.4693 H   0  0  0  0  0  0  0  0  0  0  0  0
  151.2903  140.5538  158.5380 H   0  0  0  0  0  0  0  0  0  0  0  0
  151.7513  142.2339  158.7965 H   0  0  0  0  0  0  0  0  0  0  0  0
  150.7481  142.8657  156.6338 H   0  0  0  0  0  0  0  0  0  0  0  0
  148.3630  142.7030  157.1869 H   0  0  0  0  0  0  0  0  0  0  0  0
  149.3099  143.0594  158.6271 H   0  0  0  0  0  0  0  0  0  0  0  0
  148.6935  141.4314  158.3613 H   0  0  0  0  0  0  0  0  0  0  0  0
  149.1201  137.9896  152.8939 H   0  0  0  0  0  0  0  0  0  0  0  0
  147.6422  137.0977  151.9727 H   0  0  0  0  0  0  0  0  0  0  0  0
  145.0467  138.0031  151.5879 H   0  0  0  0  0  0  0  0  0  0  0  0
  143.6994  136.6601  153.1682 H   0  0  0  0  0  0  0  0  0  0  0  0
  144.7306  137.7828  154.0424 H   0  0  0  0  0  0  0  0  0  0  0  0
  145.1613  136.0758  153.9578 H   0  0  0  0  0  0  0  0  0  0  0  0
  146.0948  136.1818  150.2582 H   0  0  0  0  0  0  0  0  0  0  0  0
  143.5041  135.4062  151.6639 H   0  0  0  0  0  0  0  0  0  0  0  0
  143.6899  135.9637  149.9957 H   0  0  0  0  0  0  0  0  0  0  0  0
  143.6394  133.3126  150.4438 H   0  0  0  0  0  0  0  0  0  0  0  0
  144.9132  133.9570  149.4002 H   0  0  0  0  0  0  0  0  0  0  0  0
  145.1303  133.1775  152.3186 H   0  0  0  0  0  0  0  0  0  0  0  0
  146.3027  132.9116  151.0264 H   0  0  0  0  0  0  0  0  0  0  0  0
  1  2  1  0  0  0  0
  1 20  1  0  0  0  0
  1 21  1  0  0  0  0
  1 22  1  0  0  0  0
  2  3  1  0  0  0  0
  2  4  1  0  0  0  0
  2 23  1  0  0  0  0
  3 24  1  0  0  0  0
  3 25  1  0  0  0  0
  3 26  1  0  0  0  0
  4 19  1  0  0  0  0
  4  5  2  0  0  0  0
  5  6  1  0  0  0  0
  6  7  2  0  0  0  0
  7  8  1  0  0  0  0
  7 19  1  0  0  0  0
  8  9  1  0  0  0  0
  8 27  1  0  0  0  0
  9 10  2  0  0  0  0
  9 11  1  0  0  0  0
 11 12  1  0  0  0  0
 11 28  1  0  0  0  0
 12 13  1  0  0  0  0
 12 14  1  0  0  0  0
 12 29  1  0  0  0  0
 13 30  1  0  0  0  0
 13 31  1  0  0  0  0
 13 32  1  0  0  0  0
 14 18  1  0  0  0  0
 14 15  1  0  0  0  0
 14 33  1  0  0  0  0
 15 16  1  0  0  0  0
 15 34  1  0  0  0  0
 15 35  1  0  0  0  0
 16 17  1  0  0  0  0
 16 36  1  0  0  0  0
 16 37  1  0  0  0  0
 17 18  1  0  0  0  0
 17 38  1  0  0  0  0
 17 39  1  0  0  0  0
M  END
> <s_m_source_file>
AV-unprocessed.smi

> <i_m_source_file_index>
2063

> <i_lp_mmshare_version>
43012

> <i_f3d_flags>
0

> <s_epik_input>
W0NIM11bQ0hdKFtDSDNdKWMxbm5jKHMxKVtOSF1DKD1PKVtOSF1bQ0BIXShbQ0gzXSlbQ0BASF0yW0NIMl1bQ0gyXVtDSDJdTzI=

> <s_epik_cmdline>
J2VwaWtfcHl0aG9uJywgJy1waCcsICc3LjAnLCAnLXRuJywgJzgnLCAnLW1hJywgJzIwMCcsICctbWV0YWxfYmluZGluZycsICctaW1hZScsICc8aW5maWxlLm1hZT4nLCAnLW9tYWUnLCAnPG91dGZpbGUubWFlPic=

> <r_lp_tautomer_probability>
1

> <r_epik_Ionization_Penalty>
0.00050567

> <r_epik_Ionization_Penalty_Charging>
0

> <r_epik_Ionization_Penalty_Neutral>
0.00050567

> <r_epik_State_Penalty>
-0

> <r_epik_Charging_Adjusted_Penalty>
0

> <i_epik_Tot_Q>
0

> <i_epik_Tot_abs_Q>
0

> <r_epik_Metal_State_Penalty>
0.219912

> <b_epik_Metal_Only>
0

> <s_lp_Force_Field>
OPLS_2005

> <r_lp_Energy>
10.8376

> <b_lp_Chiralities_Consistent>
1

> <s_lp_Variant>
AV-unprocessed.smi:2063-1

> <Gold.Version>
5.8.1

> <Gold.Id.Protein>
6NUR|6NUR_protein|mol2

> <Gold.PLP.Fitness>
35.0165

> <Gold.PLP.PLP>
-29.9088

> <Gold.PLP.part.hbond>
-4.9413

> <Gold.PLP.part.metal>
0.0000

> <Gold.PLP.part.buried>
-4.8414

> <Gold.PLP.part.nonpolar>
-21.6953

> <Gold.PLP.part.repulsive>
1.1209

> <Gold.PLP.ligand.clash>
0.0000

> <Gold.PLP.ligand.torsion>
0.2376

> <Gold.PLP.Chemscore.Hbond>
1.8320

> <Gold.PLP.Chemscore.CHOScore>
0.0000

> <Gold.PLP.Chemscore.Metal>
0.0000

> <Gold.Chemscore.Hbonds>
donor molecule, donor type, donor heavy atom, donor atom, acceptor molecule, acceptor atom, score
      L1  H     8    27       P1  7948  0.83
      L1  H    11    28       P1  7948  1.00

> <Gold.PLP.Chemscore.Internal.Correction>
0.0869

> <Gold.Rescore>
     Score         DG    S(hbond)    S(metal)    S(lipo)     H(rot)  DE(clash)    DE(int)     intcor
     12.57     -15.21       1.92        0.00      59.29       1.42       0.05       2.58       ----

> <Gold.Chemscore.Fitness>
12.5733

> <Gold.Chemscore.DG>
-15.2078

> <Gold.Chemscore.ZeroCoef>
-5.4800

> <Gold.Chemscore.Hbond>
1.9204

> <Gold.Chemscore.Metal>
0.0000

> <Gold.Chemscore.Lipo>
59.2888

> <Gold.Chemscore.Internal_Hbond>
0.0000

> <Gold.Chemscore.DEClash>
0.0516

> <Gold.Chemscore.DEInternal>
2.5829

> <Gold.Chemscore.Rot>
1.4152

> <Gold.Chemscore.Internal.Correction>
   9.000000E+99

> <Gold.Chemscore.Hbonds>
donor molecule, donor type, donor heavy atom, donor atom, acceptor molecule, acceptor atom, score
      L1  H     8    27       P1  7948  0.77
      L1  H    11    28       P1  7948  0.94

> <Gold.Chemscore.Hbond.Weighted>
-6.4140

> <Gold.Chemscore.Metal.Weighted>
-0.0000

> <Gold.Chemscore.Lipo.Weighted>
-6.9368

> <Gold.Chemscore.Internal_Hbond.Weighted>
0.0000

> <Gold.Chemscore.DEClash.Weighted>
0.0516

> <Gold.Chemscore.DEInternal.Weighted>
2.5829

> <Gold.Chemscore.Rot.Weighted>
3.6229

> <Gold.Chemscore.Internal.Correction.Weighted>
   9.000000E+99

> <Gold.Protein.RotatedTorsions>
[ 6907 6896 6895 6894 ] final   32.44 input  -60.11 | X-H torsion
[ 7974 7965 7964 7962 ] final  -96.98 input  175.53 | X-H torsion
[ 8008 7997 7996 7995 ] final  -54.64 input   59.86 | X-H torsion
[ 10167 10162 10161 10158 ] final   41.05 input  -65.29 | X-H torsion
[ 10718 10713 10712 10709 ] final  -90.09 input   66.30 | X-H torsion
[ 10763 10752 10751 10750 ] final   -3.55 input  -60.55 | X-H torsion
[ 11005 11000 10999 10996 ] final -171.13 input  -57.11 | X-H torsion

> <Gold.Protein.ActiveResidues>
 VAL166  LYS551  ARG553  GLY616  TRP617  ASP618  TYR619  PRO620  LYS621  CYS622 
 ASP623  PHE694  ASN695  SER759  ASP760  ASP761  ALA762  ILE779  LEU786  VAL792 
 PHE793  MET794  SER795  GLU796  ALA797  LYS798  CYS799  TRP800  GLU811  SER814 

> <Gold.Protein.RotatedAtoms>
  152.0744  134.9512  160.0573 H   0  0  0  0  0  0  0  0  0  0  0  0  # atno 6907 bound_to 6896
  152.0825  133.4155  159.4516 H   0  0  0  0  0  0  0  0  0  0  0  0  # atno 6908 bound_to 6896
  150.6836  134.2885  159.4700 H   0  0  0  0  0  0  0  0  0  0  0  0  # atno 6909 bound_to 6896
  145.3398  140.9457  143.2614 H   0  0  0  0  0  0  0  0  0  0  0  0  # atno 7974 bound_to 7965
  154.4169  140.1171  156.5348 H   0  0  0  0  0  0  0  0  0  0  0  0  # atno 8008 bound_to 7997
  155.6568  140.3496  155.4749 H   0  0  0  0  0  0  0  0  0  0  0  0  # atno 8009 bound_to 7997
  155.9746  140.1148  157.0771 H   0  0  0  0  0  0  0  0  0  0  0  0  # atno 8010 bound_to 7997
  140.3681  144.2141  150.6134 H   0  0  0  0  0  0  0  0  0  0  0  0  # atno 10167 bound_to 10162
  155.9986  130.4896  150.5270 H   0  0  0  0  0  0  0  0  0  0  0  0  # atno 10718 bound_to 10713
  153.3728  135.6995  153.6624 H   0  0  0  0  0  0  0  0  0  0  0  0  # atno 10763 bound_to 10752
  153.5267  135.3600  155.2657 H   0  0  0  0  0  0  0  0  0  0  0  0  # atno 10764 bound_to 10752
  154.8683  135.4171  154.3010 H   0  0  0  0  0  0  0  0  0  0  0  0  # atno 10765 bound_to 10752
  140.5117  134.5795  157.5021 H   0  0  0  0  0  0  0  0  0  0  0  0  # atno 11005 bound_to 11000
  144.8799  139.4918  143.6728 LP  0  0  0  0  0  0  0  0  0  0  0  0  # atno 17320 bound_to 7965
  146.3012  139.7433  142.9090 LP  0  0  0  0  0  0  0  0  0  0  0  0  # atno 17321 bound_to 7965
  140.5060  143.2304  151.8607 LP  0  0  0  0  0  0  0  0  0  0  0  0  # atno 17342 bound_to 10162
  139.4806  144.5004  151.9067 LP  0  0  0  0  0  0  0  0  0  0  0  0  # atno 17343 bound_to 10162
  157.3224  131.0684  151.1922 LP  0  0  0  0  0  0  0  0  0  0  0  0  # atno 17370 bound_to 10713
  157.2831  130.6759  149.6076 LP  0  0  0  0  0  0  0  0  0  0  0  0  # atno 17371 bound_to 10713
  139.9655  134.7380  156.0148 LP  0  0  0  0  0  0  0  0  0  0  0  0  # atno 17394 bound_to 11000
  141.1382  133.6570  156.3653 LP  0  0  0  0  0  0  0  0  0  0  0  0  # atno 17395 bound_to 11000

$$$$
