#       Name:                AV-unprocessed.smi:767
#       Creating user name   scv26
#       Creation time:       Fri Mar 27 01:07:40 2020


#       File generated by GOLD software.
#

@<TRIPOS>MOLECULE
AV-unprocessed.smi:767
    52    54     1
SMALL
NO_CHARGES


@<TRIPOS>ATOM
      1 ****        -8.0412   1.3757   0.8464 C.3            1 S1                 0.0000
      2 ****        -6.5315   1.3598   0.7331 C.ar           1 S1                 0.0000
      3 ****        -5.8684   1.3226  -0.5124 C.ar           1 S1                 0.0000
      4 ****        -4.4583   1.3056  -0.5417 C.ar           1 S1                 0.0000
      5 ****        -3.7401   1.3268   0.6740 C.ar           1 S1                 0.0000
      6 ****        -2.2246   1.2971   0.6746 C.3            1 S1                 0.0000
      7 ****        -1.6779  -0.1364   0.7696 C.3            1 S1                 0.0000
      8 ****        -0.2203  -0.1571   0.7746 N.am           1 S1                 0.0000
      9 ****         0.5485  -0.0623  -0.3187 C.2            1 S1                 0.0000
     10 ****         0.1086   0.0710  -1.4609 O.2            1 S1                 0.0000
     11 ****         1.8519  -0.1391  -0.0207 N.am           1 S1                 0.0000
     12 ****         2.9319  -0.0841  -1.0113 C.3            1 S1                 0.0000
     13 ****         4.3113   0.1029  -0.3736 C.3            1 S1                 0.0000
     14 ****         4.8230   0.5576   0.9452 C.3            1 S1                 0.0000
     15 ****         5.9415  -0.5092   1.0971 C.3            1 S1                 0.0000
     16 ****         5.7188  -1.4753   0.0377 O.3            1 S1                 0.0000
     17 ****         4.3274  -1.4018  -0.2022 C.3            1 S1                 0.0000
     18 ****         3.4840  -1.4842  -1.4942 C.3            1 S1                 0.0000
     19 ****         2.4875  -2.6475  -1.5543 C.3            1 S1                 0.0000
     20 ****         4.2452  -1.5155  -2.8318 C.3            1 S1                 0.0000
     21 ****        -4.4566   1.3653   1.8892 C.ar           1 S1                 0.0000
     22 ****        -5.8075   1.3799   1.8749 N.pl3          1 S1                 1.0000
     23 ****        -8.5092   1.3819  -0.1384 H              1 S1                 0.0000
     24 ****        -8.3728   2.2632   1.3861 H              1 S1                 0.0000
     25 ****        -8.3914   0.4938   1.3838 H              1 S1                 0.0000
     26 ****        -6.4297   1.3053  -1.4353 H              1 S1                 0.0000
     27 ****        -3.9365   1.2733  -1.4872 H              1 S1                 0.0000
     28 ****        -1.8625   1.7826  -0.2327 H              1 S1                 0.0000
     29 ****        -1.8573   1.8951   1.5099 H              1 S1                 0.0000
     30 ****        -2.0260  -0.6083   1.6889 H              1 S1                 0.0000
     31 ****        -2.0557  -0.7454  -0.0539 H              1 S1                 0.0000
     32 ****         0.2338  -0.2652   1.6700 H              1 S1                 0.0000
     33 ****         2.1200  -0.2500   0.9460 H              1 S1                 0.0000
     34 ****         2.7477   0.6144  -1.8293 H              1 S1                 0.0000
     35 ****         5.0009   0.4471  -1.1483 H              1 S1                 0.0000
     36 ****         5.2139   1.5751   0.9217 H              1 S1                 0.0000
     37 ****         4.0712   0.4783   1.7317 H              1 S1                 0.0000
     38 ****         6.9359  -0.0750   0.9914 H              1 S1                 0.0000
     39 ****         5.8862  -0.9944   2.0724 H              1 S1                 0.0000
     40 ****         3.7727  -1.7572   0.6724 H              1 S1                 0.0000
     41 ****         2.9808  -3.5866  -1.8071 H              1 S1                 0.0000
     42 ****         1.7130  -2.4697  -2.3011 H              1 S1                 0.0000
     43 ****         1.9849  -2.8058  -0.6001 H              1 S1                 0.0000
     44 ****         4.8362  -2.4267  -2.9276 H              1 S1                 0.0000
     45 ****         4.9323  -0.6811  -2.9617 H              1 S1                 0.0000
     46 ****         3.5575  -1.4834  -3.6775 H              1 S1                 0.0000
     47 ****        -3.9944   1.3801   2.8656 H              1 S1                 0.0000
     48 ****        -6.3034   1.4054   2.7662 H              1 S1                 0.0000
     49 ****        -0.8786   0.1145  -1.6146 LP             1 S1                 0.0000
     50 ****         0.7384   0.1358  -2.2349 LP             1 S1                 0.0000
     51 ****         5.9809  -2.3940   0.3331 LP             1 S1                 0.0000
     52 ****         6.2348  -1.2290  -0.7827 LP             1 S1                 0.0000
@<TRIPOS>BOND
    1    1    2 1     
    2    1   23 1     
    3    1   24 1     
    4    1   25 1     
    5    2   22 ar    
    6    2    3 ar    
    7    3    4 ar    
    8    3   26 1     
    9    4    5 ar    
   10    4   27 1     
   11    5    6 1     
   12    5   21 ar    
   13    6    7 1     
   14    6   28 1     
   15    6   29 1     
   16    7    8 1     
   17    7   30 1     
   18    7   31 1     
   19    8    9 am    
   20    8   32 1     
   21    9   10 2     
   22    9   11 am    
   23   11   12 1     
   24   11   33 1     
   25   12   18 1     
   26   12   13 1     
   27   12   34 1     
   28   13   17 1     
   29   13   14 1     
   30   13   35 1     
   31   14   15 1     
   32   14   36 1     
   33   14   37 1     
   34   15   16 1     
   35   15   38 1     
   36   15   39 1     
   37   16   17 1     
   38   17   18 1     
   39   17   40 1     
   40   18   19 1     
   41   18   20 1     
   42   19   41 1     
   43   19   42 1     
   44   19   43 1     
   45   20   44 1     
   46   20   45 1     
   47   20   46 1     
   48   21   22 ar    
   49   21   47 1     
   50   22   48 1     
   51   10   49 1     
   52   10   50 1     
   53   16   51 1     
   54   16   52 1     
@<TRIPOS>SUBSTRUCTURE
      1 S1             1
@<TRIPOS>SET
LONE_PAIRS      STATIC     ATOMS    <user>   **** ""
4 49 50 51 52
DONOR_HYDROGENS      STATIC     ATOMS    <user>   **** ""
3 32 33 48
ATOM$BLUE        STATIC     ATOMS    COLORGROUP SYSTEM
4 49 50 51 52
ATOM$RED        STATIC     ATOMS    COLORGROUP SYSTEM
3 32 33 48
