#       Name:                AV-unprocessed.smi:81
#       Creating user name   scv26
#       Creation time:       Thu Mar 26 17:16:21 2020


#       File generated by GOLD software.
#

@<TRIPOS>MOLECULE
AV-unprocessed.smi:81
    71    74     1
SMALL
NO_CHARGES


@<TRIPOS>ATOM
      1 ****        -2.0731  -0.2405  -4.1808 C.3            1 S1                 0.0000
      2 ****        -1.8986  -1.0760  -2.9020 C.3            1 S1                 0.0000
      3 ****        -2.2962  -2.5368  -3.1557 C.3            1 S1                 0.0000
      4 ****        -2.7103  -0.4949  -1.7205 C.3            1 S1                 0.0000
      5 ****        -2.2986   0.8495  -1.3009 N.pl3          1 S1                 0.0000
      6 ****        -0.9841   0.9973  -1.0056 C.ar           1 S1                 0.0000
      7 ****        -0.3123   1.9891  -1.6424 N.ar           1 S1                 0.0000
      8 ****         0.9932   2.1655  -1.4211 C.ar           1 S1                 0.0000
      9 ****         1.8047   1.4705  -0.6221 N.ar           1 S1                 0.0000
     10 ****         1.1384   0.4600   0.0066 C.ar           1 S1                 0.0000
     11 ****        -0.2446   0.1535  -0.1276 C.ar           1 S1                 0.0000
     12 ****        -0.5626  -0.9401   0.6680 N.2            1 S1                 0.0000
     13 ****         0.5668  -1.2636   1.2352 C.2            1 S1                 0.0000
     14 ****         1.6445  -0.4792   0.8896 N.pl3          1 S1                 0.0000
     15 ****         3.0229  -0.6054   1.3478 C.3            1 S1                 0.0000
     16 ****         3.8550  -1.6514   0.5579 C.3            1 S1                 0.0000
     17 ****         3.6337  -1.4331  -0.8266 O.3            1 S1                 0.0000
     18 ****         5.3478  -1.5648   0.8248 C.3            1 S1                 0.0000
     19 ****         5.8592  -2.9246   0.3544 C.3            1 S1                 0.0000
     20 ****         4.7571  -3.8235   0.4579 O.3            1 S1                 0.0000
     21 ****         3.5669  -3.1399   0.8504 C.3            1 S1                 0.0000
     22 ****         3.3684  -3.5047   2.3345 C.3            1 S1                 0.0000
     23 ****        -3.2843   1.6416  -0.5447 C.3            1 S1                 0.0000
     24 ****        -3.0318   3.1680  -0.5022 C.3            1 S1                 0.0000
     25 ****        -2.1375   3.6277   0.6659 C.3            1 S1                 0.0000
     26 ****        -2.6395   3.1112   1.9604 N.4            1 S1                 1.0000
     27 ****        -1.8875   3.6563   3.1111 C.3            1 S1                 0.0000
     28 ****        -2.6933   1.6309   1.9747 C.3            1 S1                 0.0000
     29 ****        -3.6156   1.0952   0.8644 C.3            1 S1                 0.0000
     30 ****        -3.1184  -0.2027  -4.4891 H              1 S1                 0.0000
     31 ****        -1.4977  -0.6615  -5.0059 H              1 S1                 0.0000
     32 ****        -1.7313   0.7846  -4.0378 H              1 S1                 0.0000
     33 ****        -0.8385  -1.0829  -2.6467 H              1 S1                 0.0000
     34 ****        -3.3479  -2.6201  -3.4319 H              1 S1                 0.0000
     35 ****        -2.1357  -3.1470  -2.2663 H              1 S1                 0.0000
     36 ****        -1.7043  -2.9710  -3.9620 H              1 S1                 0.0000
     37 ****        -3.7638  -0.4669  -2.0010 H              1 S1                 0.0000
     38 ****        -2.6532  -1.1717  -0.8688 H              1 S1                 0.0000
     39 ****         1.4541   2.9779  -1.9634 H              1 S1                 0.0000
     40 ****         0.6333  -2.0921   1.9223 H              1 S1                 0.0000
     41 ****         3.4941   0.3730   1.2459 H              1 S1                 0.0000
     42 ****         3.0218  -0.8144   2.4171 H              1 S1                 0.0000
     43 ****         4.1214  -2.0806  -1.3126 H              1 S1                 0.0000
     44 ****         5.8341  -0.7288   0.3201 H              1 S1                 0.0000
     45 ****         5.5312  -1.4548   1.8943 H              1 S1                 0.0000
     46 ****         6.1701  -2.8777  -0.6896 H              1 S1                 0.0000
     47 ****         6.7086  -3.2703   0.9437 H              1 S1                 0.0000
     48 ****         2.7133  -3.5050   0.2773 H              1 S1                 0.0000
     49 ****         2.4719  -3.0582   2.7572 H              1 S1                 0.0000
     50 ****         4.2138  -3.1864   2.9444 H              1 S1                 0.0000
     51 ****         3.2720  -4.5842   2.4519 H              1 S1                 0.0000
     52 ****        -4.1960   1.5241  -1.1321 H              1 S1                 0.0000
     53 ****        -2.6362   3.5215  -1.4549 H              1 S1                 0.0000
     54 ****        -3.9971   3.6632  -0.3891 H              1 S1                 0.0000
     55 ****        -1.1052   3.3086   0.5289 H              1 S1                 0.0000
     56 ****        -2.1203   4.7179   0.6931 H              1 S1                 0.0000
     57 ****        -0.8417   3.3478   3.0766 H              1 S1                 0.0000
     58 ****        -2.3160   3.3082   4.0515 H              1 S1                 0.0000
     59 ****        -1.9236   4.7461   3.1134 H              1 S1                 0.0000
     60 ****        -1.6848   1.2342   1.8781 H              1 S1                 0.0000
     61 ****        -3.0666   1.2910   2.9415 H              1 S1                 0.0000
     62 ****        -4.6351   1.3963   1.1090 H              1 S1                 0.0000
     63 ****        -3.6252   0.0053   0.8744 H              1 S1                 0.0000
     64 ****        -3.5901   3.4387   2.0565 H              1 S1                 0.0000
     65 ****        -0.7957   2.5898  -2.2792 LP             1 S1                 0.0000
     66 ****         2.7778   1.6656  -0.4997 LP             1 S1                 0.0000
     67 ****        -1.4540  -1.3792   0.7803 LP             1 S1                 0.0000
     68 ****         3.9453  -0.5168  -1.0780 LP             1 S1                 0.0000
     69 ****         2.6587  -1.5213  -1.0307 LP             1 S1                 0.0000
     70 ****         4.9705  -4.5238   1.1391 LP             1 S1                 0.0000
     71 ****         4.6059  -4.2575  -0.4302 LP             1 S1                 0.0000
@<TRIPOS>BOND
    1    1    2 1     
    2    1   30 1     
    3    1   31 1     
    4    1   32 1     
    5    2    3 1     
    6    2    4 1     
    7    2   33 1     
    8    3   34 1     
    9    3   35 1     
   10    3   36 1     
   11    4    5 1     
   12    4   37 1     
   13    4   38 1     
   14    5    6 1     
   15    5   23 1     
   16    6   11 ar    
   17    6    7 ar    
   18    7    8 ar    
   19    8    9 ar    
   20    8   39 1     
   21    9   10 ar    
   22   10   14 1     
   23   10   11 ar    
   24   11   12 1     
   25   12   13 2     
   26   13   14 1     
   27   13   40 1     
   28   14   15 1     
   29   15   16 1     
   30   15   41 1     
   31   15   42 1     
   32   16   21 1     
   33   16   17 1     
   34   16   18 1     
   35   17   43 1     
   36   18   19 1     
   37   18   44 1     
   38   18   45 1     
   39   19   20 1     
   40   19   46 1     
   41   19   47 1     
   42   20   21 1     
   43   21   22 1     
   44   21   48 1     
   45   22   49 1     
   46   22   50 1     
   47   22   51 1     
   48   23   29 1     
   49   23   24 1     
   50   23   52 1     
   51   24   25 1     
   52   24   53 1     
   53   24   54 1     
   54   25   26 1     
   55   25   55 1     
   56   25   56 1     
   57   26   27 1     
   58   26   28 1     
   59   26   64 1     
   60   27   57 1     
   61   27   58 1     
   62   27   59 1     
   63   28   29 1     
   64   28   60 1     
   65   28   61 1     
   66   29   62 1     
   67   29   63 1     
   68    7   65 1     
   69    9   66 1     
   70   12   67 1     
   71   17   68 1     
   72   17   69 1     
   73   20   70 1     
   74   20   71 1     
@<TRIPOS>SUBSTRUCTURE
      1 S1             1
@<TRIPOS>SET
LONE_PAIRS      STATIC     ATOMS    <user>   **** ""
7 65 66 67 68 69 70 71
DONOR_HYDROGENS      STATIC     ATOMS    <user>   **** ""
2 43 64
ATOM$BLUE        STATIC     ATOMS    COLORGROUP SYSTEM
7 65 66 67 68 69 70 71
ATOM$RED        STATIC     ATOMS    COLORGROUP SYSTEM
2 43 64
