#       Name:                AV-unprocessed.smi:2500
#       Creating user name   scv26
#       Creation time:       Fri Mar 27 13:46:52 2020


#       File generated by GOLD software.
#

@<TRIPOS>MOLECULE
AV-unprocessed.smi:2500
    43    44     1
SMALL
NO_CHARGES


@<TRIPOS>ATOM
      1 ****        -5.9865   1.2833  -1.4564 C.3            1 S1                 0.0000
      2 ****        -4.5532   1.4827  -1.3104 N.am           1 S1                 0.0000
      3 ****        -3.9363   2.6723  -1.4058 C.2            1 S1                 0.0000
      4 ****        -4.5385   3.7232  -1.6309 O.2            1 S1                 0.0000
      5 ****        -2.4394   2.6573  -1.2294 C.ar           1 S1                 0.0000
      6 ****        -1.6951   3.8475  -1.3888 C.ar           1 S1                 0.0000
      7 ****        -0.3005   3.8018  -1.2135 C.ar           1 S1                 0.0000
      8 ****         0.3042   2.5748  -0.8846 C.ar           1 S1                 0.0000
      9 ****        -0.5010   1.4246  -0.7410 C.ar           1 S1                 0.0000
     10 ****         0.1964   0.2362  -0.4005 N.am           1 S1                 0.0000
     11 ****        -0.3027  -1.0041  -0.2263 C.2            1 S1                 0.0000
     12 ****        -1.4763  -1.3195  -0.4165 O.2            1 S1                 0.0000
     13 ****         0.6049  -1.9151   0.1721 N.am           1 S1                 0.0000
     14 ****         0.4106  -3.3396   0.4526 C.3            1 S1                 0.0000
     15 ****         0.3160  -4.1374  -0.8430 C.2            1 S1                 0.0000
     16 ****         0.9576  -5.2992  -1.0547 C.2            1 S1                 0.0000
     17 ****         1.8457  -5.9650  -0.0208 C.3            1 S1                 0.0000
     18 ****         1.6360  -5.3775   1.3860 C.3            1 S1                 0.0000
     19 ****         1.5593  -3.8435   1.3533 C.3            1 S1                 0.0000
     20 ****        -1.8438   1.4821  -0.9126 N.ar           1 S1                 0.0000
     21 ****        -6.2275   0.2263  -1.3443 H              1 S1                 0.0000
     22 ****        -6.3255   1.6076  -2.4408 H              1 S1                 0.0000
     23 ****        -6.5352   1.8411  -0.6965 H              1 S1                 0.0000
     24 ****        -3.9850   0.6683  -1.1238 H              1 S1                 0.0000
     25 ****        -2.1748   4.7822  -1.6402 H              1 S1                 0.0000
     26 ****         0.2963   4.6945  -1.3284 H              1 S1                 0.0000
     27 ****         1.3743   2.5222  -0.7450 H              1 S1                 0.0000
     28 ****         1.1878   0.3436  -0.2446 H              1 S1                 0.0000
     29 ****         1.5527  -1.5811   0.2719 H              1 S1                 0.0000
     30 ****        -0.5275  -3.4848   0.9907 H              1 S1                 0.0000
     31 ****        -0.3067  -3.7299  -1.6261 H              1 S1                 0.0000
     32 ****         0.8611  -5.7987  -2.0075 H              1 S1                 0.0000
     33 ****         1.6459  -7.0367  -0.0100 H              1 S1                 0.0000
     34 ****         2.8826  -5.8373  -0.3333 H              1 S1                 0.0000
     35 ****         0.7104  -5.7708   1.8087 H              1 S1                 0.0000
     36 ****         2.4385  -5.7028   2.0485 H              1 S1                 0.0000
     37 ****         2.5126  -3.4587   0.9868 H              1 S1                 0.0000
     38 ****         1.4395  -3.4509   2.3639 H              1 S1                 0.0000
     39 ****        -5.5312   3.7147  -1.7515 LP             1 S1                 0.0000
     40 ****        -4.0347   4.5848  -1.6930 LP             1 S1                 0.0000
     41 ****        -2.1354  -0.6325  -0.7226 LP             1 S1                 0.0000
     42 ****        -1.7714  -2.2629  -0.2651 LP             1 S1                 0.0000
     43 ****        -2.3964   0.6556  -0.8053 LP             1 S1                 0.0000
@<TRIPOS>BOND
    1    1    2 1     
    2    1   21 1     
    3    1   22 1     
    4    1   23 1     
    5    2    3 am    
    6    2   24 1     
    7    3    4 2     
    8    3    5 1     
    9    5   20 ar    
   10    5    6 ar    
   11    6    7 ar    
   12    6   25 1     
   13    7    8 ar    
   14    7   26 1     
   15    8    9 ar    
   16    8   27 1     
   17    9   10 1     
   18    9   20 ar    
   19   10   11 am    
   20   10   28 1     
   21   11   12 2     
   22   11   13 am    
   23   13   14 1     
   24   13   29 1     
   25   14   19 1     
   26   14   15 1     
   27   14   30 1     
   28   15   16 2     
   29   15   31 1     
   30   16   17 1     
   31   16   32 1     
   32   17   18 1     
   33   17   33 1     
   34   17   34 1     
   35   18   19 1     
   36   18   35 1     
   37   18   36 1     
   38   19   37 1     
   39   19   38 1     
   40    4   39 1     
   41    4   40 1     
   42   12   41 1     
   43   12   42 1     
   44   20   43 1     
@<TRIPOS>SUBSTRUCTURE
      1 S1             1
@<TRIPOS>SET
LONE_PAIRS      STATIC     ATOMS    <user>   **** ""
5 39 40 41 42 43
DONOR_HYDROGENS      STATIC     ATOMS    <user>   **** ""
3 24 28 29
ATOM$BLUE        STATIC     ATOMS    COLORGROUP SYSTEM
5 39 40 41 42 43
ATOM$RED        STATIC     ATOMS    COLORGROUP SYSTEM
3 24 28 29
