#       Name:                AV-unprocessed.smi:520
#       Creating user name   scv26
#       Creation time:       Thu Mar 26 23:27:11 2020


#       File generated by GOLD software.
#

@<TRIPOS>MOLECULE
AV-unprocessed.smi:520
    44    46     1
SMALL
NO_CHARGES


@<TRIPOS>ATOM
      1 ****        -1.5767   4.3132  -0.3588 C.3            1 S1                 0.0000
      2 ****        -2.5289   3.2150   0.0763 C.ar           1 S1                 0.0000
      3 ****        -3.8818   3.5261   0.3278 C.ar           1 S1                 0.0000
      4 ****        -4.7771   2.5203   0.7338 C.ar           1 S1                 0.0000
      5 ****        -4.3216   1.1990   0.8884 C.ar           1 S1                 0.0000
      6 ****        -2.9727   0.8829   0.6379 C.ar           1 S1                 0.0000
      7 ****        -2.0596   1.8893   0.2298 C.ar           1 S1                 0.0000
      8 ****        -0.7252   1.6528  -0.0305 O.3            1 S1                 0.0000
      9 ****        -0.2271   0.3331   0.1350 C.3            1 S1                 0.0000
     10 ****         1.2685   0.3320  -0.2017 C.3            1 S1                 0.0000
     11 ****         1.8525  -0.9890  -0.0337 N.pl3          1 S1                 0.0000
     12 ****         2.4565  -1.5038   1.0666 C.2            1 S1                 0.0000
     13 ****         2.6021  -0.6975   2.3260 C.3            1 S1                 0.0000
     14 ****         3.0482  -1.4453   3.4393 O.3            1 S1                 0.0000
     15 ****         2.9077  -2.7546   0.9436 N.2            1 S1                 0.0000
     16 ****         2.5557  -3.0815  -0.3511 C.ar           1 S1                 0.0000
     17 ****         2.7520  -4.2742  -1.0834 C.ar           1 S1                 0.0000
     18 ****         2.2956  -4.3781  -2.4138 C.ar           1 S1                 0.0000
     19 ****         1.6380  -3.2935  -3.0298 C.ar           1 S1                 0.0000
     20 ****         1.4334  -2.0956  -2.3183 C.ar           1 S1                 0.0000
     21 ****         1.8915  -1.9973  -0.9908 C.ar           1 S1                 0.0000
     22 ****        -2.0912   5.2683  -0.4689 H              1 S1                 0.0000
     23 ****        -1.1208   4.0626  -1.3170 H              1 S1                 0.0000
     24 ****        -0.7827   4.4385   0.3777 H              1 S1                 0.0000
     25 ****        -4.2388   4.5387   0.2103 H              1 S1                 0.0000
     26 ****        -5.8121   2.7622   0.9260 H              1 S1                 0.0000
     27 ****        -5.0077   0.4252   1.1998 H              1 S1                 0.0000
     28 ****        -2.6638  -0.1431   0.7671 H              1 S1                 0.0000
     29 ****        -0.3765   0.0007   1.1634 H              1 S1                 0.0000
     30 ****        -0.7541  -0.3558  -0.5273 H              1 S1                 0.0000
     31 ****         1.4213   0.6511  -1.2333 H              1 S1                 0.0000
     32 ****         1.8028   1.0483   0.4225 H              1 S1                 0.0000
     33 ****         3.3066   0.1150   2.1458 H              1 S1                 0.0000
     34 ****         1.6422  -0.2482   2.5811 H              1 S1                 0.0000
     35 ****         3.1187  -0.8654   4.1817 H              1 S1                 0.0000
     36 ****         3.2539  -5.1107  -0.6199 H              1 S1                 0.0000
     37 ****         2.4504  -5.2946  -2.9641 H              1 S1                 0.0000
     38 ****         1.2904  -3.3818  -4.0488 H              1 S1                 0.0000
     39 ****         0.9297  -1.2632  -2.7869 H              1 S1                 0.0000
     40 ****        -0.1962   2.2464   0.5759 LP             1 S1                 0.0000
     41 ****        -0.5588   1.9143  -0.9813 LP             1 S1                 0.0000
     42 ****         3.9418  -1.8473   3.2393 LP             1 S1                 0.0000
     43 ****         2.3929  -2.1732   3.6410 LP             1 S1                 0.0000
     44 ****         3.3829  -3.3157   1.6213 LP             1 S1                 0.0000
@<TRIPOS>BOND
    1    1    2 1     
    2    1   22 1     
    3    1   23 1     
    4    1   24 1     
    5    2    7 ar    
    6    2    3 ar    
    7    3    4 ar    
    8    3   25 1     
    9    4    5 ar    
   10    4   26 1     
   11    5    6 ar    
   12    5   27 1     
   13    6    7 ar    
   14    6   28 1     
   15    7    8 1     
   16    8    9 1     
   17    9   10 1     
   18    9   29 1     
   19    9   30 1     
   20   10   11 1     
   21   10   31 1     
   22   10   32 1     
   23   11   21 1     
   24   11   12 1     
   25   12   13 1     
   26   12   15 2     
   27   13   14 1     
   28   13   33 1     
   29   13   34 1     
   30   14   35 1     
   31   15   16 1     
   32   16   21 ar    
   33   16   17 ar    
   34   17   18 ar    
   35   17   36 1     
   36   18   19 ar    
   37   18   37 1     
   38   19   20 ar    
   39   19   38 1     
   40   20   21 ar    
   41   20   39 1     
   42    8   40 1     
   43    8   41 1     
   44   14   42 1     
   45   14   43 1     
   46   15   44 1     
@<TRIPOS>SUBSTRUCTURE
      1 S1             1
@<TRIPOS>SET
LONE_PAIRS      STATIC     ATOMS    <user>   **** ""
5 40 41 42 43 44
DONOR_HYDROGENS      STATIC     ATOMS    <user>   **** ""
1 35
ATOM$BLUE        STATIC     ATOMS    COLORGROUP SYSTEM
5 40 41 42 43 44
ATOM$RED        STATIC     ATOMS    COLORGROUP SYSTEM
1 35
