AV-unprocessed.smi:2758|AV-procd|sdf|10624|dock1
  -GOLD-   2272015 73D 1   1.00000     0.00000
 Structure written by MMmdl.
 33 34  0  0  0  0  0  0  0  0  2 V2000
  152.3953  136.8562  157.4152 C   0  0  0  0  0  0  0  0  0  0  0  0
  152.4285  136.9083  155.9998 O   0  0  0  0  0  0  0  0  0  0  0  0
  153.0191  138.1028  155.5118 C   0  0  0  0  0  0  0  0  0  0  0  0
  151.9818  139.2376  155.4738 C   0  0  1  0  0  0  0  0  0  0  0  0
  150.9116  138.8672  154.6281 O   0  0  0  0  0  0  0  0  0  0  0  0
  151.4773  139.6635  156.8678 C   0  0  0  0  0  0  0  0  0  0  0  0
  151.2549  141.1131  156.9776 N   0  0  0  0  0  0  0  0  0  0  0  0
  150.4906  141.9493  156.2180 C   0  0  0  0  0  0  0  0  0  0  0  0
  149.6619  141.5728  155.0359 C   0  0  0  0  0  0  0  0  0  0  0  0
  150.6223  143.2017  156.7399 N   0  3  0  0  0  0  0  0  0  0  0  0
  151.4760  143.1660  157.8437 C   0  0  0  0  0  0  0  0  0  0  0  0
  151.9103  144.1780  158.6944 C   0  0  0  0  0  0  0  0  0  0  0  0
  152.7863  143.7988  159.7330 C   0  0  0  0  0  0  0  0  0  0  0  0
  153.1973  142.4595  159.8953 C   0  0  0  0  0  0  0  0  0  0  0  0
  152.7503  141.4422  159.0266 C   0  0  0  0  0  0  0  0  0  0  0  0
  151.8850  141.8261  158.0029 C   0  0  0  0  0  0  0  0  0  0  0  0
  152.4538  140.0962  154.9956 H   0  0  0  0  0  0  0  0  0  0  0  0
  151.9421  135.9186  157.7367 H   0  0  0  0  0  0  0  0  0  0  0  0
  151.8027  137.6749  157.8257 H   0  0  0  0  0  0  0  0  0  0  0  0
  153.4005  136.9059  157.8360 H   0  0  0  0  0  0  0  0  0  0  0  0
  153.8345  138.3875  156.1787 H   0  0  0  0  0  0  0  0  0  0  0  0
  153.4544  137.9457  154.5233 H   0  0  0  0  0  0  0  0  0  0  0  0
  151.2529  138.3263  153.9328 H   0  0  0  0  0  0  0  0  0  0  0  0
  150.5331  139.1699  157.1002 H   0  0  0  0  0  0  0  0  0  0  0  0
  152.1800  139.3616  157.6455 H   0  0  0  0  0  0  0  0  0  0  0  0
  149.2518  142.4613  154.5551 H   0  0  0  0  0  0  0  0  0  0  0  0
  148.8361  140.9323  155.3455 H   0  0  0  0  0  0  0  0  0  0  0  0
  150.2669  141.0328  154.3073 H   0  0  0  0  0  0  0  0  0  0  0  0
  151.5972  145.2046  158.5724 H   0  0  0  0  0  0  0  0  0  0  0  0
  153.1500  144.5501  160.4190 H   0  0  0  0  0  0  0  0  0  0  0  0
  153.8688  142.2070  160.7033 H   0  0  0  0  0  0  0  0  0  0  0  0
  153.0701  140.4191  159.1589 H   0  0  0  0  0  0  0  0  0  0  0  0
  150.1583  144.0202  156.3669 H   0  0  0  0  0  0  0  0  0  0  0  0
  1  2  1  0  0  0  0
  1 18  1  0  0  0  0
  1 19  1  0  0  0  0
  1 20  1  0  0  0  0
  2  3  1  0  0  0  0
  3  4  1  0  0  0  0
  3 21  1  0  0  0  0
  3 22  1  0  0  0  0
  4 17  1  0  0  0  0
  4  5  1  0  0  0  0
  4  6  1  0  0  0  0
  5 23  1  0  0  0  0
  6  7  1  0  0  0  0
  6 24  1  0  0  0  0
  6 25  1  0  0  0  0
  7 16  1  0  0  0  0
  7  8  1  0  0  0  0
  8  9  1  0  0  0  0
  8 10  2  0  0  0  0
  9 26  1  0  0  0  0
  9 27  1  0  0  0  0
  9 28  1  0  0  0  0
 10 11  1  0  0  0  0
 10 33  1  0  0  0  0
 11 16  2  0  0  0  0
 11 12  1  0  0  0  0
 12 13  2  0  0  0  0
 12 29  1  0  0  0  0
 13 14  1  0  0  0  0
 13 30  1  0  0  0  0
 14 15  2  0  0  0  0
 14 31  1  0  0  0  0
 15 16  1  0  0  0  0
 15 32  1  0  0  0  0
M  CHG  1  10   1
M  END
> <s_m_source_file>
AV-unprocessed.smi

> <i_m_source_file_index>
2758

> <i_lp_mmshare_version>
43012

> <i_f3d_flags>
0

> <s_epik_input>
W0NIM11PW0NIMl1bQ0BASF0oW09IXSlbQ0gyXW4oYyhuMSlbQ0gzXSljKGMxMilbY0hdW2NIXVtjSF1bY0hdMg==

> <s_epik_cmdline>
J2VwaWtfcHl0aG9uJywgJy1waCcsICc3LjAnLCAnLXRuJywgJzgnLCAnLW1hJywgJzIwMCcsICctbWV0YWxfYmluZGluZycsICctaW1hZScsICc8aW5maWxlLm1hZT4nLCAnLW9tYWUnLCAnPG91dGZpbGUubWFlPic=

> <r_epik_Ionization_Penalty>
0.974942

> <r_epik_Ionization_Penalty_Charging>
0.974941

> <r_epik_Ionization_Penalty_Neutral>
8.70205e-07

> <r_epik_State_Penalty>
1.02127

> <r_epik_Charging_Adjusted_Penalty>
1.99621

> <i_epik_Tot_Q>
1

> <i_epik_Tot_abs_Q>
1

> <r_epik_Metal_State_Penalty>
4.99771

> <b_epik_Metal_Only>
0

> <s_lp_Force_Field>
OPLS_2005

> <r_lp_Energy>
13.0774

> <b_lp_Chiralities_Consistent>
1

> <s_lp_Variant>
AV-unprocessed.smi:2758-3

> <Gold.Version>
5.8.1

> <Gold.Id.Protein>
6NUR|6NUR_protein|mol2

> <Gold.PLP.Fitness>
43.6396

> <Gold.PLP.PLP>
-36.0453

> <Gold.PLP.part.hbond>
-2.0000

> <Gold.PLP.part.metal>
0.0000

> <Gold.PLP.part.buried>
-3.4953

> <Gold.PLP.part.nonpolar>
-30.7029

> <Gold.PLP.part.repulsive>
0.0529

> <Gold.PLP.ligand.clash>
0.0000

> <Gold.PLP.ligand.torsion>
0.6330

> <Gold.PLP.Chemscore.Hbond>
2.9462

> <Gold.PLP.Chemscore.CHOScore>
0.0000

> <Gold.PLP.Chemscore.Metal>
0.0000

> <Gold.Chemscore.Hbonds>
donor molecule, donor type, donor heavy atom, donor atom, acceptor molecule, acceptor atom, score
      L1  H    10    33       P1  8028  2.00
      P1  H 10752 10765       L1     2  0.93

> <Gold.PLP.Chemscore.Internal.Correction>
0.0217

> <Gold.Rescore>
     Score         DG    S(hbond)    S(metal)    S(lipo)     H(rot)  DE(clash)    DE(int)     intcor
     16.47     -17.24       1.69        0.00      98.77       2.12       0.01       0.75       ----

> <Gold.Chemscore.Fitness>
16.4740

> <Gold.Chemscore.DG>
-17.2402

> <Gold.Chemscore.ZeroCoef>
-5.4800

> <Gold.Chemscore.Hbond>
1.6870

> <Gold.Chemscore.Metal>
0.0000

> <Gold.Chemscore.Lipo>
98.7703

> <Gold.Chemscore.Internal_Hbond>
0.0000

> <Gold.Chemscore.DEClash>
0.0141

> <Gold.Chemscore.DEInternal>
0.7520

> <Gold.Chemscore.Rot>
2.1213

> <Gold.Chemscore.Internal.Correction>
   9.000000E+99

> <Gold.Chemscore.Hbonds>
donor molecule, donor type, donor heavy atom, donor atom, acceptor molecule, acceptor atom, score
      L1  H    10    33       P1  8028  0.95
      P1  H 10752 10765       L1     2  0.54

> <Gold.Chemscore.Hbond.Weighted>
-5.6346

> <Gold.Chemscore.Metal.Weighted>
-0.0000

> <Gold.Chemscore.Lipo.Weighted>
-11.5561

> <Gold.Chemscore.Internal_Hbond.Weighted>
0.0000

> <Gold.Chemscore.DEClash.Weighted>
0.0141

> <Gold.Chemscore.DEInternal.Weighted>
0.7520

> <Gold.Chemscore.Rot.Weighted>
5.4306

> <Gold.Chemscore.Internal.Correction.Weighted>
   9.000000E+99

> <Gold.Protein.RotatedTorsions>
[ 6907 6896 6895 6894 ] final -129.90 input  -60.11 | X-H torsion
[ 7974 7965 7964 7962 ] final -161.11 input  175.53 | X-H torsion
[ 8008 7997 7996 7995 ] final  -81.95 input   59.86 | X-H torsion
[ 10167 10162 10161 10158 ] final -119.25 input  -65.29 | X-H torsion
[ 10718 10713 10712 10709 ] final   -8.44 input   66.30 | X-H torsion
[ 10763 10752 10751 10750 ] final -150.16 input  -60.55 | X-H torsion
[ 11005 11000 10999 10996 ] final  -63.05 input  -57.11 | X-H torsion

> <Gold.Protein.ActiveResidues>
 VAL166  LYS551  ARG553  GLY616  TRP617  ASP618  TYR619  PRO620  LYS621  CYS622 
 ASP623  PHE694  ASN695  SER759  ASP760  ASP761  ALA762  ILE779  LEU786  VAL792 
 PHE793  MET794  SER795  GLU796  ALA797  LYS798  CYS799  TRP800  GLU811  SER814 

> <Gold.Protein.RotatedAtoms>
  150.9338  133.6735  159.2804 H   0  0  0  0  0  0  0  0  0  0  0  0  # atno 6907 bound_to 6896
  151.4148  135.0988  159.9605 H   0  0  0  0  0  0  0  0  0  0  0  0  # atno 6908 bound_to 6896
  152.5038  133.8803  159.7398 H   0  0  0  0  0  0  0  0  0  0  0  0  # atno 6909 bound_to 6896
  144.7403  140.3445  143.6128 H   0  0  0  0  0  0  0  0  0  0  0  0  # atno 7974 bound_to 7965
  154.6036  140.0640  156.9401 H   0  0  0  0  0  0  0  0  0  0  0  0  # atno 8008 bound_to 7997
  155.2091  140.3321  155.4313 H   0  0  0  0  0  0  0  0  0  0  0  0  # atno 8009 bound_to 7997
  156.2333  140.1851  156.7168 H   0  0  0  0  0  0  0  0  0  0  0  0  # atno 8010 bound_to 7997
  140.0487  143.5081  152.2093 H   0  0  0  0  0  0  0  0  0  0  0  0  # atno 10167 bound_to 10162
  156.7025  130.5098  149.5913 H   0  0  0  0  0  0  0  0  0  0  0  0  # atno 10718 bound_to 10713
  154.8135  135.3291  154.7240 H   0  0  0  0  0  0  0  0  0  0  0  0  # atno 10763 bound_to 10752
  153.7885  135.6913  153.4880 H   0  0  0  0  0  0  0  0  0  0  0  0  # atno 10764 bound_to 10752
  153.1932  135.4543  155.0122 H   0  0  0  0  0  0  0  0  0  0  0  0  # atno 10765 bound_to 10752
  141.1380  133.6647  156.5622 H   0  0  0  0  0  0  0  0  0  0  0  0  # atno 11005 bound_to 11000
  145.7340  139.1744  143.2414 LP  0  0  0  0  0  0  0  0  0  0  0  0  # atno 17320 bound_to 7965
  146.1185  140.7339  142.9469 LP  0  0  0  0  0  0  0  0  0  0  0  0  # atno 17321 bound_to 7965
  139.5967  144.7569  151.3270 LP  0  0  0  0  0  0  0  0  0  0  0  0  # atno 17342 bound_to 10162
  140.7227  143.7092  150.7783 LP  0  0  0  0  0  0  0  0  0  0  0  0  # atno 17343 bound_to 10162
  156.1718  130.6442  151.0847 LP  0  0  0  0  0  0  0  0  0  0  0  0  # atno 17370 bound_to 10713
  157.6967  131.0791  150.6946 LP  0  0  0  0  0  0  0  0  0  0  0  0  # atno 17371 bound_to 10713
  140.3979  134.7382  157.4762 LP  0  0  0  0  0  0  0  0  0  0  0  0  # atno 17394 bound_to 11000
  140.0517  134.6121  155.8853 LP  0  0  0  0  0  0  0  0  0  0  0  0  # atno 17395 bound_to 11000

$$$$
