AV-unprocessed.smi:3350|AV-procd|sdf|12941|dock10
  -GOLD-   2272019373D 1   1.00000     0.00000
 Structure written by MMmdl.
 41 42  0  0  0  0  0  0  0  0  1 V2000
  151.5335  145.2704  159.3242 C   0  0  0  0  0  0  0  0  0  0  0  0
  151.8305  143.7664  159.3929 C   0  0  2  0  0  0  0  0  0  0  0  0
  153.2761  143.4985  159.8637 C   0  0  0  0  0  0  0  0  0  0  0  0
  153.5178  142.0971  160.1631 N   0  0  0  0  0  0  0  0  0  0  0  0
  153.9492  141.5350  161.3460 C   0  0  0  0  0  0  0  0  0  0  0  0
  154.0093  140.1841  161.1560 C   0  0  0  0  0  0  0  0  0  0  0  0
  153.5961  140.0145  159.8052 C   0  0  0  0  0  0  0  0  0  0  0  0
  153.3045  141.1608  159.2127 N   0  0  0  0  0  0  0  0  0  0  0  0
  151.5968  143.1712  158.0776 N   0  0  0  0  0  0  0  0  0  0  0  0
  150.6181  142.3038  157.7808 C   0  0  0  0  0  0  0  0  0  0  0  0
  149.7373  141.9587  158.5690 O   0  0  0  0  0  0  0  0  0  0  0  0
  150.7376  141.8314  156.5324 N   0  0  0  0  0  0  0  0  0  0  0  0
  149.8917  140.8020  155.9334 C   0  0  1  0  0  0  0  0  0  0  0  0
  149.2716  141.3698  154.6475 C   0  0  0  0  0  0  0  0  0  0  0  0
  150.7202  139.5254  155.6685 C   0  0  2  0  0  0  0  0  0  0  0  0
  151.6310  139.1008  156.8240 C   0  0  0  0  0  0  0  0  0  0  0  0
  152.7833  138.3735  156.1446 C   0  0  0  0  0  0  0  0  0  0  0  0
  152.5691  138.6435  154.6553 C   0  0  0  0  0  0  0  0  0  0  0  0
  151.6549  139.7272  154.6187 O   0  0  0  0  0  0  0  0  0  0  0  0
  151.6727  145.7414  160.2977 H   0  0  0  0  0  0  0  0  0  0  0  0
  150.5040  145.4544  159.0151 H   0  0  0  0  0  0  0  0  0  0  0  0
  152.1908  145.7736  158.6140 H   0  0  0  0  0  0  0  0  0  0  0  0
  151.1432  143.3361  160.1233 H   0  0  0  0  0  0  0  0  0  0  0  0
  153.9917  143.8329  159.1102 H   0  0  0  0  0  0  0  0  0  0  0  0
  153.4869  144.0719  160.7673 H   0  0  0  0  0  0  0  0  0  0  0  0
  154.1660  142.1360  162.2167 H   0  0  0  0  0  0  0  0  0  0  0  0
  154.3010  139.4315  161.8730 H   0  0  0  0  0  0  0  0  0  0  0  0
  153.4977  139.0982  159.2421 H   0  0  0  0  0  0  0  0  0  0  0  0
  152.2699  143.3878  157.3574 H   0  0  0  0  0  0  0  0  0  0  0  0
  151.5006  142.1749  155.9679 H   0  0  0  0  0  0  0  0  0  0  0  0
  149.0755  140.5606  156.6169 H   0  0  0  0  0  0  0  0  0  0  0  0
  148.5819  140.6597  154.1908 H   0  0  0  0  0  0  0  0  0  0  0  0
  150.0376  141.6108  153.9097 H   0  0  0  0  0  0  0  0  0  0  0  0
  148.7088  142.2806  154.8532 H   0  0  0  0  0  0  0  0  0  0  0  0
  150.0629  138.6976  155.3942 H   0  0  0  0  0  0  0  0  0  0  0  0
  152.0150  139.9777  157.3471 H   0  0  0  0  0  0  0  0  0  0  0  0
  151.1125  138.4772  157.5528 H   0  0  0  0  0  0  0  0  0  0  0  0
  153.7389  138.7739  156.4844 H   0  0  0  0  0  0  0  0  0  0  0  0
  152.7738  137.3034  156.3537 H   0  0  0  0  0  0  0  0  0  0  0  0
  153.4941  138.8852  154.1317 H   0  0  0  0  0  0  0  0  0  0  0  0
  152.1171  137.7782  154.1685 H   0  0  0  0  0  0  0  0  0  0  0  0
  1  2  1  0  0  0  0
  1 20  1  0  0  0  0
  1 21  1  0  0  0  0
  1 22  1  0  0  0  0
  2  3  1  0  0  0  0
  2  9  1  0  0  0  0
  2 23  1  0  0  0  0
  3  4  1  0  0  0  0
  3 24  1  0  0  0  0
  3 25  1  0  0  0  0
  4  8  1  0  0  0  0
  4  5  1  0  0  0  0
  5  6  2  0  0  0  0
  5 26  1  0  0  0  0
  6  7  1  0  0  0  0
  6 27  1  0  0  0  0
  7  8  2  0  0  0  0
  7 28  1  0  0  0  0
  9 10  1  0  0  0  0
  9 29  1  0  0  0  0
 10 11  2  0  0  0  0
 10 12  1  0  0  0  0
 12 13  1  0  0  0  0
 12 30  1  0  0  0  0
 13 14  1  0  0  0  0
 13 15  1  0  0  0  0
 13 31  1  0  0  0  0
 14 32  1  0  0  0  0
 14 33  1  0  0  0  0
 14 34  1  0  0  0  0
 15 19  1  0  0  0  0
 15 16  1  0  0  0  0
 15 35  1  0  0  0  0
 16 17  1  0  0  0  0
 16 36  1  0  0  0  0
 16 37  1  0  0  0  0
 17 18  1  0  0  0  0
 17 38  1  0  0  0  0
 17 39  1  0  0  0  0
 18 19  1  0  0  0  0
 18 40  1  0  0  0  0
 18 41  1  0  0  0  0
M  END
> <s_m_source_file>
AV-unprocessed.smi

> <i_m_source_file_index>
3350

> <i_lp_mmshare_version>
43012

> <i_f3d_flags>
0

> <s_epik_input>
bjFbY0hdW2NIXVtjSF1uMVtDSDJdW0NAQEhdKFtDSDNdKVtOSF1DKD1PKVtOSF1bQ0BIXShbQ0gzXSlbQ0BASF0yW0NIMl1bQ0gyXVtDSDJdTzI=

> <s_epik_cmdline>
J2VwaWtfcHl0aG9uJywgJy1waCcsICc3LjAnLCAnLXRuJywgJzgnLCAnLW1hJywgJzIwMCcsICctbWV0YWxfYmluZGluZycsICctaW1hZScsICc8aW5maWxlLm1hZT4nLCAnLW9tYWUnLCAnPG91dGZpbGUubWFlPic=

> <r_lp_tautomer_probability>
1

> <r_epik_Ionization_Penalty>
6.42349e-05

> <r_epik_Ionization_Penalty_Charging>
0

> <r_epik_Ionization_Penalty_Neutral>
6.42349e-05

> <r_epik_State_Penalty>
-0

> <r_epik_Charging_Adjusted_Penalty>
0

> <i_epik_Tot_Q>
0

> <i_epik_Tot_abs_Q>
0

> <r_epik_Metal_State_Penalty>
-0

> <b_epik_Metal_Only>
0

> <s_lp_Force_Field>
OPLS_2005

> <r_lp_Energy>
14.9436

> <b_lp_Chiralities_Consistent>
1

> <s_lp_Variant>
AV-unprocessed.smi:3350-3

> <Gold.Version>
5.8.1

> <Gold.Id.Protein>
6NUR|6NUR_protein|mol2

> <Gold.PLP.Fitness>
42.8688

> <Gold.PLP.PLP>
-40.3481

> <Gold.PLP.part.hbond>
-1.2640

> <Gold.PLP.part.metal>
0.0000

> <Gold.PLP.part.buried>
-6.1043

> <Gold.PLP.part.nonpolar>
-33.6155

> <Gold.PLP.part.repulsive>
0.2444

> <Gold.PLP.ligand.clash>
0.0000

> <Gold.PLP.ligand.torsion>
0.2679

> <Gold.PLP.Chemscore.Hbond>
1.0000

> <Gold.PLP.Chemscore.CHOScore>
0.0000

> <Gold.PLP.Chemscore.Metal>
0.0000

> <Gold.Chemscore.Hbonds>
donor molecule, donor type, donor heavy atom, donor atom, acceptor molecule, acceptor atom, score
      P1  H  7989  7998       L1    19  1.00

> <Gold.PLP.Chemscore.Internal.Correction>
0.0566

> <Gold.Rescore>
     Score         DG    S(hbond)    S(metal)    S(lipo)     H(rot)  DE(clash)    DE(int)     intcor
     16.34     -16.65       0.98        0.00     107.26       1.82       0.03       0.28       ----

> <Gold.Chemscore.Fitness>
16.3364

> <Gold.Chemscore.DG>
-16.6514

> <Gold.Chemscore.ZeroCoef>
-5.4800

> <Gold.Chemscore.Hbond>
0.9822

> <Gold.Chemscore.Metal>
0.0000

> <Gold.Chemscore.Lipo>
107.2575

> <Gold.Chemscore.Internal_Hbond>
0.0000

> <Gold.Chemscore.DEClash>
0.0306

> <Gold.Chemscore.DEInternal>
0.2844

> <Gold.Chemscore.Rot>
1.8197

> <Gold.Chemscore.Internal.Correction>
   9.000000E+99

> <Gold.Chemscore.Hbonds>
donor molecule, donor type, donor heavy atom, donor atom, acceptor molecule, acceptor atom, score
      P1  H  7989  7998       L1    19  0.96

> <Gold.Chemscore.Hbond.Weighted>
-3.2806

> <Gold.Chemscore.Metal.Weighted>
-0.0000

> <Gold.Chemscore.Lipo.Weighted>
-12.5491

> <Gold.Chemscore.Internal_Hbond.Weighted>
0.0000

> <Gold.Chemscore.DEClash.Weighted>
0.0306

> <Gold.Chemscore.DEInternal.Weighted>
0.2844

> <Gold.Chemscore.Rot.Weighted>
4.6583

> <Gold.Chemscore.Internal.Correction.Weighted>
   9.000000E+99

> <Gold.Protein.RotatedTorsions>
[ 6907 6896 6895 6894 ] final  139.41 input  -60.11 | X-H torsion
[ 7974 7965 7964 7962 ] final   59.05 input  175.53 | X-H torsion
[ 8008 7997 7996 7995 ] final  -33.56 input   59.86 | X-H torsion
[ 10167 10162 10161 10158 ] final  103.45 input  -65.29 | X-H torsion
[ 10718 10713 10712 10709 ] final  156.72 input   66.30 | X-H torsion
[ 10763 10752 10751 10750 ] final -178.98 input  -60.55 | X-H torsion
[ 11005 11000 10999 10996 ] final  131.29 input  -57.11 | X-H torsion

> <Gold.Protein.ActiveResidues>
 VAL166  LYS551  ARG553  GLY616  TRP617  ASP618  TYR619  PRO620  LYS621  CYS622 
 ASP623  PHE694  ASN695  SER759  ASP760  ASP761  ALA762  ILE779  LEU786  VAL792 
 PHE793  MET794  SER795  GLU796  ALA797  LYS798  CYS799  TRP800  GLU811  SER814 

> <Gold.Protein.RotatedAtoms>
  152.2552  133.5249  159.5348 H   0  0  0  0  0  0  0  0  0  0  0  0  # atno 6907 bound_to 6896
  150.7106  134.0905  159.3939 H   0  0  0  0  0  0  0  0  0  0  0  0  # atno 6908 bound_to 6896
  151.8824  135.0448  160.0541 H   0  0  0  0  0  0  0  0  0  0  0  0  # atno 6909 bound_to 6896
  145.9114  139.3657  143.0533 H   0  0  0  0  0  0  0  0  0  0  0  0  # atno 7974 bound_to 7965
  154.4145  140.1707  156.1907 H   0  0  0  0  0  0  0  0  0  0  0  0  # atno 8008 bound_to 7997
  155.9605  140.3394  155.6463 H   0  0  0  0  0  0  0  0  0  0  0  0  # atno 8009 bound_to 7997
  155.6754  140.0716  157.2495 H   0  0  0  0  0  0  0  0  0  0  0  0  # atno 8010 bound_to 7997
  139.7262  144.7047  151.0795 H   0  0  0  0  0  0  0  0  0  0  0  0  # atno 10167 bound_to 10162
  157.2012  131.0676  151.2024 H   0  0  0  0  0  0  0  0  0  0  0  0  # atno 10718 bound_to 10713
  154.5409  135.2806  155.1096 H   0  0  0  0  0  0  0  0  0  0  0  0  # atno 10763 bound_to 10752
  154.2579  135.6327  153.5267 H   0  0  0  0  0  0  0  0  0  0  0  0  # atno 10764 bound_to 10752
  152.9978  135.5598  154.5948 H   0  0  0  0  0  0  0  0  0  0  0  0  # atno 10765 bound_to 10752
  139.9721  134.9574  156.9417 H   0  0  0  0  0  0  0  0  0  0  0  0  # atno 11005 bound_to 11000
  145.8666  140.9444  143.0672 LP  0  0  0  0  0  0  0  0  0  0  0  0  # atno 17320 bound_to 7965
  144.6744  140.0600  143.7476 LP  0  0  0  0  0  0  0  0  0  0  0  0  # atno 17321 bound_to 7965
  140.7763  143.5102  150.9661 LP  0  0  0  0  0  0  0  0  0  0  0  0  # atno 17342 bound_to 10162
  139.8790  143.7096  152.3159 LP  0  0  0  0  0  0  0  0  0  0  0  0  # atno 17343 bound_to 10162
  157.3765  130.7209  149.6600 LP  0  0  0  0  0  0  0  0  0  0  0  0  # atno 17370 bound_to 10713
  155.9700  130.4184  150.4326 LP  0  0  0  0  0  0  0  0  0  0  0  0  # atno 17371 bound_to 10713
  140.5270  134.0850  155.7306 LP  0  0  0  0  0  0  0  0  0  0  0  0  # atno 17394 bound_to 11000
  141.1400  133.9154  157.2346 LP  0  0  0  0  0  0  0  0  0  0  0  0  # atno 17395 bound_to 11000

$$$$
