AV-unprocessed.smi:3181|AV-procd|sdf|12136|dock2
  -GOLD-   2272017573D 1   1.00000     0.00000
 Structure written by MMmdl.
 42 43  0  0  0  0  0  0  0  0  2 V2000
  148.8665  141.6311  156.9305 C   0  0  0  0  0  0  0  0  0  0  0  0
  150.1678  141.5853  156.1130 C   0  0  1  0  0  0  0  0  0  0  0  0
  149.9112  141.6986  154.5944 C   0  0  0  0  0  0  0  0  0  0  0  0
  149.2032  140.5528  154.0548 N   0  0  0  0  0  0  0  0  0  0  0  0
  148.0600  140.4795  153.3710 C   0  0  0  0  0  0  0  0  0  0  0  0
  147.7206  139.2450  153.0282 N   0  0  0  0  0  0  0  0  0  0  0  0
  148.7752  138.5604  153.5630 C   0  0  0  0  0  0  0  0  0  0  0  0
  149.6939  139.2984  154.1869 N   0  0  0  0  0  0  0  0  0  0  0  0
  151.0708  142.6712  156.5591 N   0  3  0  0  0  0  0  0  0  0  0  0
  151.2334  142.8246  158.0237 C   0  0  2  0  0  0  0  0  0  0  0  0
  150.2539  143.8926  158.5426 C   0  0  0  0  0  0  0  0  0  0  0  0
  150.4027  144.1180  160.0553 C   0  0  0  0  0  0  0  0  0  0  0  0
  151.8515  144.4852  160.4301 C   0  0  1  0  0  0  0  0  0  0  0  0
  151.9915  144.7966  161.9292 C   0  0  0  0  0  0  0  0  0  0  0  0
  152.8576  143.4193  159.9261 C   0  0  1  0  0  0  0  0  0  0  0  0
  152.8137  142.0893  160.7055 C   0  0  0  0  0  0  0  0  0  0  0  0
  152.6840  143.1950  158.4089 C   0  0  0  0  0  0  0  0  0  0  0  0
  148.2040  140.8031  156.6766 H   0  0  0  0  0  0  0  0  0  0  0  0
  148.3203  142.5588  156.7568 H   0  0  0  0  0  0  0  0  0  0  0  0
  149.0728  141.5609  157.9990 H   0  0  0  0  0  0  0  0  0  0  0  0
  150.6416  140.6241  156.3183 H   0  0  0  0  0  0  0  0  0  0  0  0
  149.3280  142.5949  154.3773 H   0  0  0  0  0  0  0  0  0  0  0  0
  150.8486  141.8015  154.0474 H   0  0  0  0  0  0  0  0  0  0  0  0
  147.4627  141.3443  153.1204 H   0  0  0  0  0  0  0  0  0  0  0  0
  148.8693  137.4869  153.4886 H   0  0  0  0  0  0  0  0  0  0  0  0
  151.9780  142.5454  156.1333 H   0  0  0  0  0  0  0  0  0  0  0  0
  150.9667  141.8732  158.4856 H   0  0  0  0  0  0  0  0  0  0  0  0
  150.4250  144.8355  158.0214 H   0  0  0  0  0  0  0  0  0  0  0  0
  149.2275  143.5993  158.3186 H   0  0  0  0  0  0  0  0  0  0  0  0
  149.7267  144.9147  160.3678 H   0  0  0  0  0  0  0  0  0  0  0  0
  150.0875  143.2245  160.5950 H   0  0  0  0  0  0  0  0  0  0  0  0
  152.0891  145.4118  159.9049 H   0  0  0  0  0  0  0  0  0  0  0  0
  151.6823  143.9543  162.5485 H   0  0  0  0  0  0  0  0  0  0  0  0
  151.3718  145.6493  162.2076 H   0  0  0  0  0  0  0  0  0  0  0  0
  153.0220  145.0425  162.1864 H   0  0  0  0  0  0  0  0  0  0  0  0
  153.8603  143.8239  160.0721 H   0  0  0  0  0  0  0  0  0  0  0  0
  151.8288  141.6246  160.6759 H   0  0  0  0  0  0  0  0  0  0  0  0
  153.0805  142.2309  161.7528 H   0  0  0  0  0  0  0  0  0  0  0  0
  153.5264  141.3744  160.2935 H   0  0  0  0  0  0  0  0  0  0  0  0
  153.3785  142.4210  158.0816 H   0  0  0  0  0  0  0  0  0  0  0  0
  152.9753  144.1039  157.8806 H   0  0  0  0  0  0  0  0  0  0  0  0
  150.6801  143.5373  156.2170 H   0  0  0  0  0  0  0  0  0  0  0  0
  1  2  1  0  0  0  0
  1 18  1  0  0  0  0
  1 19  1  0  0  0  0
  1 20  1  0  0  0  0
  2  3  1  0  0  0  0
  2  9  1  0  0  0  0
  2 21  1  0  0  0  0
  3  4  1  0  0  0  0
  3 22  1  0  0  0  0
  3 23  1  0  0  0  0
  4  8  1  0  0  0  0
  4  5  1  0  0  0  0
  5  6  2  0  0  0  0
  5 24  1  0  0  0  0
  6  7  1  0  0  0  0
  7  8  2  0  0  0  0
  7 25  1  0  0  0  0
  9 10  1  0  0  0  0
  9 26  1  0  0  0  0
  9 42  1  0  0  0  0
 10 17  1  0  0  0  0
 10 11  1  0  0  0  0
 10 27  1  0  0  0  0
 11 12  1  0  0  0  0
 11 28  1  0  0  0  0
 11 29  1  0  0  0  0
 12 13  1  0  0  0  0
 12 30  1  0  0  0  0
 12 31  1  0  0  0  0
 13 14  1  0  0  0  0
 13 15  1  0  0  0  0
 13 32  1  0  0  0  0
 14 33  1  0  0  0  0
 14 34  1  0  0  0  0
 14 35  1  0  0  0  0
 15 16  1  0  0  0  0
 15 17  1  0  0  0  0
 15 36  1  0  0  0  0
 16 37  1  0  0  0  0
 16 38  1  0  0  0  0
 16 39  1  0  0  0  0
 17 40  1  0  0  0  0
 17 41  1  0  0  0  0
M  CHG  1   9   1
M  END
> <s_m_source_file>
AV-unprocessed.smi

> <i_m_source_file_index>
3181

> <i_lp_mmshare_version>
43012

> <i_f3d_flags>
0

> <s_epik_input>
bjFbY0hdbltjSF1uMVtDSDJdW0NAQEhdKFtDSDNdKVtOSF1bQ0BASF0yW0NIMl1bQ0gyXVtDQEBIXShbQ0gzXSlbQ0BASF0oW0NIM10pW0NIMl0y

> <s_epik_cmdline>
J2VwaWtfcHl0aG9uJywgJy1waCcsICc3LjAnLCAnLXRuJywgJzgnLCAnLW1hJywgJzIwMCcsICctbWV0YWxfYmluZGluZycsICctaW1hZScsICc8aW5maWxlLm1hZT4nLCAnLW9tYWUnLCAnPG91dGZpbGUubWFlPic=

> <r_lp_tautomer_probability>
1

> <r_epik_Ionization_Penalty>
0.000617007

> <r_epik_Ionization_Penalty_Charging>
0.000616215

> <r_epik_Ionization_Penalty_Neutral>
7.92544e-07

> <r_epik_State_Penalty>
0.000388807

> <r_epik_Charging_Adjusted_Penalty>
0.00100502

> <i_epik_Tot_Q>
1

> <i_epik_Tot_abs_Q>
1

> <r_epik_Metal_State_Penalty>
-0

> <b_epik_Metal_Only>
0

> <s_lp_Force_Field>
OPLS_2005

> <r_lp_Energy>
21.1382

> <b_lp_Chiralities_Consistent>
1

> <s_lp_Variant>
AV-unprocessed.smi:3181-2

> <Gold.Version>
5.8.1

> <Gold.Id.Protein>
6NUR|6NUR_protein|mol2

> <Gold.PLP.Fitness>
38.8256

> <Gold.PLP.PLP>
-31.0346

> <Gold.PLP.part.hbond>
-1.0000

> <Gold.PLP.part.metal>
0.0000

> <Gold.PLP.part.buried>
1.4962

> <Gold.PLP.part.nonpolar>
-31.8100

> <Gold.PLP.part.repulsive>
0.4130

> <Gold.PLP.ligand.clash>
0.0000

> <Gold.PLP.ligand.torsion>
0.6064

> <Gold.PLP.Chemscore.Hbond>
2.0000

> <Gold.PLP.Chemscore.CHOScore>
0.9903

> <Gold.PLP.Chemscore.Metal>
0.0000

> <Gold.Chemscore.Hbonds>
donor molecule, donor type, donor heavy atom, donor atom, acceptor molecule, acceptor atom, score
      L1  H     9    42       P1  8028  1.10
      L1  C     7    25       P1  7948  1.00

> <Gold.PLP.Chemscore.Internal.Correction>
0.0328

> <Gold.Rescore>
     Score         DG    S(hbond)    S(metal)    S(lipo)     H(rot)  DE(clash)    DE(int)     intcor
     12.68     -15.19       0.97        0.00     101.40       2.11       1.82       0.69       ----

> <Gold.Chemscore.Fitness>
12.6754

> <Gold.Chemscore.DG>
-15.1887

> <Gold.Chemscore.ZeroCoef>
-5.4800

> <Gold.Chemscore.Hbond>
0.9715

> <Gold.Chemscore.Metal>
0.0000

> <Gold.Chemscore.Lipo>
101.4033

> <Gold.Chemscore.Internal_Hbond>
0.0000

> <Gold.Chemscore.DEClash>
1.8207

> <Gold.Chemscore.DEInternal>
0.6926

> <Gold.Chemscore.Rot>
2.1095

> <Gold.Chemscore.Internal.Correction>
   9.000000E+99

> <Gold.Chemscore.Hbonds>
donor molecule, donor type, donor heavy atom, donor atom, acceptor molecule, acceptor atom, score
      L1  H     9    42       P1  8028  0.53

> <Gold.Chemscore.Hbond.Weighted>
-3.2449

> <Gold.Chemscore.Metal.Weighted>
-0.0000

> <Gold.Chemscore.Lipo.Weighted>
-11.8642

> <Gold.Chemscore.Internal_Hbond.Weighted>
0.0000

> <Gold.Chemscore.DEClash.Weighted>
1.8207

> <Gold.Chemscore.DEInternal.Weighted>
0.6926

> <Gold.Chemscore.Rot.Weighted>
5.4003

> <Gold.Chemscore.Internal.Correction.Weighted>
   9.000000E+99

> <Gold.Protein.RotatedTorsions>
[ 6907 6896 6895 6894 ] final   70.14 input  -60.11 | X-H torsion
[ 7974 7965 7964 7962 ] final   40.21 input  175.53 | X-H torsion
[ 8008 7997 7996 7995 ] final  163.81 input   59.86 | X-H torsion
[ 10167 10162 10161 10158 ] final -139.70 input  -65.29 | X-H torsion
[ 10718 10713 10712 10709 ] final -169.13 input   66.30 | X-H torsion
[ 10763 10752 10751 10750 ] final  -71.44 input  -60.55 | X-H torsion
[ 11005 11000 10999 10996 ] final  105.90 input  -57.11 | X-H torsion

> <Gold.Protein.ActiveResidues>
 VAL166  LYS551  ARG553  GLY616  TRP617  ASP618  TYR619  PRO620  LYS621  CYS622 
 ASP623  PHE694  ASN695  SER759  ASP760  ASP761  ALA762  ILE779  LEU786  VAL792 
 PHE793  MET794  SER795  GLU796  ALA797  LYS798  CYS799  TRP800  GLU811  SER814 

> <Gold.Protein.RotatedAtoms>
  152.4731  134.4911  159.9695 H   0  0  0  0  0  0  0  0  0  0  0  0  # atno 6907 bound_to 6896
  151.4934  133.3514  159.2865 H   0  0  0  0  0  0  0  0  0  0  0  0  # atno 6908 bound_to 6896
  150.8753  134.8161  159.7246 H   0  0  0  0  0  0  0  0  0  0  0  0  # atno 6909 bound_to 6896
  146.0923  139.5560  142.9468 H   0  0  0  0  0  0  0  0  0  0  0  0  # atno 7974 bound_to 7965
  156.1928  140.1713  156.8057 H   0  0  0  0  0  0  0  0  0  0  0  0  # atno 8008 bound_to 7997
  154.5493  140.0721  156.8672 H   0  0  0  0  0  0  0  0  0  0  0  0  # atno 8009 bound_to 7997
  155.3060  140.3364  155.4248 H   0  0  0  0  0  0  0  0  0  0  0  0  # atno 8010 bound_to 7997
  139.8353  143.7392  152.2665 H   0  0  0  0  0  0  0  0  0  0  0  0  # atno 10167 bound_to 10162
  156.7071  130.9219  151.3085 H   0  0  0  0  0  0  0  0  0  0  0  0  # atno 10718 bound_to 10713
  154.4317  135.5962  153.6073 H   0  0  0  0  0  0  0  0  0  0  0  0  # atno 10763 bound_to 10752
  152.9799  135.5977  154.3831 H   0  0  0  0  0  0  0  0  0  0  0  0  # atno 10764 bound_to 10752
  154.3670  135.2841  155.2267 H   0  0  0  0  0  0  0  0  0  0  0  0  # atno 10765 bound_to 10752
  139.8807  134.9351  156.5585 H   0  0  0  0  0  0  0  0  0  0  0  0  # atno 11005 bound_to 11000
  145.6016  141.0354  143.2015 LP  0  0  0  0  0  0  0  0  0  0  0  0  # atno 17320 bound_to 7965
  144.7369  139.7560  143.7326 LP  0  0  0  0  0  0  0  0  0  0  0  0  # atno 17321 bound_to 7965
  139.7613  144.7505  151.0360 LP  0  0  0  0  0  0  0  0  0  0  0  0  # atno 17342 bound_to 10162
  140.7803  143.4748  151.0097 LP  0  0  0  0  0  0  0  0  0  0  0  0  # atno 17343 bound_to 10162
  157.6950  130.9273  150.0620 LP  0  0  0  0  0  0  0  0  0  0  0  0  # atno 17370 bound_to 10713
  156.1687  130.3646  149.9195 LP  0  0  0  0  0  0  0  0  0  0  0  0  # atno 17371 bound_to 10713
  140.8187  133.8371  155.8876 LP  0  0  0  0  0  0  0  0  0  0  0  0  # atno 17394 bound_to 11000
  140.9439  134.1866  157.4778 LP  0  0  0  0  0  0  0  0  0  0  0  0  # atno 17395 bound_to 11000

$$$$
