AV-unprocessed.smi:224|AV-procd|sdf|1708|dock4
  -GOLD-   2262020173D 1   1.00000     0.00000
 Structure written by MMmdl.
 56 59  0  0  0  0  0  0  0  0  2 V2000
  144.0181  132.4767  150.8730 C   0  0  0  0  0  0  0  0  0  0  0  0
  145.1866  132.7222  151.8365 C   0  0  1  0  0  0  0  0  0  0  0  0
  145.8264  131.4854  152.0784 O   0  0  0  0  0  0  0  0  0  0  0  0
  146.2149  133.7155  151.2636 C   0  0  0  0  0  0  0  0  0  0  0  0
  146.8845  134.4967  152.3415 N   0  3  2  0  0  0  0  0  0  0  0  0
  147.5947  133.5926  153.2900 C   0  0  0  0  0  0  0  0  0  0  0  0
  148.3423  134.3700  154.3809 C   0  0  0  0  0  0  0  0  0  0  0  0
  147.4232  135.2543  155.0828 N   0  0  0  0  0  0  0  0  0  0  0  0
  146.7505  134.7165  156.1351 C   0  0  0  0  0  0  0  0  0  0  0  0
  145.5020  134.2091  155.9523 N   0  0  0  0  0  0  0  0  0  0  0  0
  144.8344  133.6662  156.9743 C   0  0  0  0  0  0  0  0  0  0  0  0
  145.2191  133.5339  158.2443 N   0  0  0  0  0  0  0  0  0  0  0  0
  146.4640  134.0537  158.4411 C   0  0  0  0  0  0  0  0  0  0  0  0
  147.2921  134.6554  157.4512 C   0  0  0  0  0  0  0  0  0  0  0  0
  148.4858  135.0738  158.0276 N   0  0  0  0  0  0  0  0  0  0  0  0
  148.3727  134.7329  159.2822 C   0  0  0  0  0  0  0  0  0  0  0  0
  147.1872  134.1201  159.6194 N   0  0  0  0  0  0  0  0  0  0  0  0
  146.7977  133.6471  160.9392 C   0  0  0  0  0  0  0  0  0  0  0  0
  146.7672  134.7652  162.0070 C   0  0  1  0  0  0  0  0  0  0  0  0
  145.9427  134.3511  163.0831 O   0  0  0  0  0  0  0  0  0  0  0  0
  148.1394  135.1363  162.5622 C   0  0  0  0  0  0  0  0  0  0  0  0
  147.9875  136.6171  162.8794 C   0  0  0  0  0  0  0  0  0  0  0  0
  147.2167  137.0883  161.7876 O   0  0  0  0  0  0  0  0  0  0  0  0
  146.2316  136.1090  161.4732 C   0  0  0  0  0  0  0  0  0  0  0  0
  146.7382  136.1917  154.1981 C   0  0  0  0  0  0  0  0  0  0  0  0
  145.9995  135.4895  153.0309 C   0  0  1  0  0  0  0  0  0  0  0  0
  145.4805  136.5840  152.0753 C   0  0  0  0  0  0  0  0  0  0  0  0
  143.4774  133.4017  150.6713 H   0  0  0  0  0  0  0  0  0  0  0  0
  143.3054  131.7654  151.2920 H   0  0  0  0  0  0  0  0  0  0  0  0
  144.3638  132.0787  149.9181 H   0  0  0  0  0  0  0  0  0  0  0  0
  144.7858  133.0898  152.7810 H   0  0  0  0  0  0  0  0  0  0  0  0
  146.3333  131.2507  151.3156 H   0  0  0  0  0  0  0  0  0  0  0  0
  146.9226  133.1604  150.6525 H   0  0  0  0  0  0  0  0  0  0  0  0
  145.7280  134.4023  150.5692 H   0  0  0  0  0  0  0  0  0  0  0  0
  146.8737  132.9195  153.7573 H   0  0  0  0  0  0  0  0  0  0  0  0
  148.3039  132.9653  152.7503 H   0  0  0  0  0  0  0  0  0  0  0  0
  148.8353  133.6726  155.0566 H   0  0  0  0  0  0  0  0  0  0  0  0
  149.1331  134.9732  153.9335 H   0  0  0  0  0  0  0  0  0  0  0  0
  143.8515  133.2837  156.7413 H   0  0  0  0  0  0  0  0  0  0  0  0
  149.1527  134.9270  160.0043 H   0  0  0  0  0  0  0  0  0  0  0  0
  145.8158  133.1789  160.8584 H   0  0  0  0  0  0  0  0  0  0  0  0
  147.4882  132.8572  161.2386 H   0  0  0  0  0  0  0  0  0  0  0  0
  146.0555  134.9594  163.7976 H   0  0  0  0  0  0  0  0  0  0  0  0
  148.4454  134.5381  163.4216 H   0  0  0  0  0  0  0  0  0  0  0  0
  148.9017  135.0239  161.7906 H   0  0  0  0  0  0  0  0  0  0  0  0
  147.4398  136.7666  163.8112 H   0  0  0  0  0  0  0  0  0  0  0  0
  148.9443  137.1349  162.9512 H   0  0  0  0  0  0  0  0  0  0  0  0
  146.0768  136.0954  160.3938 H   0  0  0  0  0  0  0  0  0  0  0  0
  145.2822  136.3856  161.9344 H   0  0  0  0  0  0  0  0  0  0  0  0
  146.0525  136.8225  154.7658 H   0  0  0  0  0  0  0  0  0  0  0  0
  147.4947  136.8663  153.7949 H   0  0  0  0  0  0  0  0  0  0  0  0
  145.1441  134.9461  153.4341 H   0  0  0  0  0  0  0  0  0  0  0  0
  144.9495  137.3585  152.6298 H   0  0  0  0  0  0  0  0  0  0  0  0
  144.7774  136.2101  151.3335 H   0  0  0  0  0  0  0  0  0  0  0  0
  146.3020  137.0677  151.5457 H   0  0  0  0  0  0  0  0  0  0  0  0
  147.5970  135.0484  151.8849 H   0  0  0  0  0  0  0  0  0  0  0  0
  1  2  1  0  0  0  0
  1 28  1  0  0  0  0
  1 29  1  0  0  0  0
  1 30  1  0  0  0  0
  2  3  1  0  0  0  0
  2  4  1  0  0  0  0
  2 31  1  0  0  0  0
  3 32  1  0  0  0  0
  4  5  1  0  0  0  0
  4 33  1  0  0  0  0
  4 34  1  0  0  0  0
  5 26  1  0  0  0  0
  5  6  1  0  0  0  0
  5 56  1  0  0  0  0
  6  7  1  0  0  0  0
  6 35  1  0  0  0  0
  6 36  1  0  0  0  0
  7  8  1  0  0  0  0
  7 37  1  0  0  0  0
  7 38  1  0  0  0  0
  8  9  1  0  0  0  0
  8 25  1  0  0  0  0
  9 14  1  0  0  0  0
  9 10  2  0  0  0  0
 10 11  1  0  0  0  0
 11 12  2  0  0  0  0
 11 39  1  0  0  0  0
 12 13  1  0  0  0  0
 13 17  1  0  0  0  0
 13 14  2  0  0  0  0
 14 15  1  0  0  0  0
 15 16  2  0  0  0  0
 16 17  1  0  0  0  0
 16 40  1  0  0  0  0
 17 18  1  0  0  0  0
 18 19  1  0  0  0  0
 18 41  1  0  0  0  0
 18 42  1  0  0  0  0
 19 24  1  0  0  0  0
 19 20  1  0  0  0  0
 19 21  1  0  0  0  0
 20 43  1  0  0  0  0
 21 22  1  0  0  0  0
 21 44  1  0  0  0  0
 21 45  1  0  0  0  0
 22 23  1  0  0  0  0
 22 46  1  0  0  0  0
 22 47  1  0  0  0  0
 23 24  1  0  0  0  0
 24 48  1  0  0  0  0
 24 49  1  0  0  0  0
 25 26  1  0  0  0  0
 25 50  1  0  0  0  0
 25 51  1  0  0  0  0
 26 27  1  0  0  0  0
 26 52  1  0  0  0  0
 27 53  1  0  0  0  0
 27 54  1  0  0  0  0
 27 55  1  0  0  0  0
M  CHG  1   5   1
M  END
> <s_m_source_file>
AV-unprocessed.smi

> <i_m_source_file_index>
224

> <i_lp_mmshare_version>
43012

> <i_f3d_flags>
0

> <s_epik_input>
W0NIM11bQ0BIXShbT0hdKVtDSDJdTjFbQ0gyXVtDSDJdTihbQ0gyXVtDQEhdMVtDSDNdKWMobltjSF1uMiljKGMyMyluW2NIXW4zW0NIMl1bQ0BAXTQoW09IXSlbQ0gyXVtDSDJdT1tDSDJdNA==

> <s_epik_cmdline>
J2VwaWtfcHl0aG9uJywgJy1waCcsICc3LjAnLCAnLXRuJywgJzgnLCAnLW1hJywgJzIwMCcsICctbWV0YWxfYmluZGluZycsICctaW1hZScsICc8aW5maWxlLm1hZT4nLCAnLW9tYWUnLCAnPG91dGZpbGUubWFlPic=

> <r_lp_tautomer_probability>
1

> <r_epik_Ionization_Penalty>
0.00516958

> <r_epik_Ionization_Penalty_Charging>
0.00509693

> <r_epik_Ionization_Penalty_Neutral>
7.26542e-05

> <r_epik_State_Penalty>
-0

> <r_epik_Charging_Adjusted_Penalty>
0.00509693

> <i_epik_Tot_Q>
1

> <i_epik_Tot_abs_Q>
1

> <r_epik_Metal_State_Penalty>
-0

> <b_epik_Metal_Only>
0

> <s_lp_Force_Field>
OPLS_2005

> <r_lp_Energy>
48.4109

> <b_lp_Chiralities_Consistent>
1

> <s_lp_Variant>
AV-unprocessed.smi:224-2

> <Gold.Version>
5.8.1

> <Gold.Id.Protein>
6NUR|6NUR_protein|mol2

> <Gold.PLP.Fitness>
48.9791

> <Gold.PLP.PLP>
-35.9280

> <Gold.PLP.part.hbond>
-3.8842

> <Gold.PLP.part.metal>
0.0000

> <Gold.PLP.part.buried>
-2.8245

> <Gold.PLP.part.nonpolar>
-28.4800

> <Gold.PLP.part.repulsive>
0.1691

> <Gold.PLP.ligand.clash>
0.0000

> <Gold.PLP.ligand.torsion>
1.2156

> <Gold.PLP.Chemscore.Hbond>
3.9913

> <Gold.PLP.Chemscore.CHOScore>
0.9958

> <Gold.PLP.Chemscore.Metal>
0.0000

> <Gold.Chemscore.Hbonds>
donor molecule, donor type, donor heavy atom, donor atom, acceptor molecule, acceptor atom, score
      L1  H     5    56       P1  7948  2.00
      P1  H  6934  6947       L1    23  0.70
      L1  C    11    39       P1 10957  0.55

> <Gold.PLP.Chemscore.Internal.Correction>
0.5210

> <Gold.Rescore>
     Score         DG    S(hbond)    S(metal)    S(lipo)     H(rot)  DE(clash)    DE(int)     intcor
     10.68     -11.94       1.80        0.00      77.48       3.36       0.01       1.25       ----

> <Gold.Chemscore.Fitness>
10.6763

> <Gold.Chemscore.DG>
-11.9384

> <Gold.Chemscore.ZeroCoef>
-5.4800

> <Gold.Chemscore.Hbond>
1.7958

> <Gold.Chemscore.Metal>
0.0000

> <Gold.Chemscore.Lipo>
77.4781

> <Gold.Chemscore.Internal_Hbond>
0.0000

> <Gold.Chemscore.DEClash>
0.0121

> <Gold.Chemscore.DEInternal>
1.2500

> <Gold.Chemscore.Rot>
3.3611

> <Gold.Chemscore.Internal.Correction>
   9.000000E+99

> <Gold.Chemscore.Hbonds>
donor molecule, donor type, donor heavy atom, donor atom, acceptor molecule, acceptor atom, score
      L1  H     5    56       P1  7948  0.81
      P1  H  6934  6947       L1    23  0.66

> <Gold.Chemscore.Hbond.Weighted>
-5.9980

> <Gold.Chemscore.Metal.Weighted>
-0.0000

> <Gold.Chemscore.Lipo.Weighted>
-9.0649

> <Gold.Chemscore.Internal_Hbond.Weighted>
0.0000

> <Gold.Chemscore.DEClash.Weighted>
0.0121

> <Gold.Chemscore.DEInternal.Weighted>
1.2500

> <Gold.Chemscore.Rot.Weighted>
8.6045

> <Gold.Chemscore.Internal.Correction.Weighted>
   9.000000E+99

> <Gold.Protein.RotatedTorsions>
[ 6907 6896 6895 6894 ] final    5.29 input  -60.11 | X-H torsion
[ 7974 7965 7964 7962 ] final  -25.49 input  175.53 | X-H torsion
[ 8008 7997 7996 7995 ] final -156.95 input   59.86 | X-H torsion
[ 10167 10162 10161 10158 ] final  140.40 input  -65.29 | X-H torsion
[ 10718 10713 10712 10709 ] final -111.54 input   66.30 | X-H torsion
[ 10763 10752 10751 10750 ] final  157.07 input  -60.55 | X-H torsion
[ 11005 11000 10999 10996 ] final  -93.01 input  -57.11 | X-H torsion

> <Gold.Protein.ActiveResidues>
 VAL166  LYS551  ARG553  GLY616  TRP617  ASP618  TYR619  PRO620  LYS621  CYS622 
 ASP623  PHE694  ASN695  SER759  ASP760  ASP761  ALA762  ILE779  LEU786  VAL792 
 PHE793  MET794  SER795  GLU796  ALA797  LYS798  CYS799  TRP800  GLU811  SER814 

> <Gold.Protein.RotatedAtoms>
  151.6551  135.0996  160.0168 H   0  0  0  0  0  0  0  0  0  0  0  0  # atno 6907 bound_to 6896
  152.3979  133.6769  159.6300 H   0  0  0  0  0  0  0  0  0  0  0  0  # atno 6908 bound_to 6896
  150.7883  133.8759  159.3313 H   0  0  0  0  0  0  0  0  0  0  0  0  # atno 6909 bound_to 6896
  146.1487  140.4893  142.8620 H   0  0  0  0  0  0  0  0  0  0  0  0  # atno 7974 bound_to 7965
  155.7250  140.0795  157.2314 H   0  0  0  0  0  0  0  0  0  0  0  0  # atno 8008 bound_to 7997
  154.4040  140.1606  156.2499 H   0  0  0  0  0  0  0  0  0  0  0  0  # atno 8009 bound_to 7997
  155.9162  140.3401  155.6139 H   0  0  0  0  0  0  0  0  0  0  0  0  # atno 8010 bound_to 7997
  139.5050  144.6236  151.5991 H   0  0  0  0  0  0  0  0  0  0  0  0  # atno 10167 bound_to 10162
  156.0653  130.5873  150.8388 H   0  0  0  0  0  0  0  0  0  0  0  0  # atno 10718 bound_to 10713
  154.1944  135.2793  155.3011 H   0  0  0  0  0  0  0  0  0  0  0  0  # atno 10763 bound_to 10752
  154.5903  135.5562  153.7275 H   0  0  0  0  0  0  0  0  0  0  0  0  # atno 10764 bound_to 10752
  153.0104  135.6366  154.2083 H   0  0  0  0  0  0  0  0  0  0  0  0  # atno 10765 bound_to 10752
  141.1508  133.7859  157.0099 H   0  0  0  0  0  0  0  0  0  0  0  0  # atno 11005 bound_to 11000
  144.7878  140.5971  143.6562 LP  0  0  0  0  0  0  0  0  0  0  0  0  # atno 17320 bound_to 7965
  145.4874  139.1491  143.3728 LP  0  0  0  0  0  0  0  0  0  0  0  0  # atno 17321 bound_to 7965
  140.5946  143.9719  150.6346 LP  0  0  0  0  0  0  0  0  0  0  0  0  # atno 17342 bound_to 10162
  140.2911  143.3324  152.1062 LP  0  0  0  0  0  0  0  0  0  0  0  0  # atno 17343 bound_to 10162
  157.5691  131.0946  150.9445 LP  0  0  0  0  0  0  0  0  0  0  0  0  # atno 17370 bound_to 10713
  156.9666  130.5475  149.5288 LP  0  0  0  0  0  0  0  0  0  0  0  0  # atno 17371 bound_to 10713
  140.0884  134.9607  157.1737 LP  0  0  0  0  0  0  0  0  0  0  0  0  # atno 17394 bound_to 11000
  140.3479  134.2631  155.7202 LP  0  0  0  0  0  0  0  0  0  0  0  0  # atno 17395 bound_to 11000

$$$$
