AV-unprocessed.smi:1684|AV-procd|sdf|6756|dock2
  -GOLD-   22720 7513D 1   1.00000     0.00000
 Structure written by MMmdl.
 43 44  0  0  0  0  0  0  0  0  2 V2000
  152.5367  144.0020  161.4807 C   0  0  0  0  0  0  0  0  0  0  0  0
  152.0978  143.2710  160.2218 C   0  0  0  0  0  0  0  0  0  0  0  0
  150.9349  143.6986  159.5463 C   0  0  0  0  0  0  0  0  0  0  0  0
  150.5282  143.0207  158.3843 C   0  0  0  0  0  0  0  0  0  0  0  0
  151.3062  141.9364  157.9444 C   0  0  0  0  0  0  0  0  0  0  0  0
  152.4188  141.5209  158.5838 N   0  0  0  0  0  0  0  0  0  0  0  0
  152.8271  142.1667  159.7053 C   0  0  0  0  0  0  0  0  0  0  0  0
  153.9901  141.7820  160.4311 N   0  0  0  0  0  0  0  0  0  0  0  0
  154.7981  140.7292  160.2150 C   0  0  0  0  0  0  0  0  0  0  0  0
  154.6860  139.9219  159.2922 O   0  0  0  0  0  0  0  0  0  0  0  0
  155.7533  140.6468  161.1540 N   0  0  0  0  0  0  0  0  0  0  0  0
  156.7984  139.6242  161.2302 C   0  0  1  0  0  0  0  0  0  0  0  0
  156.1579  138.2839  161.6157 C   0  0  0  0  0  0  0  0  0  0  0  0
  157.5771  139.5099  159.8985 C   0  0  0  0  0  0  0  0  0  0  0  0
  158.2495  140.7744  159.5060 N   0  3  0  0  0  0  0  0  0  0  0  0
  159.6498  140.8762  159.9836 C   0  0  0  0  0  0  0  0  0  0  0  0
  160.2348  142.2494  159.6145 C   0  0  0  0  0  0  0  0  0  0  0  0
  160.1550  142.4373  158.2063 O   0  0  0  0  0  0  0  0  0  0  0  0
  158.8112  142.4150  157.7398 C   0  0  0  0  0  0  0  0  0  0  0  0
  158.1777  141.0483  158.0522 C   0  0  0  0  0  0  0  0  0  0  0  0
  151.8425  144.8030  161.7366 H   0  0  0  0  0  0  0  0  0  0  0  0
  153.5233  144.4450  161.3408 H   0  0  0  0  0  0  0  0  0  0  0  0
  152.5807  143.3151  162.3265 H   0  0  0  0  0  0  0  0  0  0  0  0
  150.3584  144.5357  159.9122 H   0  0  0  0  0  0  0  0  0  0  0  0
  149.6432  143.3240  157.8445 H   0  0  0  0  0  0  0  0  0  0  0  0
  151.0289  141.3869  157.0570 H   0  0  0  0  0  0  0  0  0  0  0  0
  154.2179  142.3680  161.2206 H   0  0  0  0  0  0  0  0  0  0  0  0
  155.7683  141.3570  161.8719 H   0  0  0  0  0  0  0  0  0  0  0  0
  157.4927  139.8831  162.0307 H   0  0  0  0  0  0  0  0  0  0  0  0
  156.9125  137.5028  161.7138 H   0  0  0  0  0  0  0  0  0  0  0  0
  155.4359  137.9564  160.8667 H   0  0  0  0  0  0  0  0  0  0  0  0
  155.6366  138.3571  162.5708 H   0  0  0  0  0  0  0  0  0  0  0  0
  158.3124  138.7053  159.9478 H   0  0  0  0  0  0  0  0  0  0  0  0
  156.8697  139.2249  159.1179 H   0  0  0  0  0  0  0  0  0  0  0  0
  159.6946  140.7419  161.0640 H   0  0  0  0  0  0  0  0  0  0  0  0
  160.2505  140.0819  159.5379 H   0  0  0  0  0  0  0  0  0  0  0  0
  159.7048  143.0507  160.1321 H   0  0  0  0  0  0  0  0  0  0  0  0
  161.2792  142.3081  159.9207 H   0  0  0  0  0  0  0  0  0  0  0  0
  158.2404  143.2226  158.2012 H   0  0  0  0  0  0  0  0  0  0  0  0
  158.8061  142.5953  156.6647 H   0  0  0  0  0  0  0  0  0  0  0  0
  158.6932  140.2585  157.5033 H   0  0  0  0  0  0  0  0  0  0  0  0
  157.1378  141.0447  157.7235 H   0  0  0  0  0  0  0  0  0  0  0  0
  157.7350  141.5182  159.9564 H   0  0  0  0  0  0  0  0  0  0  0  0
  1  2  1  0  0  0  0
  1 21  1  0  0  0  0
  1 22  1  0  0  0  0
  1 23  1  0  0  0  0
  2  7  1  0  0  0  0
  2  3  2  0  0  0  0
  3  4  1  0  0  0  0
  3 24  1  0  0  0  0
  4  5  2  0  0  0  0
  4 25  1  0  0  0  0
  5  6  1  0  0  0  0
  5 26  1  0  0  0  0
  6  7  2  0  0  0  0
  7  8  1  0  0  0  0
  8  9  1  0  0  0  0
  8 27  1  0  0  0  0
  9 10  2  0  0  0  0
  9 11  1  0  0  0  0
 11 12  1  0  0  0  0
 11 28  1  0  0  0  0
 12 13  1  0  0  0  0
 12 14  1  0  0  0  0
 12 29  1  0  0  0  0
 13 30  1  0  0  0  0
 13 31  1  0  0  0  0
 13 32  1  0  0  0  0
 14 15  1  0  0  0  0
 14 33  1  0  0  0  0
 14 34  1  0  0  0  0
 15 20  1  0  0  0  0
 15 16  1  0  0  0  0
 15 43  1  0  0  0  0
 16 17  1  0  0  0  0
 16 35  1  0  0  0  0
 16 36  1  0  0  0  0
 17 18  1  0  0  0  0
 17 37  1  0  0  0  0
 17 38  1  0  0  0  0
 18 19  1  0  0  0  0
 19 20  1  0  0  0  0
 19 39  1  0  0  0  0
 19 40  1  0  0  0  0
 20 41  1  0  0  0  0
 20 42  1  0  0  0  0
M  CHG  1  15   1
M  END
> <s_m_source_file>
AV-unprocessed.smi

> <i_m_source_file_index>
1684

> <i_lp_mmshare_version>
43012

> <i_f3d_flags>
0

> <s_epik_input>
W0NIM11jMVtjSF1bY0hdW2NIXW5jMVtOSF1DKD1PKVtOSF1bQ0BIXShbQ0gzXSlbQ0gyXU4yW0NIMl1bQ0gyXU9bQ0gyXVtDSDJdMg==

> <s_epik_cmdline>
J2VwaWtfcHl0aG9uJywgJy1waCcsICc3LjAnLCAnLXRuJywgJzgnLCAnLW1hJywgJzIwMCcsICctbWV0YWxfYmluZGluZycsICctaW1hZScsICc8aW5maWxlLm1hZT4nLCAnLW9tYWUnLCAnPG91dGZpbGUubWFlPic=

> <r_epik_Ionization_Penalty>
0.602571

> <r_epik_Ionization_Penalty_Charging>
0.602531

> <r_epik_Ionization_Penalty_Neutral>
4.09763e-05

> <r_epik_State_Penalty>
0.617039

> <r_epik_Charging_Adjusted_Penalty>
1.21957

> <i_epik_Tot_Q>
1

> <i_epik_Tot_abs_Q>
1

> <r_epik_Metal_State_Penalty>
0.617043

> <b_epik_Metal_Only>
0

> <s_lp_Force_Field>
OPLS_2005

> <r_lp_Energy>
24.8229

> <b_lp_Chiralities_Consistent>
1

> <s_lp_Variant>
AV-unprocessed.smi:1684-4

> <Gold.Version>
5.8.1

> <Gold.Id.Protein>
6NUR|6NUR_protein|mol2

> <Gold.PLP.Fitness>
38.1665

> <Gold.PLP.PLP>
-36.2579

> <Gold.PLP.part.hbond>
-3.8107

> <Gold.PLP.part.metal>
0.0000

> <Gold.PLP.part.buried>
-4.3420

> <Gold.PLP.part.nonpolar>
-27.9213

> <Gold.PLP.part.repulsive>
0.2062

> <Gold.PLP.ligand.clash>
0.0000

> <Gold.PLP.ligand.torsion>
0.5676

> <Gold.PLP.Chemscore.Hbond>
1.0000

> <Gold.PLP.Chemscore.CHOScore>
0.0000

> <Gold.PLP.Chemscore.Metal>
0.0000

> <Gold.Chemscore.Hbonds>
donor molecule, donor type, donor heavy atom, donor atom, acceptor molecule, acceptor atom, score
      P1  H  7997  8008       L1    10  1.00

> <Gold.PLP.Chemscore.Internal.Correction>
0.0439

> <Gold.Rescore>
     Score         DG    S(hbond)    S(metal)    S(lipo)     H(rot)  DE(clash)    DE(int)     intcor
     12.73     -16.23       0.96        0.00      97.34       1.51       0.59       2.91       ----

> <Gold.Chemscore.Fitness>
12.7281

> <Gold.Chemscore.DG>
-16.2270

> <Gold.Chemscore.ZeroCoef>
-5.4800

> <Gold.Chemscore.Hbond>
0.9621

> <Gold.Chemscore.Metal>
0.0000

> <Gold.Chemscore.Lipo>
97.3434

> <Gold.Chemscore.Internal_Hbond>
0.0000

> <Gold.Chemscore.DEClash>
0.5913

> <Gold.Chemscore.DEInternal>
2.9076

> <Gold.Chemscore.Rot>
1.5061

> <Gold.Chemscore.Internal.Correction>
   9.000000E+99

> <Gold.Chemscore.Hbonds>
donor molecule, donor type, donor heavy atom, donor atom, acceptor molecule, acceptor atom, score
      P1  H  7997  8008       L1    10  0.92

> <Gold.Chemscore.Hbond.Weighted>
-3.2136

> <Gold.Chemscore.Metal.Weighted>
-0.0000

> <Gold.Chemscore.Lipo.Weighted>
-11.3892

> <Gold.Chemscore.Internal_Hbond.Weighted>
0.0000

> <Gold.Chemscore.DEClash.Weighted>
0.5913

> <Gold.Chemscore.DEInternal.Weighted>
2.9076

> <Gold.Chemscore.Rot.Weighted>
3.8557

> <Gold.Chemscore.Internal.Correction.Weighted>
   9.000000E+99

> <Gold.Protein.RotatedTorsions>
[ 6907 6896 6895 6894 ] final  -57.94 input  -60.11 | X-H torsion
[ 7974 7965 7964 7962 ] final  102.86 input  175.53 | X-H torsion
[ 8008 7997 7996 7995 ] final -129.45 input   59.86 | X-H torsion
[ 10167 10162 10161 10158 ] final   40.85 input  -65.29 | X-H torsion
[ 10718 10713 10712 10709 ] final  149.08 input   66.30 | X-H torsion
[ 10763 10752 10751 10750 ] final -157.14 input  -60.55 | X-H torsion
[ 11005 11000 10999 10996 ] final  -38.42 input  -57.11 | X-H torsion

> <Gold.Protein.ActiveResidues>
 VAL166  LYS551  ARG553  GLY616  TRP617  ASP618  TYR619  PRO620  LYS621  CYS622 
 ASP623  PHE694  ASN695  SER759  ASP760  ASP761  ALA762  ILE779  LEU786  VAL792 
 PHE793  MET794  SER795  GLU796  ALA797  LYS798  CYS799  TRP800  GLU811  SER814 

> <Gold.Protein.RotatedAtoms>
  150.8046  134.7162  159.6631 H   0  0  0  0  0  0  0  0  0  0  0  0  # atno 6907 bound_to 6896
  152.4164  134.6030  160.0015 H   0  0  0  0  0  0  0  0  0  0  0  0  # atno 6908 bound_to 6896
  151.6257  133.3298  159.3134 H   0  0  0  0  0  0  0  0  0  0  0  0  # atno 6909 bound_to 6896
  145.3536  139.2434  143.3545 H   0  0  0  0  0  0  0  0  0  0  0  0  # atno 7974 bound_to 7965
  155.2794  140.0443  157.3014 H   0  0  0  0  0  0  0  0  0  0  0  0  # atno 8008 bound_to 7997
  154.5606  140.2345  155.8310 H   0  0  0  0  0  0  0  0  0  0  0  0  # atno 8009 bound_to 7997
  156.2044  140.3016  155.9602 H   0  0  0  0  0  0  0  0  0  0  0  0  # atno 8010 bound_to 7997
  140.3701  144.2116  150.6133 H   0  0  0  0  0  0  0  0  0  0  0  0  # atno 10167 bound_to 10162
  157.3006  131.0870  151.1393 H   0  0  0  0  0  0  0  0  0  0  0  0  # atno 10718 bound_to 10713
  154.7659  135.3131  154.8288 H   0  0  0  0  0  0  0  0  0  0  0  0  # atno 10763 bound_to 10752
  153.9036  135.6813  153.4758 H   0  0  0  0  0  0  0  0  0  0  0  0  # atno 10764 bound_to 10752
  153.1265  135.4799  154.9213 H   0  0  0  0  0  0  0  0  0  0  0  0  # atno 10765 bound_to 10752
  141.0026  133.6947  156.2051 H   0  0  0  0  0  0  0  0  0  0  0  0  # atno 11005 bound_to 11000
  146.2957  140.4157  142.8722 LP  0  0  0  0  0  0  0  0  0  0  0  0  # atno 17320 bound_to 7965
  144.8699  140.7258  143.6053 LP  0  0  0  0  0  0  0  0  0  0  0  0  # atno 17321 bound_to 7965
  140.5042  143.2309  151.8633 LP  0  0  0  0  0  0  0  0  0  0  0  0  # atno 17342 bound_to 10162
  139.4804  144.5025  151.9041 LP  0  0  0  0  0  0  0  0  0  0  0  0  # atno 17343 bound_to 10162
  157.2754  130.6724  149.6039 LP  0  0  0  0  0  0  0  0  0  0  0  0  # atno 17370 bound_to 10713
  155.9671  130.4466  150.5548 LP  0  0  0  0  0  0  0  0  0  0  0  0  # atno 17371 bound_to 10713
  140.6864  134.4713  157.5589 LP  0  0  0  0  0  0  0  0  0  0  0  0  # atno 17394 bound_to 11000
  139.9047  134.8477  156.1755 LP  0  0  0  0  0  0  0  0  0  0  0  0  # atno 17395 bound_to 11000

$$$$
