AV-unprocessed.smi:2310|AV-procd|sdf|9258|dock9
  -GOLD-   2272012483D 1   1.00000     0.00000
 Structure written by MMmdl.
 46 47  0  0  0  0  0  0  0  0  2 V2000
  145.0432  134.9756  150.7750 C   0  0  0  0  0  0  0  0  0  0  0  0
  145.7682  136.2056  151.3406 C   0  0  0  0  0  0  0  0  0  0  0  0
  144.8372  137.1965  152.0635 C   0  0  1  0  0  0  0  0  0  0  0  0
  144.2756  136.5931  153.3603 C   0  0  0  0  0  0  0  0  0  0  0  0
  143.2267  135.5874  153.1268 C   0  0  0  0  0  0  0  0  0  0  0  0
  142.4034  134.7955  152.9439 N   0  0  0  0  0  0  0  0  0  0  0  0
  145.5575  138.4334  152.3678 N   0  0  0  0  0  0  0  0  0  0  0  0
  146.5973  138.5495  153.2065 C   0  0  0  0  0  0  0  0  0  0  0  0
  147.0772  137.6063  153.8348 O   0  0  0  0  0  0  0  0  0  0  0  0
  147.0224  139.8224  153.2783 N   0  0  0  0  0  0  0  0  0  0  0  0
  148.0604  140.3574  154.0907 C   0  0  0  0  0  0  0  0  0  0  0  0
  149.2398  139.6397  154.4084 C   0  0  0  0  0  0  0  0  0  0  0  0
  150.2280  140.2405  155.2136 C   0  0  0  0  0  0  0  0  0  0  0  0
  150.0386  141.5574  155.6925 C   0  0  0  0  0  0  0  0  0  0  0  0
  150.9813  142.2199  156.5025 N   0  0  0  0  0  0  0  0  0  0  0  0
  151.4095  141.6599  157.7740 C   0  0  0  0  0  0  0  0  0  0  0  0
  152.2469  142.7612  158.4228 C   0  0  0  0  0  0  0  0  0  0  0  0
  151.5885  144.0425  157.9124 C   0  0  0  0  0  0  0  0  0  0  0  0
  151.0945  143.6732  156.5090 C   0  0  0  0  0  0  0  0  0  0  0  0
  148.9076  142.2140  155.3418 N   0  3  0  0  0  0  0  0  0  0  0  0
  147.9321  141.6818  154.5720 C   0  0  0  0  0  0  0  0  0  0  0  0
  146.7252  142.5523  154.2725 C   0  0  0  0  0  0  0  0  0  0  0  0
  145.7528  134.2838  150.3209 H   0  0  0  0  0  0  0  0  0  0  0  0
  144.3188  135.2523  150.0087 H   0  0  0  0  0  0  0  0  0  0  0  0
  144.5114  134.4375  151.5602 H   0  0  0  0  0  0  0  0  0  0  0  0
  146.5357  135.8659  152.0370 H   0  0  0  0  0  0  0  0  0  0  0  0
  146.2968  136.7159  150.5345 H   0  0  0  0  0  0  0  0  0  0  0  0
  143.9930  137.3985  151.4015 H   0  0  0  0  0  0  0  0  0  0  0  0
  145.0701  136.1038  153.9242 H   0  0  0  0  0  0  0  0  0  0  0  0
  143.8612  137.3720  154.0011 H   0  0  0  0  0  0  0  0  0  0  0  0
  145.2321  139.2681  151.9023 H   0  0  0  0  0  0  0  0  0  0  0  0
  146.4791  140.5012  152.7652 H   0  0  0  0  0  0  0  0  0  0  0  0
  149.4121  138.6407  154.0384 H   0  0  0  0  0  0  0  0  0  0  0  0
  151.1212  139.6811  155.4490 H   0  0  0  0  0  0  0  0  0  0  0  0
  150.5344  141.4329  158.3849 H   0  0  0  0  0  0  0  0  0  0  0  0
  151.9867  140.7447  157.6389 H   0  0  0  0  0  0  0  0  0  0  0  0
  152.2669  142.6938  159.5109 H   0  0  0  0  0  0  0  0  0  0  0  0
  153.2754  142.7070  158.0625 H   0  0  0  0  0  0  0  0  0  0  0  0
  150.7365  144.2896  158.5472 H   0  0  0  0  0  0  0  0  0  0  0  0
  152.2643  144.8983  157.9128 H   0  0  0  0  0  0  0  0  0  0  0  0
  151.8216  143.9709  155.7529 H   0  0  0  0  0  0  0  0  0  0  0  0
  150.1488  144.1690  156.2870 H   0  0  0  0  0  0  0  0  0  0  0  0
  145.8175  142.0862  154.6566 H   0  0  0  0  0  0  0  0  0  0  0  0
  146.6132  142.6901  153.1968 H   0  0  0  0  0  0  0  0  0  0  0  0
  146.8201  143.5372  154.7307 H   0  0  0  0  0  0  0  0  0  0  0  0
  148.7825  143.1682  155.6798 H   0  0  0  0  0  0  0  0  0  0  0  0
  1  2  1  0  0  0  0
  1 23  1  0  0  0  0
  1 24  1  0  0  0  0
  1 25  1  0  0  0  0
  2  3  1  0  0  0  0
  2 26  1  0  0  0  0
  2 27  1  0  0  0  0
  3  4  1  0  0  0  0
  3  7  1  0  0  0  0
  3 28  1  0  0  0  0
  4  5  1  0  0  0  0
  4 29  1  0  0  0  0
  4 30  1  0  0  0  0
  5  6  3  0  0  0  0
  7  8  1  0  0  0  0
  7 31  1  0  0  0  0
  8  9  2  0  0  0  0
  8 10  1  0  0  0  0
 10 11  1  0  0  0  0
 10 32  1  0  0  0  0
 11 21  1  0  0  0  0
 11 12  2  0  0  0  0
 12 13  1  0  0  0  0
 12 33  1  0  0  0  0
 13 14  2  0  0  0  0
 13 34  1  0  0  0  0
 14 15  1  0  0  0  0
 14 20  1  0  0  0  0
 15 19  1  0  0  0  0
 15 16  1  0  0  0  0
 16 17  1  0  0  0  0
 16 35  1  0  0  0  0
 16 36  1  0  0  0  0
 17 18  1  0  0  0  0
 17 37  1  0  0  0  0
 17 38  1  0  0  0  0
 18 19  1  0  0  0  0
 18 39  1  0  0  0  0
 18 40  1  0  0  0  0
 19 41  1  0  0  0  0
 19 42  1  0  0  0  0
 20 21  2  0  0  0  0
 20 46  1  0  0  0  0
 21 22  1  0  0  0  0
 22 43  1  0  0  0  0
 22 44  1  0  0  0  0
 22 45  1  0  0  0  0
M  CHG  1  20   1
M  END
> <s_m_source_file>
AV-unprocessed.smi

> <i_m_source_file_index>
2310

> <i_lp_mmshare_version>
43012

> <i_f3d_flags>
0

> <s_epik_input>
TiNDW0NIMl1bQ0BASF0oW0NIMl1bQ0gzXSlbTkhdQyg9TylbTkhdYzFbY0hdW2NIXWMobmMxW0NIM10pTjJbQ0gyXVtDSDJdW0NIMl1bQ0gyXTI=

> <s_epik_cmdline>
J2VwaWtfcHl0aG9uJywgJy1waCcsICc3LjAnLCAnLXRuJywgJzgnLCAnLW1hJywgJzIwMCcsICctbWV0YWxfYmluZGluZycsICctaW1hZScsICc8aW5maWxlLm1hZT4nLCAnLW9tYWUnLCAnPG91dGZpbGUubWFlPic=

> <r_lp_tautomer_probability>
0.999994

> <r_epik_Ionization_Penalty>
0.577302

> <r_epik_Ionization_Penalty_Charging>
0.577278

> <r_epik_Ionization_Penalty_Neutral>
2.39253e-05

> <r_epik_State_Penalty>
0.589738

> <r_epik_Charging_Adjusted_Penalty>
1.16702

> <i_epik_Tot_Q>
1

> <i_epik_Tot_abs_Q>
1

> <r_epik_Metal_State_Penalty>
0.784556

> <b_epik_Metal_Only>
0

> <s_lp_Force_Field>
OPLS_2005

> <r_lp_Energy>
35.6243

> <b_lp_Chiralities_Consistent>
1

> <s_lp_Variant>
AV-unprocessed.smi:2310-4

> <Gold.Version>
5.8.1

> <Gold.Id.Protein>
6NUR|6NUR_protein|mol2

> <Gold.PLP.Fitness>
45.4897

> <Gold.PLP.PLP>
-39.7478

> <Gold.PLP.part.hbond>
-2.8703

> <Gold.PLP.part.metal>
0.0000

> <Gold.PLP.part.buried>
-0.4506

> <Gold.PLP.part.nonpolar>
-38.3375

> <Gold.PLP.part.repulsive>
0.8934

> <Gold.PLP.ligand.clash>
0.0000

> <Gold.PLP.ligand.torsion>
1.0920

> <Gold.PLP.Chemscore.Hbond>
2.5600

> <Gold.PLP.Chemscore.CHOScore>
0.0000

> <Gold.PLP.Chemscore.Metal>
0.0000

> <Gold.Chemscore.Hbonds>
donor molecule, donor type, donor heavy atom, donor atom, acceptor molecule, acceptor atom, score
      L1  H     7    31       P1 10175  0.56
      L1  H    20    46       P1  8028  2.00

> <Gold.PLP.Chemscore.Internal.Correction>
0.2459

> <Gold.Rescore>
     Score         DG    S(hbond)    S(metal)    S(lipo)     H(rot)  DE(clash)    DE(int)     intcor
     13.28     -18.42       1.77        0.00      92.26       1.47       1.51       3.63       ----

> <Gold.Chemscore.Fitness>
13.2826

> <Gold.Chemscore.DG>
-18.4209

> <Gold.Chemscore.ZeroCoef>
-5.4800

> <Gold.Chemscore.Hbond>
1.7686

> <Gold.Chemscore.Metal>
0.0000

> <Gold.Chemscore.Lipo>
92.2588

> <Gold.Chemscore.Internal_Hbond>
0.0000

> <Gold.Chemscore.DEClash>
1.5081

> <Gold.Chemscore.DEInternal>
3.6301

> <Gold.Chemscore.Rot>
1.4690

> <Gold.Chemscore.Internal.Correction>
   9.000000E+99

> <Gold.Chemscore.Hbonds>
donor molecule, donor type, donor heavy atom, donor atom, acceptor molecule, acceptor atom, score
      L1  H     7    31       P1 10175  0.51
      L1  H    20    46       P1  8028  0.94

> <Gold.Chemscore.Hbond.Weighted>
-5.9072

> <Gold.Chemscore.Metal.Weighted>
-0.0000

> <Gold.Chemscore.Lipo.Weighted>
-10.7943

> <Gold.Chemscore.Internal_Hbond.Weighted>
0.0000

> <Gold.Chemscore.DEClash.Weighted>
1.5081

> <Gold.Chemscore.DEInternal.Weighted>
3.6301

> <Gold.Chemscore.Rot.Weighted>
3.7606

> <Gold.Chemscore.Internal.Correction.Weighted>
   9.000000E+99

> <Gold.Protein.RotatedTorsions>
[ 6907 6896 6895 6894 ] final  -54.57 input  -60.11 | X-H torsion
[ 7974 7965 7964 7962 ] final  138.07 input  175.53 | X-H torsion
[ 8008 7997 7996 7995 ] final  125.09 input   59.86 | X-H torsion
[ 10167 10162 10161 10158 ] final   -1.81 input  -65.29 | X-H torsion
[ 10718 10713 10712 10709 ] final  -94.11 input   66.30 | X-H torsion
[ 10763 10752 10751 10750 ] final -114.94 input  -60.55 | X-H torsion
[ 11005 11000 10999 10996 ] final   39.37 input  -57.11 | X-H torsion

> <Gold.Protein.ActiveResidues>
 VAL166  LYS551  ARG553  GLY616  TRP617  ASP618  TYR619  PRO620  LYS621  CYS622 
 ASP623  PHE694  ASN695  SER759  ASP760  ASP761  ALA762  ILE779  LEU786  VAL792 
 PHE793  MET794  SER795  GLU796  ALA797  LYS798  CYS799  TRP800  GLU811  SER814 

> <Gold.Protein.RotatedAtoms>
  150.8327  134.7587  159.6866 H   0  0  0  0  0  0  0  0  0  0  0  0  # atno 6907 bound_to 6896
  152.4429  134.5551  159.9888 H   0  0  0  0  0  0  0  0  0  0  0  0  # atno 6908 bound_to 6896
  151.5709  133.3352  159.3025 H   0  0  0  0  0  0  0  0  0  0  0  0  # atno 6909 bound_to 6896
  144.9407  139.4934  143.5573 H   0  0  0  0  0  0  0  0  0  0  0  0  # atno 7974 bound_to 7965
  156.2823  140.2724  156.1894 H   0  0  0  0  0  0  0  0  0  0  0  0  # atno 8008 bound_to 7997
  155.0474  140.0386  157.2549 H   0  0  0  0  0  0  0  0  0  0  0  0  # atno 8009 bound_to 7997
  154.7223  140.2690  155.6535 H   0  0  0  0  0  0  0  0  0  0  0  0  # atno 8010 bound_to 7997
  140.6825  143.6731  150.8168 H   0  0  0  0  0  0  0  0  0  0  0  0  # atno 10167 bound_to 10162
  156.0022  130.5054  150.5877 H   0  0  0  0  0  0  0  0  0  0  0  0  # atno 10718 bound_to 10713
  154.8461  135.4399  154.1585 H   0  0  0  0  0  0  0  0  0  0  0  0  # atno 10763 bound_to 10752
  153.2727  135.6946  153.7470 H   0  0  0  0  0  0  0  0  0  0  0  0  # atno 10764 bound_to 10752
  153.6704  135.3420  155.3127 H   0  0  0  0  0  0  0  0  0  0  0  0  # atno 10765 bound_to 10752
  140.2034  134.3842  155.8084 H   0  0  0  0  0  0  0  0  0  0  0  0  # atno 11005 bound_to 11000
  146.3284  139.8424  142.8888 LP  0  0  0  0  0  0  0  0  0  0  0  0  # atno 17320 bound_to 7965
  145.2996  141.0190  143.3616 LP  0  0  0  0  0  0  0  0  0  0  0  0  # atno 17321 bound_to 7965
  140.0434  143.5323  152.2707 LP  0  0  0  0  0  0  0  0  0  0  0  0  # atno 17342 bound_to 10162
  139.6158  144.7619  151.2849 LP  0  0  0  0  0  0  0  0  0  0  0  0  # atno 17343 bound_to 10162
  157.3746  131.0771  151.1528 LP  0  0  0  0  0  0  0  0  0  0  0  0  # atno 17370 bound_to 10713
  157.2270  130.6508  149.5834 LP  0  0  0  0  0  0  0  0  0  0  0  0  # atno 17371 bound_to 10713
  141.2227  133.7106  156.8296 LP  0  0  0  0  0  0  0  0  0  0  0  0  # atno 17394 bound_to 11000
  140.2029  134.8884  157.3189 LP  0  0  0  0  0  0  0  0  0  0  0  0  # atno 17395 bound_to 11000

$$$$
