AV-unprocessed.smi:1377|AV-procd|sdf|5595|dock6
  -GOLD-   22720 5203D 1   1.00000     0.00000
 Structure written by MMmdl.
 28 29  0  0  0  0  0  0  0  0  2 V2000
  149.9757  135.9097  154.8070 N   0  0  0  0  0  0  0  0  0  0  0  0
  151.0136  136.6946  155.1071 C   0  0  0  0  0  0  0  0  0  0  0  0
  151.7399  136.4675  156.0738 O   0  0  0  0  0  0  0  0  0  0  0  0
  151.2473  137.8971  154.1824 C   0  0  0  0  0  0  0  0  0  0  0  0
  150.7714  139.1882  154.7890 C   0  0  0  0  0  0  0  0  0  0  0  0
  149.7515  139.9873  154.3391 C   0  0  0  0  0  0  0  0  0  0  0  0
  149.5365  141.3877  155.3493 S   0  0  0  0  0  0  0  0  0  0  0  0
  150.8474  140.8254  156.3885 C   0  0  0  0  0  0  0  0  0  0  0  0
  151.2881  141.4628  157.4843 N   0  5  0  0  0  0  0  0  0  0  0  0
  152.2764  140.9104  158.2275 C   0  0  0  0  0  0  0  0  0  0  0  0
  153.1054  140.0607  157.8963 O   0  0  0  0  0  0  0  0  0  0  0  0
  152.2931  141.4943  159.6490 C   0  0  0  0  0  0  0  0  0  0  0  0
  152.6583  142.9872  159.7629 C   0  0  0  0  0  0  0  0  0  0  0  0
  153.5403  142.6317  160.9640 C   0  0  0  0  0  0  0  0  0  0  0  0
  153.5714  141.1896  160.4495 C   0  0  0  0  0  0  0  0  0  0  0  0
  151.3779  139.6790  155.9491 N   0  0  0  0  0  0  0  0  0  0  0  0
  149.7737  135.1064  155.3842 H   0  0  0  0  0  0  0  0  0  0  0  0
  149.3959  136.1230  154.0088 H   0  0  0  0  0  0  0  0  0  0  0  0
  152.3111  137.9651  153.9522 H   0  0  0  0  0  0  0  0  0  0  0  0
  150.7396  137.7069  153.2359 H   0  0  0  0  0  0  0  0  0  0  0  0
  149.1215  139.8421  153.4747 H   0  0  0  0  0  0  0  0  0  0  0  0
  151.3890  141.2548  160.2121 H   0  0  0  0  0  0  0  0  0  0  0  0
  153.2397  143.3781  158.9262 H   0  0  0  0  0  0  0  0  0  0  0  0
  151.8189  143.6393  160.0048 H   0  0  0  0  0  0  0  0  0  0  0  0
  154.5098  143.1300  160.9817 H   0  0  0  0  0  0  0  0  0  0  0  0
  153.0157  142.7288  161.9157 H   0  0  0  0  0  0  0  0  0  0  0  0
  153.4473  140.4350  161.2264 H   0  0  0  0  0  0  0  0  0  0  0  0
  154.4413  140.9806  159.8237 H   0  0  0  0  0  0  0  0  0  0  0  0
  1  2  1  0  0  0  0
  1 17  1  0  0  0  0
  1 18  1  0  0  0  0
  2  3  2  0  0  0  0
  2  4  1  0  0  0  0
  4  5  1  0  0  0  0
  4 19  1  0  0  0  0
  4 20  1  0  0  0  0
  5 16  1  0  0  0  0
  5  6  2  0  0  0  0
  6  7  1  0  0  0  0
  6 21  1  0  0  0  0
  7  8  1  0  0  0  0
  8  9  1  0  0  0  0
  8 16  2  0  0  0  0
  9 10  1  0  0  0  0
 10 11  2  0  0  0  0
 10 12  1  0  0  0  0
 12 15  1  0  0  0  0
 12 13  1  0  0  0  0
 12 22  1  0  0  0  0
 13 14  1  0  0  0  0
 13 23  1  0  0  0  0
 13 24  1  0  0  0  0
 14 15  1  0  0  0  0
 14 25  1  0  0  0  0
 14 26  1  0  0  0  0
 15 27  1  0  0  0  0
 15 28  1  0  0  0  0
M  CHG  1   9  -1
M  END
> <s_m_source_file>
AV-unprocessed.smi

> <i_m_source_file_index>
1377

> <i_lp_mmshare_version>
43012

> <i_f3d_flags>
0

> <s_epik_input>
W05IMl1DKD1PKVtDSDJdYzFbY0hdc2MobjEpW05IXUMoPU8pW0NIXTJbQ0gyXVtDSDJdW0NIMl0y

> <s_epik_cmdline>
J2VwaWtfcHl0aG9uJywgJy1waCcsICc3LjAnLCAnLXRuJywgJzgnLCAnLW1hJywgJzIwMCcsICctbWV0YWxfYmluZGluZycsICctaW1hZScsICc8aW5maWxlLm1hZT4nLCAnLW9tYWUnLCAnPG91dGZpbGUubWFlPic=

> <r_lp_tautomer_probability>
1

> <r_epik_Ionization_Penalty>
5.13356

> <r_epik_Ionization_Penalty_Charging>
4.74096

> <r_epik_Ionization_Penalty_Neutral>
0.392596

> <r_epik_State_Penalty>
4.74076

> <r_epik_Charging_Adjusted_Penalty>
9.48173

> <i_epik_Tot_Q>
-1

> <i_epik_Tot_abs_Q>
1

> <r_epik_Metal_State_Penalty>
0.951691

> <b_epik_Metal_Only>
1

> <s_lp_Force_Field>
OPLS_2005

> <r_lp_Energy>
7.89776

> <b_lp_Chiralities_Consistent>
1

> <s_lp_Variant>
AV-unprocessed.smi:1377-2

> <Gold.Version>
5.8.1

> <Gold.Id.Protein>
6NUR|6NUR_protein|mol2

> <Gold.PLP.Fitness>
44.6970

> <Gold.PLP.PLP>
-33.3997

> <Gold.PLP.part.hbond>
-3.0000

> <Gold.PLP.part.metal>
0.0000

> <Gold.PLP.part.buried>
-1.7774

> <Gold.PLP.part.nonpolar>
-28.1488

> <Gold.PLP.part.repulsive>
0.1072

> <Gold.PLP.ligand.clash>
0.0000

> <Gold.PLP.ligand.torsion>
0.5513

> <Gold.PLP.Chemscore.Hbond>
3.0000

> <Gold.PLP.Chemscore.CHOScore>
1.0000

> <Gold.PLP.Chemscore.Metal>
0.0000

> <Gold.Chemscore.Hbonds>
donor molecule, donor type, donor heavy atom, donor atom, acceptor molecule, acceptor atom, score
      L1  H     1    18       P1  7948  0.65
      P1  H  7997  8010       L1    11  1.00
      P1  H 10752 10765       L1     3  0.80
      L1  C     6    21       P1  7957  1.00

> <Gold.PLP.Chemscore.Internal.Correction>
0.4000

> <Gold.Rescore>
     Score         DG    S(hbond)    S(metal)    S(lipo)     H(rot)  DE(clash)    DE(int)     intcor
     15.19     -17.82       2.58        0.00      73.18       1.89       0.45       2.17       ----

> <Gold.Chemscore.Fitness>
15.1938

> <Gold.Chemscore.DG>
-17.8197

> <Gold.Chemscore.ZeroCoef>
-5.4800

> <Gold.Chemscore.Hbond>
2.5824

> <Gold.Chemscore.Metal>
0.0000

> <Gold.Chemscore.Lipo>
73.1786

> <Gold.Chemscore.Internal_Hbond>
0.0000

> <Gold.Chemscore.DEClash>
0.4538

> <Gold.Chemscore.DEInternal>
2.1721

> <Gold.Chemscore.Rot>
1.8935

> <Gold.Chemscore.Internal.Correction>
   9.000000E+99

> <Gold.Chemscore.Hbonds>
donor molecule, donor type, donor heavy atom, donor atom, acceptor molecule, acceptor atom, score
      L1  H     1    18       P1  7948  0.49
      P1  H  7997  8010       L1    11  0.96
      P1  H 10752 10765       L1     3  0.11

> <Gold.Chemscore.Hbond.Weighted>
-8.6253

> <Gold.Chemscore.Metal.Weighted>
-0.0000

> <Gold.Chemscore.Lipo.Weighted>
-8.5619

> <Gold.Chemscore.Internal_Hbond.Weighted>
0.0000

> <Gold.Chemscore.DEClash.Weighted>
0.4538

> <Gold.Chemscore.DEInternal.Weighted>
2.1721

> <Gold.Chemscore.Rot.Weighted>
4.8475

> <Gold.Chemscore.Internal.Correction.Weighted>
   9.000000E+99

> <Gold.Protein.RotatedTorsions>
[ 6907 6896 6895 6894 ] final   34.62 input  -60.11 | X-H torsion
[ 7974 7965 7964 7962 ] final  -84.54 input  175.53 | X-H torsion
[ 8008 7997 7996 7995 ] final   36.04 input   59.86 | X-H torsion
[ 10167 10162 10161 10158 ] final  -50.68 input  -65.29 | X-H torsion
[ 10718 10713 10712 10709 ] final    0.09 input   66.30 | X-H torsion
[ 10763 10752 10751 10750 ] final -150.66 input  -60.55 | X-H torsion
[ 11005 11000 10999 10996 ] final  -58.09 input  -57.11 | X-H torsion

> <Gold.Protein.ActiveResidues>
 VAL166  LYS551  ARG553  GLY616  TRP617  ASP618  TYR619  PRO620  LYS621  CYS622 
 ASP623  PHE694  ASN695  SER759  ASP760  ASP761  ALA762  ILE779  LEU786  VAL792 
 PHE793  MET794  SER795  GLU796  ALA797  LYS798  CYS799  TRP800  GLU811  SER814 

> <Gold.Protein.RotatedAtoms>
  152.1049  134.9315  160.0568 H   0  0  0  0  0  0  0  0  0  0  0  0  # atno 6907 bound_to 6896
  152.0515  133.4016  159.4387 H   0  0  0  0  0  0  0  0  0  0  0  0  # atno 6908 bound_to 6896
  150.6841  134.3223  159.4835 H   0  0  0  0  0  0  0  0  0  0  0  0  # atno 6909 bound_to 6896
  145.5052  140.9544  143.1737 H   0  0  0  0  0  0  0  0  0  0  0  0  # atno 7974 bound_to 7965
  155.1809  140.3300  155.4375 H   0  0  0  0  0  0  0  0  0  0  0  0  # atno 8008 bound_to 7997
  156.2477  140.1927  156.6857 H   0  0  0  0  0  0  0  0  0  0  0  0  # atno 8009 bound_to 7997
  154.6272  140.0587  156.9674 H   0  0  0  0  0  0  0  0  0  0  0  0  # atno 8010 bound_to 7997
  140.6626  143.2648  151.4394 H   0  0  0  0  0  0  0  0  0  0  0  0  # atno 10167 bound_to 10162
  156.8283  130.5479  149.5689 H   0  0  0  0  0  0  0  0  0  0  0  0  # atno 10718 bound_to 10713
  154.8105  135.3279  154.7317 H   0  0  0  0  0  0  0  0  0  0  0  0  # atno 10763 bound_to 10752
  153.7967  135.6907  153.4867 H   0  0  0  0  0  0  0  0  0  0  0  0  # atno 10764 bound_to 10752
  153.1881  135.4561  155.0060 H   0  0  0  0  0  0  0  0  0  0  0  0  # atno 10765 bound_to 10752
  141.1193  133.6611  156.4868 H   0  0  0  0  0  0  0  0  0  0  0  0  # atno 11005 bound_to 11000
  144.7758  139.6634  143.7175 LP  0  0  0  0  0  0  0  0  0  0  0  0  # atno 17320 bound_to 7965
  146.2201  139.5620  142.9624 LP  0  0  0  0  0  0  0  0  0  0  0  0  # atno 17321 bound_to 7965
  139.5864  144.1595  152.2034 LP  0  0  0  0  0  0  0  0  0  0  0  0  # atno 17342 bound_to 10162
  140.0936  144.5600  150.7037 LP  0  0  0  0  0  0  0  0  0  0  0  0  # atno 17343 bound_to 10162
  156.0949  130.5924  150.9796 LP  0  0  0  0  0  0  0  0  0  0  0  0  # atno 17370 bound_to 10713
  157.6420  131.0909  150.8231 LP  0  0  0  0  0  0  0  0  0  0  0  0  # atno 17371 bound_to 10713
  140.4556  134.6889  157.5061 LP  0  0  0  0  0  0  0  0  0  0  0  0  # atno 17394 bound_to 11000
  140.0137  134.6651  155.9342 LP  0  0  0  0  0  0  0  0  0  0  0  0  # atno 17395 bound_to 11000

$$$$
