AV-unprocessed.smi:290|AV-procd|sdf|2220|dock1
  -GOLD-   2262022 63D 1   1.00000     0.00000
 Structure written by MMmdl.
 59 62  0  0  0  0  0  0  0  0  2 V2000
  148.6140  137.9360  156.5899 C   0  0  0  0  0  0  0  0  0  0  0  0
  148.7551  139.4657  156.5297 C   0  0  1  0  0  0  0  0  0  0  0  0
  149.5035  139.9389  157.6408 O   0  0  0  0  0  0  0  0  0  0  0  0
  149.9567  141.2404  157.3154 C   0  0  0  0  0  0  0  0  0  0  0  0
  150.4385  141.0737  155.8802 C   0  0  0  0  0  0  0  0  0  0  0  0
  149.4594  140.0607  155.2804 C   0  0  1  0  0  0  0  0  0  0  0  0
  150.2101  139.0822  154.5806 O   0  0  0  0  0  0  0  0  0  0  0  0
  148.4747  140.7260  154.2870 C   0  0  0  0  0  0  0  0  0  0  0  0
  147.3562  139.8723  153.9163 N   0  0  0  0  0  0  0  0  0  0  0  0
  147.4128  138.7036  153.1891 C   0  0  0  0  0  0  0  0  0  0  0  0
  146.2644  138.1188  152.9811 N   0  0  0  0  0  0  0  0  0  0  0  0
  145.3496  138.9422  153.6233 C   0  0  0  0  0  0  0  0  0  0  0  0
  143.9426  138.9009  153.7992 C   0  0  0  0  0  0  0  0  0  0  0  0
  143.1939  137.8970  153.2882 N   0  0  0  0  0  0  0  0  0  0  0  0
  143.4481  136.5941  153.8732 C   0  0  0  0  0  0  0  0  0  0  0  0
  142.8203  135.5869  152.9110 C   0  0  0  0  0  0  0  0  0  0  0  0
  142.6059  136.3435  151.5827 C   0  0  2  0  0  0  0  0  0  0  0  0
  143.1350  135.5627  150.4197 N   0  3  1  0  0  0  0  0  0  0  0  0
  144.5762  135.8501  150.1963 C   0  0  0  0  0  0  0  0  0  0  0  0
  142.8477  134.0996  150.4460 C   0  0  0  0  0  0  0  0  0  0  0  0
  143.5305  133.3093  149.3134 C   0  0  0  0  0  0  0  0  0  0  0  0
  143.4454  134.0223  148.0970 O   0  0  0  0  0  0  0  0  0  0  0  0
  143.2568  137.7249  151.8420 C   0  0  1  0  0  0  0  0  0  0  0  0
  142.5477  138.8999  151.1327 C   0  0  0  0  0  0  0  0  0  0  0  0
  143.3605  139.8965  154.5190 N   0  0  0  0  0  0  0  0  0  0  0  0
  144.1130  140.8763  155.0302 C   0  0  0  0  0  0  0  0  0  0  0  0
  145.4347  141.0451  154.9452 N   0  0  0  0  0  0  0  0  0  0  0  0
  146.0179  140.0448  154.2238 C   0  0  0  0  0  0  0  0  0  0  0  0
  141.5339  136.4946  151.4415 H   0  0  0  0  0  0  0  0  0  0  0  0
  144.3072  137.6925  151.5483 H   0  0  0  0  0  0  0  0  0  0  0  0
  148.0563  137.5582  155.7324 H   0  0  0  0  0  0  0  0  0  0  0  0
  148.0809  137.6328  157.4909 H   0  0  0  0  0  0  0  0  0  0  0  0
  149.5871  137.4443  156.6038 H   0  0  0  0  0  0  0  0  0  0  0  0
  147.7631  139.9081  156.6303 H   0  0  0  0  0  0  0  0  0  0  0  0
  149.1270  141.9472  157.3723 H   0  0  0  0  0  0  0  0  0  0  0  0
  150.7451  141.5747  157.9898 H   0  0  0  0  0  0  0  0  0  0  0  0
  150.4734  142.0209  155.3405 H   0  0  0  0  0  0  0  0  0  0  0  0
  151.4535  140.6729  155.8982 H   0  0  0  0  0  0  0  0  0  0  0  0
  150.2643  138.3050  155.1155 H   0  0  0  0  0  0  0  0  0  0  0  0
  148.0727  141.6449  154.7161 H   0  0  0  0  0  0  0  0  0  0  0  0
  148.9962  141.0205  153.3751 H   0  0  0  0  0  0  0  0  0  0  0  0
  148.3388  138.2964  152.8098 H   0  0  0  0  0  0  0  0  0  0  0  0
  144.5197  136.4081  153.9613 H   0  0  0  0  0  0  0  0  0  0  0  0
  143.0110  136.5208  154.8697 H   0  0  0  0  0  0  0  0  0  0  0  0
  143.4724  134.7183  152.8079 H   0  0  0  0  0  0  0  0  0  0  0  0
  141.8635  135.2327  153.2968 H   0  0  0  0  0  0  0  0  0  0  0  0
  145.1915  135.3686  150.9574 H   0  0  0  0  0  0  0  0  0  0  0  0
  144.7869  136.9186  150.2284 H   0  0  0  0  0  0  0  0  0  0  0  0
  144.9076  135.5067  149.2177 H   0  0  0  0  0  0  0  0  0  0  0  0
  143.1460  133.6924  151.4131 H   0  0  0  0  0  0  0  0  0  0  0  0
  141.7796  133.9197  150.3410 H   0  0  0  0  0  0  0  0  0  0  0  0
  144.5700  133.0731  149.5364 H   0  0  0  0  0  0  0  0  0  0  0  0
  143.0253  132.3525  149.1789 H   0  0  0  0  0  0  0  0  0  0  0  0
  144.3101  134.3213  147.8587 H   0  0  0  0  0  0  0  0  0  0  0  0
  142.5184  138.7856  150.0512 H   0  0  0  0  0  0  0  0  0  0  0  0
  143.0504  139.8455  151.3375 H   0  0  0  0  0  0  0  0  0  0  0  0
  141.5167  138.9986  151.4741 H   0  0  0  0  0  0  0  0  0  0  0  0
  143.5808  141.6331  155.5871 H   0  0  0  0  0  0  0  0  0  0  0  0
  142.6429  135.9164  149.6111 H   0  0  0  0  0  0  0  0  0  0  0  0
  1  2  1  0  0  0  0
  1 31  1  0  0  0  0
  1 32  1  0  0  0  0
  1 33  1  0  0  0  0
  2  6  1  0  0  0  0
  2  3  1  0  0  0  0
  2 34  1  0  0  0  0
  3  4  1  0  0  0  0
  4  5  1  0  0  0  0
  4 35  1  0  0  0  0
  4 36  1  0  0  0  0
  5  6  1  0  0  0  0
  5 37  1  0  0  0  0
  5 38  1  0  0  0  0
  6  7  1  0  0  0  0
  6  8  1  0  0  0  0
  7 39  1  0  0  0  0
  8  9  1  0  0  0  0
  8 40  1  0  0  0  0
  8 41  1  0  0  0  0
  9 28  1  0  0  0  0
  9 10  1  0  0  0  0
 10 11  2  0  0  0  0
 10 42  1  0  0  0  0
 11 12  1  0  0  0  0
 12 28  2  0  0  0  0
 12 13  1  0  0  0  0
 13 14  1  0  0  0  0
 13 25  2  0  0  0  0
 14 23  1  0  0  0  0
 14 15  1  0  0  0  0
 15 16  1  0  0  0  0
 15 43  1  0  0  0  0
 15 44  1  0  0  0  0
 16 17  1  0  0  0  0
 16 45  1  0  0  0  0
 16 46  1  0  0  0  0
 17 29  1  0  0  0  0
 17 18  1  0  0  0  0
 17 23  1  0  0  0  0
 18 19  1  0  0  0  0
 18 20  1  0  0  0  0
 18 59  1  0  0  0  0
 19 47  1  0  0  0  0
 19 48  1  0  0  0  0
 19 49  1  0  0  0  0
 20 21  1  0  0  0  0
 20 50  1  0  0  0  0
 20 51  1  0  0  0  0
 21 22  1  0  0  0  0
 21 52  1  0  0  0  0
 21 53  1  0  0  0  0
 22 54  1  0  0  0  0
 23 30  1  0  0  0  0
 23 24  1  0  0  0  0
 24 55  1  0  0  0  0
 24 56  1  0  0  0  0
 24 57  1  0  0  0  0
 25 26  1  0  0  0  0
 26 27  2  0  0  0  0
 26 58  1  0  0  0  0
 27 28  1  0  0  0  0
M  CHG  1  18   1
M  END
> <s_m_source_file>
AV-unprocessed.smi

> <i_m_source_file_index>
290

> <i_lp_mmshare_version>
43012

> <i_f3d_flags>
0

> <s_epik_input>
W0NIMl0xW0NIMl1PW0NAQEhdKFtDSDNdKVtDQEBdMShbT0hdKVtDSDJdbihbY0hdbjIpYyhjMjMpbltjSF1uYzNONFtDSDJdW0NIMl1bQ0BIXShbQ0BIXTRbQ0gzXSlOKFtDSDNdKVtDSDJdW0NIMl1bT0hd

> <s_epik_cmdline>
J2VwaWtfcHl0aG9uJywgJy1waCcsICc3LjAnLCAnLXRuJywgJzgnLCAnLW1hJywgJzIwMCcsICctbWV0YWxfYmluZGluZycsICctaW1hZScsICc8aW5maWxlLm1hZT4nLCAnLW9tYWUnLCAnPG91dGZpbGUubWFlPic=

> <r_lp_tautomer_probability>
1

> <r_epik_Ionization_Penalty>
0.0036983

> <r_epik_Ionization_Penalty_Charging>
0.0032725

> <r_epik_Ionization_Penalty_Neutral>
0.000425798

> <r_epik_State_Penalty>
-0

> <r_epik_Charging_Adjusted_Penalty>
0.0032725

> <i_epik_Tot_Q>
1

> <i_epik_Tot_abs_Q>
1

> <r_epik_Metal_State_Penalty>
-0

> <b_epik_Metal_Only>
0

> <s_lp_Force_Field>
OPLS_2005

> <r_lp_Energy>
65.0723

> <b_lp_Chiralities_Consistent>
1

> <s_lp_Variant>
AV-unprocessed.smi:290-6

> <Gold.Version>
5.8.1

> <Gold.Id.Protein>
6NUR|6NUR_protein|mol2

> <Gold.PLP.Fitness>
47.1398

> <Gold.PLP.PLP>
-31.7532

> <Gold.PLP.part.hbond>
-4.8864

> <Gold.PLP.part.metal>
0.0000

> <Gold.PLP.part.buried>
-3.9395

> <Gold.PLP.part.nonpolar>
-23.8485

> <Gold.PLP.part.repulsive>
0.3985

> <Gold.PLP.ligand.clash>
0.0000

> <Gold.PLP.ligand.torsion>
0.8341

> <Gold.PLP.Chemscore.Hbond>
3.9760

> <Gold.PLP.Chemscore.CHOScore>
1.5628

> <Gold.PLP.Chemscore.Metal>
0.0000

> <Gold.Chemscore.Hbonds>
donor molecule, donor type, donor heavy atom, donor atom, acceptor molecule, acceptor atom, score
      L1  H    22    54       P1  7921  1.00
      P1  H 10192 10197       L1    22  0.93
      L1  C    10    42       P1  7948  1.00
      L1  C    10    42       P1  7957  0.38

> <Gold.PLP.Chemscore.Internal.Correction>
0.4384

> <Gold.Rescore>
     Score         DG    S(hbond)    S(metal)    S(lipo)     H(rot)  DE(clash)    DE(int)     intcor
      9.48     -11.77       2.13        0.00      73.06       3.67       1.43       0.86       ----

> <Gold.Chemscore.Fitness>
9.4824

> <Gold.Chemscore.DG>
-11.7729

> <Gold.Chemscore.ZeroCoef>
-5.4800

> <Gold.Chemscore.Hbond>
2.1344

> <Gold.Chemscore.Metal>
0.0000

> <Gold.Chemscore.Lipo>
73.0629

> <Gold.Chemscore.Internal_Hbond>
0.0000

> <Gold.Chemscore.DEClash>
1.4304

> <Gold.Chemscore.DEInternal>
0.8601

> <Gold.Chemscore.Rot>
3.6658

> <Gold.Chemscore.Internal.Correction>
   9.000000E+99

> <Gold.Chemscore.Hbonds>
donor molecule, donor type, donor heavy atom, donor atom, acceptor molecule, acceptor atom, score
      L1  H    22    54       P1  7921  1.00
      P1  H 10192 10197       L1    22  0.66

> <Gold.Chemscore.Hbond.Weighted>
-7.1290

> <Gold.Chemscore.Metal.Weighted>
-0.0000

> <Gold.Chemscore.Lipo.Weighted>
-8.5484

> <Gold.Chemscore.Internal_Hbond.Weighted>
0.0000

> <Gold.Chemscore.DEClash.Weighted>
1.4304

> <Gold.Chemscore.DEInternal.Weighted>
0.8601

> <Gold.Chemscore.Rot.Weighted>
9.3844

> <Gold.Chemscore.Internal.Correction.Weighted>
   9.000000E+99

> <Gold.Protein.RotatedTorsions>
[ 6907 6896 6895 6894 ] final -152.29 input  -60.11 | X-H torsion
[ 7974 7965 7964 7962 ] final   89.44 input  175.53 | X-H torsion
[ 8008 7997 7996 7995 ] final  -52.61 input   59.86 | X-H torsion
[ 10167 10162 10161 10158 ] final  -97.26 input  -65.29 | X-H torsion
[ 10718 10713 10712 10709 ] final  124.84 input   66.30 | X-H torsion
[ 10763 10752 10751 10750 ] final  -82.11 input  -60.55 | X-H torsion
[ 11005 11000 10999 10996 ] final  -94.61 input  -57.11 | X-H torsion

> <Gold.Protein.ActiveResidues>
 VAL166  LYS551  ARG553  GLY616  TRP617  ASP618  TYR619  PRO620  LYS621  CYS622 
 ASP623  PHE694  ASN695  SER759  ASP760  ASP761  ALA762  ILE779  LEU786  VAL792 
 PHE793  MET794  SER795  GLU796  ALA797  LYS798  CYS799  TRP800  GLU811  SER814 

> <Gold.Protein.RotatedAtoms>
  151.2257  133.4478  159.2601 H   0  0  0  0  0  0  0  0  0  0  0  0  # atno 6907 bound_to 6896
  151.0843  134.9877  159.8381 H   0  0  0  0  0  0  0  0  0  0  0  0  # atno 6908 bound_to 6896
  152.5428  134.2194  159.8834 H   0  0  0  0  0  0  0  0  0  0  0  0  # atno 6909 bound_to 6896
  145.5324  139.2284  143.2611 H   0  0  0  0  0  0  0  0  0  0  0  0  # atno 7974 bound_to 7965
  154.4111  140.1219  156.5020 H   0  0  0  0  0  0  0  0  0  0  0  0  # atno 8008 bound_to 7997
  155.6886  140.3495  155.4864 H   0  0  0  0  0  0  0  0  0  0  0  0  # atno 8009 bound_to 7997
  155.9489  140.1101  157.0983 H   0  0  0  0  0  0  0  0  0  0  0  0  # atno 8010 bound_to 7997
  140.2853  143.3256  152.0400 H   0  0  0  0  0  0  0  0  0  0  0  0  # atno 10167 bound_to 10162
  157.5552  131.1092  150.8633 H   0  0  0  0  0  0  0  0  0  0  0  0  # atno 10718 bound_to 10713
  154.5717  135.5603  153.7101 H   0  0  0  0  0  0  0  0  0  0  0  0  # atno 10763 bound_to 10752
  153.0051  135.6298  154.2105 H   0  0  0  0  0  0  0  0  0  0  0  0  # atno 10764 bound_to 10752
  154.2044  135.2876  155.2959 H   0  0  0  0  0  0  0  0  0  0  0  0  # atno 10765 bound_to 10752
  141.1465  133.7968  157.0321 H   0  0  0  0  0  0  0  0  0  0  0  0  # atno 11005 bound_to 11000
  146.2035  140.6141  142.9091 LP  0  0  0  0  0  0  0  0  0  0  0  0  # atno 17320 bound_to 7965
  144.7619  140.5442  143.6729 LP  0  0  0  0  0  0  0  0  0  0  0  0  # atno 17321 bound_to 7965
  139.4952  144.6563  151.6564 LP  0  0  0  0  0  0  0  0  0  0  0  0  # atno 17342 bound_to 10162
  140.5778  143.9999  150.6251 LP  0  0  0  0  0  0  0  0  0  0  0  0  # atno 17343 bound_to 10162
  156.9146  130.5293  149.5280 LP  0  0  0  0  0  0  0  0  0  0  0  0  # atno 17370 bound_to 10713
  156.0612  130.5664  150.9197 LP  0  0  0  0  0  0  0  0  0  0  0  0  # atno 17371 bound_to 10713
  140.0747  134.9682  157.1525 LP  0  0  0  0  0  0  0  0  0  0  0  0  # atno 17394 bound_to 11000
  140.3661  134.2441  155.7182 LP  0  0  0  0  0  0  0  0  0  0  0  0  # atno 17395 bound_to 11000

$$$$
