AV-unprocessed.smi:1997|AV-procd|sdf|8088|dock10
  -GOLD-   2272010303D 1   1.00000     0.00000
 Structure written by MMmdl.
 36 38  0  0  0  0  0  0  0  0  2 V2000
  151.4822  140.6286  155.5687 O   0  0  0  0  0  0  0  0  0  0  0  0
  150.4290  140.2621  156.0958 C   0  0  0  0  0  0  0  0  0  0  0  0
  149.5070  139.4345  155.5532 N   0  5  0  0  0  0  0  0  0  0  0  0
  149.7859  138.1303  155.3935 C   0  0  0  0  0  0  0  0  0  0  0  0
  151.0308  137.6821  155.1787 N   0  0  0  0  0  0  0  0  0  0  0  0
  151.0979  136.3023  155.0491 N   0  0  0  0  0  0  0  0  0  0  0  0
  149.9002  135.7258  155.1746 C   0  0  0  0  0  0  0  0  0  0  0  0
  149.7078  134.2497  155.0729 C   0  0  0  0  0  0  0  0  0  0  0  0
  148.9324  133.6486  153.9231 C   0  0  0  0  0  0  0  0  0  0  0  0
  148.3584  133.6093  155.3164 C   0  0  0  0  0  0  0  0  0  0  0  0
  148.5805  136.8459  155.4730 S   0  0  0  0  0  0  0  0  0  0  0  0
  150.1095  140.6937  157.3255 N   0  0  0  0  0  0  0  0  0  0  0  0
  150.8947  141.6103  158.1555 C   0  0  2  0  0  0  0  0  0  0  0  0
  151.1080  142.9191  157.3536 C   0  0  0  0  0  0  0  0  0  0  0  0
  152.2276  143.8592  157.8547 C   0  0  0  0  0  0  0  0  0  0  0  0
  152.2681  144.0778  159.3811 C   0  0  0  0  0  0  0  0  0  0  0  0
  152.4951  142.8196  160.2591 C   0  0  0  0  0  0  0  0  0  0  0  0
  152.9475  141.6349  159.5298 N   0  0  0  0  0  0  0  0  0  0  0  0
  152.2610  141.0100  158.5580 C   0  0  0  0  0  0  0  0  0  0  0  0
  152.7160  140.0177  157.9902 O   0  0  0  0  0  0  0  0  0  0  0  0
  150.5925  133.7218  155.4231 H   0  0  0  0  0  0  0  0  0  0  0  0
  148.4750  134.3324  153.2107 H   0  0  0  0  0  0  0  0  0  0  0  0
  149.3016  132.7154  153.5035 H   0  0  0  0  0  0  0  0  0  0  0  0
  148.3439  132.6491  155.8276 H   0  0  0  0  0  0  0  0  0  0  0  0
  147.5099  134.2588  155.5225 H   0  0  0  0  0  0  0  0  0  0  0  0
  149.2354  140.3702  157.7124 H   0  0  0  0  0  0  0  0  0  0  0  0
  150.3171  141.8299  159.0543 H   0  0  0  0  0  0  0  0  0  0  0  0
  151.3146  142.6835  156.3082 H   0  0  0  0  0  0  0  0  0  0  0  0
  150.1659  143.4687  157.3475 H   0  0  0  0  0  0  0  0  0  0  0  0
  153.1962  143.4839  157.5211 H   0  0  0  0  0  0  0  0  0  0  0  0
  152.1166  144.8248  157.3605 H   0  0  0  0  0  0  0  0  0  0  0  0
  153.0685  144.7878  159.5915 H   0  0  0  0  0  0  0  0  0  0  0  0
  151.3512  144.5743  159.7002 H   0  0  0  0  0  0  0  0  0  0  0  0
  153.2315  143.0432  161.0314 H   0  0  0  0  0  0  0  0  0  0  0  0
  151.5799  142.5704  160.7979 H   0  0  0  0  0  0  0  0  0  0  0  0
  153.8461  141.2543  159.7882 H   0  0  0  0  0  0  0  0  0  0  0  0
  1  2  2  0  0  0  0
  2  3  1  0  0  0  0
  2 12  1  0  0  0  0
  3  4  1  0  0  0  0
  4 11  1  0  0  0  0
  4  5  2  0  0  0  0
  5  6  1  0  0  0  0
  6  7  2  0  0  0  0
  7  8  1  0  0  0  0
  7 11  1  0  0  0  0
  8 10  1  0  0  0  0
  8  9  1  0  0  0  0
  8 21  1  0  0  0  0
  9 10  1  0  0  0  0
  9 22  1  0  0  0  0
  9 23  1  0  0  0  0
 10 24  1  0  0  0  0
 10 25  1  0  0  0  0
 12 13  1  0  0  0  0
 12 26  1  0  0  0  0
 13 19  1  0  0  0  0
 13 14  1  0  0  0  0
 13 27  1  0  0  0  0
 14 15  1  0  0  0  0
 14 28  1  0  0  0  0
 14 29  1  0  0  0  0
 15 16  1  0  0  0  0
 15 30  1  0  0  0  0
 15 31  1  0  0  0  0
 16 17  1  0  0  0  0
 16 32  1  0  0  0  0
 16 33  1  0  0  0  0
 17 18  1  0  0  0  0
 17 34  1  0  0  0  0
 17 35  1  0  0  0  0
 18 19  1  0  0  0  0
 18 36  1  0  0  0  0
 19 20  2  0  0  0  0
M  CHG  1   3  -1
M  END
> <s_m_source_file>
AV-unprocessed.smi

> <i_m_source_file_index>
1997

> <i_lp_mmshare_version>
43012

> <i_f3d_flags>
0

> <s_epik_input>
W0NIMl0xW0NIMl1bQ0hdMWMoczIpbm5jMltOSF1DKD1PKVtOSF1bQ0BASF0zW0NIMl1bQ0gyXVtDSDJdW0NIMl1bTkhdQzM9Tw==

> <s_epik_cmdline>
J2VwaWtfcHl0aG9uJywgJy1waCcsICc3LjAnLCAnLXRuJywgJzgnLCAnLW1hJywgJzIwMCcsICctbWV0YWxfYmluZGluZycsICctaW1hZScsICc8aW5maWxlLm1hZT4nLCAnLW9tYWUnLCAnPG91dGZpbGUubWFlPic=

> <r_lp_tautomer_probability>
1

> <r_epik_Ionization_Penalty>
4.47229

> <r_epik_Ionization_Penalty_Charging>
4.32584

> <r_epik_Ionization_Penalty_Neutral>
0.146443

> <r_epik_State_Penalty>
4.32544

> <r_epik_Charging_Adjusted_Penalty>
8.65129

> <i_epik_Tot_Q>
-1

> <i_epik_Tot_abs_Q>
1

> <r_epik_Metal_State_Penalty>
0.738743

> <b_epik_Metal_Only>
1

> <s_lp_Force_Field>
OPLS_2005

> <r_lp_Energy>
12.6103

> <b_lp_Chiralities_Consistent>
1

> <s_lp_Variant>
AV-unprocessed.smi:1997-3

> <Gold.Version>
5.8.1

> <Gold.Id.Protein>
6NUR|6NUR_protein|mol2

> <Gold.PLP.Fitness>
40.6042

> <Gold.PLP.PLP>
-34.0944

> <Gold.PLP.part.hbond>
-3.0000

> <Gold.PLP.part.metal>
0.0000

> <Gold.PLP.part.buried>
-4.1277

> <Gold.PLP.part.nonpolar>
-26.8497

> <Gold.PLP.part.repulsive>
0.4224

> <Gold.PLP.ligand.clash>
0.0000

> <Gold.PLP.ligand.torsion>
0.9390

> <Gold.PLP.Chemscore.Hbond>
2.7520

> <Gold.PLP.Chemscore.CHOScore>
0.0000

> <Gold.PLP.Chemscore.Metal>
0.0000

> <Gold.Chemscore.Hbonds>
donor molecule, donor type, donor heavy atom, donor atom, acceptor molecule, acceptor atom, score
      P1  H  7989  7998       L1     1  0.67
      P1  H  7997  8008       L1    20  0.84
      P1  H 10752 10765       L1     6  0.99

> <Gold.PLP.Chemscore.Internal.Correction>
0.1317

> <Gold.Rescore>
     Score         DG    S(hbond)    S(metal)    S(lipo)     H(rot)  DE(clash)    DE(int)     intcor
     16.39     -20.07       2.75        0.00      73.93       1.27       0.47       3.20       ----

> <Gold.Chemscore.Fitness>
16.3932

> <Gold.Chemscore.DG>
-20.0701

> <Gold.Chemscore.ZeroCoef>
-5.4800

> <Gold.Chemscore.Hbond>
2.7548

> <Gold.Chemscore.Metal>
0.0000

> <Gold.Chemscore.Lipo>
73.9312

> <Gold.Chemscore.Internal_Hbond>
0.0000

> <Gold.Chemscore.DEClash>
0.4738

> <Gold.Chemscore.DEInternal>
3.2031

> <Gold.Chemscore.Rot>
1.2738

> <Gold.Chemscore.Internal.Correction>
   9.000000E+99

> <Gold.Chemscore.Hbonds>
donor molecule, donor type, donor heavy atom, donor atom, acceptor molecule, acceptor atom, score
      P1  H  7989  7998       L1     1  0.64
      P1  H  7997  8008       L1    20  0.81
      P1  H 10752 10765       L1     6  0.84

> <Gold.Chemscore.Hbond.Weighted>
-9.2011

> <Gold.Chemscore.Metal.Weighted>
-0.0000

> <Gold.Chemscore.Lipo.Weighted>
-8.6500

> <Gold.Chemscore.Internal_Hbond.Weighted>
0.0000

> <Gold.Chemscore.DEClash.Weighted>
0.4738

> <Gold.Chemscore.DEInternal.Weighted>
3.2031

> <Gold.Chemscore.Rot.Weighted>
3.2610

> <Gold.Chemscore.Internal.Correction.Weighted>
   9.000000E+99

> <Gold.Protein.RotatedTorsions>
[ 6907 6896 6895 6894 ] final -140.79 input  -60.11 | X-H torsion
[ 7974 7965 7964 7962 ] final   23.29 input  175.53 | X-H torsion
[ 8008 7997 7996 7995 ] final  -69.64 input   59.86 | X-H torsion
[ 10167 10162 10161 10158 ] final    5.93 input  -65.29 | X-H torsion
[ 10718 10713 10712 10709 ] final  116.36 input   66.30 | X-H torsion
[ 10763 10752 10751 10750 ] final -172.40 input  -60.55 | X-H torsion
[ 11005 11000 10999 10996 ] final  156.57 input  -57.11 | X-H torsion

> <Gold.Protein.ActiveResidues>
 VAL166  LYS551  ARG553  GLY616  TRP617  ASP618  TYR619  PRO620  LYS621  CYS622 
 ASP623  PHE694  ASN695  SER759  ASP760  ASP761  ALA762  ILE779  LEU786  VAL792 
 PHE793  MET794  SER795  GLU796  ALA797  LYS798  CYS799  TRP800  GLU811  SER814 

> <Gold.Protein.RotatedAtoms>
  151.0653  133.5510  159.2630 H   0  0  0  0  0  0  0  0  0  0  0  0  # atno 6907 bound_to 6896
  151.2470  135.0608  159.9057 H   0  0  0  0  0  0  0  0  0  0  0  0  # atno 6908 bound_to 6896
  152.5404  134.0419  159.8125 H   0  0  0  0  0  0  0  0  0  0  0  0  # atno 6909 bound_to 6896
  146.1991  139.7765  142.8775 H   0  0  0  0  0  0  0  0  0  0  0  0  # atno 7974 bound_to 7965
  154.4953  140.0849  156.7683 H   0  0  0  0  0  0  0  0  0  0  0  0  # atno 8008 bound_to 7997
  155.4131  140.3442  155.4247 H   0  0  0  0  0  0  0  0  0  0  0  0  # atno 8009 bound_to 7997
  156.1386  140.1522  156.8944 H   0  0  0  0  0  0  0  0  0  0  0  0  # atno 8010 bound_to 7997
  140.6455  143.7671  150.7493 H   0  0  0  0  0  0  0  0  0  0  0  0  # atno 10167 bound_to 10162
  157.6165  131.1024  150.7462 H   0  0  0  0  0  0  0  0  0  0  0  0  # atno 10718 bound_to 10713
  154.6197  135.2874  155.0340 H   0  0  0  0  0  0  0  0  0  0  0  0  # atno 10763 bound_to 10752
  154.1539  135.6499  153.4974 H   0  0  0  0  0  0  0  0  0  0  0  0  # atno 10764 bound_to 10752
  153.0230  135.5362  154.6982 H   0  0  0  0  0  0  0  0  0  0  0  0  # atno 10765 bound_to 10752
  140.1687  134.8558  157.2664 H   0  0  0  0  0  0  0  0  0  0  0  0  # atno 11005 bound_to 11000
  145.3545  141.0314  143.3319 LP  0  0  0  0  0  0  0  0  0  0  0  0  # atno 17320 bound_to 7965
  144.8643  139.5130  143.6797 LP  0  0  0  0  0  0  0  0  0  0  0  0  # atno 17321 bound_to 7965
  140.1311  143.4525  152.2253 LP  0  0  0  0  0  0  0  0  0  0  0  0  # atno 17342 bound_to 10162
  139.5666  144.7438  151.4006 LP  0  0  0  0  0  0  0  0  0  0  0  0  # atno 17343 bound_to 10162
  156.7828  130.4865  149.5398 LP  0  0  0  0  0  0  0  0  0  0  0  0  # atno 17370 bound_to 10713
  156.1290  130.6164  151.0305 LP  0  0  0  0  0  0  0  0  0  0  0  0  # atno 17371 bound_to 10713
  140.2403  134.3804  155.7483 LP  0  0  0  0  0  0  0  0  0  0  0  0  # atno 17394 bound_to 11000
  141.2216  133.7261  156.8778 LP  0  0  0  0  0  0  0  0  0  0  0  0  # atno 17395 bound_to 11000

$$$$
