#       Name:                AV-unprocessed.smi:1867
#       Creating user name   scv26
#       Creation time:       Fri Mar 27 09:28:49 2020


#       File generated by GOLD software.
#

@<TRIPOS>MOLECULE
AV-unprocessed.smi:1867
    55    58     1
SMALL
NO_CHARGES


@<TRIPOS>ATOM
      1 ****        -0.4999   2.3668  -0.8657 O.2            1 S1                 0.0000
      2 ****        -0.8618   1.2262  -0.5826 C.2            1 S1                 0.0000
      3 ****         0.0704   0.3169  -0.2040 N.am           1 S1                 0.0000
      4 ****         1.4850   0.4410  -0.1712 C.ar           1 S1                 0.0000
      5 ****         2.1997  -0.3999   0.7066 C.ar           1 S1                 0.0000
      6 ****         3.6070  -0.3308   0.7517 C.ar           1 S1                 0.0000
      7 ****         4.2909   0.5765  -0.0913 C.ar           1 S1                 0.0000
      8 ****         5.6935   0.6937  -0.1057 N.pl3          1 S1                 0.0000
      9 ****         6.3607   1.7625  -0.8316 C.3            1 S1                 0.0000
     10 ****         7.8343   1.6234  -0.4525 C.3            1 S1                 0.0000
     11 ****         7.7756   1.0941   0.9806 C.3            1 S1                 0.0000
     12 ****         6.5050   0.2364   1.0134 C.3            1 S1                 0.0000
     13 ****         3.5648   1.3506  -0.9327 N.pl3          1 S1                 1.0000
     14 ****         2.2167   1.3172  -1.0068 C.ar           1 S1                 0.0000
     15 ****        -2.1826   0.8723  -0.6173 N.pl3          1 S1                -1.0000
     16 ****        -2.7993  -0.4307  -0.3305 C.3            1 S1                 0.0000
     17 ****        -2.8056  -1.3455  -1.5702 C.3            1 S1                 0.0000
     18 ****        -4.1300  -2.1299  -1.4971 C.3            1 S1                 0.0000
     19 ****        -4.8134  -1.6407  -0.2839 N.4            1 S1                 1.0000
     20 ****        -6.2913  -1.7054  -0.2651 C.3            1 S1                 0.0000
     21 ****        -6.8025  -1.2582   1.1196 C.3            1 S1                 0.0000
     22 ****        -6.2396   0.1208   1.5219 C.3            1 S1                 0.0000
     23 ****        -4.7029   0.1528   1.4021 C.3            1 S1                 0.0000
     24 ****        -4.2938  -0.2895  -0.0185 C.3            1 S1                 0.0000
     25 ****        -0.2951  -0.5607   0.1351 H              1 S1                 0.0000
     26 ****         1.6744  -1.0949   1.3454 H              1 S1                 0.0000
     27 ****         4.1439  -0.9810   1.4262 H              1 S1                 0.0000
     28 ****         6.2114   1.6740  -1.9082 H              1 S1                 0.0000
     29 ****         5.9681   2.7263  -0.5045 H              1 S1                 0.0000
     30 ****         8.3149   0.8865  -1.0978 H              1 S1                 0.0000
     31 ****         8.3856   2.5601  -0.5398 H              1 S1                 0.0000
     32 ****         8.6689   0.5378   1.2656 H              1 S1                 0.0000
     33 ****         7.6692   1.9314   1.6716 H              1 S1                 0.0000
     34 ****         5.9891   0.3411   1.9685 H              1 S1                 0.0000
     35 ****         6.7457  -0.8169   0.8667 H              1 S1                 0.0000
     36 ****         1.7832   1.9805  -1.7404 H              1 S1                 0.0000
     37 ****        -2.3179  -0.9565   0.4962 H              1 S1                 0.0000
     38 ****        -2.7819  -0.7653  -2.4944 H              1 S1                 0.0000
     39 ****        -1.9381  -2.0063  -1.5795 H              1 S1                 0.0000
     40 ****        -4.7351  -1.9291  -2.3831 H              1 S1                 0.0000
     41 ****        -3.9717  -3.2073  -1.4351 H              1 S1                 0.0000
     42 ****        -6.7004  -1.0668  -1.0498 H              1 S1                 0.0000
     43 ****        -6.6158  -2.7251  -0.4749 H              1 S1                 0.0000
     44 ****        -7.8926  -1.2328   1.1252 H              1 S1                 0.0000
     45 ****        -6.5084  -1.9959   1.8671 H              1 S1                 0.0000
     46 ****        -6.6688   0.8889   0.8774 H              1 S1                 0.0000
     47 ****        -6.5420   0.3674   2.5400 H              1 S1                 0.0000
     48 ****        -4.3397   1.1598   1.6155 H              1 S1                 0.0000
     49 ****        -4.2683  -0.5045   2.1579 H              1 S1                 0.0000
     50 ****        -4.7425   0.3924  -0.7454 H              1 S1                 0.0000
     51 ****        -4.4784  -2.2157   0.4757 H              1 S1                 0.0000
     52 ****         4.0618   1.9943  -1.5482 H              1 S1                 0.0000
     53 ****         0.4684   2.6112  -0.8148 LP             1 S1                 0.0000
     54 ****        -1.1739   3.0499  -1.1469 LP             1 S1                 0.0000
     55 ****        -2.8170   1.6016  -0.8735 LP             1 S1                 0.0000
@<TRIPOS>BOND
    1    1    2 2     
    2    2    3 am    
    3    2   15 1     
    4    3    4 1     
    5    3   25 1     
    6    4   14 ar    
    7    4    5 ar    
    8    5    6 ar    
    9    5   26 1     
   10    6    7 ar    
   11    6   27 1     
   12    7    8 1     
   13    7   13 ar    
   14    8   12 1     
   15    8    9 1     
   16    9   10 1     
   17    9   28 1     
   18    9   29 1     
   19   10   11 1     
   20   10   30 1     
   21   10   31 1     
   22   11   12 1     
   23   11   32 1     
   24   11   33 1     
   25   12   34 1     
   26   12   35 1     
   27   13   14 ar    
   28   13   52 1     
   29   14   36 1     
   30   15   16 1     
   31   16   24 1     
   32   16   17 1     
   33   16   37 1     
   34   17   18 1     
   35   17   38 1     
   36   17   39 1     
   37   18   19 1     
   38   18   40 1     
   39   18   41 1     
   40   19   24 1     
   41   19   20 1     
   42   19   51 1     
   43   20   21 1     
   44   20   42 1     
   45   20   43 1     
   46   21   22 1     
   47   21   44 1     
   48   21   45 1     
   49   22   23 1     
   50   22   46 1     
   51   22   47 1     
   52   23   24 1     
   53   23   48 1     
   54   23   49 1     
   55   24   50 1     
   56    1   53 1     
   57    1   54 1     
   58   15   55 1     
@<TRIPOS>SUBSTRUCTURE
      1 S1             1
@<TRIPOS>SET
LONE_PAIRS      STATIC     ATOMS    <user>   **** ""
3 53 54 55
DONOR_HYDROGENS      STATIC     ATOMS    <user>   **** ""
3 25 52 51
ATOM$BLUE        STATIC     ATOMS    COLORGROUP SYSTEM
3 53 54 55
ATOM$RED        STATIC     ATOMS    COLORGROUP SYSTEM
3 25 52 51
