AV-unprocessed.smi:290|AV-procd|sdf|2219|dock3
  -GOLD-   2262022 63D 1   1.00000     0.00000
 Structure written by MMmdl.
 59 62  0  0  0  0  0  0  0  0  2 V2000
  152.8723  145.1502  157.1466 C   0  0  0  0  0  0  0  0  0  0  0  0
  151.9242  144.7563  158.2899 C   0  0  2  0  0  0  0  0  0  0  0  0
  152.7094  144.5999  159.4691 O   0  0  0  0  0  0  0  0  0  0  0  0
  152.0920  143.6359  160.3029 C   0  0  0  0  0  0  0  0  0  0  0  0
  151.6361  142.5855  159.3023 C   0  0  0  0  0  0  0  0  0  0  0  0
  151.1406  143.4228  158.1258 C   0  0  1  0  0  0  0  0  0  0  0  0
  149.7673  143.6997  158.3452 O   0  0  0  0  0  0  0  0  0  0  0  0
  151.2764  142.7067  156.7559 C   0  0  0  0  0  0  0  0  0  0  0  0
  150.5089  141.4738  156.6702 N   0  0  0  0  0  0  0  0  0  0  0  0
  150.6586  140.3515  157.4548 C   0  0  0  0  0  0  0  0  0  0  0  0
  149.8400  139.3703  157.1872 N   0  0  0  0  0  0  0  0  0  0  0  0
  149.0748  139.8519  156.1334 C   0  0  0  0  0  0  0  0  0  0  0  0
  148.0075  139.3172  155.3672 C   0  0  0  0  0  0  0  0  0  0  0  0
  147.5153  138.0801  155.6045 N   0  0  0  0  0  0  0  0  0  0  0  0
  148.5229  137.0777  155.8951 C   0  0  0  0  0  0  0  0  0  0  0  0
  147.8216  135.7310  155.7226 C   0  0  0  0  0  0  0  0  0  0  0  0
  146.5256  136.0220  154.9357 C   0  0  2  0  0  0  0  0  0  0  0  0
  146.3563  135.0668  153.7950 N   0  3  1  0  0  0  0  0  0  0  0  0
  146.3995  133.6584  154.2680 C   0  0  0  0  0  0  0  0  0  0  0  0
  145.1868  135.3300  152.9080 C   0  0  0  0  0  0  0  0  0  0  0  0
  145.4571  136.3782  151.8118 C   0  0  0  0  0  0  0  0  0  0  0  0
  144.6074  136.1616  150.7047 O   0  0  0  0  0  0  0  0  0  0  0  0
  146.6519  137.5220  154.5709 C   0  0  1  0  0  0  0  0  0  0  0  0
  145.3060  138.2798  154.5366 C   0  0  0  0  0  0  0  0  0  0  0  0
  147.4749  140.0935  154.3866 N   0  0  0  0  0  0  0  0  0  0  0  0
  147.9647  141.3179  154.1666 C   0  0  0  0  0  0  0  0  0  0  0  0
  148.9570  141.9467  154.8009 N   0  0  0  0  0  0  0  0  0  0  0  0
  149.4853  141.1696  155.7901 C   0  0  0  0  0  0  0  0  0  0  0  0
  145.6774  135.9090  155.6140 H   0  0  0  0  0  0  0  0  0  0  0  0
  147.1595  137.6209  153.6100 H   0  0  0  0  0  0  0  0  0  0  0  0
  152.3301  145.2997  156.2130 H   0  0  0  0  0  0  0  0  0  0  0  0
  153.6384  144.3927  156.9810 H   0  0  0  0  0  0  0  0  0  0  0  0
  153.3839  146.0847  157.3788 H   0  0  0  0  0  0  0  0  0  0  0  0
  151.2336  145.5841  158.4622 H   0  0  0  0  0  0  0  0  0  0  0  0
  152.7842  143.2405  161.0462 H   0  0  0  0  0  0  0  0  0  0  0  0
  151.2423  144.0834  160.8210 H   0  0  0  0  0  0  0  0  0  0  0  0
  152.4996  141.9905  159.0025 H   0  0  0  0  0  0  0  0  0  0  0  0
  150.8870  141.9030  159.7065 H   0  0  0  0  0  0  0  0  0  0  0  0
  149.4496  144.2308  157.6307 H   0  0  0  0  0  0  0  0  0  0  0  0
  150.9562  143.3643  155.9467 H   0  0  0  0  0  0  0  0  0  0  0  0
  152.3192  142.4575  156.5572 H   0  0  0  0  0  0  0  0  0  0  0  0
  151.3954  140.2847  158.2423 H   0  0  0  0  0  0  0  0  0  0  0  0
  149.3613  137.1544  155.2012 H   0  0  0  0  0  0  0  0  0  0  0  0
  148.9117  137.1990  156.9067 H   0  0  0  0  0  0  0  0  0  0  0  0
  148.4845  135.0345  155.2077 H   0  0  0  0  0  0  0  0  0  0  0  0
  147.5808  135.2956  156.6931 H   0  0  0  0  0  0  0  0  0  0  0  0
  145.4754  133.3928  154.7831 H   0  0  0  0  0  0  0  0  0  0  0  0
  147.2245  133.4871  154.9591 H   0  0  0  0  0  0  0  0  0  0  0  0
  146.5471  132.9621  153.4437 H   0  0  0  0  0  0  0  0  0  0  0  0
  144.8654  134.3929  152.4516 H   0  0  0  0  0  0  0  0  0  0  0  0
  144.3470  135.7061  153.4892 H   0  0  0  0  0  0  0  0  0  0  0  0
  145.3470  137.3993  152.1742 H   0  0  0  0  0  0  0  0  0  0  0  0
  146.4879  136.2892  151.4677 H   0  0  0  0  0  0  0  0  0  0  0  0
  144.0286  136.9039  150.6158 H   0  0  0  0  0  0  0  0  0  0  0  0
  144.6044  137.8651  153.8161 H   0  0  0  0  0  0  0  0  0  0  0  0
  145.4491  139.3275  154.2707 H   0  0  0  0  0  0  0  0  0  0  0  0
  144.8191  138.2550  155.5122 H   0  0  0  0  0  0  0  0  0  0  0  0
  147.4934  141.8745  153.3699 H   0  0  0  0  0  0  0  0  0  0  0  0
  147.1694  135.1981  153.2099 H   0  0  0  0  0  0  0  0  0  0  0  0
  1  2  1  0  0  0  0
  1 31  1  0  0  0  0
  1 32  1  0  0  0  0
  1 33  1  0  0  0  0
  2  6  1  0  0  0  0
  2  3  1  0  0  0  0
  2 34  1  0  0  0  0
  3  4  1  0  0  0  0
  4  5  1  0  0  0  0
  4 35  1  0  0  0  0
  4 36  1  0  0  0  0
  5  6  1  0  0  0  0
  5 37  1  0  0  0  0
  5 38  1  0  0  0  0
  6  7  1  0  0  0  0
  6  8  1  0  0  0  0
  7 39  1  0  0  0  0
  8  9  1  0  0  0  0
  8 40  1  0  0  0  0
  8 41  1  0  0  0  0
  9 28  1  0  0  0  0
  9 10  1  0  0  0  0
 10 11  2  0  0  0  0
 10 42  1  0  0  0  0
 11 12  1  0  0  0  0
 12 28  2  0  0  0  0
 12 13  1  0  0  0  0
 13 14  1  0  0  0  0
 13 25  2  0  0  0  0
 14 23  1  0  0  0  0
 14 15  1  0  0  0  0
 15 16  1  0  0  0  0
 15 43  1  0  0  0  0
 15 44  1  0  0  0  0
 16 17  1  0  0  0  0
 16 45  1  0  0  0  0
 16 46  1  0  0  0  0
 17 29  1  0  0  0  0
 17 18  1  0  0  0  0
 17 23  1  0  0  0  0
 18 19  1  0  0  0  0
 18 20  1  0  0  0  0
 18 59  1  0  0  0  0
 19 47  1  0  0  0  0
 19 48  1  0  0  0  0
 19 49  1  0  0  0  0
 20 21  1  0  0  0  0
 20 50  1  0  0  0  0
 20 51  1  0  0  0  0
 21 22  1  0  0  0  0
 21 52  1  0  0  0  0
 21 53  1  0  0  0  0
 22 54  1  0  0  0  0
 23 30  1  0  0  0  0
 23 24  1  0  0  0  0
 24 55  1  0  0  0  0
 24 56  1  0  0  0  0
 24 57  1  0  0  0  0
 25 26  1  0  0  0  0
 26 27  2  0  0  0  0
 26 58  1  0  0  0  0
 27 28  1  0  0  0  0
M  CHG  1  18   1
M  END
> <s_m_source_file>
AV-unprocessed.smi

> <i_m_source_file_index>
290

> <i_lp_mmshare_version>
43012

> <i_f3d_flags>
0

> <s_epik_input>
W0NIMl0xW0NIMl1PW0NAQEhdKFtDSDNdKVtDQEBdMShbT0hdKVtDSDJdbihbY0hdbjIpYyhjMjMpbltjSF1uYzNONFtDSDJdW0NIMl1bQ0BIXShbQ0BIXTRbQ0gzXSlOKFtDSDNdKVtDSDJdW0NIMl1bT0hd

> <s_epik_cmdline>
J2VwaWtfcHl0aG9uJywgJy1waCcsICc3LjAnLCAnLXRuJywgJzgnLCAnLW1hJywgJzIwMCcsICctbWV0YWxfYmluZGluZycsICctaW1hZScsICc8aW5maWxlLm1hZT4nLCAnLW9tYWUnLCAnPG91dGZpbGUubWFlPic=

> <r_lp_tautomer_probability>
1

> <r_epik_Ionization_Penalty>
0.0036983

> <r_epik_Ionization_Penalty_Charging>
0.0032725

> <r_epik_Ionization_Penalty_Neutral>
0.000425798

> <r_epik_State_Penalty>
-0

> <r_epik_Charging_Adjusted_Penalty>
0.0032725

> <i_epik_Tot_Q>
1

> <i_epik_Tot_abs_Q>
1

> <r_epik_Metal_State_Penalty>
-0

> <b_epik_Metal_Only>
0

> <s_lp_Force_Field>
OPLS_2005

> <r_lp_Energy>
64.8136

> <b_lp_Chiralities_Consistent>
1

> <s_lp_Variant>
AV-unprocessed.smi:290-5

> <Gold.Version>
5.8.1

> <Gold.Id.Protein>
6NUR|6NUR_protein|mol2

> <Gold.PLP.Fitness>
47.7516

> <Gold.PLP.PLP>
-37.3334

> <Gold.PLP.part.hbond>
-5.4764

> <Gold.PLP.part.metal>
0.0000

> <Gold.PLP.part.buried>
-5.4457

> <Gold.PLP.part.nonpolar>
-27.4467

> <Gold.PLP.part.repulsive>
0.4323

> <Gold.PLP.ligand.clash>
0.0000

> <Gold.PLP.ligand.torsion>
0.9645

> <Gold.PLP.Chemscore.Hbond>
4.0233

> <Gold.PLP.Chemscore.CHOScore>
0.0000

> <Gold.PLP.Chemscore.Metal>
0.0000

> <Gold.Chemscore.Hbonds>
donor molecule, donor type, donor heavy atom, donor atom, acceptor molecule, acceptor atom, score
      L1  H     7    39       P1  8028  0.63
      L1  H    22    54       P1 10171  0.86

> <Gold.PLP.Chemscore.Internal.Correction>
0.2774

> <Gold.Rescore>
     Score         DG    S(hbond)    S(metal)    S(lipo)     H(rot)  DE(clash)    DE(int)     intcor
      9.38     -14.93       2.26        0.00      96.39       3.67       2.06       3.49       ----

> <Gold.Chemscore.Fitness>
9.3779

> <Gold.Chemscore.DG>
-14.9310

> <Gold.Chemscore.ZeroCoef>
-5.4800

> <Gold.Chemscore.Hbond>
2.2630

> <Gold.Chemscore.Metal>
0.0000

> <Gold.Chemscore.Lipo>
96.3855

> <Gold.Chemscore.Internal_Hbond>
0.0000

> <Gold.Chemscore.DEClash>
2.0635

> <Gold.Chemscore.DEInternal>
3.4896

> <Gold.Chemscore.Rot>
3.6658

> <Gold.Chemscore.Internal.Correction>
   9.000000E+99

> <Gold.Chemscore.Hbonds>
donor molecule, donor type, donor heavy atom, donor atom, acceptor molecule, acceptor atom, score
      L1  H     7    39       P1  8028  0.06
      L1  H    18    59       P1  7948  0.05
      L1  H    22    54       P1 10171  0.85

> <Gold.Chemscore.Hbond.Weighted>
-7.5583

> <Gold.Chemscore.Metal.Weighted>
-0.0000

> <Gold.Chemscore.Lipo.Weighted>
-11.2771

> <Gold.Chemscore.Internal_Hbond.Weighted>
0.0000

> <Gold.Chemscore.DEClash.Weighted>
2.0635

> <Gold.Chemscore.DEInternal.Weighted>
3.4896

> <Gold.Chemscore.Rot.Weighted>
9.3844

> <Gold.Chemscore.Internal.Correction.Weighted>
   9.000000E+99

> <Gold.Protein.RotatedTorsions>
[ 6907 6896 6895 6894 ] final -146.18 input  -60.11 | X-H torsion
[ 7974 7965 7964 7962 ] final   78.30 input  175.53 | X-H torsion
[ 8008 7997 7996 7995 ] final   31.24 input   59.86 | X-H torsion
[ 10167 10162 10161 10158 ] final  123.40 input  -65.29 | X-H torsion
[ 10718 10713 10712 10709 ] final  157.46 input   66.30 | X-H torsion
[ 10763 10752 10751 10750 ] final   93.42 input  -60.55 | X-H torsion
[ 11005 11000 10999 10996 ] final  130.35 input  -57.11 | X-H torsion

> <Gold.Protein.ActiveResidues>
 VAL166  LYS551  ARG553  GLY616  TRP617  ASP618  TYR619  PRO620  LYS621  CYS622 
 ASP623  PHE694  ASN695  SER759  ASP760  ASP761  ALA762  ILE779  LEU786  VAL792 
 PHE793  MET794  SER795  GLU796  ALA797  LYS798  CYS799  TRP800  GLU811  SER814 

> <Gold.Protein.RotatedAtoms>
  151.1380  133.4991  159.2597 H   0  0  0  0  0  0  0  0  0  0  0  0  # atno 6907 bound_to 6896
  151.1686  135.0307  159.8751 H   0  0  0  0  0  0  0  0  0  0  0  0  # atno 6908 bound_to 6896
  152.5461  134.1246  159.8466 H   0  0  0  0  0  0  0  0  0  0  0  0  # atno 6909 bound_to 6896
  145.6789  139.2518  143.1825 H   0  0  0  0  0  0  0  0  0  0  0  0  # atno 7974 bound_to 7965
  155.1032  140.3231  155.4541 H   0  0  0  0  0  0  0  0  0  0  0  0  # atno 8008 bound_to 7997
  156.2711  140.2057  156.6105 H   0  0  0  0  0  0  0  0  0  0  0  0  # atno 8009 bound_to 7997
  154.6813  140.0526  157.0256 H   0  0  0  0  0  0  0  0  0  0  0  0  # atno 8010 bound_to 7997
  139.5802  144.6982  151.3549 H   0  0  0  0  0  0  0  0  0  0  0  0  # atno 10167 bound_to 10162
  157.1912  131.0655  151.2078 H   0  0  0  0  0  0  0  0  0  0  0  0  # atno 10718 bound_to 10713
  153.2301  135.4326  155.0586 H   0  0  0  0  0  0  0  0  0  0  0  0  # atno 10763 bound_to 10752
  154.8292  135.3377  154.6800 H   0  0  0  0  0  0  0  0  0  0  0  0  # atno 10764 bound_to 10752
  153.7227  135.7016  153.5065 H   0  0  0  0  0  0  0  0  0  0  0  0  # atno 10765 bound_to 10752
  139.9667  134.9588  156.9281 H   0  0  0  0  0  0  0  0  0  0  0  0  # atno 11005 bound_to 11000
  146.0981  140.7576  142.9562 LP  0  0  0  0  0  0  0  0  0  0  0  0  # atno 17320 bound_to 7965
  144.7032  140.3744  143.7139 LP  0  0  0  0  0  0  0  0  0  0  0  0  # atno 17321 bound_to 7965
  140.7081  143.7463  150.7517 LP  0  0  0  0  0  0  0  0  0  0  0  0  # atno 17342 bound_to 10162
  140.0993  143.4803  152.2434 LP  0  0  0  0  0  0  0  0  0  0  0  0  # atno 17343 bound_to 10162
  157.3859  130.7256  149.6662 LP  0  0  0  0  0  0  0  0  0  0  0  0  # atno 17370 bound_to 10713
  155.9711  130.4160  150.4208 LP  0  0  0  0  0  0  0  0  0  0  0  0  # atno 17371 bound_to 10713
  140.5381  134.0747  155.7334 LP  0  0  0  0  0  0  0  0  0  0  0  0  # atno 17394 bound_to 11000
  141.1347  133.9243  157.2461 LP  0  0  0  0  0  0  0  0  0  0  0  0  # atno 17395 bound_to 11000

$$$$
