#       Name:                AV-unprocessed.smi:1696
#       Creating user name   scv26
#       Creation time:       Fri Mar 27 07:56:52 2020


#       File generated by GOLD software.
#

@<TRIPOS>MOLECULE
AV-unprocessed.smi:1696
    42    43     1
SMALL
NO_CHARGES


@<TRIPOS>ATOM
      1 ****        -1.0402   0.9864  -3.1219 C.3            1 S1                 0.0000
      2 ****        -1.3661   0.4103  -1.7356 C.3            1 S1                 0.0000
      3 ****        -0.6386  -0.9207  -1.4029 C.3            1 S1                 0.0000
      4 ****         0.9083  -0.7606  -1.3907 C.3            1 S1                 0.0000
      5 ****         1.4139  -0.0793  -0.1992 N.am           1 S1                 0.0000
      6 ****         1.6826   1.2306  -0.1033 C.2            1 S1                 0.0000
      7 ****         1.5103   2.0279  -1.0240 O.2            1 S1                 0.0000
      8 ****         2.1547   1.5413   1.1147 N.am           1 S1                 0.0000
      9 ****         2.5323   2.8184   1.5983 C.2            1 S1                 0.0000
     10 ****         2.9974   2.9232   2.8444 N.2            1 S1                 0.0000
     11 ****         3.3282   4.2415   3.1718 C.2            1 S1                 0.0000
     12 ****         3.1036   5.1356   2.1545 C.2            1 S1                 0.0000
     13 ****         2.4621   4.3559   0.7336 S.3            1 S1                 0.0000
     14 ****        -1.1236  -1.5080  -0.1163 N.4            1 S1                 1.0000
     15 ****        -2.5893  -1.6501   0.0282 C.3            1 S1                 0.0000
     16 ****        -2.7805  -2.6758   1.1389 C.3            1 S1                 0.0000
     17 ****        -1.6412  -3.6589   0.9003 C.3            1 S1                 0.0000
     18 ****        -0.5362  -2.8272   0.2347 C.3            1 S1                 0.0000
     19 ****        -1.6721   1.8489  -3.3347 H              1 S1                 0.0000
     20 ****        -1.2140   0.2496  -3.9063 H              1 S1                 0.0000
     21 ****        -0.0070   1.3227  -3.1970 H              1 S1                 0.0000
     22 ****        -1.1609   1.1576  -0.9690 H              1 S1                 0.0000
     23 ****        -2.4447   0.2604  -1.7217 H              1 S1                 0.0000
     24 ****        -0.8910  -1.6286  -2.1941 H              1 S1                 0.0000
     25 ****         1.3771  -1.7443  -1.4083 H              1 S1                 0.0000
     26 ****         1.2691  -0.2752  -2.2972 H              1 S1                 0.0000
     27 ****         1.6003  -0.6566   0.6080 H              1 S1                 0.0000
     28 ****         2.2582   0.7818   1.7711 H              1 S1                 0.0000
     29 ****         3.7204   4.4550   4.1552 H              1 S1                 0.0000
     30 ****         3.2768   6.2016   2.1547 H              1 S1                 0.0000
     31 ****        -3.0714  -0.7025   0.2699 H              1 S1                 0.0000
     32 ****        -3.0176  -2.0281  -0.9019 H              1 S1                 0.0000
     33 ****        -2.6589  -2.1963   2.1112 H              1 S1                 0.0000
     34 ****        -3.7627  -3.1491   1.1164 H              1 S1                 0.0000
     35 ****        -1.3079  -4.1391   1.8208 H              1 S1                 0.0000
     36 ****        -1.9709  -4.4441   0.2185 H              1 S1                 0.0000
     37 ****        -0.1689  -3.3528  -0.6479 H              1 S1                 0.0000
     38 ****         0.3086  -2.6780   0.9076 H              1 S1                 0.0000
     39 ****        -0.8404  -0.8743   0.6175 H              1 S1                 0.0000
     40 ****         1.1519   1.7088  -1.9013 LP             1 S1                 0.0000
     41 ****         1.7286   2.9953  -0.8951 LP             1 S1                 0.0000
     42 ****         3.0976   2.1499   3.4705 LP             1 S1                 0.0000
@<TRIPOS>BOND
    1    1    2 1     
    2    1   19 1     
    3    1   20 1     
    4    1   21 1     
    5    2    3 1     
    6    2   22 1     
    7    2   23 1     
    8    3    4 1     
    9    3   14 1     
   10    3   24 1     
   11    4    5 1     
   12    4   25 1     
   13    4   26 1     
   14    5    6 am    
   15    5   27 1     
   16    6    7 2     
   17    6    8 am    
   18    8    9 1     
   19    8   28 1     
   20    9   13 1     
   21    9   10 2     
   22   10   11 1     
   23   11   12 2     
   24   11   29 1     
   25   12   13 1     
   26   12   30 1     
   27   14   18 1     
   28   14   15 1     
   29   14   39 1     
   30   15   16 1     
   31   15   31 1     
   32   15   32 1     
   33   16   17 1     
   34   16   33 1     
   35   16   34 1     
   36   17   18 1     
   37   17   35 1     
   38   17   36 1     
   39   18   37 1     
   40   18   38 1     
   41    7   40 1     
   42    7   41 1     
   43   10   42 1     
@<TRIPOS>SUBSTRUCTURE
      1 S1             1
@<TRIPOS>SET
LONE_PAIRS      STATIC     ATOMS    <user>   **** ""
3 40 41 42
DONOR_HYDROGENS      STATIC     ATOMS    <user>   **** ""
3 27 28 39
ATOM$BLUE        STATIC     ATOMS    COLORGROUP SYSTEM
3 40 41 42
ATOM$RED        STATIC     ATOMS    COLORGROUP SYSTEM
3 27 28 39
