AV-unprocessed.smi:100|AV-procd|sdf|903|dock6
  -GOLD-   2262017403D 1   1.00000     0.00000
 Structure written by MMmdl.
 31 33  0  0  0  0  0  0  0  0  1 V2000
  148.0923  138.7449  152.6316 N   0  0  0  0  0  0  0  0  0  0  0  0
  148.6629  139.5846  153.5065 C   0  0  0  0  0  0  0  0  0  0  0  0
  148.1327  140.8218  153.6504 N   0  0  0  0  0  0  0  0  0  0  0  0
  148.6860  141.6797  154.5142 C   0  0  0  0  0  0  0  0  0  0  0  0
  149.7435  141.4987  155.3105 N   0  0  0  0  0  0  0  0  0  0  0  0
  150.2722  140.2480  155.1669 C   0  0  0  0  0  0  0  0  0  0  0  0
  149.7953  139.2387  154.2862 C   0  0  0  0  0  0  0  0  0  0  0  0
  150.5863  138.1035  154.3972 N   0  0  0  0  0  0  0  0  0  0  0  0
  151.4827  138.4310  155.2892 C   0  0  0  0  0  0  0  0  0  0  0  0
  151.3518  139.6968  155.8244 N   0  0  0  0  0  0  0  0  0  0  0  0
  152.2087  140.3871  156.8412 C   0  0  2  0  0  0  0  0  0  0  0  0
  152.9260  139.4062  157.5381 O   0  0  0  0  0  0  0  0  0  0  0  0
  152.4500  139.2681  158.8781 C   0  0  2  0  0  0  0  0  0  0  0  0
  151.3287  138.2136  158.9711 C   0  0  0  0  0  0  0  0  0  0  0  0
  151.8826  136.9390  159.2161 O   0  0  0  0  0  0  0  0  0  0  0  0
  151.9702  140.6842  159.1912 C   0  0  1  0  0  0  0  0  0  0  0  0
  153.0482  141.4198  159.4774 F   0  0  0  0  0  0  0  0  0  0  0  0
  151.3397  141.1217  157.8776 C   0  0  1  0  0  0  0  0  0  0  0  0
  151.3634  142.5297  157.7513 O   0  0  0  0  0  0  0  0  0  0  0  0
  148.4706  137.8168  152.5059 H   0  0  0  0  0  0  0  0  0  0  0  0
  147.2870  139.0415  152.0999 H   0  0  0  0  0  0  0  0  0  0  0  0
  148.2133  142.6485  154.5774 H   0  0  0  0  0  0  0  0  0  0  0  0
  152.2640  137.7457  155.5852 H   0  0  0  0  0  0  0  0  0  0  0  0
  152.8786  141.0256  156.2635 H   0  0  0  0  0  0  0  0  0  0  0  0
  153.2683  138.9896  159.5440 H   0  0  0  0  0  0  0  0  0  0  0  0
  150.6722  138.4450  159.8103 H   0  0  0  0  0  0  0  0  0  0  0  0
  150.7023  138.1880  158.0805 H   0  0  0  0  0  0  0  0  0  0  0  0
  152.5250  136.7562  158.5474 H   0  0  0  0  0  0  0  0  0  0  0  0
  151.2934  140.7457  160.0439 H   0  0  0  0  0  0  0  0  0  0  0  0
  150.3112  140.7609  157.8245 H   0  0  0  0  0  0  0  0  0  0  0  0
  152.2640  142.8050  157.6649 H   0  0  0  0  0  0  0  0  0  0  0  0
  1  2  1  0  0  0  0
  1 20  1  0  0  0  0
  1 21  1  0  0  0  0
  2  7  1  0  0  0  0
  2  3  2  0  0  0  0
  3  4  1  0  0  0  0
  4  5  2  0  0  0  0
  4 22  1  0  0  0  0
  5  6  1  0  0  0  0
  6 10  1  0  0  0  0
  6  7  2  0  0  0  0
  7  8  1  0  0  0  0
  8  9  2  0  0  0  0
  9 10  1  0  0  0  0
  9 23  1  0  0  0  0
 10 11  1  0  0  0  0
 11 18  1  0  0  0  0
 11 12  1  0  0  0  0
 11 24  1  0  0  0  0
 12 13  1  0  0  0  0
 13 14  1  0  0  0  0
 13 16  1  0  0  0  0
 13 25  1  0  0  0  0
 14 15  1  0  0  0  0
 14 26  1  0  0  0  0
 14 27  1  0  0  0  0
 15 28  1  0  0  0  0
 16 17  1  0  0  0  0
 16 18  1  0  0  0  0
 16 29  1  0  0  0  0
 18 19  1  0  0  0  0
 18 30  1  0  0  0  0
 19 31  1  0  0  0  0
M  END
> <s_m_source_file>
AV-unprocessed.smi

> <i_m_source_file_index>
100

> <i_lp_mmshare_version>
43012

> <i_f3d_flags>
0

> <s_epik_input>
bjFbY0hdbmMoW05IMl0pYyhjMTIpbltjSF1uMltDQEBIXTNPW0NAQEhdKFtDSDJdW09IXSlbQ0BIXShGKVtDQEhdM1tPSF0=

> <s_epik_cmdline>
J2VwaWtfcHl0aG9uJywgJy1waCcsICc3LjAnLCAnLXRuJywgJzgnLCAnLW1hJywgJzIwMCcsICctbWV0YWxfYmluZGluZycsICctaW1hZScsICc8aW5maWxlLm1hZT4nLCAnLW9tYWUnLCAnPG91dGZpbGUubWFlPic=

> <r_lp_tautomer_probability>
1

> <r_epik_Ionization_Penalty>
0.000750324

> <r_epik_Ionization_Penalty_Charging>
0

> <r_epik_Ionization_Penalty_Neutral>
0.000750324

> <r_epik_State_Penalty>
-0

> <r_epik_Charging_Adjusted_Penalty>
0

> <i_epik_Tot_Q>
0

> <i_epik_Tot_abs_Q>
0

> <r_epik_Metal_State_Penalty>
-0

> <b_epik_Metal_Only>
0

> <s_epik_Chemistry_Notes>
This compound contains an acetal/aminal-like group ( X-CH(R)-Y where X, Y are N, S, or O) that may be acid/base labile, releasing an aldehyde.

> <s_lp_Force_Field>
OPLS_2005

> <r_lp_Energy>
31.6472

> <b_lp_Chiralities_Consistent>
1

> <s_lp_Variant>
AV-unprocessed.smi:100-7

> <Gold.Version>
5.8.1

> <Gold.Id.Protein>
6NUR|6NUR_protein|mol2

> <Gold.PLP.Fitness>
40.4941

> <Gold.PLP.PLP>
-29.9627

> <Gold.PLP.part.hbond>
-4.0000

> <Gold.PLP.part.metal>
0.0000

> <Gold.PLP.part.buried>
-2.1898

> <Gold.PLP.part.nonpolar>
-24.0084

> <Gold.PLP.part.repulsive>
0.5268

> <Gold.PLP.ligand.clash>
0.0000

> <Gold.PLP.ligand.torsion>
0.7509

> <Gold.PLP.Chemscore.Hbond>
3.0000

> <Gold.PLP.Chemscore.CHOScore>
1.0000

> <Gold.PLP.Chemscore.Metal>
0.0000

> <Gold.Chemscore.Hbonds>
donor molecule, donor type, donor heavy atom, donor atom, acceptor molecule, acceptor atom, score
      L1  H     1    20       P1  7948  1.00
      P1  H  6896  6908       L1    15  0.95
      P1  H  7997  8010       L1    12  0.80
      L1  C     4    22       P1  8028  1.00

> <Gold.PLP.Chemscore.Internal.Correction>
0.0332

> <Gold.Rescore>
     Score         DG    S(hbond)    S(metal)    S(lipo)     H(rot)  DE(clash)    DE(int)     intcor
      8.66      -9.27       2.64        0.00      26.75       3.19       0.00       0.61       ----

> <Gold.Chemscore.Fitness>
8.6595

> <Gold.Chemscore.DG>
-9.2723

> <Gold.Chemscore.ZeroCoef>
-5.4800

> <Gold.Chemscore.Hbond>
2.6434

> <Gold.Chemscore.Metal>
0.0000

> <Gold.Chemscore.Lipo>
26.7522

> <Gold.Chemscore.Internal_Hbond>
0.0000

> <Gold.Chemscore.DEClash>
0.0000

> <Gold.Chemscore.DEInternal>
0.6128

> <Gold.Chemscore.Rot>
3.1901

> <Gold.Chemscore.Internal.Correction>
   9.000000E+99

> <Gold.Chemscore.Hbonds>
donor molecule, donor type, donor heavy atom, donor atom, acceptor molecule, acceptor atom, score
      L1  H     1    20       P1  7948  1.00
      P1  H  6896  6908       L1    15  0.20
      P1  H  7997  8010       L1    12  0.11

> <Gold.Chemscore.Hbond.Weighted>
-8.8290

> <Gold.Chemscore.Metal.Weighted>
-0.0000

> <Gold.Chemscore.Lipo.Weighted>
-3.1300

> <Gold.Chemscore.Internal_Hbond.Weighted>
0.0000

> <Gold.Chemscore.DEClash.Weighted>
0.0000

> <Gold.Chemscore.DEInternal.Weighted>
0.6128

> <Gold.Chemscore.Rot.Weighted>
8.1667

> <Gold.Chemscore.Internal.Correction.Weighted>
   9.000000E+99

> <Gold.Protein.RotatedTorsions>
[ 6907 6896 6895 6894 ] final -110.34 input  -60.11 | X-H torsion
[ 7974 7965 7964 7962 ] final  -43.68 input  175.53 | X-H torsion
[ 8008 7997 7996 7995 ] final   29.54 input   59.86 | X-H torsion
[ 10167 10162 10161 10158 ] final  165.37 input  -65.29 | X-H torsion
[ 10718 10713 10712 10709 ] final -148.74 input   66.30 | X-H torsion
[ 10763 10752 10751 10750 ] final  149.35 input  -60.55 | X-H torsion
[ 11005 11000 10999 10996 ] final -140.60 input  -57.11 | X-H torsion

> <Gold.Protein.ActiveResidues>
 VAL166  LYS551  ARG553  GLY616  TRP617  ASP618  TYR619  PRO620  LYS621  CYS622 
 ASP623  PHE694  ASN695  SER759  ASP760  ASP761  ALA762  ILE779  LEU786  VAL792 
 PHE793  MET794  SER795  GLU796  ALA797  LYS798  CYS799  TRP800  GLU811  SER814 

> <Gold.Protein.RotatedAtoms>
  150.7619  133.9396  159.3451 H   0  0  0  0  0  0  0  0  0  0  0  0  # atno 6907 bound_to 6896
  151.7303  135.0874  160.0308 H   0  0  0  0  0  0  0  0  0  0  0  0  # atno 6908 bound_to 6896
  152.3594  133.6240  159.6039 H   0  0  0  0  0  0  0  0  0  0  0  0  # atno 6909 bound_to 6896
  145.9995  140.7090  142.9277 H   0  0  0  0  0  0  0  0  0  0  0  0  # atno 7974 bound_to 7965
  155.0762  140.3205  155.4615 H   0  0  0  0  0  0  0  0  0  0  0  0  # atno 8008 bound_to 7997
  156.2778  140.2103  156.5835 H   0  0  0  0  0  0  0  0  0  0  0  0  # atno 8009 bound_to 7997
  154.7015  140.0506  157.0450 H   0  0  0  0  0  0  0  0  0  0  0  0  # atno 8010 bound_to 7997
  139.4904  144.4139  151.9267 H   0  0  0  0  0  0  0  0  0  0  0  0  # atno 10167 bound_to 10162
  156.4242  130.8043  151.2268 H   0  0  0  0  0  0  0  0  0  0  0  0  # atno 10718 bound_to 10713
  154.0697  135.2867  155.3310 H   0  0  0  0  0  0  0  0  0  0  0  0  # atno 10763 bound_to 10752
  154.6754  135.5283  153.8196 H   0  0  0  0  0  0  0  0  0  0  0  0  # atno 10764 bound_to 10752
  153.0490  135.6568  154.0880 H   0  0  0  0  0  0  0  0  0  0  0  0  # atno 10765 bound_to 10752
  140.8406  134.2406  157.4812 H   0  0  0  0  0  0  0  0  0  0  0  0  # atno 11005 bound_to 11000
  144.6914  140.3208  143.7232 LP  0  0  0  0  0  0  0  0  0  0  0  0  # atno 17320 bound_to 7965
  145.7509  139.1793  143.2322 LP  0  0  0  0  0  0  0  0  0  0  0  0  # atno 17321 bound_to 7965
  140.3581  144.3006  150.5938 LP  0  0  0  0  0  0  0  0  0  0  0  0  # atno 17342 bound_to 10162
  140.5427  143.2220  151.8059 LP  0  0  0  0  0  0  0  0  0  0  0  0  # atno 17343 bound_to 10162
  157.7508  131.0218  150.3768 LP  0  0  0  0  0  0  0  0  0  0  0  0  # atno 17370 bound_to 10713
  156.4091  130.3930  149.6904 LP  0  0  0  0  0  0  0  0  0  0  0  0  # atno 17371 bound_to 10713
  139.8703  134.9633  156.4459 LP  0  0  0  0  0  0  0  0  0  0  0  0  # atno 17394 bound_to 11000
  140.8899  133.7856  155.9560 LP  0  0  0  0  0  0  0  0  0  0  0  0  # atno 17395 bound_to 11000

$$$$
