AV-unprocessed.smi:2945|AV-procd|sdf|11276|dock4
  -GOLD-   2272016173D 1   1.00000     0.00000
 Structure written by MMmdl.
 36 37  0  0  0  0  0  0  0  0  1 V2000
  147.0199  140.0137  153.0291 C   0  0  0  0  0  0  0  0  0  0  0  0
  148.0667  140.4630  153.9899 C   0  0  0  0  0  0  0  0  0  0  0  0
  148.0781  141.4055  154.9794 C   0  0  0  0  0  0  0  0  0  0  0  0
  149.3966  141.3086  155.4981 C   0  0  0  0  0  0  0  0  0  0  0  0
  149.8208  142.1410  156.5651 N   0  0  0  0  0  0  0  0  0  0  0  0
  150.8802  141.9631  157.3725 C   0  0  0  0  0  0  0  0  0  0  0  0
  151.6658  141.0170  157.3114 O   0  0  0  0  0  0  0  0  0  0  0  0
  150.9786  142.9579  158.2672 N   0  0  0  0  0  0  0  0  0  0  0  0
  151.9950  143.0776  159.3124 C   0  0  2  0  0  0  0  0  0  0  0  0
  152.2465  141.6816  159.9160 C   0  0  0  0  0  0  0  0  0  0  0  0
  153.2549  141.7335  161.0725 C   0  0  0  0  0  0  0  0  0  0  0  0
  152.7952  142.7182  162.1553 C   0  0  0  0  0  0  0  0  0  0  0  0
  152.5643  144.1167  161.5641 C   0  0  0  0  0  0  0  0  0  0  0  0
  151.5532  144.0917  160.3993 C   0  0  1  0  0  0  0  0  0  0  0  0
  151.3454  145.5103  159.8393 C   0  0  0  0  0  0  0  0  0  0  0  0
  150.1249  140.3910  154.8805 N   0  0  0  0  0  0  0  0  0  0  0  0
  149.2762  139.8446  153.9104 O   0  0  0  0  0  0  0  0  0  0  0  0
  146.0618  140.4851  153.2483 H   0  0  0  0  0  0  0  0  0  0  0  0
  146.8848  138.9332  153.0817 H   0  0  0  0  0  0  0  0  0  0  0  0
  147.2979  140.2711  152.0070 H   0  0  0  0  0  0  0  0  0  0  0  0
  147.2715  142.0569  155.2814 H   0  0  0  0  0  0  0  0  0  0  0  0
  149.2554  142.9601  156.7320 H   0  0  0  0  0  0  0  0  0  0  0  0
  150.2865  143.6918  158.2309 H   0  0  0  0  0  0  0  0  0  0  0  0
  152.9365  143.4258  158.8831 H   0  0  0  0  0  0  0  0  0  0  0  0
  151.3072  141.2608  160.2781 H   0  0  0  0  0  0  0  0  0  0  0  0
  152.6115  141.0020  159.1450 H   0  0  0  0  0  0  0  0  0  0  0  0
  153.3796  140.7394  161.5027 H   0  0  0  0  0  0  0  0  0  0  0  0
  154.2330  142.0332  160.6938 H   0  0  0  0  0  0  0  0  0  0  0  0
  151.8741  142.3563  162.6140 H   0  0  0  0  0  0  0  0  0  0  0  0
  153.5386  142.7688  162.9515 H   0  0  0  0  0  0  0  0  0  0  0  0
  152.2124  144.7874  162.3489 H   0  0  0  0  0  0  0  0  0  0  0  0
  153.5150  144.5235  161.2167 H   0  0  0  0  0  0  0  0  0  0  0  0
  150.5963  143.7574  160.8035 H   0  0  0  0  0  0  0  0  0  0  0  0
  152.2595  145.8919  159.3833 H   0  0  0  0  0  0  0  0  0  0  0  0
  151.0531  146.2039  160.6280 H   0  0  0  0  0  0  0  0  0  0  0  0
  150.5611  145.5354  159.0831 H   0  0  0  0  0  0  0  0  0  0  0  0
  1  2  1  0  0  0  0
  1 18  1  0  0  0  0
  1 19  1  0  0  0  0
  1 20  1  0  0  0  0
  2 17  1  0  0  0  0
  2  3  2  0  0  0  0
  3  4  1  0  0  0  0
  3 21  1  0  0  0  0
  4  5  1  0  0  0  0
  4 16  2  0  0  0  0
  5  6  1  0  0  0  0
  5 22  1  0  0  0  0
  6  7  2  0  0  0  0
  6  8  1  0  0  0  0
  8  9  1  0  0  0  0
  8 23  1  0  0  0  0
  9 14  1  0  0  0  0
  9 10  1  0  0  0  0
  9 24  1  0  0  0  0
 10 11  1  0  0  0  0
 10 25  1  0  0  0  0
 10 26  1  0  0  0  0
 11 12  1  0  0  0  0
 11 27  1  0  0  0  0
 11 28  1  0  0  0  0
 12 13  1  0  0  0  0
 12 29  1  0  0  0  0
 12 30  1  0  0  0  0
 13 14  1  0  0  0  0
 13 31  1  0  0  0  0
 13 32  1  0  0  0  0
 14 15  1  0  0  0  0
 14 33  1  0  0  0  0
 15 34  1  0  0  0  0
 15 35  1  0  0  0  0
 15 36  1  0  0  0  0
 16 17  1  0  0  0  0
M  END
> <s_m_source_file>
AV-unprocessed.smi

> <i_m_source_file_index>
2945

> <i_lp_mmshare_version>
43012

> <i_f3d_flags>
0

> <s_epik_input>
W0NIM11jMVtjSF1jKG5vMSlbTkhdQyg9TylbTkhdW0NAQEhdMltDSDJdW0NIMl1bQ0gyXVtDSDJdW0NASF0yW0NIM10=

> <s_epik_cmdline>
J2VwaWtfcHl0aG9uJywgJy1waCcsICc3LjAnLCAnLXRuJywgJzgnLCAnLW1hJywgJzIwMCcsICctbWV0YWxfYmluZGluZycsICctaW1hZScsICc8aW5maWxlLm1hZT4nLCAnLW9tYWUnLCAnPG91dGZpbGUubWFlPic=

> <r_lp_tautomer_probability>
1

> <r_epik_Ionization_Penalty>
2.357e-05

> <r_epik_Ionization_Penalty_Charging>
0

> <r_epik_Ionization_Penalty_Neutral>
2.357e-05

> <r_epik_State_Penalty>
-0

> <r_epik_Charging_Adjusted_Penalty>
0

> <i_epik_Tot_Q>
0

> <i_epik_Tot_abs_Q>
0

> <r_epik_Metal_State_Penalty>
-0

> <b_epik_Metal_Only>
0

> <s_lp_Force_Field>
OPLS_2005

> <r_lp_Energy>
8.52615

> <b_lp_Chiralities_Consistent>
1

> <s_lp_Variant>
AV-unprocessed.smi:2945-1

> <Gold.Version>
5.8.1

> <Gold.Id.Protein>
6NUR|6NUR_protein|mol2

> <Gold.PLP.Fitness>
40.9126

> <Gold.PLP.PLP>
-37.6041

> <Gold.PLP.part.hbond>
-2.2595

> <Gold.PLP.part.metal>
0.0000

> <Gold.PLP.part.buried>
-4.9558

> <Gold.PLP.part.nonpolar>
-32.9888

> <Gold.PLP.part.repulsive>
3.2509

> <Gold.PLP.ligand.clash>
0.0000

> <Gold.PLP.ligand.torsion>
0.3241

> <Gold.PLP.Chemscore.Hbond>
1.3176

> <Gold.PLP.Chemscore.CHOScore>
0.0000

> <Gold.PLP.Chemscore.Metal>
0.0000

> <Gold.Chemscore.Hbonds>
donor molecule, donor type, donor heavy atom, donor atom, acceptor molecule, acceptor atom, score
      L1  H     5    22       P1  8028  0.58
      P1  H  7989  7998       L1    16  0.59

> <Gold.PLP.Chemscore.Internal.Correction>
0.0040

> <Gold.Rescore>
     Score         DG    S(hbond)    S(metal)    S(lipo)     H(rot)  DE(clash)    DE(int)     intcor
     14.50     -19.14       1.50        0.00      95.88       1.00       1.72       2.91       ----

> <Gold.Chemscore.Fitness>
14.5006

> <Gold.Chemscore.DG>
-19.1355

> <Gold.Chemscore.ZeroCoef>
-5.4800

> <Gold.Chemscore.Hbond>
1.4964

> <Gold.Chemscore.Metal>
0.0000

> <Gold.Chemscore.Lipo>
95.8759

> <Gold.Chemscore.Internal_Hbond>
0.0000

> <Gold.Chemscore.DEClash>
1.7208

> <Gold.Chemscore.DEInternal>
2.9141

> <Gold.Chemscore.Rot>
1.0000

> <Gold.Chemscore.Internal.Correction>
   9.000000E+99

> <Gold.Chemscore.Hbonds>
donor molecule, donor type, donor heavy atom, donor atom, acceptor molecule, acceptor atom, score
      L1  H     5    22       P1  8028  0.58
      P1  H  7989  7998       L1    16  0.06

> <Gold.Chemscore.Hbond.Weighted>
-4.9980

> <Gold.Chemscore.Metal.Weighted>
-0.0000

> <Gold.Chemscore.Lipo.Weighted>
-11.2175

> <Gold.Chemscore.Internal_Hbond.Weighted>
0.0000

> <Gold.Chemscore.DEClash.Weighted>
1.7208

> <Gold.Chemscore.DEInternal.Weighted>
2.9141

> <Gold.Chemscore.Rot.Weighted>
2.5600

> <Gold.Chemscore.Internal.Correction.Weighted>
   9.000000E+99

> <Gold.Protein.RotatedTorsions>
[ 6907 6896 6895 6894 ] final   29.30 input  -60.11 | X-H torsion
[ 7974 7965 7964 7962 ] final   40.09 input  175.53 | X-H torsion
[ 8008 7997 7996 7995 ] final -131.44 input   59.86 | X-H torsion
[ 10167 10162 10161 10158 ] final -174.25 input  -65.29 | X-H torsion
[ 10718 10713 10712 10709 ] final   71.03 input   66.30 | X-H torsion
[ 10763 10752 10751 10750 ] final   -0.05 input  -60.55 | X-H torsion
[ 11005 11000 10999 10996 ] final  126.81 input  -57.11 | X-H torsion

> <Gold.Protein.ActiveResidues>
 VAL166  LYS551  ARG553  GLY616  TRP617  ASP618  TYR619  PRO620  LYS621  CYS622 
 ASP623  PHE694  ASN695  SER759  ASP760  ASP761  ALA762  ILE779  LEU786  VAL792 
 PHE793  MET794  SER795  GLU796  ALA797  LYS798  CYS799  TRP800  GLU811  SER814 

> <Gold.Protein.RotatedAtoms>
  152.0295  134.9776  160.0572 H   0  0  0  0  0  0  0  0  0  0  0  0  # atno 6907 bound_to 6896
  152.1258  133.4374  159.4705 H   0  0  0  0  0  0  0  0  0  0  0  0  # atno 6908 bound_to 6896
  150.6852  134.2399  159.4511 H   0  0  0  0  0  0  0  0  0  0  0  0  # atno 6909 bound_to 6896
  146.0932  139.5574  142.9462 H   0  0  0  0  0  0  0  0  0  0  0  0  # atno 7974 bound_to 7965
  155.3124  140.0458  157.3035 H   0  0  0  0  0  0  0  0  0  0  0  0  # atno 8008 bound_to 7997
  154.5425  140.2292  155.8583 H   0  0  0  0  0  0  0  0  0  0  0  0  # atno 8009 bound_to 7997
  156.1894  140.3054  155.9309 H   0  0  0  0  0  0  0  0  0  0  0  0  # atno 8010 bound_to 7997
  139.5644  144.1792  152.1289 H   0  0  0  0  0  0  0  0  0  0  0  0  # atno 10167 bound_to 10162
  157.6431  130.9508  150.0733 H   0  0  0  0  0  0  0  0  0  0  0  0  # atno 10718 bound_to 10713
  153.3269  135.6972  153.6981 H   0  0  0  0  0  0  0  0  0  0  0  0  # atno 10763 bound_to 10752
  153.5799  135.3500  155.2871 H   0  0  0  0  0  0  0  0  0  0  0  0  # atno 10764 bound_to 10752
  154.8610  135.4292  154.2448 H   0  0  0  0  0  0  0  0  0  0  0  0  # atno 10765 bound_to 10752
  139.9475  134.9627  156.8762 H   0  0  0  0  0  0  0  0  0  0  0  0  # atno 11005 bound_to 11000
  145.5998  141.0357  143.2024 LP  0  0  0  0  0  0  0  0  0  0  0  0  # atno 17320 bound_to 7965
  144.7376  139.7541  143.7323 LP  0  0  0  0  0  0  0  0  0  0  0  0  # atno 17321 bound_to 7965
  140.1312  144.5287  150.6802 LP  0  0  0  0  0  0  0  0  0  0  0  0  # atno 17342 bound_to 10162
  140.6926  143.2385  151.5089 LP  0  0  0  0  0  0  0  0  0  0  0  0  # atno 17343 bound_to 10162
  156.1731  130.3647  149.9138 LP  0  0  0  0  0  0  0  0  0  0  0  0  # atno 17370 bound_to 10713
  156.7108  130.8969  151.3609 LP  0  0  0  0  0  0  0  0  0  0  0  0  # atno 17371 bound_to 10713
  140.5799  134.0362  155.7460 LP  0  0  0  0  0  0  0  0  0  0  0  0  # atno 17394 bound_to 11000
  141.1129  133.9586  157.2876 LP  0  0  0  0  0  0  0  0  0  0  0  0  # atno 17395 bound_to 11000

$$$$
