AV-unprocessed.smi:2032|AV-procd|sdf|8258|dock7
  -GOLD-   2272010533D 1   1.00000     0.00000
 Structure written by MMmdl.
 42 43  0  0  0  0  0  0  0  0  3 V2000
  152.6956  144.9370  158.2938 C   0  0  0  0  0  0  0  0  0  0  0  0
  151.6045  144.1822  159.0742 C   0  0  1  0  0  0  0  0  0  0  0  0
  150.6057  143.4342  158.1677 C   0  0  0  0  0  0  0  0  0  0  0  0
  151.2100  142.2074  157.5801 N   0  3  2  0  0  0  0  0  0  0  0  0
  150.3392  141.4307  156.6397 C   0  0  1  0  0  0  0  0  0  0  0  0
  151.0714  140.2702  155.9232 C   0  0  0  0  0  0  0  0  0  0  0  0
  149.0960  140.8936  157.3956 C   0  0  0  0  0  0  0  0  0  0  0  0
  148.3470  139.9048  156.6266 N   0  0  0  0  0  0  0  0  0  0  0  0
  147.0424  139.9759  156.3270 C   0  0  0  0  0  0  0  0  0  0  0  0
  146.3712  140.9295  156.7290 O   0  0  0  0  0  0  0  0  0  0  0  0
  146.6008  138.9428  155.5757 N   0  5  0  0  0  0  0  0  0  0  0  0
  146.6806  139.0040  154.2365 C   0  0  0  0  0  0  0  0  0  0  0  0
  146.0320  138.1583  153.4278 N   0  0  0  0  0  0  0  0  0  0  0  0
  146.2623  138.3996  152.0723 C   0  0  0  0  0  0  0  0  0  0  0  0
  147.1130  139.4484  151.8438 C   0  0  0  0  0  0  0  0  0  0  0  0
  147.6536  140.1685  153.3334 S   0  0  0  0  0  0  0  0  0  0  0  0
  151.7588  141.3593  158.6708 C   0  0  0  0  0  0  0  0  0  0  0  0
  152.7795  142.1403  159.5154 C   0  0  2  0  0  0  0  0  0  0  0  0
  153.3099  141.3093  160.6891 C   0  0  0  0  0  0  0  0  0  0  0  0
  152.1538  143.3009  160.0512 O   0  0  0  0  0  0  0  0  0  0  0  0
  152.2545  145.7071  157.6604 H   0  0  0  0  0  0  0  0  0  0  0  0
  153.2730  144.2783  157.6457 H   0  0  0  0  0  0  0  0  0  0  0  0
  153.3897  145.4303  158.9745 H   0  0  0  0  0  0  0  0  0  0  0  0
  151.0442  144.9334  159.6319 H   0  0  0  0  0  0  0  0  0  0  0  0
  149.7227  143.1538  158.7443 H   0  0  0  0  0  0  0  0  0  0  0  0
  150.2781  144.1253  157.3917 H   0  0  0  0  0  0  0  0  0  0  0  0
  150.0100  142.1173  155.8582 H   0  0  0  0  0  0  0  0  0  0  0  0
  150.4011  139.7188  155.2638 H   0  0  0  0  0  0  0  0  0  0  0  0
  151.4845  139.5566  156.6368 H   0  0  0  0  0  0  0  0  0  0  0  0
  151.8804  140.6283  155.2864 H   0  0  0  0  0  0  0  0  0  0  0  0
  149.4089  140.4220  158.3276 H   0  0  0  0  0  0  0  0  0  0  0  0
  148.4116  141.6921  157.6804 H   0  0  0  0  0  0  0  0  0  0  0  0
  148.8588  139.1052  156.2827 H   0  0  0  0  0  0  0  0  0  0  0  0
  145.7789  137.7740  151.3370 H   0  0  0  0  0  0  0  0  0  0  0  0
  147.4539  139.8385  150.8968 H   0  0  0  0  0  0  0  0  0  0  0  0
  150.9406  141.0081  159.3023 H   0  0  0  0  0  0  0  0  0  0  0  0
  152.2432  140.4711  158.2685 H   0  0  0  0  0  0  0  0  0  0  0  0
  153.6285  142.4271  158.8946 H   0  0  0  0  0  0  0  0  0  0  0  0
  153.8052  140.4039  160.3372 H   0  0  0  0  0  0  0  0  0  0  0  0
  152.5029  141.0105  161.3586 H   0  0  0  0  0  0  0  0  0  0  0  0
  154.0341  141.8775  161.2735 H   0  0  0  0  0  0  0  0  0  0  0  0
  151.9953  142.5255  157.0305 H   0  0  0  0  0  0  0  0  0  0  0  0
  1  2  1  0  0  0  0
  1 21  1  0  0  0  0
  1 22  1  0  0  0  0
  1 23  1  0  0  0  0
  2 20  1  0  0  0  0
  2  3  1  0  0  0  0
  2 24  1  0  0  0  0
  3  4  1  0  0  0  0
  3 25  1  0  0  0  0
  3 26  1  0  0  0  0
  4  5  1  0  0  0  0
  4 17  1  0  0  0  0
  4 42  1  0  0  0  0
  5  6  1  0  0  0  0
  5  7  1  0  0  0  0
  5 27  1  0  0  0  0
  6 28  1  0  0  0  0
  6 29  1  0  0  0  0
  6 30  1  0  0  0  0
  7  8  1  0  0  0  0
  7 31  1  0  0  0  0
  7 32  1  0  0  0  0
  8  9  1  0  0  0  0
  8 33  1  0  0  0  0
  9 10  2  0  0  0  0
  9 11  1  0  0  0  0
 11 12  1  0  0  0  0
 12 16  1  0  0  0  0
 12 13  2  0  0  0  0
 13 14  1  0  0  0  0
 14 15  2  0  0  0  0
 14 34  1  0  0  0  0
 15 16  1  0  0  0  0
 15 35  1  0  0  0  0
 17 18  1  0  0  0  0
 17 36  1  0  0  0  0
 17 37  1  0  0  0  0
 18 19  1  0  0  0  0
 18 20  1  0  0  0  0
 18 38  1  0  0  0  0
 19 39  1  0  0  0  0
 19 40  1  0  0  0  0
 19 41  1  0  0  0  0
M  CHG  1   4   1
M  CHG  1  11  -1
M  END
> <s_m_source_file>
AV-unprocessed.smi

> <i_m_source_file_index>
2032

> <i_lp_mmshare_version>
43012

> <i_f3d_flags>
0

> <s_epik_input>
W0NIM11bQ0BASF0xW0NIMl1OKFtDSDJdW0NASF0oTzEpW0NIM10pW0NASF0oW0NIM10pW0NIMl1bTkhdQyg9TylbTkhdYzJuW2NIXVtjSF1zMg==

> <s_epik_cmdline>
J2VwaWtfcHl0aG9uJywgJy1waCcsICc3LjAnLCAnLXRuJywgJzgnLCAnLW1hJywgJzIwMCcsICctbWV0YWxfYmluZGluZycsICctaW1hZScsICc8aW5maWxlLm1hZT4nLCAnLW9tYWUnLCAnPG91dGZpbGUubWFlPic=

> <r_lp_tautomer_probability>
0.999

> <r_epik_Ionization_Penalty>
6.71699

> <r_epik_Ionization_Penalty_Charging>
5.88592

> <r_epik_Ionization_Penalty_Neutral>
0.831074

> <r_epik_State_Penalty>
6.08365

> <r_epik_Charging_Adjusted_Penalty>
11.9696

> <i_epik_Tot_Q>
0

> <i_epik_Tot_abs_Q>
2

> <r_epik_Metal_State_Penalty>
2.0947

> <b_epik_Metal_Only>
1

> <s_lp_Force_Field>
OPLS_2005

> <r_lp_Energy>
13.797

> <b_lp_Chiralities_Consistent>
1

> <s_lp_Variant>
AV-unprocessed.smi:2032-28

> <Gold.Version>
5.8.1

> <Gold.Id.Protein>
6NUR|6NUR_protein|mol2

> <Gold.PLP.Fitness>
35.2705

> <Gold.PLP.PLP>
-33.2095

> <Gold.PLP.part.hbond>
0.0000

> <Gold.PLP.part.metal>
0.0000

> <Gold.PLP.part.buried>
-0.5485

> <Gold.PLP.part.nonpolar>
-33.4874

> <Gold.PLP.part.repulsive>
0.2760

> <Gold.PLP.ligand.clash>
0.0000

> <Gold.PLP.ligand.torsion>
0.9377

> <Gold.PLP.Chemscore.Hbond>
0.0000

> <Gold.PLP.Chemscore.CHOScore>
1.2893

> <Gold.PLP.Chemscore.Metal>
0.0000

> <Gold.Chemscore.Hbonds>
donor molecule, donor type, donor heavy atom, donor atom, acceptor molecule, acceptor atom, score
      L1  C    14    34       P1 10171  0.78
      L1  C    15    35       P1  7957  0.51

> <Gold.PLP.Chemscore.Internal.Correction>
0.0684

> <Gold.Rescore>
     Score         DG    S(hbond)    S(metal)    S(lipo)     H(rot)  DE(clash)    DE(int)     intcor
     12.52     -13.54       0.00        0.00     103.42       1.58       0.03       0.99       ----

> <Gold.Chemscore.Fitness>
12.5154

> <Gold.Chemscore.DG>
-13.5381

> <Gold.Chemscore.ZeroCoef>
-5.4800

> <Gold.Chemscore.Hbond>
0.0000

> <Gold.Chemscore.Metal>
0.0000

> <Gold.Chemscore.Lipo>
103.4237

> <Gold.Chemscore.Internal_Hbond>
0.0000

> <Gold.Chemscore.DEClash>
0.0295

> <Gold.Chemscore.DEInternal>
0.9932

> <Gold.Chemscore.Rot>
1.5791

> <Gold.Chemscore.Internal.Correction>
   9.000000E+99

> <Gold.Chemscore.Hbond.Weighted>
-0.0000

> <Gold.Chemscore.Metal.Weighted>
-0.0000

> <Gold.Chemscore.Lipo.Weighted>
-12.1006

> <Gold.Chemscore.Internal_Hbond.Weighted>
0.0000

> <Gold.Chemscore.DEClash.Weighted>
0.0295

> <Gold.Chemscore.DEInternal.Weighted>
0.9932

> <Gold.Chemscore.Rot.Weighted>
4.0425

> <Gold.Chemscore.Internal.Correction.Weighted>
   9.000000E+99

> <Gold.Protein.RotatedTorsions>
[ 6907 6896 6895 6894 ] final -118.77 input  -60.11 | X-H torsion
[ 7974 7965 7964 7962 ] final -176.77 input  175.53 | X-H torsion
[ 8008 7997 7996 7995 ] final  127.05 input   59.86 | X-H torsion
[ 10167 10162 10161 10158 ] final   23.54 input  -65.29 | X-H torsion
[ 10718 10713 10712 10709 ] final   79.00 input   66.30 | X-H torsion
[ 10763 10752 10751 10750 ] final  146.19 input  -60.55 | X-H torsion
[ 11005 11000 10999 10996 ] final  -96.75 input  -57.11 | X-H torsion

> <Gold.Protein.ActiveResidues>
 VAL166  LYS551  ARG553  GLY616  TRP617  ASP618  TYR619  PRO620  LYS621  CYS622 
 ASP623  PHE694  ASN695  SER759  ASP760  ASP761  ALA762  ILE779  LEU786  VAL792 
 PHE793  MET794  SER795  GLU796  ALA797  LYS798  CYS799  TRP800  GLU811  SER814 

> <Gold.Protein.RotatedAtoms>
  150.8248  133.8191  159.3123 H   0  0  0  0  0  0  0  0  0  0  0  0  # atno 6907 bound_to 6896
  151.5938  135.1050  160.0054 H   0  0  0  0  0  0  0  0  0  0  0  0  # atno 6908 bound_to 6896
  152.4334  133.7277  159.6626 H   0  0  0  0  0  0  0  0  0  0  0  0  # atno 6909 bound_to 6896
  144.7127  140.1121  143.6410 H   0  0  0  0  0  0  0  0  0  0  0  0  # atno 7974 bound_to 7965
  156.2880  140.2678  156.2210 H   0  0  0  0  0  0  0  0  0  0  0  0  # atno 8008 bound_to 7997
  155.0168  140.0387  157.2439 H   0  0  0  0  0  0  0  0  0  0  0  0  # atno 8009 bound_to 7997
  154.7470  140.2736  155.6330 H   0  0  0  0  0  0  0  0  0  0  0  0  # atno 8010 bound_to 7997
  140.5260  143.9922  150.6441 H   0  0  0  0  0  0  0  0  0  0  0  0  # atno 10167 bound_to 10162
  157.6763  130.9894  150.1869 H   0  0  0  0  0  0  0  0  0  0  0  0  # atno 10718 bound_to 10713
  154.0178  135.2908  155.3384 H   0  0  0  0  0  0  0  0  0  0  0  0  # atno 10763 bound_to 10752
  154.7065  135.5167  153.8605 H   0  0  0  0  0  0  0  0  0  0  0  0  # atno 10764 bound_to 10752
  153.0694  135.6642  154.0403 H   0  0  0  0  0  0  0  0  0  0  0  0  # atno 10765 bound_to 10752
  141.1401  133.8120  157.0613 H   0  0  0  0  0  0  0  0  0  0  0  0  # atno 11005 bound_to 11000
  145.9446  139.2692  143.1248 LP  0  0  0  0  0  0  0  0  0  0  0  0  # atno 17320 bound_to 7965
  145.9388  140.8995  143.0318 LP  0  0  0  0  0  0  0  0  0  0  0  0  # atno 17321 bound_to 7965
  140.3284  143.3093  152.0713 LP  0  0  0  0  0  0  0  0  0  0  0  0  # atno 17342 bound_to 10162
  139.4938  144.6526  151.6642 LP  0  0  0  0  0  0  0  0  0  0  0  0  # atno 17343 bound_to 10162
  156.2589  130.3708  149.8152 LP  0  0  0  0  0  0  0  0  0  0  0  0  # atno 17370 bound_to 10713
  156.5903  130.8503  151.3406 LP  0  0  0  0  0  0  0  0  0  0  0  0  # atno 17371 bound_to 10713
  140.0569  134.9775  157.1237 LP  0  0  0  0  0  0  0  0  0  0  0  0  # atno 17394 bound_to 11000
  140.3905  134.2189  155.7166 LP  0  0  0  0  0  0  0  0  0  0  0  0  # atno 17395 bound_to 11000

$$$$
