AV-unprocessed.smi:3281|AV-procd|sdf|12558|dock10
  -GOLD-   2272018483D 1   1.00000     0.00000
 Structure written by MMmdl.
 36 37  0  0  0  0  0  0  0  0  1 V2000
  151.0531  135.1172  155.3962 C   0  0  0  0  0  0  0  0  0  0  0  0
  151.6192  136.0182  154.2932 C   0  0  0  0  0  0  0  0  0  0  0  0
  151.4841  137.4738  154.5971 C   0  0  0  0  0  0  0  0  0  0  0  0
  150.8135  138.4232  153.8664 C   0  0  0  0  0  0  0  0  0  0  0  0
  150.8807  139.7072  154.4115 N   0  0  0  0  0  0  0  0  0  0  0  0
  151.5785  139.7428  155.5496 C   0  0  0  0  0  0  0  0  0  0  0  0
  151.8425  140.9952  156.3225 C   0  0  0  0  0  0  0  0  0  0  0  0
  151.4954  140.8717  157.8146 C   0  0  0  0  0  0  0  0  0  0  0  0
  152.4754  141.5793  158.6280 N   0  0  0  0  0  0  0  0  0  0  0  0
  151.8524  142.4916  159.5781 C   0  0  2  0  0  0  0  0  0  0  0  0
  151.4439  143.7615  158.8065 C   0  0  0  0  0  0  0  0  0  0  0  0
  150.7211  144.7849  159.6966 C   0  0  0  0  0  0  0  0  0  0  0  0
  151.6019  145.2781  160.8526 C   0  0  0  0  0  0  0  0  0  0  0  0
  152.0648  143.9133  161.9528 S   0  0  0  0  0  0  0  0  0  0  0  0
  152.8315  142.8210  160.7248 C   0  0  0  0  0  0  0  0  0  0  0  0
  152.2267  138.1742  156.0126 S   0  0  0  0  0  0  0  0  0  0  0  0
  151.1753  134.0650  155.1390 H   0  0  0  0  0  0  0  0  0  0  0  0
  149.9892  135.3010  155.5491 H   0  0  0  0  0  0  0  0  0  0  0  0
  151.5626  135.2900  156.3445 H   0  0  0  0  0  0  0  0  0  0  0  0
  152.6704  135.7748  154.1350 H   0  0  0  0  0  0  0  0  0  0  0  0
  151.1142  135.7978  153.3522 H   0  0  0  0  0  0  0  0  0  0  0  0
  150.2680  138.2744  152.9463 H   0  0  0  0  0  0  0  0  0  0  0  0
  152.8890  141.2774  156.1986 H   0  0  0  0  0  0  0  0  0  0  0  0
  151.2541  141.7986  155.8789 H   0  0  0  0  0  0  0  0  0  0  0  0
  150.5083  141.2961  158.0012 H   0  0  0  0  0  0  0  0  0  0  0  0
  151.4501  139.8184  158.0897 H   0  0  0  0  0  0  0  0  0  0  0  0
  153.0671  140.9220  159.1170 H   0  0  0  0  0  0  0  0  0  0  0  0
  150.9505  142.0267  159.9798 H   0  0  0  0  0  0  0  0  0  0  0  0
  152.3227  144.2270  158.3575 H   0  0  0  0  0  0  0  0  0  0  0  0
  150.7867  143.4906  157.9790 H   0  0  0  0  0  0  0  0  0  0  0  0
  150.4165  145.6376  159.0890 H   0  0  0  0  0  0  0  0  0  0  0  0
  149.8031  144.3484  160.0923 H   0  0  0  0  0  0  0  0  0  0  0  0
  152.5076  145.7478  160.4677 H   0  0  0  0  0  0  0  0  0  0  0  0
  151.0728  146.0327  161.4351 H   0  0  0  0  0  0  0  0  0  0  0  0
  153.1564  141.9198  161.2439 H   0  0  0  0  0  0  0  0  0  0  0  0
  153.7291  143.3039  160.3365 H   0  0  0  0  0  0  0  0  0  0  0  0
  1  2  1  0  0  0  0
  1 17  1  0  0  0  0
  1 18  1  0  0  0  0
  1 19  1  0  0  0  0
  2  3  1  0  0  0  0
  2 20  1  0  0  0  0
  2 21  1  0  0  0  0
  3 16  1  0  0  0  0
  3  4  2  0  0  0  0
  4  5  1  0  0  0  0
  4 22  1  0  0  0  0
  5  6  2  0  0  0  0
  6  7  1  0  0  0  0
  6 16  1  0  0  0  0
  7  8  1  0  0  0  0
  7 23  1  0  0  0  0
  7 24  1  0  0  0  0
  8  9  1  0  0  0  0
  8 25  1  0  0  0  0
  8 26  1  0  0  0  0
  9 10  1  0  0  0  0
  9 27  1  0  0  0  0
 10 15  1  0  0  0  0
 10 11  1  0  0  0  0
 10 28  1  0  0  0  0
 11 12  1  0  0  0  0
 11 29  1  0  0  0  0
 11 30  1  0  0  0  0
 12 13  1  0  0  0  0
 12 31  1  0  0  0  0
 12 32  1  0  0  0  0
 13 14  1  0  0  0  0
 13 33  1  0  0  0  0
 13 34  1  0  0  0  0
 14 15  1  0  0  0  0
 15 35  1  0  0  0  0
 15 36  1  0  0  0  0
M  END
> <s_m_source_file>
AV-unprocessed.smi

> <i_m_source_file_index>
3281

> <i_lp_mmshare_version>
43012

> <i_f3d_flags>
0

> <s_epik_input>
W0NIM11bQ0gyXWMxW2NIXW5jKHMxKVtDSDJdW0NIMl1bTkhdW0NAQEhdMltDSDJdW0NIMl1bQ0gyXVNbQ0gyXTI=

> <s_epik_cmdline>
J2VwaWtfcHl0aG9uJywgJy1waCcsICc3LjAnLCAnLXRuJywgJzgnLCAnLW1hJywgJzIwMCcsICctbWV0YWxfYmluZGluZycsICctaW1hZScsICc8aW5maWxlLm1hZT4nLCAnLW9tYWUnLCAnPG91dGZpbGUubWFlPic=

> <r_epik_Ionization_Penalty>
2.53829

> <r_epik_Ionization_Penalty_Charging>
0

> <r_epik_Ionization_Penalty_Neutral>
2.53829

> <r_epik_State_Penalty>
2.70274

> <r_epik_Charging_Adjusted_Penalty>
2.70274

> <i_epik_Tot_Q>
0

> <i_epik_Tot_abs_Q>
0

> <r_epik_Metal_State_Penalty>
2.69977

> <b_epik_Metal_Only>
0

> <s_lp_Force_Field>
OPLS_2005

> <r_lp_Energy>
0.229732

> <b_lp_Chiralities_Consistent>
1

> <s_lp_Variant>
AV-unprocessed.smi:3281-3

> <Gold.Version>
5.8.1

> <Gold.Id.Protein>
6NUR|6NUR_protein|mol2

> <Gold.PLP.Fitness>
43.7786

> <Gold.PLP.PLP>
-36.8262

> <Gold.PLP.part.hbond>
-1.0000

> <Gold.PLP.part.metal>
0.0000

> <Gold.PLP.part.buried>
-3.2374

> <Gold.PLP.part.nonpolar>
-31.0938

> <Gold.PLP.part.repulsive>
0.1250

> <Gold.PLP.ligand.clash>
0.0000

> <Gold.PLP.ligand.torsion>
0.8670

> <Gold.PLP.Chemscore.Hbond>
1.0000

> <Gold.PLP.Chemscore.CHOScore>
1.8903

> <Gold.PLP.Chemscore.Metal>
0.0000

> <Gold.Chemscore.Hbonds>
donor molecule, donor type, donor heavy atom, donor atom, acceptor molecule, acceptor atom, score
      P1  H  7989  7998       L1     5  1.00
      L1  C     4    22       P1  7948  0.72
      L1  C     4    22       P1  7949  0.05
      L1  C     4    22       P1  7957  0.85

> <Gold.PLP.Chemscore.Internal.Correction>
0.0156

> <Gold.Rescore>
     Score         DG    S(hbond)    S(metal)    S(lipo)     H(rot)  DE(clash)    DE(int)     intcor
     17.47     -18.72       0.94        0.00     114.66       1.30       0.60       0.65       ----

> <Gold.Chemscore.Fitness>
17.4712

> <Gold.Chemscore.DG>
-18.7221

> <Gold.Chemscore.ZeroCoef>
-5.4800

> <Gold.Chemscore.Hbond>
0.9423

> <Gold.Chemscore.Metal>
0.0000

> <Gold.Chemscore.Lipo>
114.6646

> <Gold.Chemscore.Internal_Hbond>
0.0000

> <Gold.Chemscore.DEClash>
0.6043

> <Gold.Chemscore.DEInternal>
0.6466

> <Gold.Chemscore.Rot>
1.2972

> <Gold.Chemscore.Internal.Correction>
   9.000000E+99

> <Gold.Chemscore.Hbonds>
donor molecule, donor type, donor heavy atom, donor atom, acceptor molecule, acceptor atom, score
      P1  H  7989  7998       L1     5  0.37

> <Gold.Chemscore.Hbond.Weighted>
-3.1472

> <Gold.Chemscore.Metal.Weighted>
-0.0000

> <Gold.Chemscore.Lipo.Weighted>
-13.4158

> <Gold.Chemscore.Internal_Hbond.Weighted>
0.0000

> <Gold.Chemscore.DEClash.Weighted>
0.6043

> <Gold.Chemscore.DEInternal.Weighted>
0.6466

> <Gold.Chemscore.Rot.Weighted>
3.3208

> <Gold.Chemscore.Internal.Correction.Weighted>
   9.000000E+99

> <Gold.Protein.RotatedTorsions>
[ 6907 6896 6895 6894 ] final  -30.29 input  -60.11 | X-H torsion
[ 7974 7965 7964 7962 ] final -179.81 input  175.53 | X-H torsion
[ 8008 7997 7996 7995 ] final  119.17 input   59.86 | X-H torsion
[ 10167 10162 10161 10158 ] final  -40.07 input  -65.29 | X-H torsion
[ 10718 10713 10712 10709 ] final   60.14 input   66.30 | X-H torsion
[ 10763 10752 10751 10750 ] final -121.88 input  -60.55 | X-H torsion
[ 11005 11000 10999 10996 ] final -160.55 input  -57.11 | X-H torsion

> <Gold.Protein.ActiveResidues>
 VAL166  LYS551  ARG553  GLY616  TRP617  ASP618  TYR619  PRO620  LYS621  CYS622 
 ASP623  PHE694  ASN695  SER759  ASP760  ASP761  ALA762  ILE779  LEU786  VAL792 
 PHE793  MET794  SER795  GLU796  ALA797  LYS798  CYS799  TRP800  GLU811  SER814 

> <Gold.Protein.RotatedAtoms>
  151.1075  135.0008  159.8478 H   0  0  0  0  0  0  0  0  0  0  0  0  # atno 6907 bound_to 6896
  152.5441  134.1875  159.8670 H   0  0  0  0  0  0  0  0  0  0  0  0  # atno 6908 bound_to 6896
  151.1923  133.4615  159.2628 H   0  0  0  0  0  0  0  0  0  0  0  0  # atno 6909 bound_to 6896
  144.7139  140.0662  143.6431 H   0  0  0  0  0  0  0  0  0  0  0  0  # atno 7974 bound_to 7965
  156.2582  140.2859  156.0949 H   0  0  0  0  0  0  0  0  0  0  0  0  # atno 8008 bound_to 7997
  155.1423  140.0396  157.2819 H   0  0  0  0  0  0  0  0  0  0  0  0  # atno 8009 bound_to 7997
  154.6521  140.2547  155.7209 H   0  0  0  0  0  0  0  0  0  0  0  0  # atno 8010 bound_to 7997
  140.7045  143.3175  151.2872 H   0  0  0  0  0  0  0  0  0  0  0  0  # atno 10167 bound_to 10162
  157.5730  130.8922  149.9298 H   0  0  0  0  0  0  0  0  0  0  0  0  # atno 10718 bound_to 10713
  154.8678  135.4152  154.2692 H   0  0  0  0  0  0  0  0  0  0  0  0  # atno 10763 bound_to 10752
  153.3605  135.7003  153.6721 H   0  0  0  0  0  0  0  0  0  0  0  0  # atno 10764 bound_to 10752
  153.5624  135.3607  155.2777 H   0  0  0  0  0  0  0  0  0  0  0  0  # atno 10765 bound_to 10752
  140.6303  134.4658  157.5229 H   0  0  0  0  0  0  0  0  0  0  0  0  # atno 11005 bound_to 11000
  145.9822  139.2950  143.1035 LP  0  0  0  0  0  0  0  0  0  0  0  0  # atno 17320 bound_to 7965
  145.8998  140.9250  143.0509 LP  0  0  0  0  0  0  0  0  0  0  0  0  # atno 17321 bound_to 7965
  139.6619  144.0174  152.2698 LP  0  0  0  0  0  0  0  0  0  0  0  0  # atno 17342 bound_to 10162
  139.9744  144.6471  150.7959 LP  0  0  0  0  0  0  0  0  0  0  0  0  # atno 17343 bound_to 10162
  156.0775  130.3677  150.0649 LP  0  0  0  0  0  0  0  0  0  0  0  0  # atno 17370 bound_to 10713
  156.8799  130.9553  151.3600 LP  0  0  0  0  0  0  0  0  0  0  0  0  # atno 17371 bound_to 10713
  139.9119  134.8327  156.1500 LP  0  0  0  0  0  0  0  0  0  0  0  0  # atno 17394 bound_to 11000
  141.0680  133.6810  156.2083 LP  0  0  0  0  0  0  0  0  0  0  0  0  # atno 17395 bound_to 11000

$$$$
