AV-unprocessed.smi:1911|AV-procd|sdf|7744|dock1
  -GOLD-   22720 9483D 1   1.00000     0.00000
 Structure written by MMmdl.
 51 53  0  0  0  0  0  0  0  0  3 V2000
  146.9490  129.0915  151.1696 N   0  5  0  0  0  0  0  0  0  0  0  0
  147.8824  128.4149  151.8688 C   0  0  0  0  0  0  0  0  0  0  0  0
  148.5536  127.4540  151.4998 O   0  0  0  0  0  0  0  0  0  0  0  0
  148.0705  128.9731  153.2838 C   0  0  0  0  0  0  0  0  0  0  0  0
  148.4046  130.4197  153.2413 N   0  3  2  0  0  0  0  0  0  0  0  0
  149.3745  130.8071  154.2964 C   0  0  0  0  0  0  0  0  0  0  0  0
  149.8128  132.2728  154.1389 C   0  0  0  0  0  0  0  0  0  0  0  0
  148.6002  133.2165  154.1493 C   0  0  1  0  0  0  0  0  0  0  0  0
  149.0364  134.5924  153.9276 N   0  0  0  0  0  0  0  0  0  0  0  0
  149.3429  135.4688  154.8952 C   0  0  0  0  0  0  0  0  0  0  0  0
  149.2617  135.2086  156.0955 O   0  0  0  0  0  0  0  0  0  0  0  0
  149.7214  136.6514  154.3803 N   0  0  0  0  0  0  0  0  0  0  0  0
  150.1858  137.8048  155.0688 C   0  0  0  0  0  0  0  0  0  0  0  0
  150.4866  137.6849  156.4395 C   0  0  0  0  0  0  0  0  0  0  0  0
  150.9273  138.8172  157.1506 C   0  0  0  0  0  0  0  0  0  0  0  0
  151.0496  140.0515  156.4695 C   0  0  0  0  0  0  0  0  0  0  0  0
  151.4787  141.2146  157.1391 N   0  0  0  0  0  0  0  0  0  0  0  0
  151.0016  142.5414  156.7862 C   0  0  0  0  0  0  0  0  0  0  0  0
  151.6349  143.4694  157.8226 C   0  0  0  0  0  0  0  0  0  0  0  0
  151.7411  142.5860  159.0658 C   0  0  0  0  0  0  0  0  0  0  0  0
  151.9925  141.1831  158.5025 C   0  0  0  0  0  0  0  0  0  0  0  0
  150.7433  140.1717  155.1562 N   0  0  0  0  0  0  0  0  0  0  0  0
  150.3232  139.0833  154.4778 C   0  0  0  0  0  0  0  0  0  0  0  0
  147.5982  132.7767  153.0672 C   0  0  0  0  0  0  0  0  0  0  0  0
  147.2053  131.3004  153.2438 C   0  0  0  0  0  0  0  0  0  0  0  0
  147.2494  129.8784  150.5818 H   0  0  0  0  0  0  0  0  0  0  0  0
  147.1765  128.8061  153.8869 H   0  0  0  0  0  0  0  0  0  0  0  0
  148.8755  128.4100  153.7594 H   0  0  0  0  0  0  0  0  0  0  0  0
  148.9265  130.6497  155.2788 H   0  0  0  0  0  0  0  0  0  0  0  0
  150.2537  130.1641  154.2410 H   0  0  0  0  0  0  0  0  0  0  0  0
  150.5019  132.5388  154.9412 H   0  0  0  0  0  0  0  0  0  0  0  0
  150.3655  132.3863  153.2050 H   0  0  0  0  0  0  0  0  0  0  0  0
  148.1216  133.1435  155.1281 H   0  0  0  0  0  0  0  0  0  0  0  0
  149.1215  134.8951  152.9680 H   0  0  0  0  0  0  0  0  0  0  0  0
  149.6405  136.7487  153.3788 H   0  0  0  0  0  0  0  0  0  0  0  0
  150.3845  136.7355  156.9449 H   0  0  0  0  0  0  0  0  0  0  0  0
  151.1603  138.7218  158.2003 H   0  0  0  0  0  0  0  0  0  0  0  0
  151.2902  142.8193  155.7721 H   0  0  0  0  0  0  0  0  0  0  0  0
  149.9133  142.5665  156.8587 H   0  0  0  0  0  0  0  0  0  0  0  0
  152.6334  143.7616  157.4950 H   0  0  0  0  0  0  0  0  0  0  0  0
  151.0550  144.3773  157.9902 H   0  0  0  0  0  0  0  0  0  0  0  0
  152.5201  142.9112  159.7556 H   0  0  0  0  0  0  0  0  0  0  0  0
  150.7917  142.5992  159.6028 H   0  0  0  0  0  0  0  0  0  0  0  0
  151.5060  140.4225  159.1145 H   0  0  0  0  0  0  0  0  0  0  0  0
  153.0603  140.9645  158.4697 H   0  0  0  0  0  0  0  0  0  0  0  0
  150.0743  139.2663  153.4444 H   0  0  0  0  0  0  0  0  0  0  0  0
  146.7040  133.4003  153.1049 H   0  0  0  0  0  0  0  0  0  0  0  0
  148.0331  132.9197  152.0768 H   0  0  0  0  0  0  0  0  0  0  0  0
  146.5267  131.0142  152.4396 H   0  0  0  0  0  0  0  0  0  0  0  0
  146.6583  131.1683  154.1785 H   0  0  0  0  0  0  0  0  0  0  0  0
  148.8727  130.5574  152.3560 H   0  0  0  0  0  0  0  0  0  0  0  0
  1  2  1  0  0  0  0
  1 26  1  0  0  0  0
  2  3  2  0  0  0  0
  2  4  1  0  0  0  0
  4  5  1  0  0  0  0
  4 27  1  0  0  0  0
  4 28  1  0  0  0  0
  5 25  1  0  0  0  0
  5  6  1  0  0  0  0
  5 51  1  0  0  0  0
  6  7  1  0  0  0  0
  6 29  1  0  0  0  0
  6 30  1  0  0  0  0
  7  8  1  0  0  0  0
  7 31  1  0  0  0  0
  7 32  1  0  0  0  0
  8  9  1  0  0  0  0
  8 24  1  0  0  0  0
  8 33  1  0  0  0  0
  9 10  1  0  0  0  0
  9 34  1  0  0  0  0
 10 11  2  0  0  0  0
 10 12  1  0  0  0  0
 12 13  1  0  0  0  0
 12 35  1  0  0  0  0
 13 23  1  0  0  0  0
 13 14  2  0  0  0  0
 14 15  1  0  0  0  0
 14 36  1  0  0  0  0
 15 16  2  0  0  0  0
 15 37  1  0  0  0  0
 16 17  1  0  0  0  0
 16 22  1  0  0  0  0
 17 21  1  0  0  0  0
 17 18  1  0  0  0  0
 18 19  1  0  0  0  0
 18 38  1  0  0  0  0
 18 39  1  0  0  0  0
 19 20  1  0  0  0  0
 19 40  1  0  0  0  0
 19 41  1  0  0  0  0
 20 21  1  0  0  0  0
 20 42  1  0  0  0  0
 20 43  1  0  0  0  0
 21 44  1  0  0  0  0
 21 45  1  0  0  0  0
 22 23  2  0  0  0  0
 23 46  1  0  0  0  0
 24 25  1  0  0  0  0
 24 47  1  0  0  0  0
 24 48  1  0  0  0  0
 25 49  1  0  0  0  0
 25 50  1  0  0  0  0
M  CHG  1   1  -1
M  CHG  1   5   1
M  END
> <s_m_source_file>
AV-unprocessed.smi

> <i_m_source_file_index>
1911

> <i_lp_mmshare_version>
43012

> <i_f3d_flags>
0

> <s_epik_input>
W05IMl1DKD1PKVtDSDJdTjFbQ0gyXVtDSDJdW0NIXShbQ0gyXVtDSDJdMSlbTkhdQyg9TylbTkhdYzJbY0hdW2NIXWMobltjSF0yKU4zW0NIMl1bQ0gyXVtDSDJdW0NIMl0z

> <s_epik_cmdline>
J2VwaWtfcHl0aG9uJywgJy1waCcsICc3LjAnLCAnLXRuJywgJzgnLCAnLW1hJywgJzIwMCcsICctbWV0YWxfYmluZGluZycsICctaW1hZScsICc8aW5maWxlLm1hZT4nLCAnLW9tYWUnLCAnPG91dGZpbGUubWFlPic=

> <r_lp_tautomer_probability>
1

> <r_epik_Ionization_Penalty>
5.80652

> <r_epik_Ionization_Penalty_Charging>
5.7288

> <r_epik_Ionization_Penalty_Neutral>
0.0777157

> <r_epik_State_Penalty>
6.60246

> <r_epik_Charging_Adjusted_Penalty>
12.3313

> <i_epik_Tot_Q>
0

> <i_epik_Tot_abs_Q>
2

> <r_epik_Metal_State_Penalty>
2.64988

> <b_epik_Metal_Only>
1

> <s_lp_Force_Field>
OPLS_2005

> <r_lp_Energy>
33.5559

> <b_lp_Chiralities_Consistent>
1

> <s_lp_Variant>
AV-unprocessed.smi:1911-7

> <Gold.Version>
5.8.1

> <Gold.Id.Protein>
6NUR|6NUR_protein|mol2

> <Gold.PLP.Fitness>
51.3788

> <Gold.PLP.PLP>
-39.2448

> <Gold.PLP.part.hbond>
-5.1351

> <Gold.PLP.part.metal>
0.0000

> <Gold.PLP.part.buried>
-3.9793

> <Gold.PLP.part.nonpolar>
-29.8898

> <Gold.PLP.part.repulsive>
0.3094

> <Gold.PLP.ligand.clash>
0.0000

> <Gold.PLP.ligand.torsion>
1.0636

> <Gold.PLP.Chemscore.Hbond>
3.6920

> <Gold.PLP.Chemscore.CHOScore>
1.0000

> <Gold.PLP.Chemscore.Metal>
0.0000

> <Gold.Chemscore.Hbonds>
donor molecule, donor type, donor heavy atom, donor atom, acceptor molecule, acceptor atom, score
      L1  H     1    26       P1 10747  0.70
      L1  H     5    51       P1 10747  0.89
      L1  H     9    34       P1  7948  0.52
      L1  H    12    35       P1  7948  1.00
      P1  H  7989  7998       L1    22  0.50
      L1  C    23    46       P1  7957  1.00

> <Gold.PLP.Chemscore.Internal.Correction>
0.1852

> <Gold.Rescore>
     Score         DG    S(hbond)    S(metal)    S(lipo)     H(rot)  DE(clash)    DE(int)     intcor
     15.65     -19.54       2.51        0.00      89.65       1.88       0.52       3.37       ----

> <Gold.Chemscore.Fitness>
15.6489

> <Gold.Chemscore.DG>
-19.5411

> <Gold.Chemscore.ZeroCoef>
-5.4800

> <Gold.Chemscore.Hbond>
2.5097

> <Gold.Chemscore.Metal>
0.0000

> <Gold.Chemscore.Lipo>
89.6533

> <Gold.Chemscore.Internal_Hbond>
0.0000

> <Gold.Chemscore.DEClash>
0.5206

> <Gold.Chemscore.DEInternal>
3.3716

> <Gold.Chemscore.Rot>
1.8793

> <Gold.Chemscore.Internal.Correction>
   9.000000E+99

> <Gold.Chemscore.Hbonds>
donor molecule, donor type, donor heavy atom, donor atom, acceptor molecule, acceptor atom, score
      L1  H     1    26       P1 10747  0.68
      L1  H     5    51       P1 10747  0.34
      L1  H     9    34       P1  7948  0.03
      L1  H    12    35       P1  7948  0.58
      P1  H  7989  7998       L1    22  0.02

> <Gold.Chemscore.Hbond.Weighted>
-8.3826

> <Gold.Chemscore.Metal.Weighted>
-0.0000

> <Gold.Chemscore.Lipo.Weighted>
-10.4894

> <Gold.Chemscore.Internal_Hbond.Weighted>
0.0000

> <Gold.Chemscore.DEClash.Weighted>
0.5206

> <Gold.Chemscore.DEInternal.Weighted>
3.3716

> <Gold.Chemscore.Rot.Weighted>
4.8109

> <Gold.Chemscore.Internal.Correction.Weighted>
   9.000000E+99

> <Gold.Protein.RotatedTorsions>
[ 6907 6896 6895 6894 ] final   59.68 input  -60.11 | X-H torsion
[ 7974 7965 7964 7962 ] final   50.10 input  175.53 | X-H torsion
[ 8008 7997 7996 7995 ] final   33.10 input   59.86 | X-H torsion
[ 10167 10162 10161 10158 ] final  -87.08 input  -65.29 | X-H torsion
[ 10718 10713 10712 10709 ] final  -67.49 input   66.30 | X-H torsion
[ 10763 10752 10751 10750 ] final  -53.70 input  -60.55 | X-H torsion
[ 11005 11000 10999 10996 ] final   78.06 input  -57.11 | X-H torsion

> <Gold.Protein.ActiveResidues>
 VAL166  LYS551  ARG553  GLY616  TRP617  ASP618  TYR619  PRO620  LYS621  CYS622 
 ASP623  PHE694  ASN695  SER759  ASP760  ASP761  ALA762  ILE779  LEU786  VAL792 
 PHE793  MET794  SER795  GLU796  ALA797  LYS798  CYS799  TRP800  GLU811  SER814 

> <Gold.Protein.RotatedAtoms>
  152.3936  134.6401  160.0097 H   0  0  0  0  0  0  0  0  0  0  0  0  # atno 6907 bound_to 6896
  151.6628  133.3311  159.3186 H   0  0  0  0  0  0  0  0  0  0  0  0  # atno 6908 bound_to 6896
  150.7848  134.6866  159.6518 H   0  0  0  0  0  0  0  0  0  0  0  0  # atno 6909 bound_to 6896
  146.0045  139.4475  142.9994 H   0  0  0  0  0  0  0  0  0  0  0  0  # atno 7974 bound_to 7965
  155.1332  140.3259  155.4469 H   0  0  0  0  0  0  0  0  0  0  0  0  # atno 8008 bound_to 7997
  156.2628  140.2006  156.6400 H   0  0  0  0  0  0  0  0  0  0  0  0  # atno 8009 bound_to 7997
  154.6597  140.0549  157.0035 H   0  0  0  0  0  0  0  0  0  0  0  0  # atno 8010 bound_to 7997
  140.3880  143.2718  151.9301 H   0  0  0  0  0  0  0  0  0  0  0  0  # atno 10167 bound_to 10162
  156.0555  130.4279  150.1861 H   0  0  0  0  0  0  0  0  0  0  0  0  # atno 10718 bound_to 10713
  154.1630  135.6471  153.4990 H   0  0  0  0  0  0  0  0  0  0  0  0  # atno 10763 bound_to 10752
  153.0105  135.5365  154.6691 H   0  0  0  0  0  0  0  0  0  0  0  0  # atno 10764 bound_to 10752
  154.6010  135.2944  155.0507 H   0  0  0  0  0  0  0  0  0  0  0  0  # atno 10765 bound_to 10752
  139.9228  134.7733  156.1601 H   0  0  0  0  0  0  0  0  0  0  0  0  # atno 11005 bound_to 11000
  145.7437  140.9999  143.1287 LP  0  0  0  0  0  0  0  0  0  0  0  0  # atno 17320 bound_to 7965
  144.6931  139.9130  143.7464 LP  0  0  0  0  0  0  0  0  0  0  0  0  # atno 17321 bound_to 7965
  139.4791  144.5755  151.8018 LP  0  0  0  0  0  0  0  0  0  0  0  0  # atno 17342 bound_to 10162
  140.4869  144.1367  150.5943 LP  0  0  0  0  0  0  0  0  0  0  0  0  # atno 17343 bound_to 10162
  156.9938  130.9901  151.3408 LP  0  0  0  0  0  0  0  0  0  0  0  0  # atno 17370 bound_to 10713
  157.5521  130.8189  149.8158 LP  0  0  0  0  0  0  0  0  0  0  0  0  # atno 17371 bound_to 10713
  141.0763  133.6774  156.2244 LP  0  0  0  0  0  0  0  0  0  0  0  0  # atno 17394 bound_to 11000
  140.6423  134.5153  157.5570 LP  0  0  0  0  0  0  0  0  0  0  0  0  # atno 17395 bound_to 11000

$$$$
