AV-unprocessed.smi:2248|AV-procd|sdf|9094|dock5
  -GOLD-   2272012293D 1   1.00000     0.00000
 Structure written by MMmdl.
 35 36  0  0  0  0  0  0  0  0  1 V2000
  153.3257  141.5730  160.7034 C   0  0  0  0  0  0  0  0  0  0  0  0
  152.4926  142.6686  160.0721 C   0  0  0  0  0  0  0  0  0  0  0  0
  152.5131  143.9807  160.5841 C   0  0  0  0  0  0  0  0  0  0  0  0
  151.7181  144.9518  159.9499 C   0  0  0  0  0  0  0  0  0  0  0  0
  150.9419  144.5743  158.8371 C   0  0  0  0  0  0  0  0  0  0  0  0
  150.9793  143.2359  158.3854 C   0  0  0  0  0  0  0  0  0  0  0  0
  150.1618  142.9572  157.2582 N   0  0  0  0  0  0  0  0  0  0  0  0
  149.8963  141.7632  156.6993 C   0  0  0  0  0  0  0  0  0  0  0  0
  150.3403  140.6806  157.0832 O   0  0  0  0  0  0  0  0  0  0  0  0
  149.0702  141.8909  155.6512 N   0  0  0  0  0  0  0  0  0  0  0  0
  148.5850  140.7840  154.8346 C   0  0  2  0  0  0  0  0  0  0  0  0
  148.2164  139.6112  155.7011 C   0  0  0  0  0  0  0  0  0  0  0  0
  148.8530  138.4953  155.3536 C   0  0  0  0  0  0  0  0  0  0  0  0
  149.7861  138.6930  154.1863 C   0  0  2  0  0  0  0  0  0  0  0  0
  151.2254  138.2405  154.4871 C   0  0  0  0  0  0  0  0  0  0  0  0
  151.4032  136.8835  154.1389 O   0  0  0  0  0  0  0  0  0  0  0  0
  149.6742  140.2101  153.8900 C   0  0  0  0  0  0  0  0  0  0  0  0
  151.7490  142.3065  159.0047 N   0  0  0  0  0  0  0  0  0  0  0  0
  147.7005  141.0876  154.2720 H   0  0  0  0  0  0  0  0  0  0  0  0
  149.3911  138.1280  153.3408 H   0  0  0  0  0  0  0  0  0  0  0  0
  153.7070  141.8797  161.6776 H   0  0  0  0  0  0  0  0  0  0  0  0
  154.1750  141.3301  160.0643 H   0  0  0  0  0  0  0  0  0  0  0  0
  152.7302  140.6700  160.8420 H   0  0  0  0  0  0  0  0  0  0  0  0
  153.1204  144.2386  161.4392 H   0  0  0  0  0  0  0  0  0  0  0  0
  151.7037  145.9699  160.3096 H   0  0  0  0  0  0  0  0  0  0  0  0
  150.3261  145.3088  158.3385 H   0  0  0  0  0  0  0  0  0  0  0  0
  149.7262  143.7601  156.8292 H   0  0  0  0  0  0  0  0  0  0  0  0
  148.7513  142.8155  155.4019 H   0  0  0  0  0  0  0  0  0  0  0  0
  147.4967  139.6908  156.5025 H   0  0  0  0  0  0  0  0  0  0  0  0
  148.7268  137.5354  155.8324 H   0  0  0  0  0  0  0  0  0  0  0  0
  151.9362  138.8390  153.9165 H   0  0  0  0  0  0  0  0  0  0  0  0
  151.4633  138.3750  155.5429 H   0  0  0  0  0  0  0  0  0  0  0  0
  151.0960  136.7569  153.2541 H   0  0  0  0  0  0  0  0  0  0  0  0
  149.4106  140.3840  152.8460 H   0  0  0  0  0  0  0  0  0  0  0  0
  150.6335  140.7038  154.0537 H   0  0  0  0  0  0  0  0  0  0  0  0
  1  2  1  0  0  0  0
  1 21  1  0  0  0  0
  1 22  1  0  0  0  0
  1 23  1  0  0  0  0
  2 18  1  0  0  0  0
  2  3  2  0  0  0  0
  3  4  1  0  0  0  0
  3 24  1  0  0  0  0
  4  5  2  0  0  0  0
  4 25  1  0  0  0  0
  5  6  1  0  0  0  0
  5 26  1  0  0  0  0
  6  7  1  0  0  0  0
  6 18  2  0  0  0  0
  7  8  1  0  0  0  0
  7 27  1  0  0  0  0
  8  9  2  0  0  0  0
  8 10  1  0  0  0  0
 10 11  1  0  0  0  0
 10 28  1  0  0  0  0
 11 19  1  0  0  0  0
 11 17  1  0  0  0  0
 11 12  1  0  0  0  0
 12 13  2  0  0  0  0
 12 29  1  0  0  0  0
 13 14  1  0  0  0  0
 13 30  1  0  0  0  0
 14 20  1  0  0  0  0
 14 15  1  0  0  0  0
 14 17  1  0  0  0  0
 15 16  1  0  0  0  0
 15 31  1  0  0  0  0
 15 32  1  0  0  0  0
 16 33  1  0  0  0  0
 17 34  1  0  0  0  0
 17 35  1  0  0  0  0
M  END
> <s_m_source_file>
AV-unprocessed.smi

> <i_m_source_file_index>
2248

> <i_lp_mmshare_version>
43012

> <i_f3d_flags>
0

> <s_epik_input>
W0NIM11jMVtjSF1bY0hdW2NIXWMobjEpW05IXUMoPU8pW05IXVtDQEBIXTJbQ0hdPVtDSF1bQ0BASF0oW0NIMl0yKVtDSDJdW09IXQ==

> <s_epik_cmdline>
J2VwaWtfcHl0aG9uJywgJy1waCcsICc3LjAnLCAnLXRuJywgJzgnLCAnLW1hJywgJzIwMCcsICctbWV0YWxfYmluZGluZycsICctaW1hZScsICc8aW5maWxlLm1hZT4nLCAnLW9tYWUnLCAnPG91dGZpbGUubWFlPic=

> <r_lp_tautomer_probability>
1

> <r_epik_Ionization_Penalty>
8.36606e-05

> <r_epik_Ionization_Penalty_Charging>
0

> <r_epik_Ionization_Penalty_Neutral>
8.36606e-05

> <r_epik_State_Penalty>
-0

> <r_epik_Charging_Adjusted_Penalty>
0

> <i_epik_Tot_Q>
0

> <i_epik_Tot_abs_Q>
0

> <r_epik_Metal_State_Penalty>
-0

> <b_epik_Metal_Only>
0

> <s_lp_Force_Field>
OPLS_2005

> <r_lp_Energy>
17.2686

> <b_lp_Chiralities_Consistent>
1

> <s_lp_Variant>
AV-unprocessed.smi:2248-1

> <Gold.Version>
5.8.1

> <Gold.Id.Protein>
6NUR|6NUR_protein|mol2

> <Gold.PLP.Fitness>
46.3151

> <Gold.PLP.PLP>
-35.4657

> <Gold.PLP.part.hbond>
-4.0000

> <Gold.PLP.part.metal>
0.0000

> <Gold.PLP.part.buried>
-0.9121

> <Gold.PLP.part.nonpolar>
-30.6592

> <Gold.PLP.part.repulsive>
0.1527

> <Gold.PLP.ligand.clash>
0.0000

> <Gold.PLP.ligand.torsion>
0.5700

> <Gold.PLP.Chemscore.Hbond>
3.9920

> <Gold.PLP.Chemscore.CHOScore>
0.0000

> <Gold.PLP.Chemscore.Metal>
0.0000

> <Gold.Chemscore.Hbonds>
donor molecule, donor type, donor heavy atom, donor atom, acceptor molecule, acceptor atom, score
      L1  H     7    27       P1  8028  1.00
      L1  H    10    28       P1  8028  0.99
      L1  H    16    33       P1  7949  1.00
      P1  H 10752 10765       L1    16  1.00

> <Gold.PLP.Chemscore.Internal.Correction>
0.0133

> <Gold.Rescore>
     Score         DG    S(hbond)    S(metal)    S(lipo)     H(rot)  DE(clash)    DE(int)     intcor
     17.25     -24.13       3.67        0.00      94.39       1.82       3.44       3.45       ----

> <Gold.Chemscore.Fitness>
17.2458

> <Gold.Chemscore.DG>
-24.1344

> <Gold.Chemscore.ZeroCoef>
-5.4800

> <Gold.Chemscore.Hbond>
3.6724

> <Gold.Chemscore.Metal>
0.0000

> <Gold.Chemscore.Lipo>
94.3914

> <Gold.Chemscore.Internal_Hbond>
0.0000

> <Gold.Chemscore.DEClash>
3.4404

> <Gold.Chemscore.DEInternal>
3.4482

> <Gold.Chemscore.Rot>
1.8184

> <Gold.Chemscore.Internal.Correction>
   9.000000E+99

> <Gold.Chemscore.Hbonds>
donor molecule, donor type, donor heavy atom, donor atom, acceptor molecule, acceptor atom, score
      L1  H     7    27       P1  8028  0.97
      L1  H    10    28       P1  8028  0.93
      L1  H    16    33       P1  7949  0.39
      P1  H 10752 10765       L1    16  0.34

> <Gold.Chemscore.Hbond.Weighted>
-12.2657

> <Gold.Chemscore.Metal.Weighted>
-0.0000

> <Gold.Chemscore.Lipo.Weighted>
-11.0438

> <Gold.Chemscore.Internal_Hbond.Weighted>
0.0000

> <Gold.Chemscore.DEClash.Weighted>
3.4404

> <Gold.Chemscore.DEInternal.Weighted>
3.4482

> <Gold.Chemscore.Rot.Weighted>
4.6551

> <Gold.Chemscore.Internal.Correction.Weighted>
   9.000000E+99

> <Gold.Protein.RotatedTorsions>
[ 6907 6896 6895 6894 ] final -179.20 input  -60.11 | X-H torsion
[ 7974 7965 7964 7962 ] final  -17.96 input  175.53 | X-H torsion
[ 8008 7997 7996 7995 ] final   87.08 input   59.86 | X-H torsion
[ 10167 10162 10161 10158 ] final -132.35 input  -65.29 | X-H torsion
[ 10718 10713 10712 10709 ] final  -57.07 input   66.30 | X-H torsion
[ 10763 10752 10751 10750 ] final  158.39 input  -60.55 | X-H torsion
[ 11005 11000 10999 10996 ] final   36.03 input  -57.11 | X-H torsion

> <Gold.Protein.ActiveResidues>
 VAL166  LYS551  ARG553  GLY616  TRP617  ASP618  TYR619  PRO620  LYS621  CYS622 
 ASP623  PHE694  ASN695  SER759  ASP760  ASP761  ALA762  ILE779  LEU786  VAL792 
 PHE793  MET794  SER795  GLU796  ALA797  LYS798  CYS799  TRP800  GLU811  SER814 

> <Gold.Protein.RotatedAtoms>
  151.6496  133.3321  159.3148 H   0  0  0  0  0  0  0  0  0  0  0  0  # atno 6907 bound_to 6896
  150.7967  134.7035  159.6573 H   0  0  0  0  0  0  0  0  0  0  0  0  # atno 6908 bound_to 6896
  152.4055  134.6219  160.0104 H   0  0  0  0  0  0  0  0  0  0  0  0  # atno 6909 bound_to 6896
  146.1916  140.3853  142.8456 H   0  0  0  0  0  0  0  0  0  0  0  0  # atno 7974 bound_to 7965
  155.9709  140.3385  155.6575 H   0  0  0  0  0  0  0  0  0  0  0  0  # atno 8008 bound_to 7997
  155.6676  140.0723  157.2550 H   0  0  0  0  0  0  0  0  0  0  0  0  # atno 8009 bound_to 7997
  154.4166  140.1697  156.1831 H   0  0  0  0  0  0  0  0  0  0  0  0  # atno 8010 bound_to 7997
  139.9094  143.6512  152.2578 H   0  0  0  0  0  0  0  0  0  0  0  0  # atno 10167 bound_to 10162
  156.1239  130.4164  150.0391 H   0  0  0  0  0  0  0  0  0  0  0  0  # atno 10718 bound_to 10713
  154.2153  135.2784  155.2944 H   0  0  0  0  0  0  0  0  0  0  0  0  # atno 10763 bound_to 10752
  154.5746  135.5608  153.7130 H   0  0  0  0  0  0  0  0  0  0  0  0  # atno 10764 bound_to 10752
  153.0054  135.6329  154.2292 H   0  0  0  0  0  0  0  0  0  0  0  0  # atno 10765 bound_to 10752
  140.2366  134.3464  155.7942 H   0  0  0  0  0  0  0  0  0  0  0  0  # atno 11005 bound_to 11000
  144.8497  140.6982  143.6176 LP  0  0  0  0  0  0  0  0  0  0  0  0  # atno 17320 bound_to 7965
  145.3776  139.1644  143.4298 LP  0  0  0  0  0  0  0  0  0  0  0  0  # atno 17321 bound_to 7965
  139.6955  144.7642  151.1363 LP  0  0  0  0  0  0  0  0  0  0  0  0  # atno 17342 bound_to 10162
  140.7689  143.5529  150.9184 LP  0  0  0  0  0  0  0  0  0  0  0  0  # atno 17343 bound_to 10162
  156.8322  130.9396  151.3636 LP  0  0  0  0  0  0  0  0  0  0  0  0  # atno 17370 bound_to 10713
  157.6421  130.8814  149.9468 LP  0  0  0  0  0  0  0  0  0  0  0  0  # atno 17371 bound_to 10713
  141.2214  133.7275  156.8818 LP  0  0  0  0  0  0  0  0  0  0  0  0  # atno 17394 bound_to 11000
  140.1695  134.9109  157.2816 LP  0  0  0  0  0  0  0  0  0  0  0  0  # atno 17395 bound_to 11000

$$$$
