#       Name:                AV-unprocessed.smi:1803
#       Creating user name   scv26
#       Creation time:       Fri Mar 27 08:54:11 2020


#       File generated by GOLD software.
#

@<TRIPOS>MOLECULE
AV-unprocessed.smi:1803
    40    42     1
SMALL
NO_CHARGES


@<TRIPOS>ATOM
      1 ****        -2.7002  -2.0611   0.2565 O.2            1 S1                 0.0000
      2 ****        -1.5362  -2.1587   0.6403 C.2            1 S1                 0.0000
      3 ****        -0.9204  -3.3578   0.7073 N.am           1 S1                 0.0000
      4 ****        -1.3848  -4.6685   0.3934 C.2            1 S1                 0.0000
      5 ****        -2.6597  -4.9684   0.0948 N.2            1 S1                 0.0000
      6 ****        -2.8360  -6.3246  -0.1423 N.2            1 S1                 0.0000
      7 ****        -1.6915  -6.9989  -0.0015 C.2            1 S1                 0.0000
      8 ****        -0.2869  -6.0414   0.4346 S.3            1 S1                 0.0000
      9 ****        -0.8028  -1.0975   1.0161 N.am           1 S1                 0.0000
     10 ****        -1.2344   0.2976   0.9828 C.3            1 S1                 0.0000
     11 ****        -0.5983   1.1430   2.1037 C.3            1 S1                 0.0000
     12 ****        -0.2020   2.4583   1.4255 C.3            1 S1                 0.0000
     13 ****         0.1348   2.0365   0.0610 N.4            1 S1                 1.0000
     14 ****         0.3306   3.0763  -0.9695 C.3            1 S1                 0.0000
     15 ****         0.8440   2.3982  -2.2578 C.3            1 S1                 0.0000
     16 ****        -0.0601   1.2255  -2.7008 C.3            1 S1                 0.0000
     17 ****        -0.3279   0.2403  -1.5429 C.3            1 S1                 0.0000
     18 ****        -0.8621   1.0251  -0.3305 C.3            1 S1                 0.0000
     19 ****        -0.0027  -3.3334   1.1283 H              1 S1                 0.0000
     20 ****        -1.6754  -8.0684  -0.1511 H              1 S1                 0.0000
     21 ****         0.1428  -1.2724   1.3254 H              1 S1                 0.0000
     22 ****        -2.3188   0.3399   1.1037 H              1 S1                 0.0000
     23 ****        -1.2717   1.2968   2.9474 H              1 S1                 0.0000
     24 ****         0.2989   0.6529   2.4856 H              1 S1                 0.0000
     25 ****        -1.0473   3.1480   1.4010 H              1 S1                 0.0000
     26 ****         0.6353   2.9520   1.9193 H              1 S1                 0.0000
     27 ****        -0.6063   3.6038  -1.1542 H              1 S1                 0.0000
     28 ****         1.0536   3.8130  -0.6177 H              1 S1                 0.0000
     29 ****         0.9243   3.1323  -3.0600 H              1 S1                 0.0000
     30 ****         1.8535   2.0223  -2.0857 H              1 S1                 0.0000
     31 ****        -1.0098   1.6224  -3.0622 H              1 S1                 0.0000
     32 ****         0.3922   0.7002  -3.5426 H              1 S1                 0.0000
     33 ****        -1.0494  -0.5135  -1.8594 H              1 S1                 0.0000
     34 ****         0.5907  -0.2873  -1.2815 H              1 S1                 0.0000
     35 ****        -1.7607   1.5585  -0.6485 H              1 S1                 0.0000
     36 ****         1.0130   1.5443   0.1417 H              1 S1                 0.0000
     37 ****        -3.2080  -2.8793  -0.0130 LP             1 S1                 0.0000
     38 ****        -3.1390  -1.1636   0.2139 LP             1 S1                 0.0000
     39 ****        -3.3960  -4.2932   0.0488 LP             1 S1                 0.0000
     40 ****        -3.7100  -6.7442  -0.3877 LP             1 S1                 0.0000
@<TRIPOS>BOND
    1    1    2 2     
    2    2    3 am    
    3    2    9 am    
    4    3    4 1     
    5    3   19 1     
    6    4    8 1     
    7    4    5 2     
    8    5    6 1     
    9    6    7 2     
   10    7    8 1     
   11    7   20 1     
   12    9   10 1     
   13    9   21 1     
   14   10   18 1     
   15   10   11 1     
   16   10   22 1     
   17   11   12 1     
   18   11   23 1     
   19   11   24 1     
   20   12   13 1     
   21   12   25 1     
   22   12   26 1     
   23   13   18 1     
   24   13   14 1     
   25   13   36 1     
   26   14   15 1     
   27   14   27 1     
   28   14   28 1     
   29   15   16 1     
   30   15   29 1     
   31   15   30 1     
   32   16   17 1     
   33   16   31 1     
   34   16   32 1     
   35   17   18 1     
   36   17   33 1     
   37   17   34 1     
   38   18   35 1     
   39    1   37 1     
   40    1   38 1     
   41    5   39 1     
   42    6   40 1     
@<TRIPOS>SUBSTRUCTURE
      1 S1             1
@<TRIPOS>SET
LONE_PAIRS      STATIC     ATOMS    <user>   **** ""
4 37 38 39 40
DONOR_HYDROGENS      STATIC     ATOMS    <user>   **** ""
3 19 21 36
ATOM$BLUE        STATIC     ATOMS    COLORGROUP SYSTEM
4 37 38 39 40
ATOM$RED        STATIC     ATOMS    COLORGROUP SYSTEM
3 19 21 36
