AV-unprocessed.smi:2461|AV-procd|sdf|9716|dock6
  -GOLD-   2272013353D 1   1.00000     0.00000
 Structure written by MMmdl.
 36 37  0  0  0  0  0  0  0  0  1 V2000
  144.3423  131.7969  150.5008 C   0  0  0  0  0  0  0  0  0  0  0  0
  144.0460  133.1374  151.1882 C   0  0  0  0  0  0  0  0  0  0  0  0
  145.2992  133.9394  151.5233 C   0  0  0  0  0  0  0  0  0  0  0  0
  144.9813  135.4077  151.8179 C   0  0  0  0  0  0  0  0  0  0  0  0
  146.1314  136.2684  152.0702 N   0  0  0  0  0  0  0  0  0  0  0  0
  146.0886  137.4354  152.7282 C   0  0  0  0  0  0  0  0  0  0  0  0
  145.0491  137.9345  153.1597 O   0  0  0  0  0  0  0  0  0  0  0  0
  147.3173  137.9655  152.8574 N   0  0  0  0  0  0  0  0  0  0  0  0
  147.6849  139.1715  153.5102 C   0  0  0  0  0  0  0  0  0  0  0  0
  149.0143  139.2310  153.9852 C   0  0  0  0  0  0  0  0  0  0  0  0
  149.4175  140.4086  154.6474 C   0  0  0  0  0  0  0  0  0  0  0  0
  150.7043  140.5021  155.1359 O   0  0  0  0  0  0  0  0  0  0  0  0
  150.9693  141.4628  156.1517 C   0  0  0  0  0  0  0  0  0  0  0  0
  148.5646  141.4481  154.8152 N   0  0  0  0  0  0  0  0  0  0  0  0
  147.3328  141.2983  154.3270 C   0  0  0  0  0  0  0  0  0  0  0  0
  146.8535  140.2271  153.6920 N   0  0  0  0  0  0  0  0  0  0  0  0
  146.4349  133.2529  152.2659 C   0  0  0  0  0  0  0  0  0  0  0  0
  146.5974  133.6011  150.8133 C   0  0  0  0  0  0  0  0  0  0  0  0
  143.4186  131.2509  150.3094 H   0  0  0  0  0  0  0  0  0  0  0  0
  144.9757  131.1657  151.1245 H   0  0  0  0  0  0  0  0  0  0  0  0
  144.8460  131.9342  149.5443 H   0  0  0  0  0  0  0  0  0  0  0  0
  143.3872  133.7418  150.5642 H   0  0  0  0  0  0  0  0  0  0  0  0
  143.4940  132.9421  152.1082 H   0  0  0  0  0  0  0  0  0  0  0  0
  144.4470  135.8244  150.9642 H   0  0  0  0  0  0  0  0  0  0  0  0
  144.2881  135.4891  152.6564 H   0  0  0  0  0  0  0  0  0  0  0  0
  147.0276  135.9353  151.7462 H   0  0  0  0  0  0  0  0  0  0  0  0
  148.0797  137.4342  152.4637 H   0  0  0  0  0  0  0  0  0  0  0  0
  149.6997  138.4060  153.8555 H   0  0  0  0  0  0  0  0  0  0  0  0
  152.0194  141.4045  156.4375 H   0  0  0  0  0  0  0  0  0  0  0  0
  150.3728  141.2739  157.0454 H   0  0  0  0  0  0  0  0  0  0  0  0
  150.7778  142.4780  155.8010 H   0  0  0  0  0  0  0  0  0  0  0  0
  146.6541  142.1280  154.4590 H   0  0  0  0  0  0  0  0  0  0  0  0
  147.0189  133.8316  152.9783 H   0  0  0  0  0  0  0  0  0  0  0  0
  146.3157  132.2012  152.5181 H   0  0  0  0  0  0  0  0  0  0  0  0
  146.5870  132.7805  150.0989 H   0  0  0  0  0  0  0  0  0  0  0  0
  147.2768  134.4159  150.5711 H   0  0  0  0  0  0  0  0  0  0  0  0
  1  2  1  0  0  0  0
  1 19  1  0  0  0  0
  1 20  1  0  0  0  0
  1 21  1  0  0  0  0
  2  3  1  0  0  0  0
  2 22  1  0  0  0  0
  2 23  1  0  0  0  0
  3 18  1  0  0  0  0
  3  4  1  0  0  0  0
  3 17  1  0  0  0  0
  4  5  1  0  0  0  0
  4 24  1  0  0  0  0
  4 25  1  0  0  0  0
  5  6  1  0  0  0  0
  5 26  1  0  0  0  0
  6  7  2  0  0  0  0
  6  8  1  0  0  0  0
  8  9  1  0  0  0  0
  8 27  1  0  0  0  0
  9 16  1  0  0  0  0
  9 10  2  0  0  0  0
 10 11  1  0  0  0  0
 10 28  1  0  0  0  0
 11 12  1  0  0  0  0
 11 14  2  0  0  0  0
 12 13  1  0  0  0  0
 13 29  1  0  0  0  0
 13 30  1  0  0  0  0
 13 31  1  0  0  0  0
 14 15  1  0  0  0  0
 15 16  2  0  0  0  0
 15 32  1  0  0  0  0
 17 18  1  0  0  0  0
 17 33  1  0  0  0  0
 17 34  1  0  0  0  0
 18 35  1  0  0  0  0
 18 36  1  0  0  0  0
M  END
> <s_m_source_file>
AV-unprocessed.smi

> <i_m_source_file_index>
2461

> <i_lp_mmshare_version>
43012

> <i_f3d_flags>
0

> <s_epik_input>
W0NIM11bQ0gyXUMxKFtDSDJdW0NIMl0xKVtDSDJdW05IXUMoPU8pW05IXWMyW2NIXWMoT1tDSDNdKW5bY0hdbjI=

> <s_epik_cmdline>
J2VwaWtfcHl0aG9uJywgJy1waCcsICc3LjAnLCAnLXRuJywgJzgnLCAnLW1hJywgJzIwMCcsICctbWV0YWxfYmluZGluZycsICctaW1hZScsICc8aW5maWxlLm1hZT4nLCAnLW9tYWUnLCAnPG91dGZpbGUubWFlPic=

> <r_lp_tautomer_probability>
1

> <r_epik_Ionization_Penalty>
2.7206e-05

> <r_epik_Ionization_Penalty_Charging>
0

> <r_epik_Ionization_Penalty_Neutral>
2.7206e-05

> <r_epik_State_Penalty>
-0

> <r_epik_Charging_Adjusted_Penalty>
0

> <i_epik_Tot_Q>
0

> <i_epik_Tot_abs_Q>
0

> <r_epik_Metal_State_Penalty>
-0

> <b_epik_Metal_Only>
0

> <s_lp_Force_Field>
OPLS_2005

> <r_lp_Energy>
17.684

> <b_lp_Chiralities_Consistent>
1

> <s_lp_Variant>
AV-unprocessed.smi:2461-1

> <Gold.Version>
5.8.1

> <Gold.Id.Protein>
6NUR|6NUR_protein|mol2

> <Gold.PLP.Fitness>
37.6815

> <Gold.PLP.PLP>
-30.2164

> <Gold.PLP.part.hbond>
-3.0000

> <Gold.PLP.part.metal>
0.0000

> <Gold.PLP.part.buried>
-4.5854

> <Gold.PLP.part.nonpolar>
-23.7655

> <Gold.PLP.part.repulsive>
1.7366

> <Gold.PLP.ligand.clash>
0.0000

> <Gold.PLP.ligand.torsion>
1.2504

> <Gold.PLP.Chemscore.Hbond>
2.9120

> <Gold.PLP.Chemscore.CHOScore>
0.0000

> <Gold.PLP.Chemscore.Metal>
0.0000

> <Gold.Chemscore.Hbonds>
donor molecule, donor type, donor heavy atom, donor atom, acceptor molecule, acceptor atom, score
      L1  H     5    26       P1  7948  0.91
      L1  H     8    27       P1  7948  1.00
      P1  H  7989  7998       L1    12  0.95

> <Gold.PLP.Chemscore.Internal.Correction>
1.2299

> <Gold.Rescore>
     Score         DG    S(hbond)    S(metal)    S(lipo)     H(rot)  DE(clash)    DE(int)     intcor
     12.61     -15.33       2.51        0.00      53.32       1.87       0.30       2.42       ----

> <Gold.Chemscore.Fitness>
12.6085

> <Gold.Chemscore.DG>
-15.3311

> <Gold.Chemscore.ZeroCoef>
-5.4800

> <Gold.Chemscore.Hbond>
2.5124

> <Gold.Chemscore.Metal>
0.0000

> <Gold.Chemscore.Lipo>
53.3152

> <Gold.Chemscore.Internal_Hbond>
0.0000

> <Gold.Chemscore.DEClash>
0.3006

> <Gold.Chemscore.DEInternal>
2.4220

> <Gold.Chemscore.Rot>
1.8664

> <Gold.Chemscore.Internal.Correction>
   9.000000E+99

> <Gold.Chemscore.Hbonds>
donor molecule, donor type, donor heavy atom, donor atom, acceptor molecule, acceptor atom, score
      L1  H     5    26       P1  7948  0.88
      L1  H     8    27       P1  7948  0.98
      P1  H  7989  7998       L1    12  0.17

> <Gold.Chemscore.Hbond.Weighted>
-8.3913

> <Gold.Chemscore.Metal.Weighted>
-0.0000

> <Gold.Chemscore.Lipo.Weighted>
-6.2379

> <Gold.Chemscore.Internal_Hbond.Weighted>
0.0000

> <Gold.Chemscore.DEClash.Weighted>
0.3006

> <Gold.Chemscore.DEInternal.Weighted>
2.4220

> <Gold.Chemscore.Rot.Weighted>
4.7781

> <Gold.Chemscore.Internal.Correction.Weighted>
   9.000000E+99

> <Gold.Protein.RotatedTorsions>
[ 6907 6896 6895 6894 ] final  -89.80 input  -60.11 | X-H torsion
[ 7974 7965 7964 7962 ] final  110.84 input  175.53 | X-H torsion
[ 8008 7997 7996 7995 ] final   12.07 input   59.86 | X-H torsion
[ 10167 10162 10161 10158 ] final  -74.91 input  -65.29 | X-H torsion
[ 10718 10713 10712 10709 ] final -150.38 input   66.30 | X-H torsion
[ 10763 10752 10751 10750 ] final -140.28 input  -60.55 | X-H torsion
[ 11005 11000 10999 10996 ] final  135.89 input  -57.11 | X-H torsion

> <Gold.Protein.ActiveResidues>
 VAL166  LYS551  ARG553  GLY616  TRP617  ASP618  TYR619  PRO620  LYS621  CYS622 
 ASP623  PHE694  ASN695  SER759  ASP760  ASP761  ALA762  ILE779  LEU786  VAL792 
 PHE793  MET794  SER795  GLU796  ALA797  LYS798  CYS799  TRP800  GLU811  SER814 

> <Gold.Protein.RotatedAtoms>
  150.6876  134.2531  159.4518 H   0  0  0  0  0  0  0  0  0  0  0  0  # atno 6907 bound_to 6896
  152.0467  134.9676  160.0583 H   0  0  0  0  0  0  0  0  0  0  0  0  # atno 6908 bound_to 6896
  152.1156  133.4290  159.4688 H   0  0  0  0  0  0  0  0  0  0  0  0  # atno 6909 bound_to 6896
  145.2498  139.2744  143.4073 H   0  0  0  0  0  0  0  0  0  0  0  0  # atno 7974 bound_to 7965
  154.8156  140.2875  155.5822 H   0  0  0  0  0  0  0  0  0  0  0  0  # atno 8008 bound_to 7997
  156.2992  140.2560  156.2983 H   0  0  0  0  0  0  0  0  0  0  0  0  # atno 8009 bound_to 7997
  154.9397  140.0381  157.2080 H   0  0  0  0  0  0  0  0  0  0  0  0  # atno 8010 bound_to 7997
  140.4987  143.2365  151.7788 H   0  0  0  0  0  0  0  0  0  0  0  0  # atno 10167 bound_to 10162
  156.4454  130.8142  151.2372 H   0  0  0  0  0  0  0  0  0  0  0  0  # atno 10718 bound_to 10713
  154.8583  135.3558  154.5681 H   0  0  0  0  0  0  0  0  0  0  0  0  # atno 10763 bound_to 10752
  153.6295  135.7003  153.5285 H   0  0  0  0  0  0  0  0  0  0  0  0  # atno 10764 bound_to 10752
  153.3061  135.4192  155.1255 H   0  0  0  0  0  0  0  0  0  0  0  0  # atno 10765 bound_to 10752
  140.0010  134.9478  157.0071 H   0  0  0  0  0  0  0  0  0  0  0  0  # atno 11005 bound_to 11000
  146.3306  140.2885  142.8614 LP  0  0  0  0  0  0  0  0  0  0  0  0  # atno 17320 bound_to 7965
  144.9513  140.8181  143.5570 LP  0  0  0  0  0  0  0  0  0  0  0  0  # atno 17321 bound_to 7965
  139.4867  144.4551  151.9608 LP  0  0  0  0  0  0  0  0  0  0  0  0  # atno 17342 bound_to 10162
  140.3640  144.2938  150.5929 LP  0  0  0  0  0  0  0  0  0  0  0  0  # atno 17343 bound_to 10162
  157.7505  131.0155  150.3506 LP  0  0  0  0  0  0  0  0  0  0  0  0  # atno 17370 bound_to 10713
  156.3873  130.3891  149.7056 LP  0  0  0  0  0  0  0  0  0  0  0  0  # atno 17371 bound_to 10713
  140.4729  134.1368  155.7205 LP  0  0  0  0  0  0  0  0  0  0  0  0  # atno 17394 bound_to 11000
  141.1641  133.8736  157.1764 LP  0  0  0  0  0  0  0  0  0  0  0  0  # atno 17395 bound_to 11000

$$$$
