#       Name:                AV-unprocessed.smi:1033
#       Creating user name   scv26
#       Creation time:       Fri Mar 27 02:47:34 2020


#       File generated by GOLD software.
#

@<TRIPOS>MOLECULE
AV-unprocessed.smi:1033
    62    64     1
SMALL
NO_CHARGES


@<TRIPOS>ATOM
      1 ****        -1.8360   4.3256   3.7436 C.3            1 S1                 0.0000
      2 ****        -2.0455   3.5636   2.4467 C.ar           1 S1                 0.0000
      3 ****        -2.9742   2.4991   2.4179 C.ar           1 S1                 0.0000
      4 ****        -3.1990   1.7658   1.2325 C.ar           1 S1                 0.0000
      5 ****        -4.0442   0.6984   0.9824 N.2            1 S1                 0.0000
      6 ****        -3.8002   0.4579  -0.3022 C.2            1 S1                 0.0000
      7 ****        -2.8884   1.2385  -0.9132 N.pl3          1 S1                 0.0000
      8 ****        -2.4548   1.1516  -2.2957 C.3            1 S1                 0.0000
      9 ****        -1.4288   0.0237  -2.5200 C.3            1 S1                 0.0000
     10 ****        -1.0982   0.0069  -3.8940 O.3            1 S1                 0.0000
     11 ****        -0.1328   0.1952  -1.6968 C.3            1 S1                 0.0000
     12 ****         0.7865  -0.9628  -1.8306 N.4            1 S1                 1.0000
     13 ****         0.3714  -2.1471  -1.0308 C.3            1 S1                 0.0000
     14 ****         1.3482  -3.3159  -1.2674 C.3            1 S1                 0.0000
     15 ****         2.7350  -2.9809  -0.9432 N.3            1 S1                 0.0000
     16 ****         3.0164  -2.8018   0.4873 C.3            1 S1                 0.0000
     17 ****         2.8185  -4.0505   1.3757 C.3            1 S1                 0.0000
     18 ****         1.4608  -4.0805   2.0986 C.3            1 S1                 0.0000
     19 ****         3.8045  -4.0336   2.3874 O.3            1 S1                 0.0000
     20 ****         3.1248  -1.8186  -1.7419 C.3            1 S1                 0.0000
     21 ****         2.1981  -0.6007  -1.5392 C.3            1 S1                 0.0000
     22 ****        -2.4635   2.1299   0.0667 C.ar           1 S1                 0.0000
     23 ****        -1.5367   3.1874   0.0827 C.ar           1 S1                 0.0000
     24 ****        -1.3247   3.9097   1.2756 C.ar           1 S1                 0.0000
     25 ****        -0.3235   5.0515   1.2831 C.3            1 S1                 0.0000
     26 ****        -2.4336   3.9062   4.5534 H              1 S1                 0.0000
     27 ****        -2.1229   5.3704   3.6223 H              1 S1                 0.0000
     28 ****        -0.7896   4.2863   4.0467 H              1 S1                 0.0000
     29 ****        -3.5241   2.2360   3.3098 H              1 S1                 0.0000
     30 ****        -4.3083  -0.3367  -0.8290 H              1 S1                 0.0000
     31 ****        -3.3365   0.9900  -2.9176 H              1 S1                 0.0000
     32 ****        -2.0380   2.1151  -2.5922 H              1 S1                 0.0000
     33 ****        -1.9084  -0.9249  -2.2810 H              1 S1                 0.0000
     34 ****        -0.7736   0.8603  -4.1396 H              1 S1                 0.0000
     35 ****         0.3684   1.1065  -2.0272 H              1 S1                 0.0000
     36 ****        -0.3521   0.3390  -0.6383 H              1 S1                 0.0000
     37 ****         0.3255  -1.8878   0.0277 H              1 S1                 0.0000
     38 ****        -0.6306  -2.4640  -1.3167 H              1 S1                 0.0000
     39 ****         1.0314  -4.2003  -0.7177 H              1 S1                 0.0000
     40 ****         1.2937  -3.6049  -2.3180 H              1 S1                 0.0000
     41 ****         4.0616  -2.4990   0.5703 H              1 S1                 0.0000
     42 ****         2.4494  -1.9671   0.8990 H              1 S1                 0.0000
     43 ****         2.9608  -4.9620   0.7936 H              1 S1                 0.0000
     44 ****         0.6229  -4.1148   1.4050 H              1 S1                 0.0000
     45 ****         1.3273  -3.1991   2.7269 H              1 S1                 0.0000
     46 ****         1.3808  -4.9578   2.7416 H              1 S1                 0.0000
     47 ****         4.6555  -4.0927   1.9802 H              1 S1                 0.0000
     48 ****         4.1554  -1.5416  -1.5168 H              1 S1                 0.0000
     49 ****         3.1175  -2.0945  -2.7973 H              1 S1                 0.0000
     50 ****         2.5119   0.2018  -2.2077 H              1 S1                 0.0000
     51 ****         2.2797  -0.2113  -0.5236 H              1 S1                 0.0000
     52 ****        -0.9933   3.4418  -0.8152 H              1 S1                 0.0000
     53 ****         0.1111   5.2068   0.2953 H              1 S1                 0.0000
     54 ****         0.4898   4.8415   1.9782 H              1 S1                 0.0000
     55 ****        -0.8061   5.9814   1.5849 H              1 S1                 0.0000
     56 ****         0.7614  -1.2390  -2.8021 H              1 S1                 0.0000
     57 ****        -4.6728   0.2313   1.6042 LP             1 S1                 0.0000
     58 ****        -1.9119  -0.2111  -4.4329 LP             1 S1                 0.0000
     59 ****        -0.3930  -0.6820  -4.0616 LP             1 S1                 0.0000
     60 ****         3.2988  -3.7719  -1.1807 LP             1 S1                 0.0000
     61 ****         3.6702  -4.8111   3.0017 LP             1 S1                 0.0000
     62 ****         3.7385  -3.1823   2.9079 LP             1 S1                 0.0000
@<TRIPOS>BOND
    1    1    2 1     
    2    1   26 1     
    3    1   27 1     
    4    1   28 1     
    5    2   24 ar    
    6    2    3 ar    
    7    3    4 ar    
    8    3   29 1     
    9    4   22 ar    
   10    4    5 1     
   11    5    6 2     
   12    6    7 1     
   13    6   30 1     
   14    7    8 1     
   15    7   22 1     
   16    8    9 1     
   17    8   31 1     
   18    8   32 1     
   19    9   10 1     
   20    9   11 1     
   21    9   33 1     
   22   10   34 1     
   23   11   12 1     
   24   11   35 1     
   25   11   36 1     
   26   12   21 1     
   27   12   13 1     
   28   12   56 1     
   29   13   14 1     
   30   13   37 1     
   31   13   38 1     
   32   14   15 1     
   33   14   39 1     
   34   14   40 1     
   35   15   16 1     
   36   15   20 1     
   37   16   17 1     
   38   16   41 1     
   39   16   42 1     
   40   17   18 1     
   41   17   19 1     
   42   17   43 1     
   43   18   44 1     
   44   18   45 1     
   45   18   46 1     
   46   19   47 1     
   47   20   21 1     
   48   20   48 1     
   49   20   49 1     
   50   21   50 1     
   51   21   51 1     
   52   22   23 ar    
   53   23   24 ar    
   54   23   52 1     
   55   24   25 1     
   56   25   53 1     
   57   25   54 1     
   58   25   55 1     
   59    5   57 1     
   60   10   58 1     
   61   10   59 1     
   62   15   60 1     
   63   19   61 1     
   64   19   62 1     
@<TRIPOS>SUBSTRUCTURE
      1 S1             1
@<TRIPOS>SET
LONE_PAIRS      STATIC     ATOMS    <user>   **** ""
6 57 58 59 60 61 62
DONOR_HYDROGENS      STATIC     ATOMS    <user>   **** ""
3 34 56 47
ATOM$BLUE        STATIC     ATOMS    COLORGROUP SYSTEM
6 57 58 59 60 61 62
ATOM$RED        STATIC     ATOMS    COLORGROUP SYSTEM
3 34 56 47
