AV-unprocessed.smi:35|AV-procd|sdf|258|dock7
  -GOLD-   2262016 23D 1   1.00000     0.00000
 Structure written by MMmdl.
 29 30  0  0  0  0  0  0  0  0  1 V2000
  148.5060  143.2530  159.6225 O   0  0  0  0  0  0  0  0  0  0  0  0
  148.7835  142.7193  158.5506 C   0  0  0  0  0  0  0  0  0  0  0  0
  147.7823  142.4566  157.6125 N   0  0  0  0  0  0  0  0  0  0  0  0
  147.9748  141.8523  156.3689 C   0  0  0  0  0  0  0  0  0  0  0  0
  147.0198  141.6966  155.6093 O   0  0  0  0  0  0  0  0  0  0  0  0
  149.2880  141.4440  156.0381 N   0  0  0  0  0  0  0  0  0  0  0  0
  149.5202  140.8058  154.6775 C   0  0  1  0  0  0  0  0  0  0  0  0
  150.7934  140.2373  154.6252 O   0  0  0  0  0  0  0  0  0  0  0  0
  150.7179  138.8674  154.9947 C   0  0  2  0  0  0  0  0  0  0  0  0
  151.9725  138.1342  154.4955 C   0  0  0  0  0  0  0  0  0  0  0  0
  151.6778  136.7805  154.2241 O   0  0  0  0  0  0  0  0  0  0  0  0
  149.4062  138.4102  154.3512 C   0  0  1  0  0  0  0  0  0  0  0  0
  148.8358  137.3588  155.1049 O   0  0  0  0  0  0  0  0  0  0  0  0
  148.5202  139.6554  154.4082 C   0  0  2  0  0  0  0  0  0  0  0  0
  147.8447  139.8308  153.1785 O   0  0  0  0  0  0  0  0  0  0  0  0
  150.3222  141.7246  156.9261 C   0  0  0  0  0  0  0  0  0  0  0  0
  150.1197  142.3187  158.1258 C   0  0  0  0  0  0  0  0  0  0  0  0
  151.7261  142.6252  159.2445 Br  0  0  0  0  0  0  0  0  0  0  0  0
  146.8411  142.7329  157.8516 H   0  0  0  0  0  0  0  0  0  0  0  0
  149.4587  141.6365  153.9715 H   0  0  0  0  0  0  0  0  0  0  0  0
  150.6508  138.8046  156.0824 H   0  0  0  0  0  0  0  0  0  0  0  0
  152.3755  138.6084  153.6003 H   0  0  0  0  0  0  0  0  0  0  0  0
  152.7522  138.1686  155.2568 H   0  0  0  0  0  0  0  0  0  0  0  0
  151.4551  136.6990  153.3091 H   0  0  0  0  0  0  0  0  0  0  0  0
  149.5770  138.0921  153.3213 H   0  0  0  0  0  0  0  0  0  0  0  0
  148.5660  136.6766  154.5085 H   0  0  0  0  0  0  0  0  0  0  0  0
  147.7912  139.5874  155.2174 H   0  0  0  0  0  0  0  0  0  0  0  0
  148.4864  139.9832  152.5021 H   0  0  0  0  0  0  0  0  0  0  0  0
  151.3417  141.4771  156.6732 H   0  0  0  0  0  0  0  0  0  0  0  0
  1  2  2  0  0  0  0
  2 17  1  0  0  0  0
  2  3  1  0  0  0  0
  3 19  1  0  0  0  0
  3  4  1  0  0  0  0
  4  5  2  0  0  0  0
  4  6  1  0  0  0  0
  6  7  1  0  0  0  0
  6 16  1  0  0  0  0
  7 14  1  0  0  0  0
  7  8  1  0  0  0  0
  7 20  1  0  0  0  0
  8  9  1  0  0  0  0
  9 10  1  0  0  0  0
  9 12  1  0  0  0  0
  9 21  1  0  0  0  0
 10 11  1  0  0  0  0
 10 22  1  0  0  0  0
 10 23  1  0  0  0  0
 11 24  1  0  0  0  0
 12 13  1  0  0  0  0
 12 14  1  0  0  0  0
 12 25  1  0  0  0  0
 13 26  1  0  0  0  0
 14 15  1  0  0  0  0
 14 27  1  0  0  0  0
 15 28  1  0  0  0  0
 16 17  2  0  0  0  0
 16 29  1  0  0  0  0
 17 18  1  0  0  0  0
M  END
> <s_m_source_file>
AV-unprocessed.smi

> <i_m_source_file_index>
35

> <i_lp_mmshare_version>
43012

> <i_f3d_flags>
0

> <s_epik_input>
Tz1jMVtuSF1jKD1PKW4oW2NIXWMxQnIpW0NAQEhdMk9bQ0BASF0oW0NIMl1bT0hdKVtDQEBIXShbT0hdKVtDQEhdMltPSF0=

> <s_epik_cmdline>
J2VwaWtfcHl0aG9uJywgJy1waCcsICc3LjAnLCAnLXRuJywgJzgnLCAnLW1hJywgJzIwMCcsICctbWV0YWxfYmluZGluZycsICctaW1hZScsICc8aW5maWxlLm1hZT4nLCAnLW9tYWUnLCAnPG91dGZpbGUubWFlPic=

> <r_lp_tautomer_probability>
0.999537

> <r_epik_Ionization_Penalty>
0.10812

> <r_epik_Ionization_Penalty_Charging>
0.108119

> <r_epik_Ionization_Penalty_Neutral>
4.93006e-07

> <r_epik_State_Penalty>
0.0979238

> <r_epik_Charging_Adjusted_Penalty>
0.206043

> <i_epik_Tot_Q>
0

> <i_epik_Tot_abs_Q>
0

> <r_epik_Metal_State_Penalty>
3.07911

> <b_epik_Metal_Only>
0

> <s_epik_Chemistry_Notes>
This compound contains an acetal/aminal-like group ( X-CH(R)-Y where X, Y are N, S, or O) that may be acid/base labile, releasing an aldehyde.

> <s_lp_Force_Field>
OPLS_2005

> <r_lp_Energy>
26.4636

> <b_lp_Chiralities_Consistent>
1

> <s_lp_Variant>
AV-unprocessed.smi:35-12

> <Gold.Version>
5.8.1

> <Gold.Id.Protein>
6NUR|6NUR_protein|mol2

> <Gold.PLP.Fitness>
40.0393

> <Gold.PLP.PLP>
-27.4875

> <Gold.PLP.part.hbond>
-5.6095

> <Gold.PLP.part.metal>
0.0000

> <Gold.PLP.part.buried>
-4.4075

> <Gold.PLP.part.nonpolar>
-19.9495

> <Gold.PLP.part.repulsive>
0.3800

> <Gold.PLP.ligand.clash>
0.0000

> <Gold.PLP.ligand.torsion>
0.6062

> <Gold.PLP.Chemscore.Hbond>
4.5772

> <Gold.PLP.Chemscore.CHOScore>
0.0000

> <Gold.PLP.Chemscore.Metal>
0.0000

> <Gold.Chemscore.Hbonds>
donor molecule, donor type, donor heavy atom, donor atom, acceptor molecule, acceptor atom, score
      L1  H    11    24       P1  7949  1.00
      L1  H    15    28       P1  7957  1.00
      P1  H  6933  6944       L1     1  0.59
      P1  H  7989  7998       L1     8  1.00
      P1  H 10752 10764       L1    11  0.99

> <Gold.PLP.Chemscore.Internal.Correction>
0.0326

> <Gold.Rescore>
     Score         DG    S(hbond)    S(metal)    S(lipo)     H(rot)  DE(clash)    DE(int)     intcor
     13.47     -15.26       4.16        0.00      45.12       3.67       0.01       1.78       ----

> <Gold.Chemscore.Fitness>
13.4740

> <Gold.Chemscore.DG>
-15.2619

> <Gold.Chemscore.ZeroCoef>
-5.4800

> <Gold.Chemscore.Hbond>
4.1612

> <Gold.Chemscore.Metal>
0.0000

> <Gold.Chemscore.Lipo>
45.1199

> <Gold.Chemscore.Internal_Hbond>
0.0000

> <Gold.Chemscore.DEClash>
0.0073

> <Gold.Chemscore.DEInternal>
1.7806

> <Gold.Chemscore.Rot>
3.6701

> <Gold.Chemscore.Internal.Correction>
   9.000000E+99

> <Gold.Chemscore.Hbonds>
donor molecule, donor type, donor heavy atom, donor atom, acceptor molecule, acceptor atom, score
      L1  H    11    24       P1  7949  0.84
      L1  H    15    28       P1  7957  1.00
      P1  H  6933  6944       L1     1  0.55
      P1  H  7989  7998       L1     8  0.74
      P1  H 10752 10764       L1    11  0.53

> <Gold.Chemscore.Hbond.Weighted>
-13.8983

> <Gold.Chemscore.Metal.Weighted>
-0.0000

> <Gold.Chemscore.Lipo.Weighted>
-5.2790

> <Gold.Chemscore.Internal_Hbond.Weighted>
0.0000

> <Gold.Chemscore.DEClash.Weighted>
0.0073

> <Gold.Chemscore.DEInternal.Weighted>
1.7806

> <Gold.Chemscore.Rot.Weighted>
9.3955

> <Gold.Chemscore.Internal.Correction.Weighted>
   9.000000E+99

> <Gold.Protein.RotatedTorsions>
[ 6907 6896 6895 6894 ] final -101.46 input  -60.11 | X-H torsion
[ 7974 7965 7964 7962 ] final -158.39 input  175.53 | X-H torsion
[ 8008 7997 7996 7995 ] final  -21.08 input   59.86 | X-H torsion
[ 10167 10162 10161 10158 ] final  175.38 input  -65.29 | X-H torsion
[ 10718 10713 10712 10709 ] final  116.11 input   66.30 | X-H torsion
[ 10763 10752 10751 10750 ] final  -59.87 input  -60.55 | X-H torsion
[ 11005 11000 10999 10996 ] final   54.59 input  -57.11 | X-H torsion

> <Gold.Protein.ActiveResidues>
 VAL166  LYS551  ARG553  GLY616  TRP617  ASP618  TYR619  PRO620  LYS621  CYS622 
 ASP623  PHE694  ASN695  SER759  ASP760  ASP761  ALA762  ILE779  LEU786  VAL792 
 PHE793  MET794  SER795  GLU796  ALA797  LYS798  CYS799  TRP800  GLU811  SER814 

> <Gold.Protein.RotatedAtoms>
  150.7156  134.0730  159.3870 H   0  0  0  0  0  0  0  0  0  0  0  0  # atno 6907 bound_to 6896
  151.8713  135.0486  160.0489 H   0  0  0  0  0  0  0  0  0  0  0  0  # atno 6908 bound_to 6896
  152.2641  133.5287  159.5436 H   0  0  0  0  0  0  0  0  0  0  0  0  # atno 6909 bound_to 6896
  144.7508  140.3834  143.6050 H   0  0  0  0  0  0  0  0  0  0  0  0  # atno 7974 bound_to 7965
  154.4728  140.2044  155.9952 H   0  0  0  0  0  0  0  0  0  0  0  0  # atno 8008 bound_to 7997
  156.1040  140.3239  155.7950 H   0  0  0  0  0  0  0  0  0  0  0  0  # atno 8009 bound_to 7997
  155.4750  140.0534  157.2965 H   0  0  0  0  0  0  0  0  0  0  0  0  # atno 8010 bound_to 7997
  139.5175  144.3038  152.0355 H   0  0  0  0  0  0  0  0  0  0  0  0  # atno 10167 bound_to 10162
  157.6180  131.1021  150.7426 H   0  0  0  0  0  0  0  0  0  0  0  0  # atno 10718 bound_to 10713
  154.2605  135.6309  153.5272 H   0  0  0  0  0  0  0  0  0  0  0  0  # atno 10763 bound_to 10752
  152.9896  135.5586  154.5710 H   0  0  0  0  0  0  0  0  0  0  0  0  # atno 10764 bound_to 10752
  154.5257  135.2885  155.1199 H   0  0  0  0  0  0  0  0  0  0  0  0  # atno 10765 bound_to 10752
  140.0675  134.5516  155.9083 H   0  0  0  0  0  0  0  0  0  0  0  0  # atno 11005 bound_to 11000
  145.6953  139.1648  143.2624 LP  0  0  0  0  0  0  0  0  0  0  0  0  # atno 17320 bound_to 7965
  146.1454  140.7000  142.9347 LP  0  0  0  0  0  0  0  0  0  0  0  0  # atno 17321 bound_to 7965
  140.2484  144.4195  150.6231 LP  0  0  0  0  0  0  0  0  0  0  0  0  # atno 17342 bound_to 10162
  140.6242  143.2179  151.6632 LP  0  0  0  0  0  0  0  0  0  0  0  0  # atno 17343 bound_to 10162
  156.7790  130.4853  149.5404 LP  0  0  0  0  0  0  0  0  0  0  0  0  # atno 17370 bound_to 10713
  156.1312  130.6179  151.0336 LP  0  0  0  0  0  0  0  0  0  0  0  0  # atno 17371 bound_to 10713
  141.1998  133.6609  156.5865 LP  0  0  0  0  0  0  0  0  0  0  0  0  # atno 17394 bound_to 11000
  140.3677  134.7632  157.4577 LP  0  0  0  0  0  0  0  0  0  0  0  0  # atno 17395 bound_to 11000

$$$$
