AV-unprocessed.smi:1047|AV-procd|sdf|4575|dock6
  -GOLD-   22720 3 33D 1   1.00000     0.00000
 Structure written by MMmdl.
 56 58  0  0  0  0  0  0  0  0  2 V2000
  142.0187  137.5864  153.4784 C   0  0  0  0  0  0  0  0  0  0  0  0
  142.8811  136.4494  152.9125 C   0  0  0  0  0  0  0  0  0  0  0  0
  144.0222  136.9479  152.1050 N   0  3  2  0  0  0  0  0  0  0  0  0
  144.6376  135.8814  151.2797 C   0  0  0  0  0  0  0  0  0  0  0  0
  145.7656  136.4576  150.4081 C   0  0  0  0  0  0  0  0  0  0  0  0
  146.7387  137.0856  151.2331 O   0  0  0  0  0  0  0  0  0  0  0  0
  146.1919  138.1587  151.9932 C   0  0  2  0  0  0  0  0  0  0  0  0
  147.3305  138.8610  152.7519 C   0  0  0  0  0  0  0  0  0  0  0  0
  146.8799  140.0989  153.3809 N   0  0  0  0  0  0  0  0  0  0  0  0
  147.9470  141.0756  153.5845 C   0  0  0  0  0  0  0  0  0  0  0  0
  148.9365  140.6274  154.6755 C   0  0  2  0  0  0  0  0  0  0  0  0
  148.2172  140.0296  155.7370 O   0  0  0  0  0  0  0  0  0  0  0  0
  149.8673  141.7492  155.1822 C   0  0  0  0  0  0  0  0  0  0  0  0
  150.8350  141.2657  156.1502 N   0  0  0  0  0  0  0  0  0  0  0  0
  151.5342  140.1161  156.0940 C   0  0  0  0  0  0  0  0  0  0  0  0
  152.3678  139.8613  157.0985 N   0  0  0  0  0  0  0  0  0  0  0  0
  152.1901  140.9768  157.8989 C   0  0  0  0  0  0  0  0  0  0  0  0
  152.7842  141.3259  159.1315 C   0  0  0  0  0  0  0  0  0  0  0  0
  152.4455  142.5331  159.7836 C   0  0  0  0  0  0  0  0  0  0  0  0
  153.1060  142.8670  161.1096 C   0  0  0  0  0  0  0  0  0  0  0  0
  151.4990  143.4139  159.2010 C   0  0  0  0  0  0  0  0  0  0  0  0
  151.1209  144.7174  159.8817 C   0  0  0  0  0  0  0  0  0  0  0  0
  150.8947  143.0797  157.9711 C   0  0  0  0  0  0  0  0  0  0  0  0
  151.2395  141.8754  157.3327 C   0  0  0  0  0  0  0  0  0  0  0  0
  145.0602  137.6414  152.9070 C   0  0  0  0  0  0  0  0  0  0  0  0
  141.1394  137.1846  153.9827 H   0  0  0  0  0  0  0  0  0  0  0  0
  141.6696  138.2494  152.6861 H   0  0  0  0  0  0  0  0  0  0  0  0
  142.5612  138.1872  154.2078 H   0  0  0  0  0  0  0  0  0  0  0  0
  143.2417  135.8039  153.7148 H   0  0  0  0  0  0  0  0  0  0  0  0
  142.2429  135.8300  152.2807 H   0  0  0  0  0  0  0  0  0  0  0  0
  145.0292  135.0959  151.9283 H   0  0  0  0  0  0  0  0  0  0  0  0
  143.8818  135.4233  150.6406 H   0  0  0  0  0  0  0  0  0  0  0  0
  146.2469  135.6603  149.8416 H   0  0  0  0  0  0  0  0  0  0  0  0
  145.3717  137.1701  149.6817 H   0  0  0  0  0  0  0  0  0  0  0  0
  145.7711  138.8861  151.2967 H   0  0  0  0  0  0  0  0  0  0  0  0
  147.7278  138.1833  153.5086 H   0  0  0  0  0  0  0  0  0  0  0  0
  148.1500  139.0721  152.0638 H   0  0  0  0  0  0  0  0  0  0  0  0
  146.4457  139.8881  154.2745 H   0  0  0  0  0  0  0  0  0  0  0  0
  148.4875  141.2424  152.6518 H   0  0  0  0  0  0  0  0  0  0  0  0
  147.5134  142.0362  153.8648 H   0  0  0  0  0  0  0  0  0  0  0  0
  149.5584  139.8396  154.2488 H   0  0  0  0  0  0  0  0  0  0  0  0
  147.3159  139.9310  155.4697 H   0  0  0  0  0  0  0  0  0  0  0  0
  150.4092  142.1933  154.3463 H   0  0  0  0  0  0  0  0  0  0  0  0
  149.2952  142.5543  155.6443 H   0  0  0  0  0  0  0  0  0  0  0  0
  151.4217  139.4256  155.2709 H   0  0  0  0  0  0  0  0  0  0  0  0
  153.5049  140.6546  159.5749 H   0  0  0  0  0  0  0  0  0  0  0  0
  153.6696  143.7970  161.0323 H   0  0  0  0  0  0  0  0  0  0  0  0
  153.7966  142.0824  161.4197 H   0  0  0  0  0  0  0  0  0  0  0  0
  152.3560  142.9799  161.8926 H   0  0  0  0  0  0  0  0  0  0  0  0
  150.3937  145.2777  159.2932 H   0  0  0  0  0  0  0  0  0  0  0  0
  152.0002  145.3482  160.0142 H   0  0  0  0  0  0  0  0  0  0  0  0
  150.6815  144.5241  160.8605 H   0  0  0  0  0  0  0  0  0  0  0  0
  150.1690  143.7390  157.5185 H   0  0  0  0  0  0  0  0  0  0  0  0
  144.6241  138.4807  153.4479 H   0  0  0  0  0  0  0  0  0  0  0  0
  145.4541  136.9502  153.6538 H   0  0  0  0  0  0  0  0  0  0  0  0
  143.6450  137.6255  151.4577 H   0  0  0  0  0  0  0  0  0  0  0  0
  1  2  1  0  0  0  0
  1 26  1  0  0  0  0
  1 27  1  0  0  0  0
  1 28  1  0  0  0  0
  2  3  1  0  0  0  0
  2 29  1  0  0  0  0
  2 30  1  0  0  0  0
  3 25  1  0  0  0  0
  3  4  1  0  0  0  0
  3 56  1  0  0  0  0
  4  5  1  0  0  0  0
  4 31  1  0  0  0  0
  4 32  1  0  0  0  0
  5  6  1  0  0  0  0
  5 33  1  0  0  0  0
  5 34  1  0  0  0  0
  6  7  1  0  0  0  0
  7  8  1  0  0  0  0
  7 25  1  0  0  0  0
  7 35  1  0  0  0  0
  8  9  1  0  0  0  0
  8 36  1  0  0  0  0
  8 37  1  0  0  0  0
  9 10  1  0  0  0  0
  9 38  1  0  0  0  0
 10 11  1  0  0  0  0
 10 39  1  0  0  0  0
 10 40  1  0  0  0  0
 11 12  1  0  0  0  0
 11 13  1  0  0  0  0
 11 41  1  0  0  0  0
 12 42  1  0  0  0  0
 13 14  1  0  0  0  0
 13 43  1  0  0  0  0
 13 44  1  0  0  0  0
 14 24  1  0  0  0  0
 14 15  1  0  0  0  0
 15 16  2  0  0  0  0
 15 45  1  0  0  0  0
 16 17  1  0  0  0  0
 17 24  2  0  0  0  0
 17 18  1  0  0  0  0
 18 19  2  0  0  0  0
 18 46  1  0  0  0  0
 19 20  1  0  0  0  0
 19 21  1  0  0  0  0
 20 47  1  0  0  0  0
 20 48  1  0  0  0  0
 20 49  1  0  0  0  0
 21 22  1  0  0  0  0
 21 23  2  0  0  0  0
 22 50  1  0  0  0  0
 22 51  1  0  0  0  0
 22 52  1  0  0  0  0
 23 24  1  0  0  0  0
 23 53  1  0  0  0  0
 25 54  1  0  0  0  0
 25 55  1  0  0  0  0
M  CHG  1   3   1
M  END
> <s_m_source_file>
AV-unprocessed.smi

> <i_m_source_file_index>
1047

> <i_lp_mmshare_version>
43012

> <i_f3d_flags>
0

> <s_epik_input>
W0NIM11bQ0gyXU4xW0NIMl1bQ0gyXU9bQ0BIXShbQ0gyXTEpW0NIMl1bTkhdW0NIMl1bQ0BIXShbT0hdKVtDSDJdbihbY0hdbjIpYyhjMjMpW2NIXWMoW0NIM10pYyhbY0hdMylbQ0gzXQ==

> <s_epik_cmdline>
J2VwaWtfcHl0aG9uJywgJy1waCcsICc3LjAnLCAnLXRuJywgJzgnLCAnLW1hJywgJzIwMCcsICctbWV0YWxfYmluZGluZycsICctaW1hZScsICc8aW5maWxlLm1hZT4nLCAnLW9tYWUnLCAnPG91dGZpbGUubWFlPic=

> <r_epik_Ionization_Penalty>
1.19246

> <r_epik_Ionization_Penalty_Charging>
0.210041

> <r_epik_Ionization_Penalty_Neutral>
0.982415

> <r_epik_State_Penalty>
1.57595

> <r_epik_Charging_Adjusted_Penalty>
1.78599

> <i_epik_Tot_Q>
1

> <i_epik_Tot_abs_Q>
1

> <r_epik_Metal_State_Penalty>
1.46172

> <b_epik_Metal_Only>
0

> <s_lp_Force_Field>
OPLS_2005

> <r_lp_Energy>
33.3518

> <b_lp_Chiralities_Consistent>
1

> <s_lp_Variant>
AV-unprocessed.smi:1047-16

> <Gold.Version>
5.8.1

> <Gold.Id.Protein>
6NUR|6NUR_protein|mol2

> <Gold.PLP.Fitness>
52.6696

> <Gold.PLP.PLP>
-44.9399

> <Gold.PLP.part.hbond>
-3.0300

> <Gold.PLP.part.metal>
0.0000

> <Gold.PLP.part.buried>
1.8901

> <Gold.PLP.part.nonpolar>
-47.3102

> <Gold.PLP.part.repulsive>
4.8404

> <Gold.PLP.ligand.clash>
0.0000

> <Gold.PLP.ligand.torsion>
0.6686

> <Gold.PLP.Chemscore.Hbond>
2.9350

> <Gold.PLP.Chemscore.CHOScore>
0.0000

> <Gold.PLP.Chemscore.Metal>
0.0000

> <Gold.Chemscore.Hbonds>
donor molecule, donor type, donor heavy atom, donor atom, acceptor molecule, acceptor atom, score
      L1  H     3    56       P1 10171  0.96
      P1  H  7954  7966       L1     6  0.83
      P1  H  7997  8008       L1    16  0.86

> <Gold.PLP.Chemscore.Internal.Correction>
0.2620

> <Gold.Rescore>
     Score         DG    S(hbond)    S(metal)    S(lipo)     H(rot)  DE(clash)    DE(int)     intcor
     17.17     -21.88       1.98        0.00     141.11       2.62       4.04       0.67       ----

> <Gold.Chemscore.Fitness>
17.1721

> <Gold.Chemscore.DG>
-21.8815

> <Gold.Chemscore.ZeroCoef>
-5.4800

> <Gold.Chemscore.Hbond>
1.9765

> <Gold.Chemscore.Metal>
0.0000

> <Gold.Chemscore.Lipo>
141.1064

> <Gold.Chemscore.Internal_Hbond>
0.0000

> <Gold.Chemscore.DEClash>
4.0370

> <Gold.Chemscore.DEInternal>
0.6724

> <Gold.Chemscore.Rot>
2.6209

> <Gold.Chemscore.Internal.Correction>
   9.000000E+99

> <Gold.Chemscore.Hbonds>
donor molecule, donor type, donor heavy atom, donor atom, acceptor molecule, acceptor atom, score
      L1  H     3    56       P1 10171  0.91
      P1  H  7954  7966       L1     6  0.28
      P1  H  7997  8008       L1    16  0.17

> <Gold.Chemscore.Hbond.Weighted>
-6.6017

> <Gold.Chemscore.Metal.Weighted>
-0.0000

> <Gold.Chemscore.Lipo.Weighted>
-16.5095

> <Gold.Chemscore.Internal_Hbond.Weighted>
0.0000

> <Gold.Chemscore.DEClash.Weighted>
4.0370

> <Gold.Chemscore.DEInternal.Weighted>
0.6724

> <Gold.Chemscore.Rot.Weighted>
6.7096

> <Gold.Chemscore.Internal.Correction.Weighted>
   9.000000E+99

> <Gold.Protein.RotatedTorsions>
[ 6907 6896 6895 6894 ] final  -19.01 input  -60.11 | X-H torsion
[ 7974 7965 7964 7962 ] final  129.26 input  175.53 | X-H torsion
[ 8008 7997 7996 7995 ] final  -60.21 input   59.86 | X-H torsion
[ 10167 10162 10161 10158 ] final  -61.54 input  -65.29 | X-H torsion
[ 10718 10713 10712 10709 ] final -101.23 input   66.30 | X-H torsion
[ 10763 10752 10751 10750 ] final    3.10 input  -60.55 | X-H torsion
[ 11005 11000 10999 10996 ] final -140.68 input  -57.11 | X-H torsion

> <Gold.Protein.ActiveResidues>
 VAL166  LYS551  ARG553  GLY616  TRP617  ASP618  TYR619  PRO620  LYS621  CYS622 
 ASP623  PHE694  ASN695  SER759  ASP760  ASP761  ALA762  ILE779  LEU786  VAL792 
 PHE793  MET794  SER795  GLU796  ALA797  LYS798  CYS799  TRP800  GLU811  SER814 

> <Gold.Protein.RotatedAtoms>
  151.2696  135.0680  159.9128 H   0  0  0  0  0  0  0  0  0  0  0  0  # atno 6907 bound_to 6896
  152.5353  134.0144  159.7963 H   0  0  0  0  0  0  0  0  0  0  0  0  # atno 6908 bound_to 6896
  151.0380  133.5681  159.2685 H   0  0  0  0  0  0  0  0  0  0  0  0  # atno 6909 bound_to 6896
  145.0306  139.4050  143.5152 H   0  0  0  0  0  0  0  0  0  0  0  0  # atno 7974 bound_to 7965
  154.4388  140.1044  156.6237 H   0  0  0  0  0  0  0  0  0  0  0  0  # atno 8008 bound_to 7997
  155.5679  140.3488  155.4489 H   0  0  0  0  0  0  0  0  0  0  0  0  # atno 8009 bound_to 7997
  156.0411  140.1282  157.0144 H   0  0  0  0  0  0  0  0  0  0  0  0  # atno 8010 bound_to 7997
  140.5999  143.2359  151.5952 H   0  0  0  0  0  0  0  0  0  0  0  0  # atno 10167 bound_to 10162
  156.0188  130.5364  150.6933 H   0  0  0  0  0  0  0  0  0  0  0  0  # atno 10718 bound_to 10713
  153.2874  135.6946  153.7326 H   0  0  0  0  0  0  0  0  0  0  0  0  # atno 10763 bound_to 10752
  153.6289  135.3413  155.3036 H   0  0  0  0  0  0  0  0  0  0  0  0  # atno 10764 bound_to 10752
  154.8514  135.4404  154.1947 H   0  0  0  0  0  0  0  0  0  0  0  0  # atno 10765 bound_to 10752
  140.8399  134.2415  157.4815 H   0  0  0  0  0  0  0  0  0  0  0  0  # atno 11005 bound_to 11000
  146.3498  139.9853  142.8691 LP  0  0  0  0  0  0  0  0  0  0  0  0  # atno 17320 bound_to 7965
  145.1776  140.9751  143.4285 LP  0  0  0  0  0  0  0  0  0  0  0  0  # atno 17321 bound_to 7965
  139.5284  144.2990  152.1089 LP  0  0  0  0  0  0  0  0  0  0  0  0  # atno 17342 bound_to 10162
  140.2169  144.4506  150.6360 LP  0  0  0  0  0  0  0  0  0  0  0  0  # atno 17343 bound_to 10162
  157.4609  131.0883  151.0746 LP  0  0  0  0  0  0  0  0  0  0  0  0  # atno 17370 bound_to 10713
  157.1234  130.6071  149.5511 LP  0  0  0  0  0  0  0  0  0  0  0  0  # atno 17371 bound_to 10713
  139.8703  134.9630  156.4447 LP  0  0  0  0  0  0  0  0  0  0  0  0  # atno 17394 bound_to 11000
  140.8907  133.7850  155.9568 LP  0  0  0  0  0  0  0  0  0  0  0  0  # atno 17395 bound_to 11000

$$$$
