AV-unprocessed.smi:383|AV-procd|sdf|2464|dock3
  -GOLD-   2262022403D 1   1.00000     0.00000
 Structure written by MMmdl.
 40 41  0  0  0  0  0  0  0  0  1 V2000
  146.6290  145.6092  160.8306 C   0  0  0  0  0  0  0  0  0  0  0  0
  145.7715  144.4610  160.2735 C   0  0  0  0  0  0  0  0  0  0  0  0
  144.8128  143.9107  161.3422 C   0  0  0  0  0  0  0  0  0  0  0  0
  146.6576  143.3393  159.7171 C   0  0  0  0  0  0  0  0  0  0  0  0
  146.5787  142.2009  160.1800 O   0  0  0  0  0  0  0  0  0  0  0  0
  147.4938  143.6743  158.7220 N   0  0  0  0  0  0  0  0  0  0  0  0
  148.3910  142.7521  158.0369 C   0  0  0  0  0  0  0  0  0  0  0  0
  149.8608  143.0705  158.2925 C   0  0  0  0  0  0  0  0  0  0  0  0
  150.1882  144.0488  159.2553 C   0  0  0  0  0  0  0  0  0  0  0  0
  151.5382  144.3736  159.4779 C   0  0  0  0  0  0  0  0  0  0  0  0
  152.5164  143.7048  158.7206 C   0  0  0  0  0  0  0  0  0  0  0  0
  152.2213  142.7698  157.7944 N   0  0  0  0  0  0  0  0  0  0  0  0
  150.9214  142.4533  157.5754 C   0  0  0  0  0  0  0  0  0  0  0  0
  150.6542  141.4720  156.6054 N   0  0  0  0  0  0  0  0  0  0  0  0
  151.8235  140.6898  156.2286 C   0  0  0  0  0  0  0  0  0  0  0  0
  151.3901  139.4874  155.3722 C   0  0  0  0  0  0  0  0  0  0  0  0
  150.6459  139.9430  154.2453 O   0  0  0  0  0  0  0  0  0  0  0  0
  149.4664  140.6458  154.6284 C   0  0  0  0  0  0  0  0  0  0  0  0
  149.8507  141.8815  155.4594 C   0  0  0  0  0  0  0  0  0  0  0  0
  147.3084  146.0011  160.0725 H   0  0  0  0  0  0  0  0  0  0  0  0
  147.2297  145.2868  161.6822 H   0  0  0  0  0  0  0  0  0  0  0  0
  146.0018  146.4361  161.1650 H   0  0  0  0  0  0  0  0  0  0  0  0
  145.1689  144.8604  159.4560 H   0  0  0  0  0  0  0  0  0  0  0  0
  144.2090  143.0916  160.9487 H   0  0  0  0  0  0  0  0  0  0  0  0
  144.1271  144.6853  161.6862 H   0  0  0  0  0  0  0  0  0  0  0  0
  145.3532  143.5375  162.2133 H   0  0  0  0  0  0  0  0  0  0  0  0
  147.4973  144.6337  158.4075 H   0  0  0  0  0  0  0  0  0  0  0  0
  148.1894  141.7489  158.4128 H   0  0  0  0  0  0  0  0  0  0  0  0
  148.1489  142.7193  156.9748 H   0  0  0  0  0  0  0  0  0  0  0  0
  149.4118  144.5496  159.8150 H   0  0  0  0  0  0  0  0  0  0  0  0
  151.8167  145.1188  160.2081 H   0  0  0  0  0  0  0  0  0  0  0  0
  153.5639  143.9270  158.8606 H   0  0  0  0  0  0  0  0  0  0  0  0
  152.5122  141.3220  155.6666 H   0  0  0  0  0  0  0  0  0  0  0  0
  152.3564  140.3450  157.1153 H   0  0  0  0  0  0  0  0  0  0  0  0
  152.2650  138.9391  155.0228 H   0  0  0  0  0  0  0  0  0  0  0  0
  150.7896  138.7902  155.9589 H   0  0  0  0  0  0  0  0  0  0  0  0
  148.9254  140.9487  153.7320 H   0  0  0  0  0  0  0  0  0  0  0  0
  148.8049  139.9878  155.1944 H   0  0  0  0  0  0  0  0  0  0  0  0
  148.9533  142.3988  155.8016 H   0  0  0  0  0  0  0  0  0  0  0  0
  150.4156  142.5801  154.8404 H   0  0  0  0  0  0  0  0  0  0  0  0
  1  2  1  0  0  0  0
  1 20  1  0  0  0  0
  1 21  1  0  0  0  0
  1 22  1  0  0  0  0
  2  3  1  0  0  0  0
  2  4  1  0  0  0  0
  2 23  1  0  0  0  0
  3 24  1  0  0  0  0
  3 25  1  0  0  0  0
  3 26  1  0  0  0  0
  4  5  2  0  0  0  0
  4  6  1  0  0  0  0
  6  7  1  0  0  0  0
  6 27  1  0  0  0  0
  7  8  1  0  0  0  0
  7 28  1  0  0  0  0
  7 29  1  0  0  0  0
  8 13  1  0  0  0  0
  8  9  2  0  0  0  0
  9 10  1  0  0  0  0
  9 30  1  0  0  0  0
 10 11  2  0  0  0  0
 10 31  1  0  0  0  0
 11 12  1  0  0  0  0
 11 32  1  0  0  0  0
 12 13  2  0  0  0  0
 13 14  1  0  0  0  0
 14 19  1  0  0  0  0
 14 15  1  0  0  0  0
 15 16  1  0  0  0  0
 15 33  1  0  0  0  0
 15 34  1  0  0  0  0
 16 17  1  0  0  0  0
 16 35  1  0  0  0  0
 16 36  1  0  0  0  0
 17 18  1  0  0  0  0
 18 19  1  0  0  0  0
 18 37  1  0  0  0  0
 18 38  1  0  0  0  0
 19 39  1  0  0  0  0
 19 40  1  0  0  0  0
M  END
> <s_m_source_file>
AV-unprocessed.smi

> <i_m_source_file_index>
383

> <i_lp_mmshare_version>
43012

> <i_f3d_flags>
0

> <s_epik_input>
W0NIM11bQ0hdKFtDSDNdKUMoPU8pW05IXVtDSDJdYzFbY0hdW2NIXVtjSF1uYzFOMltDSDJdW0NIMl1PW0NIMl1bQ0gyXTI=

> <s_epik_cmdline>
J2VwaWtfcHl0aG9uJywgJy1waCcsICc3LjAnLCAnLXRuJywgJzgnLCAnLW1hJywgJzIwMCcsICctbWV0YWxfYmluZGluZycsICctaW1hZScsICc8aW5maWxlLm1hZT4nLCAnLW9tYWUnLCAnPG91dGZpbGUubWFlPic=

> <r_lp_tautomer_probability>
1

> <r_epik_Ionization_Penalty>
0.00505534

> <r_epik_Ionization_Penalty_Charging>
0

> <r_epik_Ionization_Penalty_Neutral>
0.00505534

> <r_epik_State_Penalty>
0.00367784

> <r_epik_Charging_Adjusted_Penalty>
0.00367784

> <i_epik_Tot_Q>
0

> <i_epik_Tot_abs_Q>
0

> <r_epik_Metal_State_Penalty>
-0

> <b_epik_Metal_Only>
0

> <s_lp_Force_Field>
OPLS_2005

> <r_lp_Energy>
19.0793

> <b_lp_Chiralities_Consistent>
1

> <s_lp_Variant>
AV-unprocessed.smi:383-1

> <Gold.Version>
5.8.1

> <Gold.Id.Protein>
6NUR|6NUR_protein|mol2

> <Gold.PLP.Fitness>
43.3710

> <Gold.PLP.PLP>
-32.9981

> <Gold.PLP.part.hbond>
-3.8828

> <Gold.PLP.part.metal>
0.0000

> <Gold.PLP.part.buried>
0.7609

> <Gold.PLP.part.nonpolar>
-30.0031

> <Gold.PLP.part.repulsive>
0.2982

> <Gold.PLP.ligand.clash>
0.0000

> <Gold.PLP.ligand.torsion>
0.3096

> <Gold.PLP.Chemscore.Hbond>
3.5824

> <Gold.PLP.Chemscore.CHOScore>
0.0000

> <Gold.PLP.Chemscore.Metal>
0.0000

> <Gold.Chemscore.Hbonds>
donor molecule, donor type, donor heavy atom, donor atom, acceptor molecule, acceptor atom, score
      L1  H     6    27       P1  8029  1.00
      P1  H  6933  6944       L1     5  0.16
      P1  H  6934  6946       L1     5  0.88
      P1  H  7989  7998       L1    17  1.00

> <Gold.PLP.Chemscore.Internal.Correction>
0.2449

> <Gold.Rescore>
     Score         DG    S(hbond)    S(metal)    S(lipo)     H(rot)  DE(clash)    DE(int)     intcor
     17.73     -18.61       2.28        0.00      81.22       1.56       0.34       0.55       ----

> <Gold.Chemscore.Fitness>
17.7265

> <Gold.Chemscore.DG>
-18.6137

> <Gold.Chemscore.ZeroCoef>
-5.4800

> <Gold.Chemscore.Hbond>
2.2817

> <Gold.Chemscore.Metal>
0.0000

> <Gold.Chemscore.Lipo>
81.2160

> <Gold.Chemscore.Internal_Hbond>
0.0000

> <Gold.Chemscore.DEClash>
0.3364

> <Gold.Chemscore.DEInternal>
0.5508

> <Gold.Chemscore.Rot>
1.5584

> <Gold.Chemscore.Internal.Correction>
   9.000000E+99

> <Gold.Chemscore.Hbonds>
donor molecule, donor type, donor heavy atom, donor atom, acceptor molecule, acceptor atom, score
      L1  H     6    27       P1  8029  0.92
      P1  H  6933  6944       L1     5  0.02
      P1  H  6934  6946       L1     5  0.83
      P1  H  7989  7998       L1    17  0.37

> <Gold.Chemscore.Hbond.Weighted>
-7.6209

> <Gold.Chemscore.Metal.Weighted>
-0.0000

> <Gold.Chemscore.Lipo.Weighted>
-9.5023

> <Gold.Chemscore.Internal_Hbond.Weighted>
0.0000

> <Gold.Chemscore.DEClash.Weighted>
0.3364

> <Gold.Chemscore.DEInternal.Weighted>
0.5508

> <Gold.Chemscore.Rot.Weighted>
3.9895

> <Gold.Chemscore.Internal.Correction.Weighted>
   9.000000E+99

> <Gold.Protein.RotatedTorsions>
[ 6907 6896 6895 6894 ] final  -52.46 input  -60.11 | X-H torsion
[ 7974 7965 7964 7962 ] final  -19.42 input  175.53 | X-H torsion
[ 8008 7997 7996 7995 ] final  -16.00 input   59.86 | X-H torsion
[ 10167 10162 10161 10158 ] final  -85.26 input  -65.29 | X-H torsion
[ 10718 10713 10712 10709 ] final  164.35 input   66.30 | X-H torsion
[ 10763 10752 10751 10750 ] final  -51.40 input  -60.55 | X-H torsion
[ 11005 11000 10999 10996 ] final   -6.51 input  -57.11 | X-H torsion

> <Gold.Protein.ActiveResidues>
 VAL166  LYS551  ARG553  GLY616  TRP617  ASP618  TYR619  PRO620  LYS621  CYS622 
 ASP623  PHE694  ASN695  SER759  ASP760  ASP761  ALA762  ILE779  LEU786  VAL792 
 PHE793  MET794  SER795  GLU796  ALA797  LYS798  CYS799  TRP800  GLU811  SER814 

> <Gold.Protein.RotatedAtoms>
  150.8516  134.7842  159.7012 H   0  0  0  0  0  0  0  0  0  0  0  0  # atno 6907 bound_to 6896
  152.4579  134.5247  159.9803 H   0  0  0  0  0  0  0  0  0  0  0  0  # atno 6908 bound_to 6896
  151.5367  133.3401  159.2963 H   0  0  0  0  0  0  0  0  0  0  0  0  # atno 6909 bound_to 6896
  146.1842  140.4059  142.8482 H   0  0  0  0  0  0  0  0  0  0  0  0  # atno 7974 bound_to 7965
  154.5087  140.2181  155.9200 H   0  0  0  0  0  0  0  0  0  0  0  0  # atno 8008 bound_to 7997
  156.1525  140.3158  155.8638 H   0  0  0  0  0  0  0  0  0  0  0  0  # atno 8009 bound_to 7997
  155.3911  140.0478  157.3031 H   0  0  0  0  0  0  0  0  0  0  0  0  # atno 8010 bound_to 7997
  140.4054  143.2645  151.9088 H   0  0  0  0  0  0  0  0  0  0  0  0  # atno 10167 bound_to 10162
  157.0957  131.0429  151.2519 H   0  0  0  0  0  0  0  0  0  0  0  0  # atno 10718 bound_to 10713
  154.1260  135.6527  153.4912 H   0  0  0  0  0  0  0  0  0  0  0  0  # atno 10763 bound_to 10752
  153.0210  135.5281  154.7049 H   0  0  0  0  0  0  0  0  0  0  0  0  # atno 10764 bound_to 10752
  154.6270  135.2971  155.0230 H   0  0  0  0  0  0  0  0  0  0  0  0  # atno 10765 bound_to 10752
  140.7028  133.8975  155.8695 H   0  0  0  0  0  0  0  0  0  0  0  0  # atno 11005 bound_to 11000
  144.8368  140.6795  143.6255 LP  0  0  0  0  0  0  0  0  0  0  0  0  # atno 17320 bound_to 7965
  145.3987  139.1602  143.4189 LP  0  0  0  0  0  0  0  0  0  0  0  0  # atno 17321 bound_to 7965
  139.4783  144.5591  151.8267 LP  0  0  0  0  0  0  0  0  0  0  0  0  # atno 17342 bound_to 10162
  140.4695  144.1607  150.5916 LP  0  0  0  0  0  0  0  0  0  0  0  0  # atno 17343 bound_to 10162
  157.4684  130.7694  149.7300 LP  0  0  0  0  0  0  0  0  0  0  0  0  # atno 17370 bound_to 10713
  155.9886  130.3957  150.3109 LP  0  0  0  0  0  0  0  0  0  0  0  0  # atno 17371 bound_to 10713
  141.0150  134.0968  157.4182 LP  0  0  0  0  0  0  0  0  0  0  0  0  # atno 17394 bound_to 11000
  139.8892  135.0103  156.6666 LP  0  0  0  0  0  0  0  0  0  0  0  0  # atno 17395 bound_to 11000

$$$$
