#       Name:                AV-unprocessed.smi:2663
#       Creating user name   scv26
#       Creation time:       Fri Mar 27 14:34:13 2020


#       File generated by GOLD software.
#

@<TRIPOS>MOLECULE
AV-unprocessed.smi:2663
    45    46     1
SMALL
NO_CHARGES


@<TRIPOS>ATOM
      1 ****        -0.0734  -0.7610  -2.2705 C.3            1 S1                 0.0000
      2 ****         0.5153  -0.1064  -0.9941 C.3            1 S1                 0.0000
      3 ****         2.0670  -0.0828  -1.1192 C.3            1 S1                 0.0000
      4 ****         2.5149   0.8178  -2.1135 O.3            1 S1                 0.0000
      5 ****         0.1379  -0.8903   0.1934 N.am           1 S1                 0.0000
      6 ****         0.3642  -2.1832   0.4809 C.2            1 S1                 0.0000
      7 ****         0.9785  -2.9047  -0.3071 O.2            1 S1                 0.0000
      8 ****        -0.1408  -2.5612   1.6773 N.pl3          1 S1                -1.0000
      9 ****        -0.0138  -3.8334   2.0900 C.2            1 S1                 0.0000
     10 ****        -1.0102  -4.7266   1.9774 N.2            1 S1                 0.0000
     11 ****        -0.6766  -5.9820   2.4678 N.2            1 S1                 0.0000
     12 ****         0.5663  -6.0010   2.9485 C.2            1 S1                 0.0000
     13 ****         1.4409  -4.4872   2.8486 S.3            1 S1                 0.0000
     14 ****        -0.0738   1.3375  -0.8070 C.3            1 S1                 0.0000
     15 ****         0.5430   2.1111   0.3898 C.3            1 S1                 0.0000
     16 ****        -0.0139   3.5388   0.5106 C.3            1 S1                 0.0000
     17 ****        -1.5430   3.5339   0.6280 C.3            1 S1                 0.0000
     18 ****        -2.1738   2.7920  -0.5567 C.3            1 S1                 0.0000
     19 ****        -1.6217   1.3628  -0.6776 C.3            1 S1                 0.0000
     20 ****         0.0111  -0.0964  -3.1307 H              1 S1                 0.0000
     21 ****        -1.1256  -1.0194  -2.1525 H              1 S1                 0.0000
     22 ****         0.4461  -1.6823  -2.5336 H              1 S1                 0.0000
     23 ****         2.5350   0.1851  -0.1720 H              1 S1                 0.0000
     24 ****         2.4560  -1.0685  -1.3739 H              1 S1                 0.0000
     25 ****         3.4583   0.7784  -2.1482 H              1 S1                 0.0000
     26 ****        -0.3735  -0.3764   0.8959 H              1 S1                 0.0000
     27 ****         0.9690  -6.9109   3.3677 H              1 S1                 0.0000
     28 ****         0.1667   1.9062  -1.7066 H              1 S1                 0.0000
     29 ****         0.3584   1.5743   1.3210 H              1 S1                 0.0000
     30 ****         1.6247   2.1850   0.2870 H              1 S1                 0.0000
     31 ****         0.4223   4.0350   1.3779 H              1 S1                 0.0000
     32 ****         0.2846   4.1224  -0.3612 H              1 S1                 0.0000
     33 ****        -1.8387   3.0545   1.5623 H              1 S1                 0.0000
     34 ****        -1.9178   4.5569   0.6707 H              1 S1                 0.0000
     35 ****        -3.2575   2.7620  -0.4402 H              1 S1                 0.0000
     36 ****        -1.9767   3.3390  -1.4796 H              1 S1                 0.0000
     37 ****        -2.0907   0.8954  -1.5422 H              1 S1                 0.0000
     38 ****        -1.9385   0.7871   0.1928 H              1 S1                 0.0000
     39 ****         2.2238   1.7465  -1.8839 LP             1 S1                 0.0000
     40 ****         2.1331   0.5586  -3.0007 LP             1 S1                 0.0000
     41 ****         1.3143  -2.5294  -1.1710 LP             1 S1                 0.0000
     42 ****         1.1411  -3.8656  -0.0826 LP             1 S1                 0.0000
     43 ****        -0.6092  -1.8931   2.2553 LP             1 S1                 0.0000
     44 ****        -1.9021  -4.5096   1.5805 LP             1 S1                 0.0000
     45 ****        -1.2906  -6.7713   2.4611 LP             1 S1                 0.0000
@<TRIPOS>BOND
    1    1    2 1     
    2    1   20 1     
    3    1   21 1     
    4    1   22 1     
    5    2    3 1     
    6    2    5 1     
    7    2   14 1     
    8    3    4 1     
    9    3   23 1     
   10    3   24 1     
   11    4   25 1     
   12    5    6 am    
   13    5   26 1     
   14    6    7 2     
   15    6    8 1     
   16    8    9 1     
   17    9   13 1     
   18    9   10 2     
   19   10   11 1     
   20   11   12 2     
   21   12   13 1     
   22   12   27 1     
   23   14   19 1     
   24   14   15 1     
   25   14   28 1     
   26   15   16 1     
   27   15   29 1     
   28   15   30 1     
   29   16   17 1     
   30   16   31 1     
   31   16   32 1     
   32   17   18 1     
   33   17   33 1     
   34   17   34 1     
   35   18   19 1     
   36   18   35 1     
   37   18   36 1     
   38   19   37 1     
   39   19   38 1     
   40    4   39 1     
   41    4   40 1     
   42    7   41 1     
   43    7   42 1     
   44    8   43 1     
   45   10   44 1     
   46   11   45 1     
@<TRIPOS>SUBSTRUCTURE
      1 S1             1
@<TRIPOS>SET
LONE_PAIRS      STATIC     ATOMS    <user>   **** ""
7 39 40 41 42 43 44 45
DONOR_HYDROGENS      STATIC     ATOMS    <user>   **** ""
2 25 26
ATOM$BLUE        STATIC     ATOMS    COLORGROUP SYSTEM
7 39 40 41 42 43 44 45
ATOM$RED        STATIC     ATOMS    COLORGROUP SYSTEM
2 25 26
