AV-unprocessed.smi:2413|AV-procd|sdf|9536|dock7
  -GOLD-   2272013173D 1   1.00000     0.00000
 Structure written by MMmdl.
 46 47  0  0  0  0  0  0  0  0  2 V2000
  154.0040  138.2113  160.9656 C   0  0  0  0  0  0  0  0  0  0  0  0
  154.0881  139.5990  160.3400 C   0  0  0  0  0  0  0  0  0  0  0  0
  154.5021  139.7320  159.1888 O   0  0  0  0  0  0  0  0  0  0  0  0
  153.6809  140.6222  161.1070 N   0  0  0  0  0  0  0  0  0  0  0  0
  153.6813  142.0292  160.7146 C   0  0  0  0  0  0  0  0  0  0  0  0
  152.4745  142.3927  159.8298 C   0  0  2  0  0  0  0  0  0  0  0  0
  152.3408  141.4888  158.5875 C   0  0  0  0  0  0  0  0  0  0  0  0
  151.2700  141.9530  157.7062 N   0  0  0  0  0  0  0  0  0  0  0  0
  150.8667  141.0895  156.6627 C   0  0  0  0  0  0  0  0  0  0  0  0
  151.7343  140.1113  156.1343 C   0  0  0  0  0  0  0  0  0  0  0  0
  151.2321  139.2937  155.1059 C   0  0  0  0  0  0  0  0  0  0  0  0
  149.9704  139.4655  154.6450 N   0  3  0  0  0  0  0  0  0  0  0  0
  149.2002  140.4476  155.1430 C   0  0  0  0  0  0  0  0  0  0  0  0
  147.7358  140.5604  154.6953 C   0  0  0  0  0  0  0  0  0  0  0  0
  147.4506  141.9537  154.0864 C   0  0  0  0  0  0  0  0  0  0  0  0
  146.8104  140.3250  155.9028 C   0  0  0  0  0  0  0  0  0  0  0  0
  147.4203  139.5285  153.5887 C   0  0  0  0  0  0  0  0  0  0  0  0
  149.6177  141.2172  156.1586 N   0  0  0  0  0  0  0  0  0  0  0  0
  151.3659  143.3723  157.3742 C   0  0  0  0  0  0  0  0  0  0  0  0
  151.5282  144.2122  158.6519 C   0  0  0  0  0  0  0  0  0  0  0  0
  152.6433  143.7405  159.3999 O   0  0  0  0  0  0  0  0  0  0  0  0
  154.4746  138.2039  161.9493 H   0  0  0  0  0  0  0  0  0  0  0  0
  154.5091  137.4737  160.3412 H   0  0  0  0  0  0  0  0  0  0  0  0
  152.9627  137.9089  161.0774 H   0  0  0  0  0  0  0  0  0  0  0  0
  153.3531  140.4121  162.0388 H   0  0  0  0  0  0  0  0  0  0  0  0
  153.6500  142.6230  161.6284 H   0  0  0  0  0  0  0  0  0  0  0  0
  154.6146  142.2942  160.2141 H   0  0  0  0  0  0  0  0  0  0  0  0
  151.5659  142.3265  160.4318 H   0  0  0  0  0  0  0  0  0  0  0  0
  153.2802  141.4706  158.0331 H   0  0  0  0  0  0  0  0  0  0  0  0
  152.1310  140.4688  158.9108 H   0  0  0  0  0  0  0  0  0  0  0  0
  152.7467  139.9821  156.4858 H   0  0  0  0  0  0  0  0  0  0  0  0
  151.7995  138.5027  154.6378 H   0  0  0  0  0  0  0  0  0  0  0  0
  146.4246  142.0258  153.7237 H   0  0  0  0  0  0  0  0  0  0  0  0
  148.1108  142.1630  153.2438 H   0  0  0  0  0  0  0  0  0  0  0  0
  147.5827  142.7543  154.8157 H   0  0  0  0  0  0  0  0  0  0  0  0
  146.9913  141.0587  156.6895 H   0  0  0  0  0  0  0  0  0  0  0  0
  146.9649  139.3355  156.3347 H   0  0  0  0  0  0  0  0  0  0  0  0
  145.7599  140.4000  155.6197 H   0  0  0  0  0  0  0  0  0  0  0  0
  146.3933  139.6283  153.2355 H   0  0  0  0  0  0  0  0  0  0  0  0
  147.5332  138.5029  153.9418 H   0  0  0  0  0  0  0  0  0  0  0  0
  148.0758  139.6565  152.7263 H   0  0  0  0  0  0  0  0  0  0  0  0
  152.2236  143.5233  156.7174 H   0  0  0  0  0  0  0  0  0  0  0  0
  150.4871  143.7241  156.8367 H   0  0  0  0  0  0  0  0  0  0  0  0
  151.6930  145.2582  158.3937 H   0  0  0  0  0  0  0  0  0  0  0  0
  150.6236  144.1741  159.2610 H   0  0  0  0  0  0  0  0  0  0  0  0
  149.6158  138.8526  153.9105 H   0  0  0  0  0  0  0  0  0  0  0  0
  1  2  1  0  0  0  0
  1 22  1  0  0  0  0
  1 23  1  0  0  0  0
  1 24  1  0  0  0  0
  2  3  2  0  0  0  0
  2  4  1  0  0  0  0
  4  5  1  0  0  0  0
  4 25  1  0  0  0  0
  5  6  1  0  0  0  0
  5 26  1  0  0  0  0
  5 27  1  0  0  0  0
  6 21  1  0  0  0  0
  6  7  1  0  0  0  0
  6 28  1  0  0  0  0
  7  8  1  0  0  0  0
  7 29  1  0  0  0  0
  7 30  1  0  0  0  0
  8  9  1  0  0  0  0
  8 19  1  0  0  0  0
  9 18  1  0  0  0  0
  9 10  2  0  0  0  0
 10 11  1  0  0  0  0
 10 31  1  0  0  0  0
 11 12  2  0  0  0  0
 11 32  1  0  0  0  0
 12 13  1  0  0  0  0
 12 46  1  0  0  0  0
 13 14  1  0  0  0  0
 13 18  2  0  0  0  0
 14 15  1  0  0  0  0
 14 16  1  0  0  0  0
 14 17  1  0  0  0  0
 15 33  1  0  0  0  0
 15 34  1  0  0  0  0
 15 35  1  0  0  0  0
 16 36  1  0  0  0  0
 16 37  1  0  0  0  0
 16 38  1  0  0  0  0
 17 39  1  0  0  0  0
 17 40  1  0  0  0  0
 17 41  1  0  0  0  0
 19 20  1  0  0  0  0
 19 42  1  0  0  0  0
 19 43  1  0  0  0  0
 20 21  1  0  0  0  0
 20 44  1  0  0  0  0
 20 45  1  0  0  0  0
M  CHG  1  12   1
M  END
> <s_m_source_file>
AV-unprocessed.smi

> <i_m_source_file_index>
2413

> <i_lp_mmshare_version>
43012

> <i_f3d_flags>
0

> <s_epik_input>
W0NIM11DKD1PKVtOSF1bQ0gyXVtDQEBIXTFbQ0gyXU4oW0NIMl1bQ0gyXU8xKWMyW2NIXVtjSF1uYyhuMilDKFtDSDNdKShbQ0gzXSlbQ0gzXQ==

> <s_epik_cmdline>
J2VwaWtfcHl0aG9uJywgJy1waCcsICc3LjAnLCAnLXRuJywgJzgnLCAnLW1hJywgJzIwMCcsICctbWV0YWxfYmluZGluZycsICctaW1hZScsICc8aW5maWxlLm1hZT4nLCAnLW9tYWUnLCAnPG91dGZpbGUubWFlPic=

> <r_lp_tautomer_probability>
0.999336

> <r_epik_Ionization_Penalty>
2.26127

> <r_epik_Ionization_Penalty_Charging>
2.26127

> <r_epik_Ionization_Penalty_Neutral>
4.08984e-07

> <r_epik_State_Penalty>
2.40914

> <r_epik_Charging_Adjusted_Penalty>
4.67041

> <i_epik_Tot_Q>
1

> <i_epik_Tot_abs_Q>
1

> <r_epik_Metal_State_Penalty>
2.42208

> <b_epik_Metal_Only>
0

> <s_lp_Force_Field>
OPLS_2005

> <r_lp_Energy>
13.7164

> <b_lp_Chiralities_Consistent>
1

> <s_lp_Variant>
AV-unprocessed.smi:2413-3

> <Gold.Version>
5.8.1

> <Gold.Id.Protein>
6NUR|6NUR_protein|mol2

> <Gold.PLP.Fitness>
40.9994

> <Gold.PLP.PLP>
-38.7031

> <Gold.PLP.part.hbond>
-1.0000

> <Gold.PLP.part.metal>
0.0000

> <Gold.PLP.part.buried>
-6.1048

> <Gold.PLP.part.nonpolar>
-32.8063

> <Gold.PLP.part.repulsive>
0.2673

> <Gold.PLP.ligand.clash>
0.0000

> <Gold.PLP.ligand.torsion>
0.5983

> <Gold.PLP.Chemscore.Hbond>
1.0000

> <Gold.PLP.Chemscore.CHOScore>
0.0000

> <Gold.PLP.Chemscore.Metal>
0.0000

> <Gold.Chemscore.Hbonds>
donor molecule, donor type, donor heavy atom, donor atom, acceptor molecule, acceptor atom, score
      P1  H  7997  8010       L1     3  0.99

> <Gold.PLP.Chemscore.Internal.Correction>
0.4929

> <Gold.Rescore>
     Score         DG    S(hbond)    S(metal)    S(lipo)     H(rot)  DE(clash)    DE(int)     intcor
     14.61     -15.37       0.94        0.00      96.40       1.77       0.07       0.69       ----

> <Gold.Chemscore.Fitness>
14.6090

> <Gold.Chemscore.DG>
-15.3650

> <Gold.Chemscore.ZeroCoef>
-5.4800

> <Gold.Chemscore.Hbond>
0.9407

> <Gold.Chemscore.Metal>
0.0000

> <Gold.Chemscore.Lipo>
96.4037

> <Gold.Chemscore.Internal_Hbond>
0.0000

> <Gold.Chemscore.DEClash>
0.0672

> <Gold.Chemscore.DEInternal>
0.6888

> <Gold.Chemscore.Rot>
1.7719

> <Gold.Chemscore.Internal.Correction>
   9.000000E+99

> <Gold.Chemscore.Hbonds>
donor molecule, donor type, donor heavy atom, donor atom, acceptor molecule, acceptor atom, score
      P1  H  7997  8010       L1     3  0.88

> <Gold.Chemscore.Hbond.Weighted>
-3.1419

> <Gold.Chemscore.Metal.Weighted>
-0.0000

> <Gold.Chemscore.Lipo.Weighted>
-11.2792

> <Gold.Chemscore.Internal_Hbond.Weighted>
0.0000

> <Gold.Chemscore.DEClash.Weighted>
0.0672

> <Gold.Chemscore.DEInternal.Weighted>
0.6888

> <Gold.Chemscore.Rot.Weighted>
4.5361

> <Gold.Chemscore.Internal.Correction.Weighted>
   9.000000E+99

> <Gold.Protein.RotatedTorsions>
[ 6907 6896 6895 6894 ] final  -14.11 input  -60.11 | X-H torsion
[ 7974 7965 7964 7962 ] final -105.79 input  175.53 | X-H torsion
[ 8008 7997 7996 7995 ] final  -13.26 input   59.86 | X-H torsion
[ 10167 10162 10161 10158 ] final   93.55 input  -65.29 | X-H torsion
[ 10718 10713 10712 10709 ] final  -55.63 input   66.30 | X-H torsion
[ 10763 10752 10751 10750 ] final -112.68 input  -60.55 | X-H torsion
[ 11005 11000 10999 10996 ] final -115.36 input  -57.11 | X-H torsion

> <Gold.Protein.ActiveResidues>
 VAL166  LYS551  ARG553  GLY616  TRP617  ASP618  TYR619  PRO620  LYS621  CYS622 
 ASP623  PHE694  ASN695  SER759  ASP760  ASP761  ALA762  ILE779  LEU786  VAL792 
 PHE793  MET794  SER795  GLU796  ALA797  LYS798  CYS799  TRP800  GLU811  SER814 

> <Gold.Protein.RotatedAtoms>
  151.3445  135.0871  159.9382 H   0  0  0  0  0  0  0  0  0  0  0  0  # atno 6907 bound_to 6896
  152.5203  133.9414  159.7638 H   0  0  0  0  0  0  0  0  0  0  0  0  # atno 6908 bound_to 6896
  150.9777  133.6224  159.2757 H   0  0  0  0  0  0  0  0  0  0  0  0  # atno 6909 bound_to 6896
  145.2260  140.9153  143.3232 H   0  0  0  0  0  0  0  0  0  0  0  0  # atno 7974 bound_to 7965
  154.5307  140.2254  155.8809 H   0  0  0  0  0  0  0  0  0  0  0  0  # atno 8008 bound_to 7997
  156.1761  140.3111  155.9025 H   0  0  0  0  0  0  0  0  0  0  0  0  # atno 8009 bound_to 7997
  155.3457  140.0453  157.3036 H   0  0  0  0  0  0  0  0  0  0  0  0  # atno 8010 bound_to 7997
  139.8168  144.6749  150.9569 H   0  0  0  0  0  0  0  0  0  0  0  0  # atno 10167 bound_to 10162
  156.1353  130.4157  150.0196 H   0  0  0  0  0  0  0  0  0  0  0  0  # atno 10718 bound_to 10713
  154.8361  135.4482  154.1231 H   0  0  0  0  0  0  0  0  0  0  0  0  # atno 10763 bound_to 10752
  153.2461  135.6921  153.7736 H   0  0  0  0  0  0  0  0  0  0  0  0  # atno 10764 bound_to 10752
  153.7065  135.3363  155.3212 H   0  0  0  0  0  0  0  0  0  0  0  0  # atno 10765 bound_to 10752
  141.0493  133.9713  157.2864 H   0  0  0  0  0  0  0  0  0  0  0  0  # atno 11005 bound_to 11000
  144.9720  139.3870  143.6304 LP  0  0  0  0  0  0  0  0  0  0  0  0  # atno 17320 bound_to 7965
  146.3364  139.8823  142.8822 LP  0  0  0  0  0  0  0  0  0  0  0  0  # atno 17321 bound_to 7965
  140.7815  143.4130  151.0962 LP  0  0  0  0  0  0  0  0  0  0  0  0  # atno 17342 bound_to 10162
  139.7793  143.8379  152.3135 LP  0  0  0  0  0  0  0  0  0  0  0  0  # atno 17343 bound_to 10162
  156.8097  130.9320  151.3644 LP  0  0  0  0  0  0  0  0  0  0  0  0  # atno 17370 bound_to 10713
  157.6526  130.8897  149.9664 LP  0  0  0  0  0  0  0  0  0  0  0  0  # atno 17371 bound_to 10713
  139.9337  135.0198  156.8485 LP  0  0  0  0  0  0  0  0  0  0  0  0  # atno 17394 bound_to 11000
  140.6087  134.0103  155.7567 LP  0  0  0  0  0  0  0  0  0  0  0  0  # atno 17395 bound_to 11000

$$$$
