AV-unprocessed.smi:847|AV-procd|sdf|3937|dock9
  -GOLD-   22720 1403D 1   1.00000     0.00000
 Structure written by MMmdl.
 46 47  0  0  0  0  0  0  0  0  1 V2000
  146.9959  138.8261  151.9332 C   0  0  0  0  0  0  0  0  0  0  0  0
  146.9569  139.4904  153.1838 O   0  0  0  0  0  0  0  0  0  0  0  0
  147.4915  140.8022  153.1185 C   0  0  0  0  0  0  0  0  0  0  0  0
  146.7004  141.7140  154.0609 C   0  0  0  0  0  0  0  0  0  0  0  0
  146.5285  141.0489  155.3087 O   0  0  0  0  0  0  0  0  0  0  0  0
  147.6526  140.6706  156.0138 C   0  0  0  0  0  0  0  0  0  0  0  0
  148.8403  141.4075  155.8336 C   0  0  0  0  0  0  0  0  0  0  0  0
  149.9912  141.0260  156.5490 C   0  0  0  0  0  0  0  0  0  0  0  0
  149.9211  139.9184  157.4180 C   0  0  0  0  0  0  0  0  0  0  0  0
  151.1490  139.4880  158.2085 C   0  0  0  0  0  0  0  0  0  0  0  0
  151.7304  140.5419  159.0326 N   0  0  0  0  0  0  0  0  0  0  0  0
  153.0392  140.8414  159.0927 C   0  0  0  0  0  0  0  0  0  0  0  0
  153.8901  140.2436  158.4345 O   0  0  0  0  0  0  0  0  0  0  0  0
  153.4808  141.9773  160.0403 C   0  0  2  0  0  0  0  0  0  0  0  0
  153.9519  141.3640  161.3694 C   0  0  0  0  0  0  0  0  0  0  0  0
  153.6666  142.4241  162.4159 C   0  0  0  0  0  0  0  0  0  0  0  0
  152.4747  143.2071  161.8680 C   0  0  0  0  0  0  0  0  0  0  0  0
  152.4553  142.9717  160.4218 N   0  0  0  0  0  0  0  0  0  0  0  0
  151.6566  143.6589  159.5690 C   0  0  0  0  0  0  0  0  0  0  0  0
  151.8114  143.4203  158.0649 C   0  0  0  0  0  0  0  0  0  0  0  0
  150.8050  144.4620  159.9491 O   0  0  0  0  0  0  0  0  0  0  0  0
  148.6829  139.2483  157.5350 C   0  0  0  0  0  0  0  0  0  0  0  0
  147.5749  139.6078  156.8529 N   0  0  0  0  0  0  0  0  0  0  0  0
  154.3053  142.5227  159.5778 H   0  0  0  0  0  0  0  0  0  0  0  0
  146.5617  137.8314  152.0329 H   0  0  0  0  0  0  0  0  0  0  0  0
  148.0216  138.7119  151.5797 H   0  0  0  0  0  0  0  0  0  0  0  0
  146.4238  139.3692  151.1795 H   0  0  0  0  0  0  0  0  0  0  0  0
  148.5370  140.7796  153.4293 H   0  0  0  0  0  0  0  0  0  0  0  0
  147.4608  141.1873  152.0979 H   0  0  0  0  0  0  0  0  0  0  0  0
  147.2195  142.6659  154.1857 H   0  0  0  0  0  0  0  0  0  0  0  0
  145.7227  141.9195  153.6221 H   0  0  0  0  0  0  0  0  0  0  0  0
  148.8680  142.2501  155.1586 H   0  0  0  0  0  0  0  0  0  0  0  0
  150.9131  141.5756  156.4286 H   0  0  0  0  0  0  0  0  0  0  0  0
  150.9066  138.6262  158.8327 H   0  0  0  0  0  0  0  0  0  0  0  0
  151.9090  139.1529  157.5025 H   0  0  0  0  0  0  0  0  0  0  0  0
  151.0940  141.0825  159.6000 H   0  0  0  0  0  0  0  0  0  0  0  0
  153.3773  140.4690  161.6166 H   0  0  0  0  0  0  0  0  0  0  0  0
  155.0043  141.0791  161.3462 H   0  0  0  0  0  0  0  0  0  0  0  0
  153.4809  142.0064  163.4059 H   0  0  0  0  0  0  0  0  0  0  0  0
  154.5281  143.0884  162.4939 H   0  0  0  0  0  0  0  0  0  0  0  0
  151.5472  142.8308  162.3019 H   0  0  0  0  0  0  0  0  0  0  0  0
  152.5625  144.2657  162.1164 H   0  0  0  0  0  0  0  0  0  0  0  0
  152.8452  143.5668  157.7511 H   0  0  0  0  0  0  0  0  0  0  0  0
  151.1909  144.1170  157.5002 H   0  0  0  0  0  0  0  0  0  0  0  0
  151.5029  142.4087  157.8006 H   0  0  0  0  0  0  0  0  0  0  0  0
  148.5701  138.4006  158.1947 H   0  0  0  0  0  0  0  0  0  0  0  0
  1  2  1  0  0  0  0
  1 25  1  0  0  0  0
  1 26  1  0  0  0  0
  1 27  1  0  0  0  0
  2  3  1  0  0  0  0
  3  4  1  0  0  0  0
  3 28  1  0  0  0  0
  3 29  1  0  0  0  0
  4  5  1  0  0  0  0
  4 30  1  0  0  0  0
  4 31  1  0  0  0  0
  5  6  1  0  0  0  0
  6 23  1  0  0  0  0
  6  7  2  0  0  0  0
  7  8  1  0  0  0  0
  7 32  1  0  0  0  0
  8  9  2  0  0  0  0
  8 33  1  0  0  0  0
  9 10  1  0  0  0  0
  9 22  1  0  0  0  0
 10 11  1  0  0  0  0
 10 34  1  0  0  0  0
 10 35  1  0  0  0  0
 11 12  1  0  0  0  0
 11 36  1  0  0  0  0
 12 13  2  0  0  0  0
 12 14  1  0  0  0  0
 14 24  1  0  0  0  0
 14 18  1  0  0  0  0
 14 15  1  0  0  0  0
 15 16  1  0  0  0  0
 15 37  1  0  0  0  0
 15 38  1  0  0  0  0
 16 17  1  0  0  0  0
 16 39  1  0  0  0  0
 16 40  1  0  0  0  0
 17 18  1  0  0  0  0
 17 41  1  0  0  0  0
 17 42  1  0  0  0  0
 18 19  1  0  0  0  0
 19 20  1  0  0  0  0
 19 21  2  0  0  0  0
 20 43  1  0  0  0  0
 20 44  1  0  0  0  0
 20 45  1  0  0  0  0
 22 23  2  0  0  0  0
 22 46  1  0  0  0  0
M  END
> <s_m_source_file>
AV-unprocessed.smi

> <i_m_source_file_index>
847

> <i_lp_mmshare_version>
43012

> <i_f3d_flags>
0

> <s_epik_input>
W0NIM11PW0NIMl1bQ0gyXU9jMVtjSF1bY0hdYyhbY0hdbjEpW0NIMl1bTkhdQyg9TylbQ0BASF0yW0NIMl1bQ0gyXVtDSDJdTjJDKD1PKVtDSDNd

> <s_epik_cmdline>
J2VwaWtfcHl0aG9uJywgJy1waCcsICc3LjAnLCAnLXRuJywgJzgnLCAnLW1hJywgJzIwMCcsICctbWV0YWxfYmluZGluZycsICctaW1hZScsICc8aW5maWxlLm1hZT4nLCAnLW9tYWUnLCAnPG91dGZpbGUubWFlPic=

> <r_lp_tautomer_probability>
1

> <r_epik_Ionization_Penalty>
6.04138e-05

> <r_epik_Ionization_Penalty_Charging>
0

> <r_epik_Ionization_Penalty_Neutral>
6.04138e-05

> <r_epik_State_Penalty>
-0

> <r_epik_Charging_Adjusted_Penalty>
0

> <i_epik_Tot_Q>
0

> <i_epik_Tot_abs_Q>
0

> <r_epik_Metal_State_Penalty>
-0

> <b_epik_Metal_Only>
0

> <s_lp_Force_Field>
OPLS_2005

> <r_lp_Energy>
14.576

> <b_lp_Chiralities_Consistent>
1

> <s_lp_Variant>
AV-unprocessed.smi:847-1

> <Gold.Version>
5.8.1

> <Gold.Id.Protein>
6NUR|6NUR_protein|mol2

> <Gold.PLP.Fitness>
44.7554

> <Gold.PLP.PLP>
-44.3847

> <Gold.PLP.part.hbond>
-1.0000

> <Gold.PLP.part.metal>
0.0000

> <Gold.PLP.part.buried>
-3.8428

> <Gold.PLP.part.nonpolar>
-39.0125

> <Gold.PLP.part.repulsive>
0.6083

> <Gold.PLP.ligand.clash>
0.0000

> <Gold.PLP.ligand.torsion>
1.3988

> <Gold.PLP.Chemscore.Hbond>
1.0000

> <Gold.PLP.Chemscore.CHOScore>
0.0000

> <Gold.PLP.Chemscore.Metal>
0.0000

> <Gold.Chemscore.Hbonds>
donor molecule, donor type, donor heavy atom, donor atom, acceptor molecule, acceptor atom, score
      P1  H  7997  8008       L1    13  0.85

> <Gold.PLP.Chemscore.Internal.Correction>
0.1683

> <Gold.Rescore>
     Score         DG    S(hbond)    S(metal)    S(lipo)     H(rot)  DE(clash)    DE(int)     intcor
     11.90     -14.02       0.97        0.00      95.78       2.31       0.05       2.07       ----

> <Gold.Chemscore.Fitness>
11.9028

> <Gold.Chemscore.DG>
-14.0193

> <Gold.Chemscore.ZeroCoef>
-5.4800

> <Gold.Chemscore.Hbond>
0.9693

> <Gold.Chemscore.Metal>
0.0000

> <Gold.Chemscore.Lipo>
95.7762

> <Gold.Chemscore.Internal_Hbond>
0.0000

> <Gold.Chemscore.DEClash>
0.0496

> <Gold.Chemscore.DEInternal>
2.0669

> <Gold.Chemscore.Rot>
2.3062

> <Gold.Chemscore.Internal.Correction>
   9.000000E+99

> <Gold.Chemscore.Hbonds>
donor molecule, donor type, donor heavy atom, donor atom, acceptor molecule, acceptor atom, score
      P1  H  7997  8008       L1    13  0.81

> <Gold.Chemscore.Hbond.Weighted>
-3.2373

> <Gold.Chemscore.Metal.Weighted>
-0.0000

> <Gold.Chemscore.Lipo.Weighted>
-11.2058

> <Gold.Chemscore.Internal_Hbond.Weighted>
0.0000

> <Gold.Chemscore.DEClash.Weighted>
0.0496

> <Gold.Chemscore.DEInternal.Weighted>
2.0669

> <Gold.Chemscore.Rot.Weighted>
5.9038

> <Gold.Chemscore.Internal.Correction.Weighted>
   9.000000E+99

> <Gold.Protein.RotatedTorsions>
[ 6907 6896 6895 6894 ] final   75.60 input  -60.11 | X-H torsion
[ 7974 7965 7964 7962 ] final -148.70 input  175.53 | X-H torsion
[ 8008 7997 7996 7995 ] final -105.70 input   59.86 | X-H torsion
[ 10167 10162 10161 10158 ] final   36.72 input  -65.29 | X-H torsion
[ 10718 10713 10712 10709 ] final  161.77 input   66.30 | X-H torsion
[ 10763 10752 10751 10750 ] final  -75.67 input  -60.55 | X-H torsion
[ 11005 11000 10999 10996 ] final   31.97 input  -57.11 | X-H torsion

> <Gold.Protein.ActiveResidues>
 VAL166  LYS551  ARG553  GLY616  TRP617  ASP618  TYR619  PRO620  LYS621  CYS622 
 ASP623  PHE694  ASN695  SER759  ASP760  ASP761  ALA762  ILE779  LEU786  VAL792 
 PHE793  MET794  SER795  GLU796  ALA797  LYS798  CYS799  TRP800  GLU811  SER814 

> <Gold.Protein.RotatedAtoms>
  152.5033  134.4096  159.9443 H   0  0  0  0  0  0  0  0  0  0  0  0  # atno 6907 bound_to 6896
  151.4063  133.3735  159.2746 H   0  0  0  0  0  0  0  0  0  0  0  0  # atno 6908 bound_to 6896
  150.9324  134.8760  159.7619 H   0  0  0  0  0  0  0  0  0  0  0  0  # atno 6909 bound_to 6896
  144.8013  140.5162  143.5705 H   0  0  0  0  0  0  0  0  0  0  0  0  # atno 7974 bound_to 7965
  154.9036  140.0412  157.1907 H   0  0  0  0  0  0  0  0  0  0  0  0  # atno 8008 bound_to 7997
  154.8418  140.2915  155.5633 H   0  0  0  0  0  0  0  0  0  0  0  0  # atno 8009 bound_to 7997
  156.2992  140.2481  156.3362 H   0  0  0  0  0  0  0  0  0  0  0  0  # atno 8010 bound_to 7997
  140.4101  144.1604  150.6139 H   0  0  0  0  0  0  0  0  0  0  0  0  # atno 10167 bound_to 10162
  157.1318  131.0518  151.2368 H   0  0  0  0  0  0  0  0  0  0  0  0  # atno 10718 bound_to 10713
  154.4897  135.5823  153.6450 H   0  0  0  0  0  0  0  0  0  0  0  0  # atno 10763 bound_to 10752
  152.9860  135.6109  154.3141 H   0  0  0  0  0  0  0  0  0  0  0  0  # atno 10764 bound_to 10752
  154.3039  135.2846  155.2577 H   0  0  0  0  0  0  0  0  0  0  0  0  # atno 10765 bound_to 10752
  140.2783  134.3002  155.7808 H   0  0  0  0  0  0  0  0  0  0  0  0  # atno 11005 bound_to 11000
  145.5547  139.1477  143.3375 LP  0  0  0  0  0  0  0  0  0  0  0  0  # atno 17320 bound_to 7965
  146.2295  140.5684  142.8982 LP  0  0  0  0  0  0  0  0  0  0  0  0  # atno 17321 bound_to 7965
  140.4647  143.2435  151.9172 LP  0  0  0  0  0  0  0  0  0  0  0  0  # atno 17342 bound_to 10162
  139.4783  144.5431  151.8498 LP  0  0  0  0  0  0  0  0  0  0  0  0  # atno 17343 bound_to 10162
  157.4385  130.7531  149.7049 LP  0  0  0  0  0  0  0  0  0  0  0  0  # atno 17370 bound_to 10713
  155.9806  130.4027  150.3518 LP  0  0  0  0  0  0  0  0  0  0  0  0  # atno 17371 bound_to 10713
  141.2167  133.7509  156.9441 LP  0  0  0  0  0  0  0  0  0  0  0  0  # atno 17394 bound_to 11000
  140.1308  134.9357  157.2334 LP  0  0  0  0  0  0  0  0  0  0  0  0  # atno 17395 bound_to 11000

$$$$
