AV-unprocessed.smi:2822|AV-procd|sdf|10872|dock9
  -GOLD-   2272015313D 1   1.00000     0.00000
 Structure written by MMmdl.
 40 42  0  0  0  0  0  0  0  0  2 V2000
  146.4537  142.4949  154.1360 Cl  0  0  0  0  0  0  0  0  0  0  0  0
  147.6713  141.2819  154.3290 C   0  0  0  0  0  0  0  0  0  0  0  0
  149.0113  141.6642  154.5446 C   0  0  0  0  0  0  0  0  0  0  0  0
  150.0204  140.7824  154.7032 N   0  0  0  0  0  0  0  0  0  0  0  0
  149.7197  139.4682  154.6515 C   0  0  0  0  0  0  0  0  0  0  0  0
  148.4153  138.9783  154.4411 C   0  0  0  0  0  0  0  0  0  0  0  0
  147.3584  139.9041  154.2736 C   0  0  0  0  0  0  0  0  0  0  0  0
  146.0304  139.5029  154.0596 N   0  0  0  0  0  0  0  0  0  0  0  0
  145.5566  138.2195  154.5547 C   0  0  0  0  0  0  0  0  0  0  0  0
  146.2098  137.0473  153.8091 C   0  0  2  0  0  0  0  0  0  0  0  0
  145.5703  136.8299  152.4254 C   0  0  0  0  0  0  0  0  0  0  0  0
  146.1560  135.6402  151.7591 N   0  3  2  0  0  0  0  0  0  0  0  0
  145.6298  135.3967  150.3904 C   0  0  0  0  0  0  0  0  0  0  0  0
  144.2077  134.8043  150.4093 C   0  0  0  0  0  0  0  0  0  0  0  0
  144.1490  133.5365  151.2721 C   0  0  0  0  0  0  0  0  0  0  0  0
  144.6905  133.8216  152.6803 C   0  0  0  0  0  0  0  0  0  0  0  0
  146.1111  134.4257  152.6195 C   0  0  2  0  0  0  0  0  0  0  0  0
  146.6834  134.7411  154.0158 C   0  0  0  0  0  0  0  0  0  0  0  0
  146.0189  135.8652  154.5793 O   0  0  0  0  0  0  0  0  0  0  0  0
  149.2816  142.7090  154.5908 H   0  0  0  0  0  0  0  0  0  0  0  0
  150.5445  138.7836  154.7830 H   0  0  0  0  0  0  0  0  0  0  0  0
  148.2511  137.9115  154.4153 H   0  0  0  0  0  0  0  0  0  0  0  0
  145.4960  139.9670  153.3386 H   0  0  0  0  0  0  0  0  0  0  0  0
  145.7515  138.1397  155.6250 H   0  0  0  0  0  0  0  0  0  0  0  0
  144.4756  138.1779  154.4166 H   0  0  0  0  0  0  0  0  0  0  0  0
  147.2770  137.2465  153.6910 H   0  0  0  0  0  0  0  0  0  0  0  0
  144.4913  136.7144  152.5313 H   0  0  0  0  0  0  0  0  0  0  0  0
  145.7335  137.7091  151.8007 H   0  0  0  0  0  0  0  0  0  0  0  0
  145.6513  136.3213  149.8123 H   0  0  0  0  0  0  0  0  0  0  0  0
  146.3025  134.7033  149.8846 H   0  0  0  0  0  0  0  0  0  0  0  0
  143.4980  135.5405  150.7877 H   0  0  0  0  0  0  0  0  0  0  0  0
  143.8901  134.5737  149.3921 H   0  0  0  0  0  0  0  0  0  0  0  0
  143.1243  133.1681  151.3302 H   0  0  0  0  0  0  0  0  0  0  0  0
  144.7384  132.7468  150.8043 H   0  0  0  0  0  0  0  0  0  0  0  0
  144.0119  134.4956  153.2045 H   0  0  0  0  0  0  0  0  0  0  0  0
  144.7048  132.8967  153.2581 H   0  0  0  0  0  0  0  0  0  0  0  0
  146.7629  133.6817  152.1588 H   0  0  0  0  0  0  0  0  0  0  0  0
  146.5628  133.8851  154.6804 H   0  0  0  0  0  0  0  0  0  0  0  0
  147.7549  134.9401  153.9563 H   0  0  0  0  0  0  0  0  0  0  0  0
  147.1351  135.8595  151.6423 H   0  0  0  0  0  0  0  0  0  0  0  0
  1  2  1  0  0  0  0
  2  7  1  0  0  0  0
  2  3  2  0  0  0  0
  3  4  1  0  0  0  0
  3 20  1  0  0  0  0
  4  5  2  0  0  0  0
  5  6  1  0  0  0  0
  5 21  1  0  0  0  0
  6  7  2  0  0  0  0
  6 22  1  0  0  0  0
  7  8  1  0  0  0  0
  8  9  1  0  0  0  0
  8 23  1  0  0  0  0
  9 10  1  0  0  0  0
  9 24  1  0  0  0  0
  9 25  1  0  0  0  0
 10 19  1  0  0  0  0
 10 11  1  0  0  0  0
 10 26  1  0  0  0  0
 11 12  1  0  0  0  0
 11 27  1  0  0  0  0
 11 28  1  0  0  0  0
 12 17  1  0  0  0  0
 12 13  1  0  0  0  0
 12 40  1  0  0  0  0
 13 14  1  0  0  0  0
 13 29  1  0  0  0  0
 13 30  1  0  0  0  0
 14 15  1  0  0  0  0
 14 31  1  0  0  0  0
 14 32  1  0  0  0  0
 15 16  1  0  0  0  0
 15 33  1  0  0  0  0
 15 34  1  0  0  0  0
 16 17  1  0  0  0  0
 16 35  1  0  0  0  0
 16 36  1  0  0  0  0
 17 18  1  0  0  0  0
 17 37  1  0  0  0  0
 18 19  1  0  0  0  0
 18 38  1  0  0  0  0
 18 39  1  0  0  0  0
M  CHG  1  12   1
M  END
> <s_m_source_file>
AV-unprocessed.smi

> <i_m_source_file_index>
2822

> <i_lp_mmshare_version>
43012

> <i_f3d_flags>
0

> <s_epik_input>
Q2xjMVtjSF1uW2NIXVtjSF1jMVtOSF1bQ0gyXVtDQEhdKFtDSDJdMilPW0NIMl1bQ0BASF0oTjIzKVtDSDJdW0NIMl1bQ0gyXVtDSDJdMw==

> <s_epik_cmdline>
J2VwaWtfcHl0aG9uJywgJy1waCcsICc3LjAnLCAnLXRuJywgJzgnLCAnLW1hJywgJzIwMCcsICctbWV0YWxfYmluZGluZycsICctaW1hZScsICc8aW5maWxlLm1hZT4nLCAnLW9tYWUnLCAnPG91dGZpbGUubWFlPic=

> <r_lp_tautomer_probability>
0.999999

> <r_epik_Ionization_Penalty>
0.88937

> <r_epik_Ionization_Penalty_Charging>
0.0803403

> <r_epik_Ionization_Penalty_Neutral>
0.80903

> <r_epik_State_Penalty>
0.931884

> <r_epik_Charging_Adjusted_Penalty>
1.01222

> <i_epik_Tot_Q>
1

> <i_epik_Tot_abs_Q>
1

> <r_epik_Metal_State_Penalty>
0.0782275

> <b_epik_Metal_Only>
0

> <s_lp_Force_Field>
OPLS_2005

> <r_lp_Energy>
31.6827

> <b_lp_Chiralities_Consistent>
1

> <s_lp_Variant>
AV-unprocessed.smi:2822-13

> <Gold.Version>
5.8.1

> <Gold.Id.Protein>
6NUR|6NUR_protein|mol2

> <Gold.PLP.Fitness>
41.6346

> <Gold.PLP.PLP>
-28.1746

> <Gold.PLP.part.hbond>
-3.0000

> <Gold.PLP.part.metal>
0.0000

> <Gold.PLP.part.buried>
-0.8264

> <Gold.PLP.part.nonpolar>
-24.5564

> <Gold.PLP.part.repulsive>
0.2312

> <Gold.PLP.ligand.clash>
0.0418

> <Gold.PLP.ligand.torsion>
0.3298

> <Gold.PLP.Chemscore.Hbond>
3.7200

> <Gold.PLP.Chemscore.CHOScore>
1.0000

> <Gold.PLP.Chemscore.Metal>
0.0000

> <Gold.Chemscore.Hbonds>
donor molecule, donor type, donor heavy atom, donor atom, acceptor molecule, acceptor atom, score
      L1  H     8    23       P1 10175  0.89
      L1  H    12    40       P1  7948  2.00
      P1  H  7989  7998       L1     4  0.77
      L1  C     3    20       P1  8028  1.00

> <Gold.PLP.Chemscore.Internal.Correction>
0.0015

> <Gold.Rescore>
     Score         DG    S(hbond)    S(metal)    S(lipo)     H(rot)  DE(clash)    DE(int)     intcor
     17.18     -20.07       2.51        0.00      78.58       1.17       1.48       1.41       ----

> <Gold.Chemscore.Fitness>
17.1806

> <Gold.Chemscore.DG>
-20.0743

> <Gold.Chemscore.ZeroCoef>
-5.4800

> <Gold.Chemscore.Hbond>
2.5130

> <Gold.Chemscore.Metal>
0.0000

> <Gold.Chemscore.Lipo>
78.5845

> <Gold.Chemscore.Internal_Hbond>
0.0000

> <Gold.Chemscore.DEClash>
1.4805

> <Gold.Chemscore.DEInternal>
1.4131

> <Gold.Chemscore.Rot>
1.1693

> <Gold.Chemscore.Internal.Correction>
   9.000000E+99

> <Gold.Chemscore.Hbonds>
donor molecule, donor type, donor heavy atom, donor atom, acceptor molecule, acceptor atom, score
      L1  H     8    23       P1 10175  0.83
      L1  H    12    40       P1  7948  1.00
      P1  H  7989  7998       L1     4  0.24

> <Gold.Chemscore.Hbond.Weighted>
-8.3933

> <Gold.Chemscore.Metal.Weighted>
-0.0000

> <Gold.Chemscore.Lipo.Weighted>
-9.1944

> <Gold.Chemscore.Internal_Hbond.Weighted>
0.0000

> <Gold.Chemscore.DEClash.Weighted>
1.4805

> <Gold.Chemscore.DEInternal.Weighted>
1.4131

> <Gold.Chemscore.Rot.Weighted>
2.9934

> <Gold.Chemscore.Internal.Correction.Weighted>
   9.000000E+99

> <Gold.Protein.RotatedTorsions>
[ 6907 6896 6895 6894 ] final   86.62 input  -60.11 | X-H torsion
[ 7974 7965 7964 7962 ] final   89.49 input  175.53 | X-H torsion
[ 8008 7997 7996 7995 ] final  174.85 input   59.86 | X-H torsion
[ 10167 10162 10161 10158 ] final  -53.13 input  -65.29 | X-H torsion
[ 10718 10713 10712 10709 ] final   87.19 input   66.30 | X-H torsion
[ 10763 10752 10751 10750 ] final    7.06 input  -60.55 | X-H torsion
[ 11005 11000 10999 10996 ] final   89.22 input  -57.11 | X-H torsion

> <Gold.Protein.ActiveResidues>
 VAL166  LYS551  ARG553  GLY616  TRP617  ASP618  TYR619  PRO620  LYS621  CYS622 
 ASP623  PHE694  ASN695  SER759  ASP760  ASP761  ALA762  ILE779  LEU786  VAL792 
 PHE793  MET794  SER795  GLU796  ALA797  LYS798  CYS799  TRP800  GLU811  SER814 

> <Gold.Protein.RotatedAtoms>
  152.5397  134.2403  159.8859 H   0  0  0  0  0  0  0  0  0  0  0  0  # atno 6907 bound_to 6896
  151.2371  133.4413  159.2613 H   0  0  0  0  0  0  0  0  0  0  0  0  # atno 6908 bound_to 6896
  151.0661  134.9782  159.8341 H   0  0  0  0  0  0  0  0  0  0  0  0  # atno 6909 bound_to 6896
  145.5316  139.2283  143.2615 H   0  0  0  0  0  0  0  0  0  0  0  0  # atno 7974 bound_to 7965
  156.0931  140.1424  156.9566 H   0  0  0  0  0  0  0  0  0  0  0  0  # atno 8008 bound_to 7997
  154.4654  140.0928  156.7053 H   0  0  0  0  0  0  0  0  0  0  0  0  # atno 8009 bound_to 7997
  155.4886  140.3447  155.4353 H   0  0  0  0  0  0  0  0  0  0  0  0  # atno 8010 bound_to 7997
  140.6501  143.2560  151.4748 H   0  0  0  0  0  0  0  0  0  0  0  0  # atno 10167 bound_to 10162
  157.6937  131.0245  150.3086 H   0  0  0  0  0  0  0  0  0  0  0  0  # atno 10718 bound_to 10713
  153.2406  135.6903  153.7787 H   0  0  0  0  0  0  0  0  0  0  0  0  # atno 10763 bound_to 10752
  153.6918  135.3311  155.3205 H   0  0  0  0  0  0  0  0  0  0  0  0  # atno 10764 bound_to 10752
  154.8354  135.4547  154.1327 H   0  0  0  0  0  0  0  0  0  0  0  0  # atno 10765 bound_to 10752
  139.8880  134.8538  156.3111 H   0  0  0  0  0  0  0  0  0  0  0  0  # atno 11005 bound_to 11000
  146.2040  140.6133  142.9089 LP  0  0  0  0  0  0  0  0  0  0  0  0  # atno 17320 bound_to 7965
  144.7623  140.5449  143.6727 LP  0  0  0  0  0  0  0  0  0  0  0  0  # atno 17321 bound_to 7965
  139.5715  144.1917  152.1843 LP  0  0  0  0  0  0  0  0  0  0  0  0  # atno 17342 bound_to 10162
  140.1215  144.5369  150.6860 LP  0  0  0  0  0  0  0  0  0  0  0  0  # atno 17343 bound_to 10162
  156.3591  130.3844  149.7266 LP  0  0  0  0  0  0  0  0  0  0  0  0  # atno 17370 bound_to 10713
  156.4719  130.8000  151.3018 LP  0  0  0  0  0  0  0  0  0  0  0  0  # atno 17371 bound_to 10713
  140.9849  133.7244  156.0727 LP  0  0  0  0  0  0  0  0  0  0  0  0  # atno 17394 bound_to 11000
  140.7701  134.3842  157.5509 LP  0  0  0  0  0  0  0  0  0  0  0  0  # atno 17395 bound_to 11000

$$$$
