#       Name:                AV-unprocessed.smi:283
#       Creating user name   scv26
#       Creation time:       Thu Mar 26 21:44:19 2020


#       File generated by GOLD software.
#

@<TRIPOS>MOLECULE
AV-unprocessed.smi:283
    59    62     1
SMALL
NO_CHARGES


@<TRIPOS>ATOM
      1 ****        -3.7167   2.5117   1.0741 C.3            1 S1                 0.0000
      2 ****        -3.5472   1.5034  -0.0769 C.3            1 S1                 0.0000
      3 ****        -2.3678   0.6623   0.1244 N.pl3          1 S1                 0.0000
      4 ****        -1.1153   1.1358  -0.0594 C.ar           1 S1                 0.0000
      5 ****        -0.8946   2.3758  -0.5689 N.ar           1 S1                 0.0000
      6 ****         0.3555   2.8139  -0.7448 C.ar           1 S1                 0.0000
      7 ****         1.5044   2.1860  -0.4831 N.ar           1 S1                 0.0000
      8 ****         1.2879   0.9382   0.0257 C.ar           1 S1                 0.0000
      9 ****         0.0174   0.3441   0.2615 C.ar           1 S1                 0.0000
     10 ****         0.1855  -0.9352   0.7722 N.2            1 S1                 0.0000
     11 ****         1.4816  -1.0863   0.8246 C.2            1 S1                 0.0000
     12 ****         2.2249   0.0027   0.4114 N.pl3          1 S1                 0.0000
     13 ****         3.7139   0.1742   0.3052 C.3            1 S1                 0.0000
     14 ****         4.1232  -0.4583  -0.8675 O.3            1 S1                 0.0000
     15 ****         4.5351  -1.7865  -0.5713 C.3            1 S1                 0.0000
     16 ****         5.3647  -2.3820  -1.7236 C.3            1 S1                 0.0000
     17 ****         4.5092  -2.8904  -2.7249 O.3            1 S1                 0.0000
     18 ****         5.2755  -1.6001   0.7622 C.3            1 S1                 0.0000
     19 ****         6.6236  -1.2199   0.5358 O.3            1 S1                 0.0000
     20 ****         4.4611  -0.5085   1.4687 C.3            1 S1                 0.0000
     21 ****         5.2641   0.3927   2.2084 O.3            1 S1                 0.0000
     22 ****        -4.8269   0.6859  -0.2450 C.ar           1 S1                 0.0000
     23 ****        -5.0152  -0.4941   0.5129 C.ar           1 S1                 0.0000
     24 ****        -6.1904  -1.2565   0.3759 C.ar           1 S1                 0.0000
     25 ****        -7.1955  -0.8441  -0.5169 C.ar           1 S1                 0.0000
     26 ****        -7.0256   0.3343  -1.2665 C.ar           1 S1                 0.0000
     27 ****        -5.8515   1.1026  -1.1328 C.ar           1 S1                 0.0000
     28 ****        -5.7092   2.5520  -2.0654 Cl             1 S1                 0.0000
     29 ****         3.8775   1.2507   0.2473 H              1 S1                 0.0000
     30 ****         3.6560  -2.4078  -0.3961 H              1 S1                 0.0000
     31 ****         5.2854  -2.5249   1.3399 H              1 S1                 0.0000
     32 ****         3.7522  -0.9585   2.1625 H              1 S1                 0.0000
     33 ****        -4.5696   3.1669   0.8954 H              1 S1                 0.0000
     34 ****        -2.8403   3.1485   1.1910 H              1 S1                 0.0000
     35 ****        -3.8839   2.0028   2.0239 H              1 S1                 0.0000
     36 ****        -3.3859   2.0549  -1.0022 H              1 S1                 0.0000
     37 ****        -2.5525  -0.2700   0.4654 H              1 S1                 0.0000
     38 ****         0.4485   3.8092  -1.1537 H              1 S1                 0.0000
     39 ****         1.9232  -2.0085   1.1718 H              1 S1                 0.0000
     40 ****         6.0441  -1.6436  -2.1505 H              1 S1                 0.0000
     41 ****         5.9712  -3.2123  -1.3607 H              1 S1                 0.0000
     42 ****         3.9576  -3.5549  -2.3414 H              1 S1                 0.0000
     43 ****         6.6277  -0.3901   0.0835 H              1 S1                 0.0000
     44 ****         4.7018   1.0407   2.6048 H              1 S1                 0.0000
     45 ****        -4.2599  -0.8233   1.2111 H              1 S1                 0.0000
     46 ****        -6.3214  -2.1566   0.9584 H              1 S1                 0.0000
     47 ****        -8.0982  -1.4275  -0.6228 H              1 S1                 0.0000
     48 ****        -7.8034   0.6525  -1.9450 H              1 S1                 0.0000
     49 ****        -1.6681   2.9609  -0.8124 LP             1 S1                 0.0000
     50 ****         2.4098   2.5804  -0.6401 LP             1 S1                 0.0000
     51 ****        -0.5221  -1.5899   1.0385 LP             1 S1                 0.0000
     52 ****         4.8878   0.0460  -1.2687 LP             1 S1                 0.0000
     53 ****         3.3625  -0.4822  -1.5162 LP             1 S1                 0.0000
     54 ****         5.0538  -3.2893  -3.4626 LP             1 S1                 0.0000
     55 ****         3.9425  -2.1521  -3.0906 LP             1 S1                 0.0000
     56 ****         7.0801  -1.9117  -0.0236 LP             1 S1                 0.0000
     57 ****         7.1006  -1.1303   1.4102 LP             1 S1                 0.0000
     58 ****         5.9172   0.8410   1.5983 LP             1 S1                 0.0000
     59 ****         5.7601  -0.1042   2.9205 LP             1 S1                 0.0000
@<TRIPOS>BOND
    1    1    2 1     
    2    1   33 1     
    3    1   34 1     
    4    1   35 1     
    5    2    3 1     
    6    2   22 1     
    7    2   36 1     
    8    3    4 1     
    9    3   37 1     
   10    4    9 ar    
   11    4    5 ar    
   12    5    6 ar    
   13    6    7 ar    
   14    6   38 1     
   15    7    8 ar    
   16    8   12 1     
   17    8    9 ar    
   18    9   10 1     
   19   10   11 2     
   20   11   12 1     
   21   11   39 1     
   22   12   13 1     
   23   13   29 1     
   24   13   20 1     
   25   13   14 1     
   26   14   15 1     
   27   15   30 1     
   28   15   16 1     
   29   15   18 1     
   30   16   17 1     
   31   16   40 1     
   32   16   41 1     
   33   17   42 1     
   34   18   31 1     
   35   18   19 1     
   36   18   20 1     
   37   19   43 1     
   38   20   32 1     
   39   20   21 1     
   40   21   44 1     
   41   22   27 ar    
   42   22   23 ar    
   43   23   24 ar    
   44   23   45 1     
   45   24   25 ar    
   46   24   46 1     
   47   25   26 ar    
   48   25   47 1     
   49   26   27 ar    
   50   26   48 1     
   51   27   28 1     
   52    5   49 1     
   53    7   50 1     
   54   10   51 1     
   55   14   52 1     
   56   14   53 1     
   57   17   54 1     
   58   17   55 1     
   59   19   56 1     
   60   19   57 1     
   61   21   58 1     
   62   21   59 1     
@<TRIPOS>SUBSTRUCTURE
      1 S1             1
@<TRIPOS>SET
LONE_PAIRS      STATIC     ATOMS    <user>   **** ""
11 49 50 51 52 53 54 55 56 57 58 59
DONOR_HYDROGENS      STATIC     ATOMS    <user>   **** ""
4 37 42 43 44
ATOM$BLUE        STATIC     ATOMS    COLORGROUP SYSTEM
11 49 50 51 52 53 54 55 56 57 58 59
ATOM$RED        STATIC     ATOMS    COLORGROUP SYSTEM
4 37 42 43 44
