#       Name:                AV-unprocessed.smi:2575
#       Creating user name   scv26
#       Creation time:       Fri Mar 27 14:13:40 2020


#       File generated by GOLD software.
#

@<TRIPOS>MOLECULE
AV-unprocessed.smi:2575
    37    38     1
SMALL
NO_CHARGES


@<TRIPOS>ATOM
      1 ****        -4.4476   2.7588  -1.0816 C.3            1 S1                 0.0000
      2 ****        -4.0515   1.2811  -1.0457 C.3            1 S1                 0.0000
      3 ****        -2.6373   1.1837  -1.0516 O.3            1 S1                 0.0000
      4 ****        -2.1803  -0.1586  -1.0271 C.3            1 S1                 0.0000
      5 ****        -0.6445  -0.1724  -1.0309 C.3            1 S1                 0.0000
      6 ****        -0.2113  -1.5056  -1.2212 O.3            1 S1                 0.0000
      7 ****        -0.0453   0.3941   0.2718 C.3            1 S1                 0.0000
      8 ****         1.4072   0.3919   0.2634 N.pl3          1 S1                 0.0000
      9 ****         2.0733   1.3937  -0.3773 N.2            1 S1                 0.0000
     10 ****         3.3508   1.1841  -0.2625 N.2            1 S1                 0.0000
     11 ****         3.5301   0.0197   0.4655 C.ar           1 S1                 0.0000
     12 ****         4.6960  -0.6654   0.8745 C.ar           1 S1                 0.0000
     13 ****         4.5973  -1.8584   1.6239 C.ar           1 S1                 0.0000
     14 ****         6.0459  -2.6672   2.1062 Cl             1 S1                 0.0000
     15 ****         3.3280  -2.3804   1.9723 C.ar           1 S1                 0.0000
     16 ****         3.1891  -3.8401   2.8861 Cl             1 S1                 0.0000
     17 ****         2.1569  -1.7073   1.5711 C.ar           1 S1                 0.0000
     18 ****         2.2772  -0.5216   0.8266 C.ar           1 S1                 0.0000
     19 ****        -5.5318   2.8716  -1.0755 H              1 S1                 0.0000
     20 ****        -4.0657   3.2449  -1.9795 H              1 S1                 0.0000
     21 ****        -4.0508   3.2912  -0.2169 H              1 S1                 0.0000
     22 ****        -4.4569   0.8092  -0.1495 H              1 S1                 0.0000
     23 ****        -4.4696   0.7628  -1.9101 H              1 S1                 0.0000
     24 ****        -2.5654  -0.6784  -0.1481 H              1 S1                 0.0000
     25 ****        -2.5592  -0.6804  -1.9077 H              1 S1                 0.0000
     26 ****        -0.2879   0.4113  -1.8806 H              1 S1                 0.0000
     27 ****        -0.5230  -2.0293  -0.4989 H              1 S1                 0.0000
     28 ****        -0.3868   1.4181   0.4320 H              1 S1                 0.0000
     29 ****        -0.3877  -0.1832   1.1317 H              1 S1                 0.0000
     30 ****         5.6669  -0.2730   0.6107 H              1 S1                 0.0000
     31 ****         1.1827  -2.0960   1.8287 H              1 S1                 0.0000
     32 ****        -2.2807   1.6577  -0.2465 LP             1 S1                 0.0000
     33 ****        -2.2898   1.6248  -1.8791 LP             1 S1                 0.0000
     34 ****         0.7879  -1.5342  -1.2518 LP             1 S1                 0.0000
     35 ****        -0.5813  -1.8609  -2.0795 LP             1 S1                 0.0000
     36 ****         1.6494   2.1625  -0.8562 LP             1 S1                 0.0000
     37 ****         4.0770   1.7623  -0.6346 LP             1 S1                 0.0000
@<TRIPOS>BOND
    1    1    2 1     
    2    1   19 1     
    3    1   20 1     
    4    1   21 1     
    5    2    3 1     
    6    2   22 1     
    7    2   23 1     
    8    3    4 1     
    9    4    5 1     
   10    4   24 1     
   11    4   25 1     
   12    5    6 1     
   13    5    7 1     
   14    5   26 1     
   15    6   27 1     
   16    7    8 1     
   17    7   28 1     
   18    7   29 1     
   19    8   18 1     
   20    8    9 1     
   21    9   10 2     
   22   10   11 1     
   23   11   18 ar    
   24   11   12 ar    
   25   12   13 ar    
   26   12   30 1     
   27   13   14 1     
   28   13   15 ar    
   29   15   16 1     
   30   15   17 ar    
   31   17   18 ar    
   32   17   31 1     
   33    3   32 1     
   34    3   33 1     
   35    6   34 1     
   36    6   35 1     
   37    9   36 1     
   38   10   37 1     
@<TRIPOS>SUBSTRUCTURE
      1 S1             1
@<TRIPOS>SET
LONE_PAIRS      STATIC     ATOMS    <user>   **** ""
6 32 33 34 35 36 37
DONOR_HYDROGENS      STATIC     ATOMS    <user>   **** ""
1 27
ATOM$BLUE        STATIC     ATOMS    COLORGROUP SYSTEM
6 32 33 34 35 36 37
ATOM$RED        STATIC     ATOMS    COLORGROUP SYSTEM
1 27
