AV-unprocessed.smi:47|AV-procd|sdf|443|dock2
  -GOLD-   2262016313D 1   1.00000     0.00000
 Structure written by MMmdl.
 30 32  0  0  0  0  0  0  0  0  2 V2000
  145.0286  140.2997  154.6787 O   0  0  0  0  0  0  0  0  0  0  0  0
  146.4353  140.1827  154.6483 C   0  0  1  0  0  0  0  0  0  0  0  0
  146.9522  139.7216  153.2921 C   0  0  0  0  0  0  0  0  0  0  0  0
  148.3548  140.1117  153.2866 N   0  0  0  0  0  0  0  0  0  0  0  0
  148.4819  141.3380  154.0829 C   0  0  2  0  0  0  0  0  0  0  0  0
  149.6595  141.2952  155.0400 C   0  0  0  0  0  0  0  0  0  0  0  0
  150.6232  140.3514  155.0445 N   0  0  0  0  0  0  0  0  0  0  0  0
  151.4270  140.6508  156.0474 N   0  5  0  0  0  0  0  0  0  0  0  0
  150.9439  141.7523  156.6418 C   0  0  0  0  0  0  0  0  0  0  0  0
  151.5988  142.3674  157.8149 C   0  0  0  0  0  0  0  0  0  0  0  0
  152.2585  141.5608  158.7711 C   0  0  0  0  0  0  0  0  0  0  0  0
  152.8871  142.1321  159.8948 C   0  0  0  0  0  0  0  0  0  0  0  0
  152.8664  143.5262  160.0798 C   0  0  0  0  0  0  0  0  0  0  0  0
  152.2158  144.3443  159.1386 C   0  0  0  0  0  0  0  0  0  0  0  0
  151.5876  143.7680  158.0173 C   0  0  0  0  0  0  0  0  0  0  0  0
  149.8396  142.1721  156.0401 N   0  0  0  0  0  0  0  0  0  0  0  0
  147.1469  141.5198  154.8284 C   0  0  0  0  0  0  0  0  0  0  0  0
  146.7586  139.4847  155.4222 H   0  0  0  0  0  0  0  0  0  0  0  0
  148.6287  142.1888  153.4165 H   0  0  0  0  0  0  0  0  0  0  0  0
  144.7311  140.5390  153.8143 H   0  0  0  0  0  0  0  0  0  0  0  0
  146.8250  138.6506  153.1337 H   0  0  0  0  0  0  0  0  0  0  0  0
  146.4232  140.2450  152.4942 H   0  0  0  0  0  0  0  0  0  0  0  0
  148.6464  140.2888  152.3312 H   0  0  0  0  0  0  0  0  0  0  0  0
  152.2863  140.4882  158.6460 H   0  0  0  0  0  0  0  0  0  0  0  0
  153.3850  141.4986  160.6137 H   0  0  0  0  0  0  0  0  0  0  0  0
  153.3478  143.9667  160.9404 H   0  0  0  0  0  0  0  0  0  0  0  0
  152.1977  145.4154  159.2752 H   0  0  0  0  0  0  0  0  0  0  0  0
  151.0936  144.4160  157.3083 H   0  0  0  0  0  0  0  0  0  0  0  0
  146.5765  142.3121  154.3411 H   0  0  0  0  0  0  0  0  0  0  0  0
  147.2642  141.7989  155.8764 H   0  0  0  0  0  0  0  0  0  0  0  0
  1  2  1  0  0  0  0
  1 20  1  0  0  0  0
  2 18  1  0  0  0  0
  2 17  1  0  0  0  0
  2  3  1  0  0  0  0
  3  4  1  0  0  0  0
  3 21  1  0  0  0  0
  3 22  1  0  0  0  0
  4  5  1  0  0  0  0
  4 23  1  0  0  0  0
  5 19  1  0  0  0  0
  5  6  1  0  0  0  0
  5 17  1  0  0  0  0
  6 16  1  0  0  0  0
  6  7  2  0  0  0  0
  7  8  1  0  0  0  0
  8  9  1  0  0  0  0
  9 10  1  0  0  0  0
  9 16  2  0  0  0  0
 10 15  1  0  0  0  0
 10 11  2  0  0  0  0
 11 12  1  0  0  0  0
 11 24  1  0  0  0  0
 12 13  2  0  0  0  0
 12 25  1  0  0  0  0
 13 14  1  0  0  0  0
 13 26  1  0  0  0  0
 14 15  2  0  0  0  0
 14 27  1  0  0  0  0
 15 28  1  0  0  0  0
 17 29  1  0  0  0  0
 17 30  1  0  0  0  0
M  CHG  1   8  -1
M  END
> <s_m_source_file>
AV-unprocessed.smi

> <i_m_source_file_index>
47

> <i_lp_mmshare_version>
43012

> <i_f3d_flags>
0

> <s_epik_input>
W09IXVtDQEhdMVtDSDJdW05IXVtDQEBIXShbQ0gyXTEpYzJuW25IXWMobjIpLWMzW2NIXVtjSF1bY0hdW2NIXVtjSF0z

> <s_epik_cmdline>
J2VwaWtfcHl0aG9uJywgJy1waCcsICc3LjAnLCAnLXRuJywgJzgnLCAnLW1hJywgJzIwMCcsICctbWV0YWxfYmluZGluZycsICctaW1hZScsICc8aW5maWxlLm1hZT4nLCAnLW9tYWUnLCAnPG91dGZpbGUubWFlPic=

> <r_epik_Ionization_Penalty>
16.1968

> <r_epik_Ionization_Penalty_Charging>
13.1522

> <r_epik_Ionization_Penalty_Neutral>
3.04463

> <r_epik_State_Penalty>
6.32428

> <r_epik_Charging_Adjusted_Penalty>
19.4764

> <i_epik_Tot_Q>
-1

> <i_epik_Tot_abs_Q>
1

> <r_epik_Metal_State_Penalty>
2.82187

> <b_epik_Metal_Only>
1

> <s_lp_Force_Field>
OPLS_2005

> <r_lp_Energy>
30.4725

> <b_lp_Chiralities_Consistent>
1

> <s_lp_Variant>
AV-unprocessed.smi:47-21

> <Gold.Version>
5.8.1

> <Gold.Id.Protein>
6NUR|6NUR_protein|mol2

> <Gold.PLP.Fitness>
44.1866

> <Gold.PLP.PLP>
-36.5935

> <Gold.PLP.part.hbond>
-2.7992

> <Gold.PLP.part.metal>
0.0000

> <Gold.PLP.part.buried>
-6.2404

> <Gold.PLP.part.nonpolar>
-30.5437

> <Gold.PLP.part.repulsive>
2.5947

> <Gold.PLP.ligand.clash>
0.0000

> <Gold.PLP.ligand.torsion>
0.7086

> <Gold.PLP.Chemscore.Hbond>
3.0000

> <Gold.PLP.Chemscore.CHOScore>
0.0000

> <Gold.PLP.Chemscore.Metal>
0.0000

> <Gold.Chemscore.Hbonds>
donor molecule, donor type, donor heavy atom, donor atom, acceptor molecule, acceptor atom, score
      L1  H     1    20       P1 10175  1.00
      L1  H     4    23       P1  7957  0.99
      P1  H  7989  7998       L1     7  1.00

> <Gold.PLP.Chemscore.Internal.Correction>
0.0103

> <Gold.Rescore>
     Score         DG    S(hbond)    S(metal)    S(lipo)     H(rot)  DE(clash)    DE(int)     intcor
     17.43     -19.53       2.14        0.00      91.05       1.46       1.42       0.68       ----

> <Gold.Chemscore.Fitness>
17.4279

> <Gold.Chemscore.DG>
-19.5270

> <Gold.Chemscore.ZeroCoef>
-5.4800

> <Gold.Chemscore.Hbond>
2.1367

> <Gold.Chemscore.Metal>
0.0000

> <Gold.Chemscore.Lipo>
91.0526

> <Gold.Chemscore.Internal_Hbond>
0.0000

> <Gold.Chemscore.DEClash>
1.4236

> <Gold.Chemscore.DEInternal>
0.6755

> <Gold.Chemscore.Rot>
1.4621

> <Gold.Chemscore.Internal.Correction>
   9.000000E+99

> <Gold.Chemscore.Hbonds>
donor molecule, donor type, donor heavy atom, donor atom, acceptor molecule, acceptor atom, score
      L1  H     1    20       P1 10175  0.98
      L1  H     4    23       P1  7957  0.89
      P1  H  7989  7998       L1     7  0.10

> <Gold.Chemscore.Hbond.Weighted>
-7.1367

> <Gold.Chemscore.Metal.Weighted>
-0.0000

> <Gold.Chemscore.Lipo.Weighted>
-10.6532

> <Gold.Chemscore.Internal_Hbond.Weighted>
0.0000

> <Gold.Chemscore.DEClash.Weighted>
1.4236

> <Gold.Chemscore.DEInternal.Weighted>
0.6755

> <Gold.Chemscore.Rot.Weighted>
3.7429

> <Gold.Chemscore.Internal.Correction.Weighted>
   9.000000E+99

> <Gold.Protein.RotatedTorsions>
[ 6907 6896 6895 6894 ] final  -77.79 input  -60.11 | X-H torsion
[ 7974 7965 7964 7962 ] final -162.50 input  175.53 | X-H torsion
[ 8008 7997 7996 7995 ] final -167.22 input   59.86 | X-H torsion
[ 10167 10162 10161 10158 ] final -128.05 input  -65.29 | X-H torsion
[ 10718 10713 10712 10709 ] final  161.07 input   66.30 | X-H torsion
[ 10763 10752 10751 10750 ] final  -54.74 input  -60.55 | X-H torsion
[ 11005 11000 10999 10996 ] final  164.96 input  -57.11 | X-H torsion

> <Gold.Protein.ActiveResidues>
 VAL166  LYS551  ARG553  GLY616  TRP617  ASP618  TYR619  PRO620  LYS621  CYS622 
 ASP623  PHE694  ASN695  SER759  ASP760  ASP761  ALA762  ILE779  LEU786  VAL792 
 PHE793  MET794  SER795  GLU796  ALA797  LYS798  CYS799  TRP800  GLU811  SER814 

> <Gold.Protein.RotatedAtoms>
  150.6989  134.4370  159.5274 H   0  0  0  0  0  0  0  0  0  0  0  0  # atno 6907 bound_to 6896
  152.2087  134.8519  160.0509 H   0  0  0  0  0  0  0  0  0  0  0  0  # atno 6908 bound_to 6896
  151.9412  133.3603  159.4003 H   0  0  0  0  0  0  0  0  0  0  0  0  # atno 6909 bound_to 6896
  144.7355  140.3244  143.6165 H   0  0  0  0  0  0  0  0  0  0  0  0  # atno 7974 bound_to 7965
  155.8747  140.0999  157.1526 H   0  0  0  0  0  0  0  0  0  0  0  0  # atno 8008 bound_to 7997
  154.4000  140.1340  156.4185 H   0  0  0  0  0  0  0  0  0  0  0  0  # atno 8009 bound_to 7997
  155.7711  140.3461  155.5250 H   0  0  0  0  0  0  0  0  0  0  0  0  # atno 8010 bound_to 7997
  139.9544  143.6020  152.2465 H   0  0  0  0  0  0  0  0  0  0  0  0  # atno 10167 bound_to 10162
  157.1416  131.0542  151.2324 H   0  0  0  0  0  0  0  0  0  0  0  0  # atno 10718 bound_to 10713
  154.1796  135.6445  153.5030 H   0  0  0  0  0  0  0  0  0  0  0  0  # atno 10763 bound_to 10752
  153.0063  135.5403  154.6528 H   0  0  0  0  0  0  0  0  0  0  0  0  # atno 10764 bound_to 10752
  154.5889  135.2932  155.0629 H   0  0  0  0  0  0  0  0  0  0  0  0  # atno 10765 bound_to 10752
  140.2513  134.7975  157.3504 H   0  0  0  0  0  0  0  0  0  0  0  0  # atno 11005 bound_to 11000
  145.7536  139.1801  143.2307 LP  0  0  0  0  0  0  0  0  0  0  0  0  # atno 17320 bound_to 7965
  146.1041  140.7508  142.9535 LP  0  0  0  0  0  0  0  0  0  0  0  0  # atno 17321 bound_to 7965
  139.6603  144.7662  151.1976 LP  0  0  0  0  0  0  0  0  0  0  0  0  # atno 17342 bound_to 10162
  140.7573  143.6021  150.8689 LP  0  0  0  0  0  0  0  0  0  0  0  0  # atno 17343 bound_to 10162
  157.4302  130.7486  149.6984 LP  0  0  0  0  0  0  0  0  0  0  0  0  # atno 17370 bound_to 10713
  155.9787  130.4048  150.3629 LP  0  0  0  0  0  0  0  0  0  0  0  0  # atno 17371 bound_to 10713
  140.1555  134.4794  155.7930 LP  0  0  0  0  0  0  0  0  0  0  0  0  # atno 17394 bound_to 11000
  141.2201  133.6880  156.7454 LP  0  0  0  0  0  0  0  0  0  0  0  0  # atno 17395 bound_to 11000

$$$$
