AV-unprocessed.smi:2502|AV-procd|sdf|9846|dock2
  -GOLD-   2272013473D 1   1.00000     0.00000
 Structure written by MMmdl.
 39 41  0  0  0  0  0  0  0  0  1 V2000
  150.3932  139.4682  155.9616 O   0  0  0  0  0  0  0  0  0  0  0  0
  150.6396  140.6525  155.2275 C   0  0  1  0  0  0  0  0  0  0  0  0
  149.3447  141.0578  154.5058 C   0  0  0  0  0  0  0  0  0  0  0  0
  148.2997  141.1612  155.4624 O   0  0  0  0  0  0  0  0  0  0  0  0
  147.0629  141.6296  154.9403 C   0  0  0  0  0  0  0  0  0  0  0  0
  147.2636  142.8310  154.0002 C   0  0  0  0  0  0  0  0  0  0  0  0
  145.9071  143.4412  153.6108 C   0  0  0  0  0  0  0  0  0  0  0  0
  145.1835  143.8134  154.7795 O   0  0  0  0  0  0  0  0  0  0  0  0
  144.8843  142.7071  155.6247 C   0  0  0  0  0  0  0  0  0  0  0  0
  146.1873  142.0621  156.1234 C   0  0  0  0  0  0  0  0  0  0  0  0
  151.1253  141.7492  156.1958 C   0  0  0  0  0  0  0  0  0  0  0  0
  151.9232  141.2175  157.2871 N   0  0  0  0  0  0  0  0  0  0  0  0
  152.5359  140.0089  157.1389 N   0  0  0  0  0  0  0  0  0  0  0  0
  153.1857  139.7350  158.2304 N   0  0  0  0  0  0  0  0  0  0  0  0
  152.9975  140.7833  159.1157 C   0  0  0  0  0  0  0  0  0  0  0  0
  153.4692  141.0033  160.4290 C   0  0  0  0  0  0  0  0  0  0  0  0
  153.1193  142.1809  161.1255 C   0  0  0  0  0  0  0  0  0  0  0  0
  153.7154  142.4131  162.7305 Cl  0  0  0  0  0  0  0  0  0  0  0  0
  152.2914  143.1534  160.5141 C   0  0  0  0  0  0  0  0  0  0  0  0
  151.8523  144.5985  161.3529 Cl  0  0  0  0  0  0  0  0  0  0  0  0
  151.8146  142.9476  159.2041 C   0  0  0  0  0  0  0  0  0  0  0  0
  152.1753  141.7692  158.5283 C   0  0  0  0  0  0  0  0  0  0  0  0
  150.3324  139.6893  156.8784 H   0  0  0  0  0  0  0  0  0  0  0  0
  151.4199  140.4573  154.4906 H   0  0  0  0  0  0  0  0  0  0  0  0
  149.4843  141.9831  153.9460 H   0  0  0  0  0  0  0  0  0  0  0  0
  149.0714  140.2844  153.7864 H   0  0  0  0  0  0  0  0  0  0  0  0
  146.5516  140.8241  154.4097 H   0  0  0  0  0  0  0  0  0  0  0  0
  147.8729  143.5880  154.4952 H   0  0  0  0  0  0  0  0  0  0  0  0
  147.8011  142.5359  153.0994 H   0  0  0  0  0  0  0  0  0  0  0  0
  146.0583  144.3274  152.9943 H   0  0  0  0  0  0  0  0  0  0  0  0
  145.3210  142.7379  153.0171 H   0  0  0  0  0  0  0  0  0  0  0  0
  144.2934  143.0600  156.4701 H   0  0  0  0  0  0  0  0  0  0  0  0
  144.2708  141.9816  155.0884 H   0  0  0  0  0  0  0  0  0  0  0  0
  145.9633  141.2051  156.7593 H   0  0  0  0  0  0  0  0  0  0  0  0
  146.7305  142.7775  156.7424 H   0  0  0  0  0  0  0  0  0  0  0  0
  151.7266  142.4857  155.6608 H   0  0  0  0  0  0  0  0  0  0  0  0
  150.2764  142.2903  156.6163 H   0  0  0  0  0  0  0  0  0  0  0  0
  154.1001  140.2647  160.9013 H   0  0  0  0  0  0  0  0  0  0  0  0
  151.1812  143.6810  158.7271 H   0  0  0  0  0  0  0  0  0  0  0  0
  1  2  1  0  0  0  0
  1 23  1  0  0  0  0
  2  3  1  0  0  0  0
  2 11  1  0  0  0  0
  2 24  1  0  0  0  0
  3  4  1  0  0  0  0
  3 25  1  0  0  0  0
  3 26  1  0  0  0  0
  4  5  1  0  0  0  0
  5 10  1  0  0  0  0
  5  6  1  0  0  0  0
  5 27  1  0  0  0  0
  6  7  1  0  0  0  0
  6 28  1  0  0  0  0
  6 29  1  0  0  0  0
  7  8  1  0  0  0  0
  7 30  1  0  0  0  0
  7 31  1  0  0  0  0
  8  9  1  0  0  0  0
  9 10  1  0  0  0  0
  9 32  1  0  0  0  0
  9 33  1  0  0  0  0
 10 34  1  0  0  0  0
 10 35  1  0  0  0  0
 11 12  1  0  0  0  0
 11 36  1  0  0  0  0
 11 37  1  0  0  0  0
 12 22  1  0  0  0  0
 12 13  1  0  0  0  0
 13 14  2  0  0  0  0
 14 15  1  0  0  0  0
 15 22  2  0  0  0  0
 15 16  1  0  0  0  0
 16 17  2  0  0  0  0
 16 38  1  0  0  0  0
 17 18  1  0  0  0  0
 17 19  1  0  0  0  0
 19 20  1  0  0  0  0
 19 21  2  0  0  0  0
 21 22  1  0  0  0  0
 21 39  1  0  0  0  0
M  END
> <s_m_source_file>
AV-unprocessed.smi

> <i_m_source_file_index>
2502

> <i_lp_mmshare_version>
43012

> <i_f3d_flags>
0

> <s_epik_input>
W2NIXTFjKENsKWMoQ2wpW2NIXWMoYzEyKW4obm4yKVtDSDJdW0NASF0oW09IXSlbQ0gyXU9bQ0hdM1tDSDJdW0NIMl1PW0NIMl1bQ0gyXTM=

> <s_epik_cmdline>
J2VwaWtfcHl0aG9uJywgJy1waCcsICc3LjAnLCAnLXRuJywgJzgnLCAnLW1hJywgJzIwMCcsICctbWV0YWxfYmluZGluZycsICctaW1hZScsICc8aW5maWxlLm1hZT4nLCAnLW9tYWUnLCAnPG91dGZpbGUubWFlPic=

> <r_lp_tautomer_probability>
1

> <r_epik_Ionization_Penalty>
2.65748e-06

> <r_epik_Ionization_Penalty_Charging>
0

> <r_epik_Ionization_Penalty_Neutral>
2.65748e-06

> <r_epik_State_Penalty>
-0

> <r_epik_Charging_Adjusted_Penalty>
0

> <i_epik_Tot_Q>
0

> <i_epik_Tot_abs_Q>
0

> <r_epik_Metal_State_Penalty>
-0

> <b_epik_Metal_Only>
0

> <s_lp_Force_Field>
OPLS_2005

> <r_lp_Energy>
14.648

> <b_lp_Chiralities_Consistent>
1

> <s_lp_Variant>
AV-unprocessed.smi:2502-2

> <Gold.Version>
5.8.1

> <Gold.Id.Protein>
6NUR|6NUR_protein|mol2

> <Gold.PLP.Fitness>
44.7782

> <Gold.PLP.PLP>
-45.0331

> <Gold.PLP.part.hbond>
-1.9955

> <Gold.PLP.part.metal>
0.0000

> <Gold.PLP.part.buried>
-2.2631

> <Gold.PLP.part.nonpolar>
-39.2823

> <Gold.PLP.part.repulsive>
0.2725

> <Gold.PLP.ligand.clash>
0.0000

> <Gold.PLP.ligand.torsion>
0.7575

> <Gold.PLP.Chemscore.Hbond>
0.4142

> <Gold.PLP.Chemscore.CHOScore>
0.0000

> <Gold.PLP.Chemscore.Metal>
0.0000

> <Gold.Chemscore.Hbonds>
donor molecule, donor type, donor heavy atom, donor atom, acceptor molecule, acceptor atom, score
      P1  H  7997  8009       L1    13  0.10

> <Gold.PLP.Chemscore.Internal.Correction>
0.0175

> <Gold.Rescore>
     Score         DG    S(hbond)    S(metal)    S(lipo)     H(rot)  DE(clash)    DE(int)     intcor
     12.11     -14.99       0.00        0.00     129.53       2.21       0.44       2.44       ----

> <Gold.Chemscore.Fitness>
12.1059

> <Gold.Chemscore.DG>
-14.9864

> <Gold.Chemscore.ZeroCoef>
-5.4800

> <Gold.Chemscore.Hbond>
0.0000

> <Gold.Chemscore.Metal>
0.0000

> <Gold.Chemscore.Lipo>
129.5291

> <Gold.Chemscore.Internal_Hbond>
0.0000

> <Gold.Chemscore.DEClash>
0.4407

> <Gold.Chemscore.DEInternal>
2.4398

> <Gold.Chemscore.Rot>
2.2065

> <Gold.Chemscore.Internal.Correction>
   9.000000E+99

> <Gold.Chemscore.Hbond.Weighted>
-0.0000

> <Gold.Chemscore.Metal.Weighted>
-0.0000

> <Gold.Chemscore.Lipo.Weighted>
-15.1549

> <Gold.Chemscore.Internal_Hbond.Weighted>
0.0000

> <Gold.Chemscore.DEClash.Weighted>
0.4407

> <Gold.Chemscore.DEInternal.Weighted>
2.4398

> <Gold.Chemscore.Rot.Weighted>
5.6485

> <Gold.Chemscore.Internal.Correction.Weighted>
   9.000000E+99

> <Gold.Protein.RotatedTorsions>
[ 6907 6896 6895 6894 ] final   37.24 input  -60.11 | X-H torsion
[ 7974 7965 7964 7962 ] final -122.17 input  175.53 | X-H torsion
[ 8008 7997 7996 7995 ] final -166.20 input   59.86 | X-H torsion
[ 10167 10162 10161 10158 ] final -105.46 input  -65.29 | X-H torsion
[ 10718 10713 10712 10709 ] final   -3.38 input   66.30 | X-H torsion
[ 10763 10752 10751 10750 ] final  -11.91 input  -60.55 | X-H torsion
[ 11005 11000 10999 10996 ] final   20.09 input  -57.11 | X-H torsion

> <Gold.Protein.ActiveResidues>
 VAL166  LYS551  ARG553  GLY616  TRP617  ASP618  TYR619  PRO620  LYS621  CYS622 
 ASP623  PHE694  ASN695  SER759  ASP760  ASP761  ALA762  ILE779  LEU786  VAL792 
 PHE793  MET794  SER795  GLU796  ALA797  LYS798  CYS799  TRP800  GLU811  SER814 

> <Gold.Protein.RotatedAtoms>
  152.1405  134.9066  160.0553 H   0  0  0  0  0  0  0  0  0  0  0  0  # atno 6907 bound_to 6896
  152.0136  133.3866  159.4238 H   0  0  0  0  0  0  0  0  0  0  0  0  # atno 6908 bound_to 6896
  150.6864  134.3625  159.5000 H   0  0  0  0  0  0  0  0  0  0  0  0  # atno 6909 bound_to 6896
  145.0324  140.8078  143.4316 H   0  0  0  0  0  0  0  0  0  0  0  0  # atno 7974 bound_to 7965
  155.8605  140.0977  157.1616 H   0  0  0  0  0  0  0  0  0  0  0  0  # atno 8008 bound_to 7997
  154.3990  140.1366  156.4017 H   0  0  0  0  0  0  0  0  0  0  0  0  # atno 8009 bound_to 7997
  155.7862  140.3457  155.5326 H   0  0  0  0  0  0  0  0  0  0  0  0  # atno 8010 bound_to 7997
  140.1983  143.3838  152.1150 H   0  0  0  0  0  0  0  0  0  0  0  0  # atno 10167 bound_to 10162
  156.7769  130.5318  149.5757 H   0  0  0  0  0  0  0  0  0  0  0  0  # atno 10718 bound_to 10713
  153.4906  135.7017  153.5886 H   0  0  0  0  0  0  0  0  0  0  0  0  # atno 10763 bound_to 10752
  153.4060  135.3860  155.2019 H   0  0  0  0  0  0  0  0  0  0  0  0  # atno 10764 bound_to 10752
  154.8717  135.3893  154.4366 H   0  0  0  0  0  0  0  0  0  0  0  0  # atno 10765 bound_to 10752
  140.4065  134.1663  155.7665 H   0  0  0  0  0  0  0  0  0  0  0  0  # atno 11005 bound_to 11000
  145.1753  139.2381  143.5320 LP  0  0  0  0  0  0  0  0  0  0  0  0  # atno 17320 bound_to 7965
  146.3500  140.1514  142.8592 LP  0  0  0  0  0  0  0  0  0  0  0  0  # atno 17321 bound_to 7965
  139.5227  144.7063  151.5345 LP  0  0  0  0  0  0  0  0  0  0  0  0  # atno 17342 bound_to 10162
  140.6408  143.8892  150.6690 LP  0  0  0  0  0  0  0  0  0  0  0  0  # atno 17343 bound_to 10162
  156.1242  130.6132  151.0239 LP  0  0  0  0  0  0  0  0  0  0  0  0  # atno 17370 bound_to 10713
  157.6665  131.0870  150.7716 LP  0  0  0  0  0  0  0  0  0  0  0  0  # atno 17371 bound_to 10713
  141.1837  133.8359  157.1165 LP  0  0  0  0  0  0  0  0  0  0  0  0  # atno 17394 bound_to 11000
  140.0298  134.9906  157.0758 LP  0  0  0  0  0  0  0  0  0  0  0  0  # atno 17395 bound_to 11000

$$$$
