#       Name:                AV-unprocessed.smi:1423
#       Creating user name   scv26
#       Creation time:       Fri Mar 27 05:45:03 2020


#       File generated by GOLD software.
#

@<TRIPOS>MOLECULE
AV-unprocessed.smi:1423
    51    52     1
SMALL
NO_CHARGES


@<TRIPOS>ATOM
      1 ****        -7.5996   2.3239  -0.8864 C.3            1 S1                 0.0000
      2 ****        -7.0543   1.0094  -0.8639 O.3            1 S1                 0.0000
      3 ****        -5.6816   0.8686  -0.8639 C.ar           1 S1                 0.0000
      4 ****        -5.1381  -0.4309  -0.8415 C.ar           1 S1                 0.0000
      5 ****        -3.7387  -0.5851  -0.8413 C.ar           1 S1                 0.0000
      6 ****        -2.9223   0.5711  -0.8717 C.ar           1 S1                 0.0000
      7 ****        -1.5004   0.5532  -0.8558 N.am           1 S1                 0.0000
      8 ****        -0.6688  -0.4617  -1.1488 C.2            1 S1                 0.0000
      9 ****        -1.0135  -1.5769  -1.5381 O.2            1 S1                 0.0000
     10 ****         0.6126  -0.1046  -0.9783 N.am           1 S1                 0.0000
     11 ****         1.7678  -0.9710  -1.2140 C.3            1 S1                 0.0000
     12 ****         1.9960  -1.9500  -0.0453 C.3            1 S1                 0.0000
     13 ****         2.5131  -1.2343   1.2149 C.3            1 S1                 0.0000
     14 ****         3.7525  -0.4647   0.9242 N.4            1 S1                 1.0000
     15 ****         4.3653   0.1347   2.1359 C.3            1 S1                 0.0000
     16 ****         5.1318  -0.9318   2.9255 C.2            1 S1                 0.0000
     17 ****         4.6334  -1.1125   4.1631 N.pl3          1 S1                -1.0000
     18 ****         6.0758  -1.5165   2.3980 O.2            1 S1                 0.0000
     19 ****         3.5346   0.5361  -0.1508 C.3            1 S1                 0.0000
     20 ****         3.0367  -0.1324  -1.4452 C.3            1 S1                 0.0000
     21 ****        -3.5660   1.8263  -0.8808 C.ar           1 S1                 0.0000
     22 ****        -4.9068   1.9812  -0.8806 N.ar           1 S1                 0.0000
     23 ****        -8.6876   2.2621  -0.8924 H              1 S1                 0.0000
     24 ****        -7.2945   2.8675  -1.7817 H              1 S1                 0.0000
     25 ****        -7.3055   2.8932  -0.0035 H              1 S1                 0.0000
     26 ****        -5.7840  -1.2962  -0.8206 H              1 S1                 0.0000
     27 ****        -3.3279  -1.5816  -0.8041 H              1 S1                 0.0000
     28 ****        -1.0626   1.4335  -0.6272 H              1 S1                 0.0000
     29 ****         0.8039   0.8358  -0.6653 H              1 S1                 0.0000
     30 ****         1.5762  -1.5465  -2.1217 H              1 S1                 0.0000
     31 ****         1.0806  -2.4963   0.1845 H              1 S1                 0.0000
     32 ****         2.7254  -2.7027  -0.3479 H              1 S1                 0.0000
     33 ****         1.7491  -0.5623   1.6092 H              1 S1                 0.0000
     34 ****         2.7040  -1.9776   1.9894 H              1 S1                 0.0000
     35 ****         5.0923   0.8955   1.8487 H              1 S1                 0.0000
     36 ****         3.6063   0.6426   2.7350 H              1 S1                 0.0000
     37 ****         5.0779  -1.8058   4.7771 H              1 S1                 0.0000
     38 ****         2.8208   1.2878   0.1898 H              1 S1                 0.0000
     39 ****         4.4684   1.0595  -0.3590 H              1 S1                 0.0000
     40 ****         3.8249  -0.7787  -1.8343 H              1 S1                 0.0000
     41 ****         2.8586   0.6219  -2.2127 H              1 S1                 0.0000
     42 ****        -2.9872   2.7384  -0.8906 H              1 S1                 0.0000
     43 ****         4.4324  -1.1227   0.5702 H              1 S1                 0.0000
     44 ****        -7.4006   0.5318  -1.6713 LP             1 S1                 0.0000
     45 ****        -7.3976   0.5610  -0.0386 LP             1 S1                 0.0000
     46 ****        -1.9838  -1.7862  -1.6596 LP             1 S1                 0.0000
     47 ****        -0.3234  -2.2739  -1.7329 LP             1 S1                 0.0000
     48 ****         3.8462  -0.5824   4.4783 LP             1 S1                 0.0000
     49 ****         6.3394  -1.2951   1.4591 LP             1 S1                 0.0000
     50 ****         6.5801  -2.2135   2.9078 LP             1 S1                 0.0000
     51 ****        -5.3180   2.8927  -0.8924 LP             1 S1                 0.0000
@<TRIPOS>BOND
    1    1    2 1     
    2    1   23 1     
    3    1   24 1     
    4    1   25 1     
    5    2    3 1     
    6    3   22 ar    
    7    3    4 ar    
    8    4    5 ar    
    9    4   26 1     
   10    5    6 ar    
   11    5   27 1     
   12    6    7 1     
   13    6   21 ar    
   14    7    8 am    
   15    7   28 1     
   16    8    9 2     
   17    8   10 am    
   18   10   11 1     
   19   10   29 1     
   20   11   20 1     
   21   11   12 1     
   22   11   30 1     
   23   12   13 1     
   24   12   31 1     
   25   12   32 1     
   26   13   14 1     
   27   13   33 1     
   28   13   34 1     
   29   14   15 1     
   30   14   19 1     
   31   14   43 1     
   32   15   16 1     
   33   15   35 1     
   34   15   36 1     
   35   16   17 1     
   36   16   18 2     
   37   17   37 1     
   38   19   20 1     
   39   19   38 1     
   40   19   39 1     
   41   20   40 1     
   42   20   41 1     
   43   21   22 ar    
   44   21   42 1     
   45    2   44 1     
   46    2   45 1     
   47    9   46 1     
   48    9   47 1     
   49   17   48 1     
   50   18   49 1     
   51   18   50 1     
   52   22   51 1     
@<TRIPOS>SUBSTRUCTURE
      1 S1             1
@<TRIPOS>SET
LONE_PAIRS      STATIC     ATOMS    <user>   **** ""
8 44 45 46 47 48 49 50 51
DONOR_HYDROGENS      STATIC     ATOMS    <user>   **** ""
4 28 29 43 37
ATOM$BLUE        STATIC     ATOMS    COLORGROUP SYSTEM
8 44 45 46 47 48 49 50 51
ATOM$RED        STATIC     ATOMS    COLORGROUP SYSTEM
4 28 29 43 37
