AV-unprocessed.smi:1151|AV-procd|sdf|4895|dock2
  -GOLD-   22720 3473D 1   1.00000     0.00000
 Structure written by MMmdl.
 35 36  0  0  0  0  0  0  0  0  1 V2000
  152.0288  145.7188  160.0503 C   0  0  0  0  0  0  0  0  0  0  0  0
  152.0380  144.2588  159.7521 C   0  0  0  0  0  0  0  0  0  0  0  0
  151.5698  143.7351  158.6162 N   0  0  0  0  0  0  0  0  0  0  0  0
  151.6875  142.3424  158.5779 C   0  0  0  0  0  0  0  0  0  0  0  0
  151.2267  141.5815  157.3682 C   0  0  0  0  0  0  0  0  0  0  0  0
  150.9591  142.4773  156.1413 C   0  0  0  0  0  0  0  0  0  0  0  0
  149.7318  142.1260  155.4323 N   0  0  0  0  0  0  0  0  0  0  0  0
  149.5433  141.0061  154.7177 C   0  0  0  0  0  0  0  0  0  0  0  0
  150.4008  140.1288  154.6122 O   0  0  0  0  0  0  0  0  0  0  0  0
  148.1888  140.8793  153.9941 C   0  0  2  0  0  0  0  0  0  0  0  0
  147.3155  142.1410  154.1315 C   0  0  0  0  0  0  0  0  0  0  0  0
  146.7350  142.3381  155.5456 C   0  0  0  0  0  0  0  0  0  0  0  0
  146.2392  141.0416  156.2040 C   0  0  0  0  0  0  0  0  0  0  0  0
  145.5207  141.1075  157.1986 O   0  0  0  0  0  0  0  0  0  0  0  0
  146.6373  139.8587  155.7040 N   0  0  0  0  0  0  0  0  0  0  0  0
  147.3847  139.6474  154.4636 C   0  0  0  0  0  0  0  0  0  0  0  0
  152.2524  141.8152  159.7127 C   0  0  0  0  0  0  0  0  0  0  0  0
  152.6644  143.0511  160.8680 S   0  0  0  0  0  0  0  0  0  0  0  0
  151.9890  146.2974  159.1269 H   0  0  0  0  0  0  0  0  0  0  0  0
  152.9307  145.9962  160.5962 H   0  0  0  0  0  0  0  0  0  0  0  0
  151.1596  145.9683  160.6588 H   0  0  0  0  0  0  0  0  0  0  0  0
  151.9721  140.8301  157.1056 H   0  0  0  0  0  0  0  0  0  0  0  0
  150.3222  141.0196  157.6030 H   0  0  0  0  0  0  0  0  0  0  0  0
  150.9386  143.5284  156.4329 H   0  0  0  0  0  0  0  0  0  0  0  0
  151.7807  142.3704  155.4326 H   0  0  0  0  0  0  0  0  0  0  0  0
  148.9801  142.7996  155.4650 H   0  0  0  0  0  0  0  0  0  0  0  0
  148.4060  140.7407  152.9334 H   0  0  0  0  0  0  0  0  0  0  0  0
  147.8853  143.0255  153.8442 H   0  0  0  0  0  0  0  0  0  0  0  0
  146.4919  142.0771  153.4190 H   0  0  0  0  0  0  0  0  0  0  0  0
  147.4947  142.7688  156.1982 H   0  0  0  0  0  0  0  0  0  0  0  0
  145.9189  143.0605  155.5121 H   0  0  0  0  0  0  0  0  0  0  0  0
  146.3307  139.0275  156.1888 H   0  0  0  0  0  0  0  0  0  0  0  0
  146.6671  139.3685  153.6913 H   0  0  0  0  0  0  0  0  0  0  0  0
  148.0395  138.7844  154.5921 H   0  0  0  0  0  0  0  0  0  0  0  0
  152.4565  140.7777  159.9330 H   0  0  0  0  0  0  0  0  0  0  0  0
  1  2  1  0  0  0  0
  1 19  1  0  0  0  0
  1 20  1  0  0  0  0
  1 21  1  0  0  0  0
  2 18  1  0  0  0  0
  2  3  2  0  0  0  0
  3  4  1  0  0  0  0
  4  5  1  0  0  0  0
  4 17  2  0  0  0  0
  5  6  1  0  0  0  0
  5 22  1  0  0  0  0
  5 23  1  0  0  0  0
  6  7  1  0  0  0  0
  6 24  1  0  0  0  0
  6 25  1  0  0  0  0
  7  8  1  0  0  0  0
  7 26  1  0  0  0  0
  8  9  2  0  0  0  0
  8 10  1  0  0  0  0
 10 16  1  0  0  0  0
 10 11  1  0  0  0  0
 10 27  1  0  0  0  0
 11 12  1  0  0  0  0
 11 28  1  0  0  0  0
 11 29  1  0  0  0  0
 12 13  1  0  0  0  0
 12 30  1  0  0  0  0
 12 31  1  0  0  0  0
 13 14  2  0  0  0  0
 13 15  1  0  0  0  0
 15 16  1  0  0  0  0
 15 32  1  0  0  0  0
 16 33  1  0  0  0  0
 16 34  1  0  0  0  0
 17 18  1  0  0  0  0
 17 35  1  0  0  0  0
M  END
> <s_m_source_file>
AV-unprocessed.smi

> <i_m_source_file_index>
1151

> <i_lp_mmshare_version>
43012

> <i_f3d_flags>
0

> <s_epik_input>
W0NIM11jMW5jKFtjSF1zMSlbQ0gyXVtDSDJdW05IXUMoPU8pW0NAQEhdMltDSDJdW0NIMl1DKD1PKVtOSF1bQ0gyXTI=

> <s_epik_cmdline>
J2VwaWtfcHl0aG9uJywgJy1waCcsICc3LjAnLCAnLXRuJywgJzgnLCAnLW1hJywgJzIwMCcsICctbWV0YWxfYmluZGluZycsICctaW1hZScsICc8aW5maWxlLm1hZT4nLCAnLW9tYWUnLCAnPG91dGZpbGUubWFlPic=

> <r_epik_Ionization_Penalty>
0.00105008

> <r_epik_Ionization_Penalty_Charging>
0

> <r_epik_Ionization_Penalty_Neutral>
0.00105008

> <r_epik_State_Penalty>
0.000686749

> <r_epik_Charging_Adjusted_Penalty>
0.000686749

> <i_epik_Tot_Q>
0

> <i_epik_Tot_abs_Q>
0

> <r_epik_Metal_State_Penalty>
-0

> <b_epik_Metal_Only>
0

> <s_lp_Force_Field>
OPLS_2005

> <r_lp_Energy>
5.23985

> <b_lp_Chiralities_Consistent>
1

> <s_lp_Variant>
AV-unprocessed.smi:1151-1

> <Gold.Version>
5.8.1

> <Gold.Id.Protein>
6NUR|6NUR_protein|mol2

> <Gold.PLP.Fitness>
38.9516

> <Gold.PLP.PLP>
-35.1933

> <Gold.PLP.part.hbond>
-2.0000

> <Gold.PLP.part.metal>
0.0000

> <Gold.PLP.part.buried>
-3.8163

> <Gold.PLP.part.nonpolar>
-28.7850

> <Gold.PLP.part.repulsive>
0.3412

> <Gold.PLP.ligand.clash>
0.2084

> <Gold.PLP.ligand.torsion>
0.5429

> <Gold.PLP.Chemscore.Hbond>
1.6720

> <Gold.PLP.Chemscore.CHOScore>
0.0000

> <Gold.PLP.Chemscore.Metal>
0.0000

> <Gold.Chemscore.Hbonds>
donor molecule, donor type, donor heavy atom, donor atom, acceptor molecule, acceptor atom, score
      L1  H     7    26       P1  8028  0.70
      P1  H  7989  7998       L1     9  1.00

> <Gold.PLP.Chemscore.Internal.Correction>
0.0365

> <Gold.Rescore>
     Score         DG    S(hbond)    S(metal)    S(lipo)     H(rot)  DE(clash)    DE(int)     intcor
     14.92     -17.18       1.51        0.00      94.07       1.70       0.75       1.51       ----

> <Gold.Chemscore.Fitness>
14.9160

> <Gold.Chemscore.DG>
-17.1768

> <Gold.Chemscore.ZeroCoef>
-5.4800

> <Gold.Chemscore.Hbond>
1.5082

> <Gold.Chemscore.Metal>
0.0000

> <Gold.Chemscore.Lipo>
94.0659

> <Gold.Chemscore.Internal_Hbond>
0.0000

> <Gold.Chemscore.DEClash>
0.7548

> <Gold.Chemscore.DEInternal>
1.5059

> <Gold.Chemscore.Rot>
1.6978

> <Gold.Chemscore.Internal.Correction>
   9.000000E+99

> <Gold.Chemscore.Hbonds>
donor molecule, donor type, donor heavy atom, donor atom, acceptor molecule, acceptor atom, score
      L1  H     7    26       P1  8028  0.70
      P1  H  7989  7998       L1     9  0.39

> <Gold.Chemscore.Hbond.Weighted>
-5.0374

> <Gold.Chemscore.Metal.Weighted>
-0.0000

> <Gold.Chemscore.Lipo.Weighted>
-11.0057

> <Gold.Chemscore.Internal_Hbond.Weighted>
0.0000

> <Gold.Chemscore.DEClash.Weighted>
0.7548

> <Gold.Chemscore.DEInternal.Weighted>
1.5059

> <Gold.Chemscore.Rot.Weighted>
4.3463

> <Gold.Chemscore.Internal.Correction.Weighted>
   9.000000E+99

> <Gold.Protein.RotatedTorsions>
[ 6907 6896 6895 6894 ] final  113.84 input  -60.11 | X-H torsion
[ 7974 7965 7964 7962 ] final -177.46 input  175.53 | X-H torsion
[ 8008 7997 7996 7995 ] final   23.46 input   59.86 | X-H torsion
[ 10167 10162 10161 10158 ] final   98.06 input  -65.29 | X-H torsion
[ 10718 10713 10712 10709 ] final -133.40 input   66.30 | X-H torsion
[ 10763 10752 10751 10750 ] final   15.83 input  -60.55 | X-H torsion
[ 11005 11000 10999 10996 ] final   92.24 input  -57.11 | X-H torsion

> <Gold.Protein.ActiveResidues>
 VAL166  LYS551  ARG553  GLY616  TRP617  ASP618  TYR619  PRO620  LYS621  CYS622 
 ASP623  PHE694  ASN695  SER759  ASP760  ASP761  ALA762  ILE779  LEU786  VAL792 
 PHE793  MET794  SER795  GLU796  ALA797  LYS798  CYS799  TRP800  GLU811  SER814 

> <Gold.Protein.RotatedAtoms>
  152.4837  133.8319  159.7107 H   0  0  0  0  0  0  0  0  0  0  0  0  # atno 6907 bound_to 6896
  150.8907  133.7238  159.2912 H   0  0  0  0  0  0  0  0  0  0  0  0  # atno 6908 bound_to 6896
  151.4712  135.1049  159.9804 H   0  0  0  0  0  0  0  0  0  0  0  0  # atno 6909 bound_to 6896
  144.7128  140.1016  143.6416 H   0  0  0  0  0  0  0  0  0  0  0  0  # atno 7974 bound_to 7965
  154.9813  140.3102  155.4945 H   0  0  0  0  0  0  0  0  0  0  0  0  # atno 8008 bound_to 7997
  156.2953  140.2266  156.4852 H   0  0  0  0  0  0  0  0  0  0  0  0  # atno 8009 bound_to 7997
  154.7786  140.0447  157.1097 H   0  0  0  0  0  0  0  0  0  0  0  0  # atno 8010 bound_to 7997
  139.7743  144.6911  151.0111 H   0  0  0  0  0  0  0  0  0  0  0  0  # atno 10167 bound_to 10162
  156.2446  130.7116  151.0991 H   0  0  0  0  0  0  0  0  0  0  0  0  # atno 10718 bound_to 10713
  153.1488  135.6774  153.8914 H   0  0  0  0  0  0  0  0  0  0  0  0  # atno 10763 bound_to 10752
  153.8347  135.3113  155.3423 H   0  0  0  0  0  0  0  0  0  0  0  0  # atno 10764 bound_to 10752
  154.7846  135.4869  154.0003 H   0  0  0  0  0  0  0  0  0  0  0  0  # atno 10765 bound_to 10752
  139.8826  134.8721  156.3543 H   0  0  0  0  0  0  0  0  0  0  0  0  # atno 11005 bound_to 11000
  145.9533  139.2749  143.1199 LP  0  0  0  0  0  0  0  0  0  0  0  0  # atno 17320 bound_to 7965
  145.9300  140.9055  143.0361 LP  0  0  0  0  0  0  0  0  0  0  0  0  # atno 17321 bound_to 7965
  140.7815  143.4553  151.0354 LP  0  0  0  0  0  0  0  0  0  0  0  0  # atno 17342 bound_to 10162
  139.8236  143.7787  152.3178 LP  0  0  0  0  0  0  0  0  0  0  0  0  # atno 17343 bound_to 10162
  157.7189  131.0693  150.6215 LP  0  0  0  0  0  0  0  0  0  0  0  0  # atno 17370 bound_to 10713
  156.6290  130.4427  149.5793 LP  0  0  0  0  0  0  0  0  0  0  0  0  # atno 17371 bound_to 10713
  140.9573  133.7412  156.0352 LP  0  0  0  0  0  0  0  0  0  0  0  0  # atno 17394 bound_to 11000
  140.8033  134.3483  157.5433 LP  0  0  0  0  0  0  0  0  0  0  0  0  # atno 17395 bound_to 11000

$$$$
