#       Name:                AV-unprocessed.smi:1643
#       Creating user name   scv26
#       Creation time:       Fri Mar 27 07:26:18 2020


#       File generated by GOLD software.
#

@<TRIPOS>MOLECULE
AV-unprocessed.smi:1643
    59    61     1
SMALL
NO_CHARGES


@<TRIPOS>ATOM
      1 ****        -5.8699  -1.8443   2.0767 C.3            1 S1                 0.0000
      2 ****        -4.6128  -2.4806   2.6778 C.2            1 S1                 0.0000
      3 ****        -4.7579  -3.3136   3.5725 O.2            1 S1                 0.0000
      4 ****        -3.3960  -2.1139   2.2046 N.am           1 S1                 0.0000
      5 ****        -2.1661  -2.7421   2.7117 C.3            1 S1                 0.0000
      6 ****        -1.4681  -1.8518   3.7555 C.3            1 S1                 0.0000
      7 ****        -1.5973  -0.3356   3.4969 C.3            1 S1                 0.0000
      8 ****        -1.1181   0.1011   2.1571 N.4            1 S1                 1.0000
      9 ****         0.3663   0.1031   2.0539 C.3            1 S1                 0.0000
     10 ****         0.8870   1.0037   0.9164 C.3            1 S1                 0.0000
     11 ****         0.5448   2.3465   1.2035 O.3            1 S1                 0.0000
     12 ****         2.4144   0.8910   0.7484 C.3            1 S1                 0.0000
     13 ****         2.9109   1.7043  -0.3469 N.pl3          1 S1                 0.0000
     14 ****         3.5324   2.8965  -0.2620 C.2            1 S1                 0.0000
     15 ****         3.9020   3.4727  -1.4020 N.2            1 S1                 0.0000
     16 ****         3.4730   2.5451  -2.3358 C.ar           1 S1                 0.0000
     17 ****         3.5604   2.5542  -3.7451 C.ar           1 S1                 0.0000
     18 ****         3.0465   1.4827  -4.5099 C.ar           1 S1                 0.0000
     19 ****         3.1615   1.5343  -6.0232 C.3            1 S1                 0.0000
     20 ****         2.4346   0.3780  -3.8646 C.ar           1 S1                 0.0000
     21 ****         1.8793  -0.7861  -4.6661 C.3            1 S1                 0.0000
     22 ****         2.3380   0.3534  -2.4576 C.ar           1 S1                 0.0000
     23 ****         2.8515   1.4263  -1.7080 C.ar           1 S1                 0.0000
     24 ****        -1.7915  -0.5188   0.9732 C.3            1 S1                 0.0000
     25 ****        -3.2350  -1.0452   1.1956 C.3            1 S1                 0.0000
     26 ****        -5.8769  -1.9359   0.9905 H              1 S1                 0.0000
     27 ****        -5.9361  -0.7896   2.3439 H              1 S1                 0.0000
     28 ****        -6.7656  -2.3384   2.4544 H              1 S1                 0.0000
     29 ****        -2.3561  -3.7239   3.1486 H              1 S1                 0.0000
     30 ****        -1.4929  -2.9649   1.8854 H              1 S1                 0.0000
     31 ****        -1.9009  -2.0605   4.7346 H              1 S1                 0.0000
     32 ****        -0.4183  -2.1366   3.8303 H              1 S1                 0.0000
     33 ****        -2.6319  -0.0157   3.6252 H              1 S1                 0.0000
     34 ****        -1.0502   0.2078   4.2681 H              1 S1                 0.0000
     35 ****         0.8032   0.4433   2.9940 H              1 S1                 0.0000
     36 ****         0.7139  -0.9213   1.9126 H              1 S1                 0.0000
     37 ****         0.4175   0.7264  -0.0274 H              1 S1                 0.0000
     38 ****         1.0273   2.6266   1.9666 H              1 S1                 0.0000
     39 ****         2.9260   1.1867   1.6657 H              1 S1                 0.0000
     40 ****         2.6964  -0.1445   0.5540 H              1 S1                 0.0000
     41 ****         3.7204   3.3708   0.6903 H              1 S1                 0.0000
     42 ****         4.0275   3.3952  -4.2362 H              1 S1                 0.0000
     43 ****         2.1745   1.4860  -6.4841 H              1 S1                 0.0000
     44 ****         3.7565   0.6973  -6.3894 H              1 S1                 0.0000
     45 ****         3.6404   2.4560  -6.3551 H              1 S1                 0.0000
     46 ****         1.4542  -1.5505  -4.0152 H              1 S1                 0.0000
     47 ****         2.6669  -1.2521  -5.2587 H              1 S1                 0.0000
     48 ****         1.0932  -0.4456  -5.3403 H              1 S1                 0.0000
     49 ****         1.8749  -0.4818  -1.9538 H              1 S1                 0.0000
     50 ****        -1.8317   0.2428   0.1940 H              1 S1                 0.0000
     51 ****        -1.1690  -1.3092   0.5536 H              1 S1                 0.0000
     52 ****        -3.6174  -1.4166   0.2439 H              1 S1                 0.0000
     53 ****        -3.8573  -0.1904   1.4638 H              1 S1                 0.0000
     54 ****        -1.3783   1.0769   2.1201 H              1 S1                 0.0000
     55 ****        -5.6761  -3.5561   3.8857 LP             1 S1                 0.0000
     56 ****        -3.9576  -3.7477   3.9860 LP             1 S1                 0.0000
     57 ****        -0.4367   2.4123   1.3833 LP             1 S1                 0.0000
     58 ****         0.7806   2.9276   0.4245 LP             1 S1                 0.0000
     59 ****         4.3673   4.3460  -1.5467 LP             1 S1                 0.0000
@<TRIPOS>BOND
    1    1    2 1     
    2    1   26 1     
    3    1   27 1     
    4    1   28 1     
    5    2    3 2     
    6    2    4 am    
    7    4   25 1     
    8    4    5 1     
    9    5    6 1     
   10    5   29 1     
   11    5   30 1     
   12    6    7 1     
   13    6   31 1     
   14    6   32 1     
   15    7    8 1     
   16    7   33 1     
   17    7   34 1     
   18    8    9 1     
   19    8   24 1     
   20    8   54 1     
   21    9   10 1     
   22    9   35 1     
   23    9   36 1     
   24   10   11 1     
   25   10   12 1     
   26   10   37 1     
   27   11   38 1     
   28   12   13 1     
   29   12   39 1     
   30   12   40 1     
   31   13   23 1     
   32   13   14 1     
   33   14   15 2     
   34   14   41 1     
   35   15   16 1     
   36   16   23 ar    
   37   16   17 ar    
   38   17   18 ar    
   39   17   42 1     
   40   18   19 1     
   41   18   20 ar    
   42   19   43 1     
   43   19   44 1     
   44   19   45 1     
   45   20   21 1     
   46   20   22 ar    
   47   21   46 1     
   48   21   47 1     
   49   21   48 1     
   50   22   23 ar    
   51   22   49 1     
   52   24   25 1     
   53   24   50 1     
   54   24   51 1     
   55   25   52 1     
   56   25   53 1     
   57    3   55 1     
   58    3   56 1     
   59   11   57 1     
   60   11   58 1     
   61   15   59 1     
@<TRIPOS>SUBSTRUCTURE
      1 S1             1
@<TRIPOS>SET
LONE_PAIRS      STATIC     ATOMS    <user>   **** ""
5 55 56 57 58 59
DONOR_HYDROGENS      STATIC     ATOMS    <user>   **** ""
2 54 38
ATOM$BLUE        STATIC     ATOMS    COLORGROUP SYSTEM
5 55 56 57 58 59
ATOM$RED        STATIC     ATOMS    COLORGROUP SYSTEM
2 54 38
