AV-unprocessed.smi:16|AV-procd|sdf|89|dock8
  -GOLD-   2262015233D 1   1.00000     0.00000
 Structure written by MMmdl.
 60 64  0  0  0  0  0  0  0  0  2 V2000
  154.2128  137.0636  160.2277 C   0  0  0  0  0  0  0  0  0  0  0  0
  154.7724  138.1320  161.1785 C   0  0  0  0  0  0  0  0  0  0  0  0
  153.9949  139.3969  161.1412 N   0  3  1  0  0  0  0  0  0  0  0  0
  154.5844  140.4393  162.0217 C   0  0  0  0  0  0  0  0  0  0  0  0
  153.7047  141.6990  162.0657 C   0  0  0  0  0  0  0  0  0  0  0  0
  153.4809  142.2446  160.6516 C   0  0  2  0  0  0  0  0  0  0  0  0
  152.6190  143.3757  160.7056 O   0  0  0  0  0  0  0  0  0  0  0  0
  152.4321  143.9559  159.4187 C   0  0  0  0  0  0  0  0  0  0  0  0
  151.7846  142.9227  158.4830 C   0  0  0  0  0  0  0  0  0  0  0  0
  152.5896  141.7042  158.4338 N   0  0  0  0  0  0  0  0  0  0  0  0
  152.1361  140.8089  157.5270 C   0  0  0  0  0  0  0  0  0  0  0  0
  152.9162  139.7612  157.1513 N   0  0  0  0  0  0  0  0  0  0  0  0
  152.4713  138.8939  156.2368 C   0  0  0  0  0  0  0  0  0  0  0  0
  151.3103  138.8980  155.5778 N   0  0  0  0  0  0  0  0  0  0  0  0
  150.5336  139.9579  155.9445 C   0  0  0  0  0  0  0  0  0  0  0  0
  150.8662  140.9485  156.9092 C   0  0  0  0  0  0  0  0  0  0  0  0
  149.8330  141.8684  157.0280 N   0  0  0  0  0  0  0  0  0  0  0  0
  148.9323  141.4391  156.1857 C   0  0  0  0  0  0  0  0  0  0  0  0
  149.2838  140.3156  155.4706 N   0  0  0  0  0  0  0  0  0  0  0  0
  148.4766  139.6183  154.5132 C   0  0  0  0  0  0  0  0  0  0  0  0
  147.0694  139.1308  154.8725 C   0  0  0  0  0  0  0  0  0  0  0  0
  147.2616  137.9212  153.9297 C   0  0  0  0  0  0  0  0  0  0  0  0
  146.6932  136.5728  154.4140 C   0  0  0  0  0  0  0  0  0  0  0  0
  147.0568  135.4956  153.5736 O   0  0  0  0  0  0  0  0  0  0  0  0
  146.7354  138.1503  152.4999 C   0  0  0  0  0  0  0  0  0  0  0  0
  147.2022  137.1570  151.6095 O   0  0  0  0  0  0  0  0  0  0  0  0
  148.7758  138.1662  154.1277 C   0  0  0  0  0  0  0  0  0  0  0  0
  152.8470  141.1511  159.7662 C   0  0  1  0  0  0  0  0  0  0  0  0
  153.7647  139.9038  159.7611 C   0  0  0  0  0  0  0  0  0  0  0  0
  154.4438  142.5508  160.2371 H   0  0  0  0  0  0  0  0  0  0  0  0
  151.8852  140.8680  160.1981 H   0  0  0  0  0  0  0  0  0  0  0  0
  154.7420  136.1198  160.3613 H   0  0  0  0  0  0  0  0  0  0  0  0
  154.3219  137.3454  159.1809 H   0  0  0  0  0  0  0  0  0  0  0  0
  153.1556  136.8786  160.4200 H   0  0  0  0  0  0  0  0  0  0  0  0
  154.7396  137.7227  162.1890 H   0  0  0  0  0  0  0  0  0  0  0  0
  155.8227  138.3303  160.9600 H   0  0  0  0  0  0  0  0  0  0  0  0
  154.6963  140.0478  163.0335 H   0  0  0  0  0  0  0  0  0  0  0  0
  155.5849  140.6921  161.6667 H   0  0  0  0  0  0  0  0  0  0  0  0
  152.7457  141.4641  162.5296 H   0  0  0  0  0  0  0  0  0  0  0  0
  154.1745  142.4600  162.6896 H   0  0  0  0  0  0  0  0  0  0  0  0
  151.7905  144.8320  159.5128 H   0  0  0  0  0  0  0  0  0  0  0  0
  153.3865  144.3010  159.0180 H   0  0  0  0  0  0  0  0  0  0  0  0
  150.7799  142.6917  158.8402 H   0  0  0  0  0  0  0  0  0  0  0  0
  151.6828  143.3407  157.4806 H   0  0  0  0  0  0  0  0  0  0  0  0
  153.1424  138.0829  155.9944 H   0  0  0  0  0  0  0  0  0  0  0  0
  147.9834  141.9396  156.0569 H   0  0  0  0  0  0  0  0  0  0  0  0
  148.4496  140.2536  153.6261 H   0  0  0  0  0  0  0  0  0  0  0  0
  146.9843  138.8619  155.9267 H   0  0  0  0  0  0  0  0  0  0  0  0
  146.2707  139.8150  154.5840 H   0  0  0  0  0  0  0  0  0  0  0  0
  147.0439  136.3440  155.4207 H   0  0  0  0  0  0  0  0  0  0  0  0
  145.6042  136.5994  154.4585 H   0  0  0  0  0  0  0  0  0  0  0  0
  147.7284  135.7930  152.9790 H   0  0  0  0  0  0  0  0  0  0  0  0
  145.6451  138.1553  152.4789 H   0  0  0  0  0  0  0  0  0  0  0  0
  147.0503  139.1189  152.1109 H   0  0  0  0  0  0  0  0  0  0  0  0
  147.7168  136.5331  152.0984 H   0  0  0  0  0  0  0  0  0  0  0  0
  149.3835  138.0575  153.2289 H   0  0  0  0  0  0  0  0  0  0  0  0
  149.2035  137.5968  154.9545 H   0  0  0  0  0  0  0  0  0  0  0  0
  154.7214  140.1367  159.2903 H   0  0  0  0  0  0  0  0  0  0  0  0
  153.3051  139.1137  159.1695 H   0  0  0  0  0  0  0  0  0  0  0  0
  153.0867  139.1836  161.5288 H   0  0  0  0  0  0  0  0  0  0  0  0
  1  2  1  0  0  0  0
  1 32  1  0  0  0  0
  1 33  1  0  0  0  0
  1 34  1  0  0  0  0
  2  3  1  0  0  0  0
  2 35  1  0  0  0  0
  2 36  1  0  0  0  0
  3 29  1  0  0  0  0
  3  4  1  0  0  0  0
  3 60  1  0  0  0  0
  4  5  1  0  0  0  0
  4 37  1  0  0  0  0
  4 38  1  0  0  0  0
  5  6  1  0  0  0  0
  5 39  1  0  0  0  0
  5 40  1  0  0  0  0
  6 30  1  0  0  0  0
  6 28  1  0  0  0  0
  6  7  1  0  0  0  0
  7  8  1  0  0  0  0
  8  9  1  0  0  0  0
  8 41  1  0  0  0  0
  8 42  1  0  0  0  0
  9 10  1  0  0  0  0
  9 43  1  0  0  0  0
  9 44  1  0  0  0  0
 10 11  1  0  0  0  0
 10 28  1  0  0  0  0
 11 16  1  0  0  0  0
 11 12  2  0  0  0  0
 12 13  1  0  0  0  0
 13 14  2  0  0  0  0
 13 45  1  0  0  0  0
 14 15  1  0  0  0  0
 15 19  1  0  0  0  0
 15 16  2  0  0  0  0
 16 17  1  0  0  0  0
 17 18  2  0  0  0  0
 18 19  1  0  0  0  0
 18 46  1  0  0  0  0
 19 20  1  0  0  0  0
 20 27  1  0  0  0  0
 20 21  1  0  0  0  0
 20 47  1  0  0  0  0
 21 22  1  0  0  0  0
 21 48  1  0  0  0  0
 21 49  1  0  0  0  0
 22 23  1  0  0  0  0
 22 25  1  0  0  0  0
 22 27  1  0  0  0  0
 23 24  1  0  0  0  0
 23 50  1  0  0  0  0
 23 51  1  0  0  0  0
 24 52  1  0  0  0  0
 25 26  1  0  0  0  0
 25 53  1  0  0  0  0
 25 54  1  0  0  0  0
 26 55  1  0  0  0  0
 27 56  1  0  0  0  0
 27 57  1  0  0  0  0
 28 31  1  0  0  0  0
 28 29  1  0  0  0  0
 29 58  1  0  0  0  0
 29 59  1  0  0  0  0
M  CHG  1   3   1
M  END
> <s_m_source_file>
AV-unprocessed.smi

> <i_m_source_file_index>
16

> <i_lp_mmshare_version>
43012

> <i_f3d_flags>
0

> <s_epik_input>
W0NIM11bQ0gyXU4oW0NIMl1bQ0gyXTEpW0NIMl1bQ0BASF0oW0NAQEhdMTIpTihbQ0gyXVtDSDJdTzIpYyhuW2NIXW4zKWMoYzM0KW5bY0hdbjRbQ0hdKFtDSDJdNSlbQ0gyXUM1KFtDSDJdW09IXSlbQ0gyXVtPSF0=

> <s_epik_cmdline>
J2VwaWtfcHl0aG9uJywgJy1waCcsICc3LjAnLCAnLXRuJywgJzgnLCAnLW1hJywgJzIwMCcsICctbWV0YWxfYmluZGluZycsICctaW1hZScsICc8aW5maWxlLm1hZT4nLCAnLW9tYWUnLCAnPG91dGZpbGUubWFlPic=

> <r_lp_tautomer_probability>
1

> <r_epik_Ionization_Penalty>
0.0135603

> <r_epik_Ionization_Penalty_Charging>
0.0131385

> <r_epik_Ionization_Penalty_Neutral>
0.000421734

> <r_epik_State_Penalty>
0.0102091

> <r_epik_Charging_Adjusted_Penalty>
0.0233476

> <i_epik_Tot_Q>
1

> <i_epik_Tot_abs_Q>
1

> <r_epik_Metal_State_Penalty>
0.0103746

> <b_epik_Metal_Only>
0

> <s_lp_Force_Field>
OPLS_2005

> <r_lp_Energy>
54.8635

> <b_lp_Chiralities_Consistent>
1

> <s_lp_Variant>
AV-unprocessed.smi:16-3

> <Gold.Version>
5.8.1

> <Gold.Id.Protein>
6NUR|6NUR_protein|mol2

> <Gold.PLP.Fitness>
49.6898

> <Gold.PLP.PLP>
-43.1624

> <Gold.PLP.part.hbond>
-3.7358

> <Gold.PLP.part.metal>
0.0000

> <Gold.PLP.part.buried>
-0.0968

> <Gold.PLP.part.nonpolar>
-40.7394

> <Gold.PLP.part.repulsive>
1.0262

> <Gold.PLP.ligand.clash>
5.8188

> <Gold.PLP.ligand.torsion>
0.5681

> <Gold.PLP.Chemscore.Hbond>
3.8140

> <Gold.PLP.Chemscore.CHOScore>
0.4781

> <Gold.PLP.Chemscore.Metal>
0.0000

> <Gold.Chemscore.Hbonds>
donor molecule, donor type, donor heavy atom, donor atom, acceptor molecule, acceptor atom, score
      L1  H    24    52       P1  7948  1.00
      L1  H    26    55       P1  7948  0.18
      P1  H  7954  7966       L1    26  0.86
      P1  H  7997  8009       L1    12  1.00

> <Gold.PLP.Chemscore.Internal.Correction>
0.6059

> <Gold.Rescore>
     Score         DG    S(hbond)    S(metal)    S(lipo)     H(rot)  DE(clash)    DE(int)     intcor
     13.75     -20.06       2.87        0.00     115.53       3.33       1.52       4.79       ----

> <Gold.Chemscore.Fitness>
13.7539

> <Gold.Chemscore.DG>
-20.0613

> <Gold.Chemscore.ZeroCoef>
-5.4800

> <Gold.Chemscore.Hbond>
2.8673

> <Gold.Chemscore.Metal>
0.0000

> <Gold.Chemscore.Lipo>
115.5276

> <Gold.Chemscore.Internal_Hbond>
0.0000

> <Gold.Chemscore.DEClash>
1.5200

> <Gold.Chemscore.DEInternal>
4.7875

> <Gold.Chemscore.Rot>
3.3251

> <Gold.Chemscore.Internal.Correction>
   9.000000E+99

> <Gold.Chemscore.Hbonds>
donor molecule, donor type, donor heavy atom, donor atom, acceptor molecule, acceptor atom, score
      L1  H    24    52       P1  7948  1.00
      L1  H    26    55       P1  7948  0.18
      P1  H  7954  7966       L1    26  0.66
      P1  H  7997  8009       L1    12  0.60

> <Gold.Chemscore.Hbond.Weighted>
-9.5768

> <Gold.Chemscore.Metal.Weighted>
-0.0000

> <Gold.Chemscore.Lipo.Weighted>
-13.5167

> <Gold.Chemscore.Internal_Hbond.Weighted>
0.0000

> <Gold.Chemscore.DEClash.Weighted>
1.5200

> <Gold.Chemscore.DEInternal.Weighted>
4.7875

> <Gold.Chemscore.Rot.Weighted>
8.5122

> <Gold.Chemscore.Internal.Correction.Weighted>
   9.000000E+99

> <Gold.Protein.RotatedTorsions>
[ 6907 6896 6895 6894 ] final  146.12 input  -60.11 | X-H torsion
[ 7974 7965 7964 7962 ] final   48.96 input  175.53 | X-H torsion
[ 8008 7997 7996 7995 ] final  166.67 input   59.86 | X-H torsion
[ 10167 10162 10161 10158 ] final    0.00 input  -65.29 | X-H torsion
[ 10718 10713 10712 10709 ] final  -45.51 input   66.30 | X-H torsion
[ 10763 10752 10751 10750 ] final   79.35 input  -60.55 | X-H torsion
[ 11005 11000 10999 10996 ] final  -79.16 input  -57.11 | X-H torsion

> <Gold.Protein.ActiveResidues>
 VAL166  LYS551  ARG553  GLY616  TRP617  ASP618  TYR619  PRO620  LYS621  CYS622 
 ASP623  PHE694  ASN695  SER759  ASP760  ASP761  ALA762  ILE779  LEU786  VAL792 
 PHE793  MET794  SER795  GLU796  ALA797  LYS798  CYS799  TRP800  GLU811  SER814 

> <Gold.Protein.RotatedAtoms>
  152.1720  133.4650  159.4913 H   0  0  0  0  0  0  0  0  0  0  0  0  # atno 6907 bound_to 6896
  150.6921  134.1941  159.4305 H   0  0  0  0  0  0  0  0  0  0  0  0  # atno 6908 bound_to 6896
  151.9848  135.0009  160.0609 H   0  0  0  0  0  0  0  0  0  0  0  0  # atno 6909 bound_to 6896
  146.0154  139.4590  142.9930 H   0  0  0  0  0  0  0  0  0  0  0  0  # atno 7974 bound_to 7965
  156.1699  140.1637  156.8466 H   0  0  0  0  0  0  0  0  0  0  0  0  # atno 8008 bound_to 7997
  154.5246  140.0770  156.8269 H   0  0  0  0  0  0  0  0  0  0  0  0  # atno 8009 bound_to 7997
  155.3534  140.3391  155.4242 H   0  0  0  0  0  0  0  0  0  0  0  0  # atno 8010 bound_to 7997
  140.6748  143.6947  150.7999 H   0  0  0  0  0  0  0  0  0  0  0  0  # atno 10167 bound_to 10162
  156.2276  130.4170  149.8915 H   0  0  0  0  0  0  0  0  0  0  0  0  # atno 10718 bound_to 10713
  153.0946  135.4843  154.8754 H   0  0  0  0  0  0  0  0  0  0  0  0  # atno 10763 bound_to 10752
  154.7309  135.3060  154.8895 H   0  0  0  0  0  0  0  0  0  0  0  0  # atno 10764 bound_to 10752
  153.9531  135.6821  153.4797 H   0  0  0  0  0  0  0  0  0  0  0  0  # atno 10765 bound_to 10752
  141.1667  133.7094  156.8081 H   0  0  0  0  0  0  0  0  0  0  0  0  # atno 11005 bound_to 11000
  145.7277  141.0053  143.1369 LP  0  0  0  0  0  0  0  0  0  0  0  0  # atno 17320 bound_to 7965
  144.6969  139.8946  143.7455 LP  0  0  0  0  0  0  0  0  0  0  0  0  # atno 17321 bound_to 7965
  140.0638  143.5128  152.2614 LP  0  0  0  0  0  0  0  0  0  0  0  0  # atno 17342 bound_to 10162
  139.6034  144.7589  151.3118 LP  0  0  0  0  0  0  0  0  0  0  0  0  # atno 17343 bound_to 10162
  156.6540  130.8755  151.3536 LP  0  0  0  0  0  0  0  0  0  0  0  0  # atno 17370 bound_to 10713
  157.7118  130.9449  150.1115 LP  0  0  0  0  0  0  0  0  0  0  0  0  # atno 17371 bound_to 10713
  140.2207  134.8759  157.3374 LP  0  0  0  0  0  0  0  0  0  0  0  0  # atno 17394 bound_to 11000
  140.1991  134.4277  155.7673 LP  0  0  0  0  0  0  0  0  0  0  0  0  # atno 17395 bound_to 11000

$$$$
