AV-unprocessed.smi:2629|AV-procd|sdf|10244|dock3
  -GOLD-   2272014253D 1   1.00000     0.00000
 Structure written by MMmdl.
 24 25  0  0  0  0  0  0  0  0  3 V2000
  149.7733  138.9438  155.8284 O   0  0  0  0  0  0  0  0  0  0  0  0
  150.3685  139.8351  156.4292 C   0  0  0  0  0  0  0  0  0  0  0  0
  149.9063  141.2666  156.3083 N   0  0  0  0  0  0  0  0  0  0  0  0
  150.5269  142.1656  156.9285 N   0  3  0  0  0  0  0  0  0  0  0  0
  151.6694  141.9571  157.7679 C   0  0  0  0  0  0  0  0  0  0  0  0
  152.2682  143.0317  158.3980 N   0  0  0  0  0  0  0  0  0  0  0  0
  152.9109  142.9174  159.6975 C   0  0  0  0  0  0  0  0  0  0  0  0
  152.0747  143.6453  160.7643 C   0  0  0  0  0  0  0  0  0  0  0  0
  151.8725  144.9998  160.3698 O   0  0  0  0  0  0  0  0  0  0  0  0
  151.1777  145.1027  159.1298 C   0  0  0  0  0  0  0  0  0  0  0  0
  151.9920  144.4095  158.0236 C   0  0  0  0  0  0  0  0  0  0  0  0
  152.1034  140.6450  157.8874 C   0  0  0  0  0  0  0  0  0  0  0  0
  153.0325  140.0816  158.5062 O   0  5  0  0  0  0  0  0  0  0  0  0
  151.4390  139.6222  157.2142 N   0  0  0  0  0  0  0  0  0  0  0  0
  150.1895  143.1164  156.8243 H   0  0  0  0  0  0  0  0  0  0  0  0
  153.9095  143.3516  159.6379 H   0  0  0  0  0  0  0  0  0  0  0  0
  153.0352  141.8669  159.9633 H   0  0  0  0  0  0  0  0  0  0  0  0
  151.1129  143.1502  160.9076 H   0  0  0  0  0  0  0  0  0  0  0  0
  152.5899  143.6269  161.7248 H   0  0  0  0  0  0  0  0  0  0  0  0
  150.1858  144.6565  159.2188 H   0  0  0  0  0  0  0  0  0  0  0  0
  151.0338  146.1559  158.8883 H   0  0  0  0  0  0  0  0  0  0  0  0
  151.4501  144.4395  157.0775 H   0  0  0  0  0  0  0  0  0  0  0  0
  152.9372  144.9300  157.8663 H   0  0  0  0  0  0  0  0  0  0  0  0
  151.7925  138.6838  157.3327 H   0  0  0  0  0  0  0  0  0  0  0  0
  1  2  2  0  0  0  0
  2 14  1  0  0  0  0
  2  3  1  0  0  0  0
  3  4  2  0  0  0  0
  4 15  1  0  0  0  0
  4  5  1  0  0  0  0
  5 12  2  0  0  0  0
  5  6  1  0  0  0  0
  6 11  1  0  0  0  0
  6  7  1  0  0  0  0
  7  8  1  0  0  0  0
  7 16  1  0  0  0  0
  7 17  1  0  0  0  0
  8  9  1  0  0  0  0
  8 18  1  0  0  0  0
  8 19  1  0  0  0  0
  9 10  1  0  0  0  0
 10 11  1  0  0  0  0
 10 20  1  0  0  0  0
 10 21  1  0  0  0  0
 11 22  1  0  0  0  0
 11 23  1  0  0  0  0
 12 13  1  0  0  0  0
 12 14  1  0  0  0  0
 14 24  1  0  0  0  0
M  CHG  1   4   1
M  CHG  1  13  -1
M  END
> <s_m_source_file>
AV-unprocessed.smi

> <i_m_source_file_index>
2629

> <i_lp_mmshare_version>
43012

> <i_f3d_flags>
0

> <s_epik_input>
Tz1jMVtuSF1uYyhjKD1PKVtuSF0xKU4yW0NIMl1bQ0gyXU9bQ0gyXVtDSDJdMg==

> <s_epik_cmdline>
J2VwaWtfcHl0aG9uJywgJy1waCcsICc3LjAnLCAnLXRuJywgJzgnLCAnLW1hJywgJzIwMCcsICctbWV0YWxfYmluZGluZycsICctaW1hZScsICc8aW5maWxlLm1hZT4nLCAnLW9tYWUnLCAnPG91dGZpbGUubWFlPic=

> <r_lp_tautomer_probability>
1

> <r_epik_Ionization_Penalty>
6.1095

> <r_epik_Ionization_Penalty_Charging>
6.1095

> <r_epik_Ionization_Penalty_Neutral>
3.71443e-10

> <r_epik_State_Penalty>
-0

> <r_epik_Charging_Adjusted_Penalty>
6.1095

> <i_epik_Tot_Q>
0

> <i_epik_Tot_abs_Q>
2

> <r_epik_Metal_State_Penalty>
6.62767

> <b_epik_Metal_Only>
0

> <s_lp_Force_Field>
OPLS_2005

> <r_lp_Energy>
17.9127

> <b_lp_Chiralities_Consistent>
1

> <s_lp_Variant>
AV-unprocessed.smi:2629-1

> <Gold.Version>
5.8.1

> <Gold.Id.Protein>
6NUR|6NUR_protein|mol2

> <Gold.PLP.Fitness>
35.5144

> <Gold.PLP.PLP>
-27.6059

> <Gold.PLP.part.hbond>
-2.0000

> <Gold.PLP.part.metal>
0.0000

> <Gold.PLP.part.buried>
-5.5081

> <Gold.PLP.part.nonpolar>
-20.2807

> <Gold.PLP.part.repulsive>
0.5947

> <Gold.PLP.ligand.clash>
0.0000

> <Gold.PLP.ligand.torsion>
0.2577

> <Gold.PLP.Chemscore.Hbond>
2.7840

> <Gold.PLP.Chemscore.CHOScore>
0.0000

> <Gold.PLP.Chemscore.Metal>
0.0000

> <Gold.Chemscore.Hbonds>
donor molecule, donor type, donor heavy atom, donor atom, acceptor molecule, acceptor atom, score
      L1  H     4    15       P1  8028  0.16
      P1  H  7997  8010       L1    13  1.24

> <Gold.PLP.Chemscore.Internal.Correction>
0.0720

> <Gold.Rescore>
     Score         DG    S(hbond)    S(metal)    S(lipo)     H(rot)  DE(clash)    DE(int)     intcor
     16.89     -17.34       1.94        0.00      46.00       0.00       0.15       0.30       ----

> <Gold.Chemscore.Fitness>
16.8902

> <Gold.Chemscore.DG>
-17.3410

> <Gold.Chemscore.ZeroCoef>
-5.4800

> <Gold.Chemscore.Hbond>
1.9399

> <Gold.Chemscore.Metal>
0.0000

> <Gold.Chemscore.Lipo>
45.9988

> <Gold.Chemscore.Internal_Hbond>
0.0000

> <Gold.Chemscore.DEClash>
0.1461

> <Gold.Chemscore.DEInternal>
0.3047

> <Gold.Chemscore.Rot>
0.0000

> <Gold.Chemscore.Internal.Correction>
   9.000000E+99

> <Gold.Chemscore.Hbonds>
donor molecule, donor type, donor heavy atom, donor atom, acceptor molecule, acceptor atom, score
      L1  H     4    15       P1  8028  0.17
      P1  H  7997  8010       L1    13  0.13

> <Gold.Chemscore.Hbond.Weighted>
-6.4792

> <Gold.Chemscore.Metal.Weighted>
-0.0000

> <Gold.Chemscore.Lipo.Weighted>
-5.3819

> <Gold.Chemscore.Internal_Hbond.Weighted>
0.0000

> <Gold.Chemscore.DEClash.Weighted>
0.1461

> <Gold.Chemscore.DEInternal.Weighted>
0.3047

> <Gold.Chemscore.Rot.Weighted>
0.0000

> <Gold.Chemscore.Internal.Correction.Weighted>
   9.000000E+99

> <Gold.Protein.RotatedTorsions>
[ 6907 6896 6895 6894 ] final -134.72 input  -60.11 | X-H torsion
[ 7974 7965 7964 7962 ] final  -29.51 input  175.53 | X-H torsion
[ 8008 7997 7996 7995 ] final   42.74 input   59.86 | X-H torsion
[ 10167 10162 10161 10158 ] final   76.73 input  -65.29 | X-H torsion
[ 10718 10713 10712 10709 ] final  -49.61 input   66.30 | X-H torsion
[ 10763 10752 10751 10750 ] final  156.15 input  -60.55 | X-H torsion
[ 11005 11000 10999 10996 ] final   72.41 input  -57.11 | X-H torsion

> <Gold.Protein.ActiveResidues>
 VAL166  LYS551  ARG553  GLY616  TRP617  ASP618  TYR619  PRO620  LYS621  CYS622 
 ASP623  PHE694  ASN695  SER759  ASP760  ASP761  ALA762  ILE779  LEU786  VAL792 
 PHE793  MET794  SER795  GLU796  ALA797  LYS798  CYS799  TRP800  GLU811  SER814 

> <Gold.Protein.RotatedAtoms>
  150.9893  133.6166  159.2710 H   0  0  0  0  0  0  0  0  0  0  0  0  # atno 6907 bound_to 6896
  151.3393  135.0859  159.9375 H   0  0  0  0  0  0  0  0  0  0  0  0  # atno 6908 bound_to 6896
  152.5240  133.9507  159.7725 H   0  0  0  0  0  0  0  0  0  0  0  0  # atno 6909 bound_to 6896
  146.1211  140.5422  142.8735 H   0  0  0  0  0  0  0  0  0  0  0  0  # atno 7974 bound_to 7965
  155.2912  140.3379  155.4252 H   0  0  0  0  0  0  0  0  0  0  0  0  # atno 8008 bound_to 7997
  156.2045  140.1745  156.7869 H   0  0  0  0  0  0  0  0  0  0  0  0  # atno 8009 bound_to 7997
  154.5602  140.0689  156.8792 H   0  0  0  0  0  0  0  0  0  0  0  0  # atno 8010 bound_to 7997
  139.9892  144.5770  150.7833 H   0  0  0  0  0  0  0  0  0  0  0  0  # atno 10167 bound_to 10162
  156.1877  130.4152  149.9416 H   0  0  0  0  0  0  0  0  0  0  0  0  # atno 10718 bound_to 10713
  154.1798  135.2800  155.3055 H   0  0  0  0  0  0  0  0  0  0  0  0  # atno 10763 bound_to 10752
  154.6011  135.5529  153.7379 H   0  0  0  0  0  0  0  0  0  0  0  0  # atno 10764 bound_to 10752
  153.0141  135.6392  154.1937 H   0  0  0  0  0  0  0  0  0  0  0  0  # atno 10765 bound_to 10752
  139.9492  134.7257  156.0903 H   0  0  0  0  0  0  0  0  0  0  0  0  # atno 11005 bound_to 11000
  144.7598  140.5394  143.6743 LP  0  0  0  0  0  0  0  0  0  0  0  0  # atno 17320 bound_to 7965
  145.5464  139.1476  143.3418 LP  0  0  0  0  0  0  0  0  0  0  0  0  # atno 17321 bound_to 7965
  140.7461  143.2886  151.3395 LP  0  0  0  0  0  0  0  0  0  0  0  0  # atno 17342 bound_to 10162
  139.6353  144.0643  152.2510 LP  0  0  0  0  0  0  0  0  0  0  0  0  # atno 17343 bound_to 10162
  156.7166  130.8991  151.3614 LP  0  0  0  0  0  0  0  0  0  0  0  0  # atno 17370 bound_to 10713
  157.6909  130.9232  150.0511 LP  0  0  0  0  0  0  0  0  0  0  0  0  # atno 17371 bound_to 10713
  141.1151  133.6630  156.3074 LP  0  0  0  0  0  0  0  0  0  0  0  0  # atno 17394 bound_to 11000
  140.5759  134.5794  157.5468 LP  0  0  0  0  0  0  0  0  0  0  0  0  # atno 17395 bound_to 11000

$$$$
