AV-unprocessed.smi:2891|AV-procd|sdf|11117|dock3
  -GOLD-   2272015583D 1   1.00000     0.00000
 Structure written by MMmdl.
 35 36  0  0  0  0  0  0  0  0  1 V2000
  152.2560  136.3460  157.1174 C   0  0  0  0  0  0  0  0  0  0  0  0
  151.7808  136.5863  155.8043 O   0  0  0  0  0  0  0  0  0  0  0  0
  150.7248  137.5315  155.7750 C   0  0  0  0  0  0  0  0  0  0  0  0
  150.4186  137.8907  154.3133 C   0  0  0  0  0  0  0  0  0  0  0  0
  149.4433  138.9855  154.2230 N   0  0  0  0  0  0  0  0  0  0  0  0
  148.1521  138.6552  153.7693 C   0  0  0  0  0  0  0  0  0  0  0  0
  147.1667  139.5632  153.6491 C   0  0  0  0  0  0  0  0  0  0  0  0
  145.9190  139.1153  153.1920 N   0  0  0  0  0  0  0  0  0  0  0  0
  145.4551  137.8569  153.0779 C   0  0  0  0  0  0  0  0  0  0  0  0
  146.0737  136.8306  153.3574 O   0  0  0  0  0  0  0  0  0  0  0  0
  144.2018  137.8539  152.6036 N   0  0  0  0  0  0  0  0  0  0  0  0
  143.4132  136.6911  152.3505 C   0  0  0  0  0  0  0  0  0  0  0  0
  142.0695  136.5911  153.0403 C   0  0  0  0  0  0  0  0  0  0  0  0
  143.2079  135.7187  153.4920 C   0  0  0  0  0  0  0  0  0  0  0  0
  147.4931  140.9359  154.0075 C   0  0  0  0  0  0  0  0  0  0  0  0
  148.7236  141.2593  154.4512 C   0  0  0  0  0  0  0  0  0  0  0  0
  149.7822  140.2564  154.5907 C   0  0  0  0  0  0  0  0  0  0  0  0
  150.9031  140.5421  155.0125 O   0  0  0  0  0  0  0  0  0  0  0  0
  153.0631  135.6142  157.0875 H   0  0  0  0  0  0  0  0  0  0  0  0
  151.4659  135.9494  157.7565 H   0  0  0  0  0  0  0  0  0  0  0  0
  152.6462  137.2594  157.5684 H   0  0  0  0  0  0  0  0  0  0  0  0
  149.8377  137.1126  156.2530 H   0  0  0  0  0  0  0  0  0  0  0  0
  151.0103  138.4244  156.3336 H   0  0  0  0  0  0  0  0  0  0  0  0
  151.3419  138.1536  153.7936 H   0  0  0  0  0  0  0  0  0  0  0  0
  150.0429  137.0090  153.7921 H   0  0  0  0  0  0  0  0  0  0  0  0
  148.0137  137.6093  153.5331 H   0  0  0  0  0  0  0  0  0  0  0  0
  145.2871  139.8494  152.9077 H   0  0  0  0  0  0  0  0  0  0  0  0
  143.7706  138.7440  152.4016 H   0  0  0  0  0  0  0  0  0  0  0  0
  143.4705  136.2541  151.3545 H   0  0  0  0  0  0  0  0  0  0  0  0
  141.7709  137.4074  153.6957 H   0  0  0  0  0  0  0  0  0  0  0  0
  141.2586  136.1146  152.4931 H   0  0  0  0  0  0  0  0  0  0  0  0
  143.1581  134.6600  153.2450 H   0  0  0  0  0  0  0  0  0  0  0  0
  143.6679  135.9517  154.4506 H   0  0  0  0  0  0  0  0  0  0  0  0
  146.7718  141.7322  153.9261 H   0  0  0  0  0  0  0  0  0  0  0  0
  148.9381  142.2862  154.7083 H   0  0  0  0  0  0  0  0  0  0  0  0
  1  2  1  0  0  0  0
  1 19  1  0  0  0  0
  1 20  1  0  0  0  0
  1 21  1  0  0  0  0
  2  3  1  0  0  0  0
  3  4  1  0  0  0  0
  3 22  1  0  0  0  0
  3 23  1  0  0  0  0
  4  5  1  0  0  0  0
  4 24  1  0  0  0  0
  4 25  1  0  0  0  0
  5 17  1  0  0  0  0
  5  6  1  0  0  0  0
  6  7  2  0  0  0  0
  6 26  1  0  0  0  0
  7  8  1  0  0  0  0
  7 15  1  0  0  0  0
  8  9  1  0  0  0  0
  8 27  1  0  0  0  0
  9 10  2  0  0  0  0
  9 11  1  0  0  0  0
 11 12  1  0  0  0  0
 11 28  1  0  0  0  0
 12 14  1  0  0  0  0
 12 13  1  0  0  0  0
 12 29  1  0  0  0  0
 13 14  1  0  0  0  0
 13 30  1  0  0  0  0
 13 31  1  0  0  0  0
 14 32  1  0  0  0  0
 14 33  1  0  0  0  0
 15 16  2  0  0  0  0
 15 34  1  0  0  0  0
 16 17  1  0  0  0  0
 16 35  1  0  0  0  0
 17 18  2  0  0  0  0
M  END
> <s_m_source_file>
AV-unprocessed.smi

> <i_m_source_file_index>
2891

> <i_lp_mmshare_version>
43012

> <i_f3d_flags>
0

> <s_epik_input>
W0NIM11PW0NIMl1bQ0gyXW4xW2NIXWMoW2NIXVtjSF1jMT1PKVtOSF1DKD1PKVtOSF1bQ0hdMltDSDJdW0NIMl0y

> <s_epik_cmdline>
J2VwaWtfcHl0aG9uJywgJy1waCcsICc3LjAnLCAnLXRuJywgJzgnLCAnLW1hJywgJzIwMCcsICctbWV0YWxfYmluZGluZycsICctaW1hZScsICc8aW5maWxlLm1hZT4nLCAnLW9tYWUnLCAnPG91dGZpbGUubWFlPic=

> <r_lp_tautomer_probability>
1

> <r_epik_Ionization_Penalty>
2.77726e-05

> <r_epik_Ionization_Penalty_Charging>
5.82689e-06

> <r_epik_Ionization_Penalty_Neutral>
2.19457e-05

> <r_epik_State_Penalty>
-0

> <r_epik_Charging_Adjusted_Penalty>
5.82689e-06

> <i_epik_Tot_Q>
0

> <i_epik_Tot_abs_Q>
0

> <r_epik_Metal_State_Penalty>
-0

> <b_epik_Metal_Only>
0

> <s_lp_Force_Field>
OPLS_2005

> <r_lp_Energy>
28.443

> <b_lp_Chiralities_Consistent>
1

> <s_lp_Variant>
AV-unprocessed.smi:2891-1

> <Gold.Version>
5.8.1

> <Gold.Id.Protein>
6NUR|6NUR_protein|mol2

> <Gold.PLP.Fitness>
41.8574

> <Gold.PLP.PLP>
-27.2487

> <Gold.PLP.part.hbond>
-4.8644

> <Gold.PLP.part.metal>
0.0000

> <Gold.PLP.part.buried>
-1.9331

> <Gold.PLP.part.nonpolar>
-21.6403

> <Gold.PLP.part.repulsive>
0.2503

> <Gold.PLP.ligand.clash>
0.0000

> <Gold.PLP.ligand.torsion>
0.1922

> <Gold.PLP.Chemscore.Hbond>
3.9920

> <Gold.PLP.Chemscore.CHOScore>
0.9899

> <Gold.PLP.Chemscore.Metal>
0.0000

> <Gold.Chemscore.Hbonds>
donor molecule, donor type, donor heavy atom, donor atom, acceptor molecule, acceptor atom, score
      L1  H     8    27       P1 10175  1.00
      L1  H    11    28       P1 10175  1.00
      P1  H  7989  7998       L1    18  0.89
      P1  H 10752 10764       L1     2  1.00
      L1  C     6    26       P1  7948  1.00

> <Gold.PLP.Chemscore.Internal.Correction>
0.0475

> <Gold.Rescore>
     Score         DG    S(hbond)    S(metal)    S(lipo)     H(rot)  DE(clash)    DE(int)     intcor
     15.40     -17.26       3.01        0.00      51.50       1.67       0.07       1.78       ----

> <Gold.Chemscore.Fitness>
15.4044

> <Gold.Chemscore.DG>
-17.2601

> <Gold.Chemscore.ZeroCoef>
-5.4800

> <Gold.Chemscore.Hbond>
3.0051

> <Gold.Chemscore.Metal>
0.0000

> <Gold.Chemscore.Lipo>
51.5023

> <Gold.Chemscore.Internal_Hbond>
0.0000

> <Gold.Chemscore.DEClash>
0.0739

> <Gold.Chemscore.DEInternal>
1.7817

> <Gold.Chemscore.Rot>
1.6730

> <Gold.Chemscore.Internal.Correction>
   9.000000E+99

> <Gold.Chemscore.Hbonds>
donor molecule, donor type, donor heavy atom, donor atom, acceptor molecule, acceptor atom, score
      L1  H     8    27       P1 10175  0.97
      L1  H    11    28       P1 10175  0.98
      P1  H  7989  7998       L1    18  0.17
      P1  H 10752 10764       L1     2  0.49

> <Gold.Chemscore.Hbond.Weighted>
-10.0371

> <Gold.Chemscore.Metal.Weighted>
-0.0000

> <Gold.Chemscore.Lipo.Weighted>
-6.0258

> <Gold.Chemscore.Internal_Hbond.Weighted>
0.0000

> <Gold.Chemscore.DEClash.Weighted>
0.0739

> <Gold.Chemscore.DEInternal.Weighted>
1.7817

> <Gold.Chemscore.Rot.Weighted>
4.2828

> <Gold.Chemscore.Internal.Correction.Weighted>
   9.000000E+99

> <Gold.Protein.RotatedTorsions>
[ 6907 6896 6895 6894 ] final   36.16 input  -60.11 | X-H torsion
[ 7974 7965 7964 7962 ] final -175.46 input  175.53 | X-H torsion
[ 8008 7997 7996 7995 ] final -141.73 input   59.86 | X-H torsion
[ 10167 10162 10161 10158 ] final  140.28 input  -65.29 | X-H torsion
[ 10718 10713 10712 10709 ] final  -71.54 input   66.30 | X-H torsion
[ 10763 10752 10751 10750 ] final  -57.39 input  -60.55 | X-H torsion
[ 11005 11000 10999 10996 ] final  134.49 input  -57.11 | X-H torsion

> <Gold.Protein.ActiveResidues>
 VAL166  LYS551  ARG553  GLY616  TRP617  ASP618  TYR619  PRO620  LYS621  CYS622 
 ASP623  PHE694  ASN695  SER759  ASP760  ASP761  ALA762  ILE779  LEU786  VAL792 
 PHE793  MET794  SER795  GLU796  ALA797  LYS798  CYS799  TRP800  GLU811  SER814 

> <Gold.Protein.RotatedAtoms>
  152.1259  134.9171  160.0560 H   0  0  0  0  0  0  0  0  0  0  0  0  # atno 6907 bound_to 6896
  152.0294  133.3926  159.4299 H   0  0  0  0  0  0  0  0  0  0  0  0  # atno 6908 bound_to 6896
  150.6852  134.3459  159.4932 H   0  0  0  0  0  0  0  0  0  0  0  0  # atno 6909 bound_to 6896
  144.7128  140.1318  143.6398 H   0  0  0  0  0  0  0  0  0  0  0  0  # atno 7974 bound_to 7965
  155.4826  140.0561  157.2965 H   0  0  0  0  0  0  0  0  0  0  0  0  # atno 8008 bound_to 7997
  154.4654  140.2016  156.0084 H   0  0  0  0  0  0  0  0  0  0  0  0  # atno 8009 bound_to 7997
  156.0965  140.3225  155.7889 H   0  0  0  0  0  0  0  0  0  0  0  0  # atno 8010 bound_to 7997
  139.5053  144.6244  151.5974 H   0  0  0  0  0  0  0  0  0  0  0  0  # atno 10167 bound_to 10162
  156.0358  130.4353  150.2460 H   0  0  0  0  0  0  0  0  0  0  0  0  # atno 10718 bound_to 10713
  154.2217  135.6376  153.5147 H   0  0  0  0  0  0  0  0  0  0  0  0  # atno 10763 bound_to 10752
  152.9967  135.5498  154.6107 H   0  0  0  0  0  0  0  0  0  0  0  0  # atno 10764 bound_to 10752
  154.5569  135.2906  155.0930 H   0  0  0  0  0  0  0  0  0  0  0  0  # atno 10765 bound_to 10752
  139.9918  134.9512  156.9874 H   0  0  0  0  0  0  0  0  0  0  0  0  # atno 11005 bound_to 11000
  145.9280  139.2588  143.1342 LP  0  0  0  0  0  0  0  0  0  0  0  0  # atno 17320 bound_to 7965
  145.9552  140.8878  143.0239 LP  0  0  0  0  0  0  0  0  0  0  0  0  # atno 17321 bound_to 7965
  140.5956  143.9702  150.6352 LP  0  0  0  0  0  0  0  0  0  0  0  0  # atno 17342 bound_to 10162
  140.2897  143.3333  152.1074 LP  0  0  0  0  0  0  0  0  0  0  0  0  # atno 17343 bound_to 10162
  157.0559  131.0076  151.3238 LP  0  0  0  0  0  0  0  0  0  0  0  0  # atno 17370 bound_to 10713
  157.5106  130.7936  149.7701 LP  0  0  0  0  0  0  0  0  0  0  0  0  # atno 17371 bound_to 10713
  140.4893  134.1209  155.7230 LP  0  0  0  0  0  0  0  0  0  0  0  0  # atno 17394 bound_to 11000
  141.1572  133.8860  157.1945 LP  0  0  0  0  0  0  0  0  0  0  0  0  # atno 17395 bound_to 11000

$$$$
