AV-unprocessed.smi:203|AV-procd|sdf|1593|dock3
  -GOLD-   2262019493D 1   1.00000     0.00000
 Structure written by MMmdl.
 57 61  0  0  0  0  0  0  0  0  1 V2000
  148.5991  140.3342  154.0633 O   0  0  0  0  0  0  0  0  0  0  0  0
  149.5865  140.2997  154.7939 C   0  0  0  0  0  0  0  0  0  0  0  0
  149.7285  141.1405  156.0519 C   0  0  0  0  0  0  0  0  0  0  0  0
  150.9584  140.5154  156.7360 C   0  0  2  0  0  0  0  0  0  0  0  0
  151.8407  141.4690  157.6006 C   0  0  1  0  0  0  0  0  0  0  0  0
  151.3315  142.9353  157.6052 C   0  0  0  0  0  0  0  0  0  0  0  0
  152.2191  143.8444  158.4658 C   0  0  0  0  0  0  0  0  0  0  0  0
  152.3201  143.2821  159.8869 C   0  0  0  0  0  0  0  0  0  0  0  0
  152.8338  141.8374  159.8512 C   0  0  0  0  0  0  0  0  0  0  0  0
  152.0039  140.9967  158.9883 N   0  0  0  0  0  0  0  0  0  0  0  0
  152.3356  139.6968  159.1595 C   0  0  0  0  0  0  0  0  0  0  0  0
  151.3171  138.8086  159.2680 N   0  0  0  0  0  0  0  0  0  0  0  0
  151.5798  137.5096  159.4402 C   0  0  0  0  0  0  0  0  0  0  0  0
  152.7648  136.9026  159.5355 N   0  0  0  0  0  0  0  0  0  0  0  0
  153.7899  137.7971  159.4371 C   0  0  0  0  0  0  0  0  0  0  0  0
  153.6674  139.2022  159.2519 C   0  0  0  0  0  0  0  0  0  0  0  0
  154.9275  139.7868  159.2074 N   0  0  0  0  0  0  0  0  0  0  0  0
  155.7487  138.7847  159.3649 C   0  0  0  0  0  0  0  0  0  0  0  0
  155.1499  137.5551  159.5164 N   0  0  0  0  0  0  0  0  0  0  0  0
  155.8200  136.2855  159.7304 C   0  0  0  0  0  0  0  0  0  0  0  0
  155.3882  135.5920  161.0400 C   0  0  2  0  0  0  0  0  0  0  0  0
  154.4275  134.6130  160.6988 O   0  0  0  0  0  0  0  0  0  0  0  0
  154.7860  136.5465  162.0957 C   0  0  1  0  0  0  0  0  0  0  0  0
  154.3771  135.8760  163.4080 C   0  0  0  0  0  0  0  0  0  0  0  0
  154.3574  137.0297  164.3970 C   0  0  0  0  0  0  0  0  0  0  0  0
  155.2437  138.0907  163.7387 C   0  0  0  0  0  0  0  0  0  0  0  0
  155.7542  137.4735  162.5652 O   0  0  0  0  0  0  0  0  0  0  0  0
  151.6854  139.7384  155.6201 C   0  0  0  0  0  0  0  0  0  0  0  0
  150.6646  139.5379  154.6100 N   0  0  0  0  0  0  0  0  0  0  0  0
  149.8791  142.1797  155.7652 H   0  0  0  0  0  0  0  0  0  0  0  0
  148.8365  141.0808  156.6763 H   0  0  0  0  0  0  0  0  0  0  0  0
  150.5685  139.7347  157.3906 H   0  0  0  0  0  0  0  0  0  0  0  0
  152.8337  141.4851  157.1507 H   0  0  0  0  0  0  0  0  0  0  0  0
  151.3014  143.3455  156.5978 H   0  0  0  0  0  0  0  0  0  0  0  0
  150.3127  142.9860  157.9879 H   0  0  0  0  0  0  0  0  0  0  0  0
  153.2139  143.9167  158.0243 H   0  0  0  0  0  0  0  0  0  0  0  0
  151.8115  144.8555  158.4893 H   0  0  0  0  0  0  0  0  0  0  0  0
  152.9847  143.9009  160.4904 H   0  0  0  0  0  0  0  0  0  0  0  0
  151.3413  143.3128  160.3672 H   0  0  0  0  0  0  0  0  0  0  0  0
  153.8627  141.8212  159.4883 H   0  0  0  0  0  0  0  0  0  0  0  0
  152.8491  141.4337  160.8649 H   0  0  0  0  0  0  0  0  0  0  0  0
  150.7169  136.8645  159.5140 H   0  0  0  0  0  0  0  0  0  0  0  0
  156.8207  138.9163  159.3847 H   0  0  0  0  0  0  0  0  0  0  0  0
  155.6202  135.6393  158.8744 H   0  0  0  0  0  0  0  0  0  0  0  0
  156.8953  136.4678  159.7360 H   0  0  0  0  0  0  0  0  0  0  0  0
  156.2435  135.0725  161.4739 H   0  0  0  0  0  0  0  0  0  0  0  0
  154.8802  133.8190  160.4588 H   0  0  0  0  0  0  0  0  0  0  0  0
  153.9372  137.0916  161.6776 H   0  0  0  0  0  0  0  0  0  0  0  0
  153.4192  135.3596  163.3415 H   0  0  0  0  0  0  0  0  0  0  0  0
  155.1330  135.1490  163.7085 H   0  0  0  0  0  0  0  0  0  0  0  0
  153.3450  137.4127  164.5299 H   0  0  0  0  0  0  0  0  0  0  0  0
  154.7338  136.7252  165.3739 H   0  0  0  0  0  0  0  0  0  0  0  0
  154.6564  138.9672  163.4609 H   0  0  0  0  0  0  0  0  0  0  0  0
  156.0579  138.4164  164.3866 H   0  0  0  0  0  0  0  0  0  0  0  0
  152.5057  140.2925  155.1687 H   0  0  0  0  0  0  0  0  0  0  0  0
  152.0788  138.7862  155.9776 H   0  0  0  0  0  0  0  0  0  0  0  0
  150.7820  138.9007  153.8357 H   0  0  0  0  0  0  0  0  0  0  0  0
  1  2  2  0  0  0  0
  2 29  1  0  0  0  0
  2  3  1  0  0  0  0
  3  4  1  0  0  0  0
  3 30  1  0  0  0  0
  3 31  1  0  0  0  0
  4  5  1  0  0  0  0
  4 28  1  0  0  0  0
  4 32  1  0  0  0  0
  5 10  1  0  0  0  0
  5  6  1  0  0  0  0
  5 33  1  0  0  0  0
  6  7  1  0  0  0  0
  6 34  1  0  0  0  0
  6 35  1  0  0  0  0
  7  8  1  0  0  0  0
  7 36  1  0  0  0  0
  7 37  1  0  0  0  0
  8  9  1  0  0  0  0
  8 38  1  0  0  0  0
  8 39  1  0  0  0  0
  9 10  1  0  0  0  0
  9 40  1  0  0  0  0
  9 41  1  0  0  0  0
 10 11  1  0  0  0  0
 11 16  1  0  0  0  0
 11 12  2  0  0  0  0
 12 13  1  0  0  0  0
 13 14  2  0  0  0  0
 13 42  1  0  0  0  0
 14 15  1  0  0  0  0
 15 19  1  0  0  0  0
 15 16  2  0  0  0  0
 16 17  1  0  0  0  0
 17 18  2  0  0  0  0
 18 19  1  0  0  0  0
 18 43  1  0  0  0  0
 19 20  1  0  0  0  0
 20 21  1  0  0  0  0
 20 44  1  0  0  0  0
 20 45  1  0  0  0  0
 21 22  1  0  0  0  0
 21 23  1  0  0  0  0
 21 46  1  0  0  0  0
 22 47  1  0  0  0  0
 23 27  1  0  0  0  0
 23 24  1  0  0  0  0
 23 48  1  0  0  0  0
 24 25  1  0  0  0  0
 24 49  1  0  0  0  0
 24 50  1  0  0  0  0
 25 26  1  0  0  0  0
 25 51  1  0  0  0  0
 25 52  1  0  0  0  0
 26 27  1  0  0  0  0
 26 53  1  0  0  0  0
 26 54  1  0  0  0  0
 28 29  1  0  0  0  0
 28 55  1  0  0  0  0
 28 56  1  0  0  0  0
 29 57  1  0  0  0  0
M  END
> <s_m_source_file>
AV-unprocessed.smi

> <i_m_source_file_index>
203

> <i_lp_mmshare_version>
43012

> <i_f3d_flags>
0

> <s_epik_input>
Tz1DMVtDSDJdW0NASF0oW0NIMl1bTkhdMSlbQ0BASF0yW0NIMl1bQ0gyXVtDSDJdW0NIMl1OMmMobltjSF1uMyljKGMzNCluW2NIXW40W0NIMl1bQ0BIXShbT0hdKVtDQEBIXTVbQ0gyXVtDSDJdW0NIMl1PNQ==

> <s_epik_cmdline>
J2VwaWtfcHl0aG9uJywgJy1waCcsICc3LjAnLCAnLXRuJywgJzgnLCAnLW1hJywgJzIwMCcsICctbWV0YWxfYmluZGluZycsICctaW1hZScsICc8aW5maWxlLm1hZT4nLCAnLW9tYWUnLCAnPG91dGZpbGUubWFlPic=

> <r_lp_tautomer_probability>
1

> <r_epik_Ionization_Penalty>
0.00175146

> <r_epik_Ionization_Penalty_Charging>
0

> <r_epik_Ionization_Penalty_Neutral>
0.00175146

> <r_epik_State_Penalty>
0.00109045

> <r_epik_Charging_Adjusted_Penalty>
0.00109045

> <i_epik_Tot_Q>
0

> <i_epik_Tot_abs_Q>
0

> <r_epik_Metal_State_Penalty>
-0

> <b_epik_Metal_Only>
0

> <s_lp_Force_Field>
OPLS_2005

> <r_lp_Energy>
55.5443

> <b_lp_Chiralities_Consistent>
1

> <s_lp_Variant>
AV-unprocessed.smi:203-12

> <Gold.Version>
5.8.1

> <Gold.Id.Protein>
6NUR|6NUR_protein|mol2

> <Gold.PLP.Fitness>
48.1175

> <Gold.PLP.PLP>
-47.2455

> <Gold.PLP.part.hbond>
-3.2870

> <Gold.PLP.part.metal>
0.0000

> <Gold.PLP.part.buried>
-6.8425

> <Gold.PLP.part.nonpolar>
-38.9767

> <Gold.PLP.part.repulsive>
1.0803

> <Gold.PLP.ligand.clash>
0.0000

> <Gold.PLP.ligand.torsion>
2.6169

> <Gold.PLP.Chemscore.Hbond>
1.9420

> <Gold.PLP.Chemscore.CHOScore>
0.0000

> <Gold.PLP.Chemscore.Metal>
0.0000

> <Gold.Chemscore.Hbonds>
donor molecule, donor type, donor heavy atom, donor atom, acceptor molecule, acceptor atom, score
      P1  H  6896  6907       L1    22  0.95
      P1  H  7997  8009       L1    17  0.85

> <Gold.PLP.Chemscore.Internal.Correction>
0.2797

> <Gold.Rescore>
     Score         DG    S(hbond)    S(metal)    S(lipo)     H(rot)  DE(clash)    DE(int)     intcor
      9.76     -14.36       0.96        0.00     107.87       2.72       0.02       4.57       ----

> <Gold.Chemscore.Fitness>
9.7641

> <Gold.Chemscore.DG>
-14.3614

> <Gold.Chemscore.ZeroCoef>
-5.4800

> <Gold.Chemscore.Hbond>
0.9631

> <Gold.Chemscore.Metal>
0.0000

> <Gold.Chemscore.Lipo>
107.8659

> <Gold.Chemscore.Internal_Hbond>
0.0000

> <Gold.Chemscore.DEClash>
0.0240

> <Gold.Chemscore.DEInternal>
4.5733

> <Gold.Chemscore.Rot>
2.7171

> <Gold.Chemscore.Internal.Correction>
   9.000000E+99

> <Gold.Chemscore.Hbonds>
donor molecule, donor type, donor heavy atom, donor atom, acceptor molecule, acceptor atom, score
      P1  H  6896  6907       L1    22  0.63
      P1  H  7997  8009       L1    17  0.04

> <Gold.Chemscore.Hbond.Weighted>
-3.2168

> <Gold.Chemscore.Metal.Weighted>
-0.0000

> <Gold.Chemscore.Lipo.Weighted>
-12.6203

> <Gold.Chemscore.Internal_Hbond.Weighted>
0.0000

> <Gold.Chemscore.DEClash.Weighted>
0.0240

> <Gold.Chemscore.DEInternal.Weighted>
4.5733

> <Gold.Chemscore.Rot.Weighted>
6.9557

> <Gold.Chemscore.Internal.Correction.Weighted>
   9.000000E+99

> <Gold.Protein.RotatedTorsions>
[ 6907 6896 6895 6894 ] final   65.41 input  -60.11 | X-H torsion
[ 7974 7965 7964 7962 ] final  -79.65 input  175.53 | X-H torsion
[ 8008 7997 7996 7995 ] final  128.00 input   59.86 | X-H torsion
[ 10167 10162 10161 10158 ] final   72.69 input  -65.29 | X-H torsion
[ 10718 10713 10712 10709 ] final   39.88 input   66.30 | X-H torsion
[ 10763 10752 10751 10750 ] final  149.45 input  -60.55 | X-H torsion
[ 11005 11000 10999 10996 ] final  146.79 input  -57.11 | X-H torsion

> <Gold.Protein.ActiveResidues>
 VAL166  LYS551  ARG553  GLY616  TRP617  ASP618  TYR619  PRO620  LYS621  CYS622 
 ASP623  PHE694  ASN695  SER759  ASP760  ASP761  ALA762  ILE779  LEU786  VAL792 
 PHE793  MET794  SER795  GLU796  ALA797  LYS798  CYS799  TRP800  GLU811  SER814 

> <Gold.Protein.RotatedAtoms>
  152.4405  134.5600  159.9891 H   0  0  0  0  0  0  0  0  0  0  0  0  # atno 6907 bound_to 6896
  151.5699  133.3385  159.2995 H   0  0  0  0  0  0  0  0  0  0  0  0  # atno 6908 bound_to 6896
  150.8310  134.7597  159.6918 H   0  0  0  0  0  0  0  0  0  0  0  0  # atno 6909 bound_to 6896
  145.5704  140.9467  143.1399 H   0  0  0  0  0  0  0  0  0  0  0  0  # atno 7974 bound_to 7965
  156.2905  140.2655  156.2365 H   0  0  0  0  0  0  0  0  0  0  0  0  # atno 8008 bound_to 7997
  155.0020  140.0387  157.2382 H   0  0  0  0  0  0  0  0  0  0  0  0  # atno 8009 bound_to 7997
  154.7593  140.2758  155.6232 H   0  0  0  0  0  0  0  0  0  0  0  0  # atno 8010 bound_to 7997
  140.0326  144.5453  150.7495 H   0  0  0  0  0  0  0  0  0  0  0  0  # atno 10167 bound_to 10162
  157.3757  130.7726  149.7153 H   0  0  0  0  0  0  0  0  0  0  0  0  # atno 10718 bound_to 10713
  154.0713  135.2866  155.3307 H   0  0  0  0  0  0  0  0  0  0  0  0  # atno 10763 bound_to 10752
  154.6744  135.5287  153.8184 H   0  0  0  0  0  0  0  0  0  0  0  0  # atno 10764 bound_to 10752
  153.0484  135.6566  154.0895 H   0  0  0  0  0  0  0  0  0  0  0  0  # atno 10765 bound_to 10752
  140.0822  134.9090  157.1518 H   0  0  0  0  0  0  0  0  0  0  0  0  # atno 11005 bound_to 11000
  144.7441  139.7369  143.7299 LP  0  0  0  0  0  0  0  0  0  0  0  0  # atno 17320 bound_to 7965
  146.1788  139.4971  142.9880 LP  0  0  0  0  0  0  0  0  0  0  0  0  # atno 17321 bound_to 7965
  140.7295  143.2673  151.4001 LP  0  0  0  0  0  0  0  0  0  0  0  0  # atno 17342 bound_to 10162
  139.6066  144.1184  152.2255 LP  0  0  0  0  0  0  0  0  0  0  0  0  # atno 17343 bound_to 10162
  155.9765  130.4075  150.3777 LP  0  0  0  0  0  0  0  0  0  0  0  0  # atno 17370 bound_to 10713
  157.1874  131.0407  151.2718 LP  0  0  0  0  0  0  0  0  0  0  0  0  # atno 17371 bound_to 10713
  140.3472  134.2639  155.7203 LP  0  0  0  0  0  0  0  0  0  0  0  0  # atno 17394 bound_to 11000
  141.2050  133.7870  157.0254 LP  0  0  0  0  0  0  0  0  0  0  0  0  # atno 17395 bound_to 11000

$$$$
