AV-unprocessed.smi:146|AV-procd|sdf|1199|dock4
  -GOLD-   2262018363D 1   1.00000     0.00000
 Structure written by MMmdl.
 55 59  0  0  0  0  0  0  0  0  1 V2000
  149.2171  141.4301  154.3720 C   0  0  0  0  0  0  0  0  0  0  0  0
  149.6763  140.2511  155.2439 C   0  0  0  0  0  0  0  0  0  0  0  0
  149.5046  140.6342  156.7282 C   0  0  0  0  0  0  0  0  0  0  0  0
  148.8516  138.9984  154.8906 C   0  0  0  0  0  0  0  0  0  0  0  0
  149.4506  137.8082  155.4791 N   0  0  0  0  0  0  0  0  0  0  0  0
  148.6274  136.7328  155.5724 C   0  0  0  0  0  0  0  0  0  0  0  0
  147.3889  136.8696  156.1179 N   0  0  0  0  0  0  0  0  0  0  0  0
  146.5793  135.8127  156.2306 C   0  0  0  0  0  0  0  0  0  0  0  0
  146.8023  134.5485  155.8674 N   0  0  0  0  0  0  0  0  0  0  0  0
  148.0370  134.4052  155.3062 C   0  0  0  0  0  0  0  0  0  0  0  0
  149.0029  135.4349  155.1218 C   0  0  0  0  0  0  0  0  0  0  0  0
  150.1379  134.9121  154.5134 N   0  0  0  0  0  0  0  0  0  0  0  0
  149.8658  133.6448  154.3642 C   0  0  0  0  0  0  0  0  0  0  0  0
  148.6197  133.2545  154.8019 N   0  0  0  0  0  0  0  0  0  0  0  0
  148.0568  131.9114  154.7685 C   0  0  0  0  0  0  0  0  0  0  0  0
  146.9614  131.6883  153.6976 C   0  0  0  0  0  0  0  0  0  0  0  0
  146.6873  130.1810  153.6031 C   0  0  0  0  0  0  0  0  0  0  0  0
  146.2343  129.6618  154.8371 O   0  0  0  0  0  0  0  0  0  0  0  0
  145.7250  132.6041  153.7316 C   0  0  0  0  0  0  0  0  0  0  0  0
  146.2454  133.4340  152.6715 O   0  0  0  0  0  0  0  0  0  0  0  0
  147.1913  132.3929  152.3502 C   0  0  0  0  0  0  0  0  0  0  0  0
  150.8194  137.6003  155.0238 C   0  0  0  0  0  0  0  0  0  0  0  0
  151.6969  138.8380  155.3249 C   0  0  2  0  0  0  0  0  0  0  0  0
  153.0190  138.7504  154.5718 C   0  0  0  0  0  0  0  0  0  0  0  0
  153.9159  137.9903  155.5359 C   0  0  0  0  0  0  0  0  0  0  0  0
  153.5735  138.5496  156.7909 O   0  0  0  0  0  0  0  0  0  0  0  0
  152.1901  138.8919  156.7878 C   0  0  0  0  0  0  0  0  0  0  0  0
  151.0536  140.0457  154.8930 O   0  0  0  0  0  0  0  0  0  0  0  0
  148.1653  141.6640  154.5408 H   0  0  0  0  0  0  0  0  0  0  0  0
  149.3395  141.2083  153.3112 H   0  0  0  0  0  0  0  0  0  0  0  0
  149.7952  142.3292  154.5874 H   0  0  0  0  0  0  0  0  0  0  0  0
  148.4760  140.9298  156.9369 H   0  0  0  0  0  0  0  0  0  0  0  0
  150.1479  141.4725  156.9971 H   0  0  0  0  0  0  0  0  0  0  0  0
  149.7314  139.8072  157.3994 H   0  0  0  0  0  0  0  0  0  0  0  0
  147.8179  139.1367  155.2052 H   0  0  0  0  0  0  0  0  0  0  0  0
  148.8256  138.8627  153.8084 H   0  0  0  0  0  0  0  0  0  0  0  0
  145.6155  136.0079  156.6773 H   0  0  0  0  0  0  0  0  0  0  0  0
  150.5752  132.9575  153.9280 H   0  0  0  0  0  0  0  0  0  0  0  0
  148.8796  131.2125  154.6141 H   0  0  0  0  0  0  0  0  0  0  0  0
  147.6742  131.6960  155.7665 H   0  0  0  0  0  0  0  0  0  0  0  0
  145.9239  129.9694  152.8538 H   0  0  0  0  0  0  0  0  0  0  0  0
  147.5813  129.6368  153.2966 H   0  0  0  0  0  0  0  0  0  0  0  0
  145.2896  129.6884  154.8461 H   0  0  0  0  0  0  0  0  0  0  0  0
  144.8011  132.1055  153.4333 H   0  0  0  0  0  0  0  0  0  0  0  0
  145.5786  133.1470  154.6642 H   0  0  0  0  0  0  0  0  0  0  0  0
  148.2027  132.7667  152.1984 H   0  0  0  0  0  0  0  0  0  0  0  0
  146.8678  131.8123  151.4846 H   0  0  0  0  0  0  0  0  0  0  0  0
  151.2485  136.7136  155.4924 H   0  0  0  0  0  0  0  0  0  0  0  0
  150.7953  137.4129  153.9491 H   0  0  0  0  0  0  0  0  0  0  0  0
  152.9385  138.2721  153.5953 H   0  0  0  0  0  0  0  0  0  0  0  0
  153.4310  139.7488  154.4164 H   0  0  0  0  0  0  0  0  0  0  0  0
  153.6842  136.9244  155.5318 H   0  0  0  0  0  0  0  0  0  0  0  0
  154.9763  138.1146  155.3156 H   0  0  0  0  0  0  0  0  0  0  0  0
  152.1055  139.8942  157.2064 H   0  0  0  0  0  0  0  0  0  0  0  0
  151.6323  138.2124  157.4330 H   0  0  0  0  0  0  0  0  0  0  0  0
  1  2  1  0  0  0  0
  1 29  1  0  0  0  0
  1 30  1  0  0  0  0
  1 31  1  0  0  0  0
  2 28  1  0  0  0  0
  2  3  1  0  0  0  0
  2  4  1  0  0  0  0
  3 32  1  0  0  0  0
  3 33  1  0  0  0  0
  3 34  1  0  0  0  0
  4  5  1  0  0  0  0
  4 35  1  0  0  0  0
  4 36  1  0  0  0  0
  5  6  1  0  0  0  0
  5 22  1  0  0  0  0
  6 11  1  0  0  0  0
  6  7  2  0  0  0  0
  7  8  1  0  0  0  0
  8  9  2  0  0  0  0
  8 37  1  0  0  0  0
  9 10  1  0  0  0  0
 10 14  1  0  0  0  0
 10 11  2  0  0  0  0
 11 12  1  0  0  0  0
 12 13  2  0  0  0  0
 13 14  1  0  0  0  0
 13 38  1  0  0  0  0
 14 15  1  0  0  0  0
 15 16  1  0  0  0  0
 15 39  1  0  0  0  0
 15 40  1  0  0  0  0
 16 21  1  0  0  0  0
 16 17  1  0  0  0  0
 16 19  1  0  0  0  0
 17 18  1  0  0  0  0
 17 41  1  0  0  0  0
 17 42  1  0  0  0  0
 18 43  1  0  0  0  0
 19 20  1  0  0  0  0
 19 44  1  0  0  0  0
 19 45  1  0  0  0  0
 20 21  1  0  0  0  0
 21 46  1  0  0  0  0
 21 47  1  0  0  0  0
 22 23  1  0  0  0  0
 22 48  1  0  0  0  0
 22 49  1  0  0  0  0
 23 27  1  0  0  0  0
 23 24  1  0  0  0  0
 23 28  1  0  0  0  0
 24 25  1  0  0  0  0
 24 50  1  0  0  0  0
 24 51  1  0  0  0  0
 25 26  1  0  0  0  0
 25 52  1  0  0  0  0
 25 53  1  0  0  0  0
 26 27  1  0  0  0  0
 27 54  1  0  0  0  0
 27 55  1  0  0  0  0
M  END
> <s_m_source_file>
AV-unprocessed.smi

> <i_m_source_file_index>
146

> <i_lp_mmshare_version>
43012

> <i_f3d_flags>
0

> <s_epik_input>
W0NIMl0xT1tDSDJdW0NIMl1bQ0BAXTEyW0NIMl1OKFtDSDJdQyhPMikoW0NIM10pW0NIM10pYyhuW2NIXW4zKWMoYzM0KW5bY0hdbjRbQ0gyXUM1KFtDSDJdW09IXSlbQ0gyXU9bQ0gyXTU=

> <s_epik_cmdline>
J2VwaWtfcHl0aG9uJywgJy1waCcsICc3LjAnLCAnLXRuJywgJzgnLCAnLW1hJywgJzIwMCcsICctbWV0YWxfYmluZGluZycsICctaW1hZScsICc8aW5maWxlLm1hZT4nLCAnLW9tYWUnLCAnPG91dGZpbGUubWFlPic=

> <r_lp_tautomer_probability>
1

> <r_epik_Ionization_Penalty>
0.00353822

> <r_epik_Ionization_Penalty_Charging>
0

> <r_epik_Ionization_Penalty_Neutral>
0.00353822

> <r_epik_State_Penalty>
0.0023805

> <r_epik_Charging_Adjusted_Penalty>
0.0023805

> <i_epik_Tot_Q>
0

> <i_epik_Tot_abs_Q>
0

> <r_epik_Metal_State_Penalty>
-0

> <b_epik_Metal_Only>
0

> <s_lp_Force_Field>
OPLS_2005

> <r_lp_Energy>
56.8345

> <b_lp_Chiralities_Consistent>
1

> <s_lp_Variant>
AV-unprocessed.smi:146-1

> <Gold.Version>
5.8.1

> <Gold.Id.Protein>
6NUR|6NUR_protein|mol2

> <Gold.PLP.Fitness>
37.1743

> <Gold.PLP.PLP>
-29.0285

> <Gold.PLP.part.hbond>
-3.0000

> <Gold.PLP.part.metal>
0.0000

> <Gold.PLP.part.buried>
0.8605

> <Gold.PLP.part.nonpolar>
-27.5996

> <Gold.PLP.part.repulsive>
1.1871

> <Gold.PLP.ligand.clash>
0.0000

> <Gold.PLP.ligand.torsion>
0.5486

> <Gold.PLP.Chemscore.Hbond>
2.8800

> <Gold.PLP.Chemscore.CHOScore>
0.0000

> <Gold.PLP.Chemscore.Metal>
0.0000

> <Gold.Chemscore.Hbonds>
donor molecule, donor type, donor heavy atom, donor atom, acceptor molecule, acceptor atom, score
      L1  H    18    43       P1 10956  1.00
      P1  H  7989  7998       L1    28  1.00
      P1  H  7997  8009       L1    26  0.79

> <Gold.PLP.Chemscore.Internal.Correction>
0.6031

> <Gold.Rescore>
     Score         DG    S(hbond)    S(metal)    S(lipo)     H(rot)  DE(clash)    DE(int)     intcor
     13.31     -16.83       2.31        0.00      84.44       2.44       1.59       1.93       ----

> <Gold.Chemscore.Fitness>
13.3094

> <Gold.Chemscore.DG>
-16.8295

> <Gold.Chemscore.ZeroCoef>
-5.4800

> <Gold.Chemscore.Hbond>
2.3083

> <Gold.Chemscore.Metal>
0.0000

> <Gold.Chemscore.Lipo>
84.4448

> <Gold.Chemscore.Internal_Hbond>
0.0000

> <Gold.Chemscore.DEClash>
1.5871

> <Gold.Chemscore.DEInternal>
1.9330

> <Gold.Chemscore.Rot>
2.4376

> <Gold.Chemscore.Internal.Correction>
   9.000000E+99

> <Gold.Chemscore.Hbonds>
donor molecule, donor type, donor heavy atom, donor atom, acceptor molecule, acceptor atom, score
      L1  H    18    43       P1 10956  0.92
      P1  H  7989  7998       L1    28  0.92
      P1  H  7997  8009       L1    26  0.08

> <Gold.Chemscore.Hbond.Weighted>
-7.7097

> <Gold.Chemscore.Metal.Weighted>
-0.0000

> <Gold.Chemscore.Lipo.Weighted>
-9.8800

> <Gold.Chemscore.Internal_Hbond.Weighted>
0.0000

> <Gold.Chemscore.DEClash.Weighted>
1.5871

> <Gold.Chemscore.DEInternal.Weighted>
1.9330

> <Gold.Chemscore.Rot.Weighted>
6.2402

> <Gold.Chemscore.Internal.Correction.Weighted>
   9.000000E+99

> <Gold.Protein.RotatedTorsions>
[ 6907 6896 6895 6894 ] final -113.38 input  -60.11 | X-H torsion
[ 7974 7965 7964 7962 ] final  107.05 input  175.53 | X-H torsion
[ 8008 7997 7996 7995 ] final -179.65 input   59.86 | X-H torsion
[ 10167 10162 10161 10158 ] final   70.25 input  -65.29 | X-H torsion
[ 10718 10713 10712 10709 ] final  123.17 input   66.30 | X-H torsion
[ 10763 10752 10751 10750 ] final   89.88 input  -60.55 | X-H torsion
[ 11005 11000 10999 10996 ] final  -74.00 input  -57.11 | X-H torsion

> <Gold.Protein.ActiveResidues>
 VAL166  LYS551  ARG553  GLY616  TRP617  ASP618  TYR619  PRO620  LYS621  CYS622 
 ASP623  PHE694  ASN695  SER759  ASP760  ASP761  ALA762  ILE779  LEU786  VAL792 
 PHE793  MET794  SER795  GLU796  ALA797  LYS798  CYS799  TRP800  GLU811  SER814 

> <Gold.Protein.RotatedAtoms>
  150.7825  133.8954  159.3325 H   0  0  0  0  0  0  0  0  0  0  0  0  # atno 6907 bound_to 6896
  151.6813  135.0959  160.0226 H   0  0  0  0  0  0  0  0  0  0  0  0  # atno 6908 bound_to 6896
  152.3880  133.6599  159.6250 H   0  0  0  0  0  0  0  0  0  0  0  0  # atno 6909 bound_to 6896
  145.2986  139.2576  143.3826 H   0  0  0  0  0  0  0  0  0  0  0  0  # atno 7974 bound_to 7965
  156.0329  140.1286  157.0238 H   0  0  0  0  0  0  0  0  0  0  0  0  # atno 8008 bound_to 7997
  154.4358  140.1046  156.6196 H   0  0  0  0  0  0  0  0  0  0  0  0  # atno 8009 bound_to 7997
  155.5780  140.3467  155.4535 H   0  0  0  0  0  0  0  0  0  0  0  0  # atno 8010 bound_to 7997
  140.0590  144.5249  150.7308 H   0  0  0  0  0  0  0  0  0  0  0  0  # atno 10167 bound_to 10162
  157.5686  131.1085  150.8409 H   0  0  0  0  0  0  0  0  0  0  0  0  # atno 10718 bound_to 10713
  153.1917  135.4454  155.0157 H   0  0  0  0  0  0  0  0  0  0  0  0  # atno 10763 bound_to 10752
  154.8094  135.3288  154.7347 H   0  0  0  0  0  0  0  0  0  0  0  0  # atno 10764 bound_to 10752
  153.7801  135.6978  153.4945 H   0  0  0  0  0  0  0  0  0  0  0  0  # atno 10765 bound_to 10752
  141.1630  133.6897  156.7297 H   0  0  0  0  0  0  0  0  0  0  0  0  # atno 11005 bound_to 11000
  146.3160  140.3495  142.8655 LP  0  0  0  0  0  0  0  0  0  0  0  0  # atno 17320 bound_to 7965
  144.9112  140.7759  143.5806 LP  0  0  0  0  0  0  0  0  0  0  0  0  # atno 17321 bound_to 7965
  140.7181  143.2563  151.4369 LP  0  0  0  0  0  0  0  0  0  0  0  0  # atno 17342 bound_to 10162
  139.5906  144.1508  152.2083 LP  0  0  0  0  0  0  0  0  0  0  0  0  # atno 17343 bound_to 10162
  156.8887  130.5205  149.5287 LP  0  0  0  0  0  0  0  0  0  0  0  0  # atno 17370 bound_to 10713
  156.0732  130.5760  150.9424 LP  0  0  0  0  0  0  0  0  0  0  0  0  # atno 17371 bound_to 10713
  140.2754  134.8359  157.3885 LP  0  0  0  0  0  0  0  0  0  0  0  0  # atno 17394 bound_to 11000
  140.1482  134.4883  155.7980 LP  0  0  0  0  0  0  0  0  0  0  0  0  # atno 17395 bound_to 11000

$$$$
