AV-unprocessed.smi:1843|AV-procd|sdf|7502|dock6
  -GOLD-   22720 9203D 1   1.00000     0.00000
 Structure written by MMmdl.
 37 39  0  0  0  0  0  0  0  0  1 V2000
  144.7003  136.5965  153.2184 O   0  0  0  0  0  0  0  0  0  0  0  0
  145.8778  136.5566  152.8607 C   0  0  0  0  0  0  0  0  0  0  0  0
  146.7782  137.5398  153.0352 N   0  0  0  0  0  0  0  0  0  0  0  0
  146.5910  138.8048  153.6526 C   0  0  0  0  0  0  0  0  0  0  0  0
  146.0414  138.9685  154.8638 N   0  0  0  0  0  0  0  0  0  0  0  0
  145.9787  140.3065  155.2274 N   0  0  0  0  0  0  0  0  0  0  0  0
  146.4817  141.1134  154.2857 C   0  0  0  0  0  0  0  0  0  0  0  0
  146.5274  142.5961  154.4490 C   0  0  0  0  0  0  0  0  0  0  0  0
  145.2903  143.3932  154.8017 C   0  0  0  0  0  0  0  0  0  0  0  0
  145.8910  143.5065  153.4240 C   0  0  0  0  0  0  0  0  0  0  0  0
  147.0787  140.2874  152.8498 S   0  0  0  0  0  0  0  0  0  0  0  0
  146.4245  135.5035  152.2362 N   0  0  0  0  0  0  0  0  0  0  0  0
  145.7250  134.2644  151.9010 C   0  0  2  0  0  0  0  0  0  0  0  0
  146.6842  133.2732  151.2142 C   0  0  0  0  0  0  0  0  0  0  0  0
  145.9682  131.9570  150.8712 C   0  0  0  0  0  0  0  0  0  0  0  0
  144.7245  132.2060  150.0031 C   0  0  0  0  0  0  0  0  0  0  0  0
  143.7624  133.2074  150.6686 C   0  0  0  0  0  0  0  0  0  0  0  0
  144.4624  134.5283  151.0439 C   0  0  2  0  0  0  0  0  0  0  0  0
  144.7941  135.2282  149.8585 O   0  0  0  0  0  0  0  0  0  0  0  0
  147.7094  137.3613  152.6894 H   0  0  0  0  0  0  0  0  0  0  0  0
  147.4736  142.9053  154.8887 H   0  0  0  0  0  0  0  0  0  0  0  0
  144.3429  142.8649  154.8881 H   0  0  0  0  0  0  0  0  0  0  0  0
  145.4147  144.2388  155.4749 H   0  0  0  0  0  0  0  0  0  0  0  0
  146.4150  144.4275  153.1767 H   0  0  0  0  0  0  0  0  0  0  0  0
  145.3504  143.0423  152.6015 H   0  0  0  0  0  0  0  0  0  0  0  0
  147.3985  135.5564  151.9764 H   0  0  0  0  0  0  0  0  0  0  0  0
  145.4039  133.8006  152.8361 H   0  0  0  0  0  0  0  0  0  0  0  0
  147.0927  133.7145  150.3040 H   0  0  0  0  0  0  0  0  0  0  0  0
  147.5349  133.0660  151.8643 H   0  0  0  0  0  0  0  0  0  0  0  0
  146.6538  131.2854  150.3537 H   0  0  0  0  0  0  0  0  0  0  0  0
  145.6753  131.4505  151.7919 H   0  0  0  0  0  0  0  0  0  0  0  0
  145.0314  132.5836  149.0270 H   0  0  0  0  0  0  0  0  0  0  0  0
  144.2074  131.2643  149.8178 H   0  0  0  0  0  0  0  0  0  0  0  0
  142.9127  133.4023  150.0132 H   0  0  0  0  0  0  0  0  0  0  0  0
  143.3502  132.7551  151.5716 H   0  0  0  0  0  0  0  0  0  0  0  0
  143.7619  135.1507  151.6022 H   0  0  0  0  0  0  0  0  0  0  0  0
  145.3056  134.6550  149.3083 H   0  0  0  0  0  0  0  0  0  0  0  0
  1  2  2  0  0  0  0
  2  3  1  0  0  0  0
  2 12  1  0  0  0  0
  3  4  1  0  0  0  0
  3 20  1  0  0  0  0
  4 11  1  0  0  0  0
  4  5  2  0  0  0  0
  5  6  1  0  0  0  0
  6  7  2  0  0  0  0
  7  8  1  0  0  0  0
  7 11  1  0  0  0  0
  8 10  1  0  0  0  0
  8  9  1  0  0  0  0
  8 21  1  0  0  0  0
  9 10  1  0  0  0  0
  9 22  1  0  0  0  0
  9 23  1  0  0  0  0
 10 24  1  0  0  0  0
 10 25  1  0  0  0  0
 12 13  1  0  0  0  0
 12 26  1  0  0  0  0
 13 18  1  0  0  0  0
 13 14  1  0  0  0  0
 13 27  1  0  0  0  0
 14 15  1  0  0  0  0
 14 28  1  0  0  0  0
 14 29  1  0  0  0  0
 15 16  1  0  0  0  0
 15 30  1  0  0  0  0
 15 31  1  0  0  0  0
 16 17  1  0  0  0  0
 16 32  1  0  0  0  0
 16 33  1  0  0  0  0
 17 18  1  0  0  0  0
 17 34  1  0  0  0  0
 17 35  1  0  0  0  0
 18 19  1  0  0  0  0
 18 36  1  0  0  0  0
 19 37  1  0  0  0  0
M  END
> <s_m_source_file>
AV-unprocessed.smi

> <i_m_source_file_index>
1843

> <i_lp_mmshare_version>
43012

> <i_f3d_flags>
0

> <s_epik_input>
W09IXVtDQEBIXTFbQ0gyXVtDSDJdW0NIMl1bQ0gyXVtDQEhdMVtOSF1DKD1PKVtOSF1jMm5uYyhzMilbQ0hdM1tDSDJdW0NIMl0z

> <s_epik_cmdline>
J2VwaWtfcHl0aG9uJywgJy1waCcsICc3LjAnLCAnLXRuJywgJzgnLCAnLW1hJywgJzIwMCcsICctbWV0YWxfYmluZGluZycsICctaW1hZScsICc8aW5maWxlLm1hZT4nLCAnLW9tYWUnLCAnPG91dGZpbGUubWFlPic=

> <r_lp_tautomer_probability>
1

> <r_epik_Ionization_Penalty>
0.000257313

> <r_epik_Ionization_Penalty_Charging>
0

> <r_epik_Ionization_Penalty_Neutral>
0.000257313

> <r_epik_State_Penalty>
-0

> <r_epik_Charging_Adjusted_Penalty>
0

> <i_epik_Tot_Q>
0

> <i_epik_Tot_abs_Q>
0

> <r_epik_Metal_State_Penalty>
0.147479

> <b_epik_Metal_Only>
0

> <s_lp_Force_Field>
OPLS_2005

> <r_lp_Energy>
10.7354

> <b_lp_Chiralities_Consistent>
1

> <s_lp_Variant>
AV-unprocessed.smi:1843-3

> <Gold.Version>
5.8.1

> <Gold.Id.Protein>
6NUR|6NUR_protein|mol2

> <Gold.PLP.Fitness>
41.4274

> <Gold.PLP.PLP>
-34.0796

> <Gold.PLP.part.hbond>
-3.0000

> <Gold.PLP.part.metal>
0.0000

> <Gold.PLP.part.buried>
-4.1905

> <Gold.PLP.part.nonpolar>
-26.9613

> <Gold.PLP.part.repulsive>
0.2981

> <Gold.PLP.ligand.clash>
0.0000

> <Gold.PLP.ligand.torsion>
0.5241

> <Gold.PLP.Chemscore.Hbond>
2.7520

> <Gold.PLP.Chemscore.CHOScore>
0.0000

> <Gold.PLP.Chemscore.Metal>
0.0000

> <Gold.Chemscore.Hbonds>
donor molecule, donor type, donor heavy atom, donor atom, acceptor molecule, acceptor atom, score
      L1  H     3    20       P1  7948  1.00
      L1  H    12    26       P1  7948  1.00
      L1  H    19    37       P1  7921  0.70

> <Gold.PLP.Chemscore.Internal.Correction>
0.1400

> <Gold.Rescore>
     Score         DG    S(hbond)    S(metal)    S(lipo)     H(rot)  DE(clash)    DE(int)     intcor
     18.06     -19.04       2.83        0.00      73.06       1.74       0.42       0.55       ----

> <Gold.Chemscore.Fitness>
18.0627

> <Gold.Chemscore.DG>
-19.0357

> <Gold.Chemscore.ZeroCoef>
-5.4800

> <Gold.Chemscore.Hbond>
2.8333

> <Gold.Chemscore.Metal>
0.0000

> <Gold.Chemscore.Lipo>
73.0587

> <Gold.Chemscore.Internal_Hbond>
0.0000

> <Gold.Chemscore.DEClash>
0.4212

> <Gold.Chemscore.DEInternal>
0.5519

> <Gold.Chemscore.Rot>
1.7404

> <Gold.Chemscore.Internal.Correction>
   9.000000E+99

> <Gold.Chemscore.Hbonds>
donor molecule, donor type, donor heavy atom, donor atom, acceptor molecule, acceptor atom, score
      L1  H     3    20       P1  7948  0.95
      L1  H    12    26       P1  7948  0.99
      L1  H    19    37       P1  7921  0.70

> <Gold.Chemscore.Hbond.Weighted>
-9.4633

> <Gold.Chemscore.Metal.Weighted>
-0.0000

> <Gold.Chemscore.Lipo.Weighted>
-8.5479

> <Gold.Chemscore.Internal_Hbond.Weighted>
0.0000

> <Gold.Chemscore.DEClash.Weighted>
0.4212

> <Gold.Chemscore.DEInternal.Weighted>
0.5519

> <Gold.Chemscore.Rot.Weighted>
4.4555

> <Gold.Chemscore.Internal.Correction.Weighted>
   9.000000E+99

> <Gold.Protein.RotatedTorsions>
[ 6907 6896 6895 6894 ] final  -99.38 input  -60.11 | X-H torsion
[ 7974 7965 7964 7962 ] final  -20.66 input  175.53 | X-H torsion
[ 8008 7997 7996 7995 ] final  -97.80 input   59.86 | X-H torsion
[ 10167 10162 10161 10158 ] final -117.60 input  -65.29 | X-H torsion
[ 10718 10713 10712 10709 ] final  -12.79 input   66.30 | X-H torsion
[ 10763 10752 10751 10750 ] final   75.89 input  -60.55 | X-H torsion
[ 11005 11000 10999 10996 ] final  112.81 input  -57.11 | X-H torsion

> <Gold.Protein.ActiveResidues>
 VAL166  LYS551  ARG553  GLY616  TRP617  ASP618  TYR619  PRO620  LYS621  CYS622 
 ASP623  PHE694  ASN695  SER759  ASP760  ASP761  ALA762  ILE779  LEU786  VAL792 
 PHE793  MET794  SER795  GLU796  ALA797  LYS798  CYS799  TRP800  GLU811  SER814 

> <Gold.Protein.RotatedAtoms>
  150.7078  134.1049  159.3978 H   0  0  0  0  0  0  0  0  0  0  0  0  # atno 6907 bound_to 6896
  151.9035  135.0366  160.0518 H   0  0  0  0  0  0  0  0  0  0  0  0  # atno 6908 bound_to 6896
  152.2394  133.5088  159.5298 H   0  0  0  0  0  0  0  0  0  0  0  0  # atno 6909 bound_to 6896
  146.1776  140.4233  142.8507 H   0  0  0  0  0  0  0  0  0  0  0  0  # atno 7974 bound_to 7965
  154.7926  140.0460  157.1213 H   0  0  0  0  0  0  0  0  0  0  0  0  # atno 8008 bound_to 7997
  154.9573  140.3073  155.5027 H   0  0  0  0  0  0  0  0  0  0  0  0  # atno 8009 bound_to 7997
  156.2952  140.2277  156.4655 H   0  0  0  0  0  0  0  0  0  0  0  0  # atno 8010 bound_to 7997
  140.0666  143.4917  152.2003 H   0  0  0  0  0  0  0  0  0  0  0  0  # atno 10167 bound_to 10162
  156.6395  130.4924  149.6100 H   0  0  0  0  0  0  0  0  0  0  0  0  # atno 10718 bound_to 10713
  153.0686  135.4972  154.8256 H   0  0  0  0  0  0  0  0  0  0  0  0  # atno 10763 bound_to 10752
  154.6990  135.2998  154.9371 H   0  0  0  0  0  0  0  0  0  0  0  0  # atno 10764 bound_to 10752
  154.0101  135.6755  153.4817 H   0  0  0  0  0  0  0  0  0  0  0  0  # atno 10765 bound_to 10752
  139.8936  134.9537  156.6642 H   0  0  0  0  0  0  0  0  0  0  0  0  # atno 11005 bound_to 11000
  144.8261  140.6631  143.6321 LP  0  0  0  0  0  0  0  0  0  0  0  0  # atno 17320 bound_to 7965
  145.4168  139.1570  143.4096 LP  0  0  0  0  0  0  0  0  0  0  0  0  # atno 17321 bound_to 7965
  139.5861  144.7531  151.3517 LP  0  0  0  0  0  0  0  0  0  0  0  0  # atno 17342 bound_to 10162
  140.7146  143.7301  150.7630 LP  0  0  0  0  0  0  0  0  0  0  0  0  # atno 17343 bound_to 10162
  156.2170  130.6714  151.1329 LP  0  0  0  0  0  0  0  0  0  0  0  0  # atno 17370 bound_to 10713
  157.7175  131.0701  150.6269 LP  0  0  0  0  0  0  0  0  0  0  0  0  # atno 17371 bound_to 10713
  140.7423  133.8967  155.8287 LP  0  0  0  0  0  0  0  0  0  0  0  0  # atno 17394 bound_to 11000
  141.0067  134.1076  157.4263 LP  0  0  0  0  0  0  0  0  0  0  0  0  # atno 17395 bound_to 11000

$$$$
