AV-unprocessed.smi:1445|AV-procd|sdf|5888|dock10
  -GOLD-   22720 5573D 1   1.00000     0.00000
 Structure written by MMmdl.
 46 47  0  0  0  0  0  0  0  0  2 V2000
  151.8215  138.3976  154.3182 C   0  0  0  0  0  0  0  0  0  0  0  0
  150.4235  138.3143  154.0638 O   0  0  0  0  0  0  0  0  0  0  0  0
  149.6473  139.4395  154.2679 C   0  0  0  0  0  0  0  0  0  0  0  0
  150.2417  140.5523  154.7669 N   0  0  0  0  0  0  0  0  0  0  0  0
  149.4853  141.6516  154.9639 C   0  0  0  0  0  0  0  0  0  0  0  0
  148.1100  141.7032  154.6712 C   0  0  0  0  0  0  0  0  0  0  0  0
  147.4913  140.5505  154.1535 C   0  0  0  0  0  0  0  0  0  0  0  0
  148.2689  139.3838  153.9556 C   0  0  0  0  0  0  0  0  0  0  0  0
  147.7482  138.1735  153.4215 N   0  0  0  0  0  0  0  0  0  0  0  0
  146.4764  137.7406  153.4210 C   0  0  0  0  0  0  0  0  0  0  0  0
  145.5174  138.3426  153.9039 O   0  0  0  0  0  0  0  0  0  0  0  0
  146.3739  136.5364  152.8413 N   0  0  0  0  0  0  0  0  0  0  0  0
  145.1336  135.7834  152.6962 C   0  0  0  0  0  0  0  0  0  0  0  0
  145.2376  134.3931  153.3527 C   0  0  0  0  0  0  0  0  0  0  0  0
  145.5388  133.3221  152.3695 N   0  3  2  0  0  0  0  0  0  0  0  0
  144.4479  133.1530  151.3747 C   0  0  0  0  0  0  0  0  0  0  0  0
  144.8407  132.1405  150.2876 C   0  0  0  0  0  0  0  0  0  0  0  0
  145.2225  130.7909  150.9076 C   0  0  0  0  0  0  0  0  0  0  0  0
  146.3318  130.9813  151.9554 C   0  0  2  0  0  0  0  0  0  0  0  0
  146.7151  129.6487  152.6144 C   0  0  0  0  0  0  0  0  0  0  0  0
  145.9031  132.0267  153.0052 C   0  0  0  0  0  0  0  0  0  0  0  0
  152.2839  137.4332  154.1086 H   0  0  0  0  0  0  0  0  0  0  0  0
  152.0222  138.6402  155.3627 H   0  0  0  0  0  0  0  0  0  0  0  0
  152.3009  139.1399  153.6785 H   0  0  0  0  0  0  0  0  0  0  0  0
  149.9930  142.5182  155.3608 H   0  0  0  0  0  0  0  0  0  0  0  0
  147.5439  142.6082  154.8349 H   0  0  0  0  0  0  0  0  0  0  0  0
  146.4416  140.5877  153.9061 H   0  0  0  0  0  0  0  0  0  0  0  0
  148.4392  137.5281  153.0673 H   0  0  0  0  0  0  0  0  0  0  0  0
  147.2135  136.1122  152.4737 H   0  0  0  0  0  0  0  0  0  0  0  0
  144.3029  136.3476  153.1239 H   0  0  0  0  0  0  0  0  0  0  0  0
  144.9337  135.6973  151.6290 H   0  0  0  0  0  0  0  0  0  0  0  0
  145.9888  134.3923  154.1441 H   0  0  0  0  0  0  0  0  0  0  0  0
  144.2845  134.1709  153.8350 H   0  0  0  0  0  0  0  0  0  0  0  0
  143.5381  132.8281  151.8824 H   0  0  0  0  0  0  0  0  0  0  0  0
  144.2237  134.1109  150.9034 H   0  0  0  0  0  0  0  0  0  0  0  0
  144.0166  132.0083  149.5859 H   0  0  0  0  0  0  0  0  0  0  0  0
  145.6799  132.5297  149.7094 H   0  0  0  0  0  0  0  0  0  0  0  0
  144.3446  130.3381  151.3711 H   0  0  0  0  0  0  0  0  0  0  0  0
  145.5521  130.1041  150.1271 H   0  0  0  0  0  0  0  0  0  0  0  0
  147.2180  131.3607  151.4439 H   0  0  0  0  0  0  0  0  0  0  0  0
  145.8721  129.2159  153.1543 H   0  0  0  0  0  0  0  0  0  0  0  0
  147.5320  129.7820  153.3243 H   0  0  0  0  0  0  0  0  0  0  0  0
  147.0419  128.9219  151.8700 H   0  0  0  0  0  0  0  0  0  0  0  0
  146.7210  132.1725  153.7094 H   0  0  0  0  0  0  0  0  0  0  0  0
  145.0544  131.6559  153.5828 H   0  0  0  0  0  0  0  0  0  0  0  0
  146.3461  133.6339  151.8485 H   0  0  0  0  0  0  0  0  0  0  0  0
  1  2  1  0  0  0  0
  1 22  1  0  0  0  0
  1 23  1  0  0  0  0
  1 24  1  0  0  0  0
  2  3  1  0  0  0  0
  3  8  1  0  0  0  0
  3  4  2  0  0  0  0
  4  5  1  0  0  0  0
  5  6  2  0  0  0  0
  5 25  1  0  0  0  0
  6  7  1  0  0  0  0
  6 26  1  0  0  0  0
  7  8  2  0  0  0  0
  7 27  1  0  0  0  0
  8  9  1  0  0  0  0
  9 10  1  0  0  0  0
  9 28  1  0  0  0  0
 10 11  2  0  0  0  0
 10 12  1  0  0  0  0
 12 13  1  0  0  0  0
 12 29  1  0  0  0  0
 13 14  1  0  0  0  0
 13 30  1  0  0  0  0
 13 31  1  0  0  0  0
 14 15  1  0  0  0  0
 14 32  1  0  0  0  0
 14 33  1  0  0  0  0
 15 21  1  0  0  0  0
 15 16  1  0  0  0  0
 15 46  1  0  0  0  0
 16 17  1  0  0  0  0
 16 34  1  0  0  0  0
 16 35  1  0  0  0  0
 17 18  1  0  0  0  0
 17 36  1  0  0  0  0
 17 37  1  0  0  0  0
 18 19  1  0  0  0  0
 18 38  1  0  0  0  0
 18 39  1  0  0  0  0
 19 20  1  0  0  0  0
 19 21  1  0  0  0  0
 19 40  1  0  0  0  0
 20 41  1  0  0  0  0
 20 42  1  0  0  0  0
 20 43  1  0  0  0  0
 21 44  1  0  0  0  0
 21 45  1  0  0  0  0
M  CHG  1  15   1
M  END
> <s_m_source_file>
AV-unprocessed.smi

> <i_m_source_file_index>
1445

> <i_lp_mmshare_version>
43012

> <i_f3d_flags>
0

> <s_epik_input>
W0NIM11PYzFuW2NIXVtjSF1bY0hdYzFbTkhdQyg9TylbTkhdW0NIMl1bQ0gyXU4yW0NIMl1bQ0gyXVtDSDJdW0NAQEhdKFtDSDNdKVtDSDJdMg==

> <s_epik_cmdline>
J2VwaWtfcHl0aG9uJywgJy1waCcsICc3LjAnLCAnLXRuJywgJzgnLCAnLW1hJywgJzIwMCcsICctbWV0YWxfYmluZGluZycsICctaW1hZScsICc8aW5maWxlLm1hZT4nLCAnLW9tYWUnLCAnPG91dGZpbGUubWFlPic=

> <r_lp_tautomer_probability>
1

> <r_epik_Ionization_Penalty>
0.00179544

> <r_epik_Ionization_Penalty_Charging>
0.00171832

> <r_epik_Ionization_Penalty_Neutral>
7.71118e-05

> <r_epik_State_Penalty>
0.0011618

> <r_epik_Charging_Adjusted_Penalty>
0.00288012

> <i_epik_Tot_Q>
1

> <i_epik_Tot_abs_Q>
1

> <r_epik_Metal_State_Penalty>
-0

> <b_epik_Metal_Only>
0

> <s_lp_Force_Field>
OPLS_2005

> <r_lp_Energy>
18.8635

> <b_lp_Chiralities_Consistent>
1

> <s_lp_Variant>
AV-unprocessed.smi:1445-4

> <Gold.Version>
5.8.1

> <Gold.Id.Protein>
6NUR|6NUR_protein|mol2

> <Gold.PLP.Fitness>
44.3078

> <Gold.PLP.PLP>
-33.7401

> <Gold.PLP.part.hbond>
-3.0000

> <Gold.PLP.part.metal>
0.0000

> <Gold.PLP.part.buried>
-5.1188

> <Gold.PLP.part.nonpolar>
-26.6311

> <Gold.PLP.part.repulsive>
1.1130

> <Gold.PLP.ligand.clash>
0.0000

> <Gold.PLP.ligand.torsion>
0.4289

> <Gold.PLP.Chemscore.Hbond>
2.9600

> <Gold.PLP.Chemscore.CHOScore>
0.8406

> <Gold.PLP.Chemscore.Metal>
0.0000

> <Gold.Chemscore.Hbonds>
donor molecule, donor type, donor heavy atom, donor atom, acceptor molecule, acceptor atom, score
      L1  H     9    28       P1  7948  1.00
      L1  H    12    29       P1  7948  1.00
      P1  H  7989  7998       L1     4  0.93
      L1  C     5    25       P1  8028  0.86

> <Gold.PLP.Chemscore.Internal.Correction>
0.0239

> <Gold.Rescore>
     Score         DG    S(hbond)    S(metal)    S(lipo)     H(rot)  DE(clash)    DE(int)     intcor
     17.00     -18.94       2.34        0.00      85.73       1.71       0.34       1.60       ----

> <Gold.Chemscore.Fitness>
16.9963

> <Gold.Chemscore.DG>
-18.9371

> <Gold.Chemscore.ZeroCoef>
-5.4800

> <Gold.Chemscore.Hbond>
2.3370

> <Gold.Chemscore.Metal>
0.0000

> <Gold.Chemscore.Lipo>
85.7348

> <Gold.Chemscore.Internal_Hbond>
0.0000

> <Gold.Chemscore.DEClash>
0.3447

> <Gold.Chemscore.DEInternal>
1.5961

> <Gold.Chemscore.Rot>
1.7107

> <Gold.Chemscore.Internal.Correction>
   9.000000E+99

> <Gold.Chemscore.Hbonds>
donor molecule, donor type, donor heavy atom, donor atom, acceptor molecule, acceptor atom, score
      L1  H     9    28       P1  7948  0.95
      L1  H    12    29       P1  7948  0.96
      P1  H  7989  7998       L1     4  0.25

> <Gold.Chemscore.Hbond.Weighted>
-7.8056

> <Gold.Chemscore.Metal.Weighted>
-0.0000

> <Gold.Chemscore.Lipo.Weighted>
-10.0310

> <Gold.Chemscore.Internal_Hbond.Weighted>
0.0000

> <Gold.Chemscore.DEClash.Weighted>
0.3447

> <Gold.Chemscore.DEInternal.Weighted>
1.5961

> <Gold.Chemscore.Rot.Weighted>
4.3794

> <Gold.Chemscore.Internal.Correction.Weighted>
   9.000000E+99

> <Gold.Protein.RotatedTorsions>
[ 6907 6896 6895 6894 ] final   39.26 input  -60.11 | X-H torsion
[ 7974 7965 7964 7962 ] final  -19.49 input  175.53 | X-H torsion
[ 8008 7997 7996 7995 ] final -124.51 input   59.86 | X-H torsion
[ 10167 10162 10161 10158 ] final -121.41 input  -65.29 | X-H torsion
[ 10718 10713 10712 10709 ] final  -63.77 input   66.30 | X-H torsion
[ 10763 10752 10751 10750 ] final  -42.85 input  -60.55 | X-H torsion
[ 11005 11000 10999 10996 ] final -153.55 input  -57.11 | X-H torsion

> <Gold.Protein.ActiveResidues>
 VAL166  LYS551  ARG553  GLY616  TRP617  ASP618  TYR619  PRO620  LYS621  CYS622 
 ASP623  PHE694  ASN695  SER759  ASP760  ASP761  ALA762  ILE779  LEU786  VAL792 
 PHE793  MET794  SER795  GLU796  ALA797  LYS798  CYS799  TRP800  GLU811  SER814 

> <Gold.Protein.RotatedAtoms>
  152.1672  134.8864  160.0536 H   0  0  0  0  0  0  0  0  0  0  0  0  # atno 6907 bound_to 6896
  151.9837  133.3762  159.4126 H   0  0  0  0  0  0  0  0  0  0  0  0  # atno 6908 bound_to 6896
  150.6896  134.3933  159.5130 H   0  0  0  0  0  0  0  0  0  0  0  0  # atno 6909 bound_to 6896
  146.1838  140.4070  142.8484 H   0  0  0  0  0  0  0  0  0  0  0  0  # atno 7974 bound_to 7965
  155.1981  140.0415  157.2912 H   0  0  0  0  0  0  0  0  0  0  0  0  # atno 8008 bound_to 7997
  154.6093  140.2472  155.7661 H   0  0  0  0  0  0  0  0  0  0  0  0  # atno 8009 bound_to 7997
  156.2369  140.2918  156.0347 H   0  0  0  0  0  0  0  0  0  0  0  0  # atno 8010 bound_to 7997
  140.0254  143.5302  152.2201 H   0  0  0  0  0  0  0  0  0  0  0  0  # atno 10167 bound_to 10162
  156.0770  130.4225  150.1325 H   0  0  0  0  0  0  0  0  0  0  0  0  # atno 10718 bound_to 10713
  153.9859  135.6711  153.4752 H   0  0  0  0  0  0  0  0  0  0  0  0  # atno 10763 bound_to 10752
  153.0727  135.4965  154.8335 H   0  0  0  0  0  0  0  0  0  0  0  0  # atno 10764 bound_to 10752
  154.7137  135.3102  154.9119 H   0  0  0  0  0  0  0  0  0  0  0  0  # atno 10765 bound_to 10752
  140.7070  134.3875  157.5203 H   0  0  0  0  0  0  0  0  0  0  0  0  # atno 11005 bound_to 11000
  144.8361  140.6784  143.6259 LP  0  0  0  0  0  0  0  0  0  0  0  0  # atno 17320 bound_to 7965
  145.3998  139.1600  143.4183 LP  0  0  0  0  0  0  0  0  0  0  0  0  # atno 17321 bound_to 7965
  139.6112  144.7609  151.2948 LP  0  0  0  0  0  0  0  0  0  0  0  0  # atno 17342 bound_to 10162
  140.7325  143.6822  150.7992 LP  0  0  0  0  0  0  0  0  0  0  0  0  # atno 17343 bound_to 10162
  156.9364  130.9730  151.3524 LP  0  0  0  0  0  0  0  0  0  0  0  0  # atno 17370 bound_to 10713
  157.5870  130.8416  149.8604 LP  0  0  0  0  0  0  0  0  0  0  0  0  # atno 17371 bound_to 10713
  139.8881  134.8863  156.2489 LP  0  0  0  0  0  0  0  0  0  0  0  0  # atno 17394 bound_to 11000
  141.0116  133.7092  156.1122 LP  0  0  0  0  0  0  0  0  0  0  0  0  # atno 17395 bound_to 11000

$$$$
