AV-unprocessed.smi:512|AV-procd|sdf|2770|dock7
  -GOLD-   2262023233D 1   1.00000     0.00000
 Structure written by MMmdl.
 48 50  0  0  0  0  0  0  0  0  3 V2000
  150.6833  129.7201  154.5352 C   0  0  0  0  0  0  0  0  0  0  0  0
  149.7889  130.9478  154.3486 C   0  0  0  0  0  0  0  0  0  0  0  0
  150.3940  132.0588  154.9879 O   0  0  0  0  0  0  0  0  0  0  0  0
  149.8801  133.2986  154.5318 C   0  0  0  0  0  0  0  0  0  0  0  0
  148.9902  133.8982  155.6276 C   0  0  0  0  0  0  0  0  0  0  0  0
  148.5128  135.2298  155.2608 N   0  0  0  0  0  0  0  0  0  0  0  0
  147.2538  135.6110  154.9151 C   0  0  0  0  0  0  0  0  0  0  0  0
  146.1784  134.7228  154.9329 N   0  0  0  0  0  0  0  0  0  0  0  0
  144.7722  135.1203  154.9566 C   0  0  0  0  0  0  0  0  0  0  0  0
  144.1300  134.9923  153.5625 C   0  0  0  0  0  0  0  0  0  0  0  0
  144.2782  133.6158  153.0318 N   0  3  0  0  0  0  0  0  0  0  0  0
  143.6656  133.4502  151.6967 C   0  0  0  0  0  0  0  0  0  0  0  0
  145.6872  133.1581  153.0747 C   0  0  0  0  0  0  0  0  0  0  0  0
  146.2710  133.3360  154.4870 C   0  0  0  0  0  0  0  0  0  0  0  0
  147.1378  136.8875  154.5444 N   0  0  0  0  0  0  0  0  0  0  0  0
  148.4279  137.3723  154.6983 C   0  0  0  0  0  0  0  0  0  0  0  0
  149.2722  136.3965  155.1282 C   0  0  0  0  0  0  0  0  0  0  0  0
  150.7174  136.6047  155.3654 C   0  0  0  0  0  0  0  0  0  0  0  0
  151.4358  135.6844  155.7502 O   0  0  0  0  0  0  0  0  0  0  0  0
  151.1033  137.8939  155.1050 N   0  5  0  0  0  0  0  0  0  0  0  0
  150.2835  138.9131  154.6696 C   0  0  0  0  0  0  0  0  0  0  0  0
  150.7139  140.0469  154.4549 O   0  0  0  0  0  0  0  0  0  0  0  0
  148.9499  138.6735  154.4643 N   0  0  0  0  0  0  0  0  0  0  0  0
  148.0546  139.7371  154.0002 C   0  0  0  0  0  0  0  0  0  0  0  0
  150.2480  128.8445  154.0536 H   0  0  0  0  0  0  0  0  0  0  0  0
  150.8159  129.4899  155.5924 H   0  0  0  0  0  0  0  0  0  0  0  0
  151.6694  129.8853  154.1011 H   0  0  0  0  0  0  0  0  0  0  0  0
  149.6558  131.1519  153.2852 H   0  0  0  0  0  0  0  0  0  0  0  0
  148.8028  130.7584  154.7752 H   0  0  0  0  0  0  0  0  0  0  0  0
  150.6985  133.9780  154.2906 H   0  0  0  0  0  0  0  0  0  0  0  0
  149.2995  133.1467  153.6204 H   0  0  0  0  0  0  0  0  0  0  0  0
  148.1525  133.2296  155.8059 H   0  0  0  0  0  0  0  0  0  0  0  0
  149.5240  133.9562  156.5754 H   0  0  0  0  0  0  0  0  0  0  0  0
  144.2356  134.5104  155.6845 H   0  0  0  0  0  0  0  0  0  0  0  0
  144.6829  136.1556  155.2849 H   0  0  0  0  0  0  0  0  0  0  0  0
  143.0725  135.2530  153.6165 H   0  0  0  0  0  0  0  0  0  0  0  0
  144.5984  135.6984  152.8745 H   0  0  0  0  0  0  0  0  0  0  0  0
  144.1678  134.0725  150.9548 H   0  0  0  0  0  0  0  0  0  0  0  0
  142.6115  133.7285  151.7204 H   0  0  0  0  0  0  0  0  0  0  0  0
  143.7288  132.4112  151.3713 H   0  0  0  0  0  0  0  0  0  0  0  0
  145.7416  132.1094  152.7805 H   0  0  0  0  0  0  0  0  0  0  0  0
  146.2789  133.7244  152.3533 H   0  0  0  0  0  0  0  0  0  0  0  0
  147.3145  133.0191  154.5003 H   0  0  0  0  0  0  0  0  0  0  0  0
  145.7459  132.6959  155.1972 H   0  0  0  0  0  0  0  0  0  0  0  0
  148.3545  140.0810  153.0096 H   0  0  0  0  0  0  0  0  0  0  0  0
  148.0854  140.5888  154.6805 H   0  0  0  0  0  0  0  0  0  0  0  0
  147.0165  139.4142  153.9343 H   0  0  0  0  0  0  0  0  0  0  0  0
  143.7667  133.0139  153.6613 H   0  0  0  0  0  0  0  0  0  0  0  0
  1  2  1  0  0  0  0
  1 25  1  0  0  0  0
  1 26  1  0  0  0  0
  1 27  1  0  0  0  0
  2  3  1  0  0  0  0
  2 28  1  0  0  0  0
  2 29  1  0  0  0  0
  3  4  1  0  0  0  0
  4  5  1  0  0  0  0
  4 30  1  0  0  0  0
  4 31  1  0  0  0  0
  5  6  1  0  0  0  0
  5 32  1  0  0  0  0
  5 33  1  0  0  0  0
  6 17  1  0  0  0  0
  6  7  1  0  0  0  0
  7  8  1  0  0  0  0
  7 15  2  0  0  0  0
  8 14  1  0  0  0  0
  8  9  1  0  0  0  0
  9 10  1  0  0  0  0
  9 34  1  0  0  0  0
  9 35  1  0  0  0  0
 10 11  1  0  0  0  0
 10 36  1  0  0  0  0
 10 37  1  0  0  0  0
 11 12  1  0  0  0  0
 11 13  1  0  0  0  0
 11 48  1  0  0  0  0
 12 38  1  0  0  0  0
 12 39  1  0  0  0  0
 12 40  1  0  0  0  0
 13 14  1  0  0  0  0
 13 41  1  0  0  0  0
 13 42  1  0  0  0  0
 14 43  1  0  0  0  0
 14 44  1  0  0  0  0
 15 16  1  0  0  0  0
 16 23  1  0  0  0  0
 16 17  2  0  0  0  0
 17 18  1  0  0  0  0
 18 19  2  0  0  0  0
 18 20  1  0  0  0  0
 20 21  1  0  0  0  0
 21 22  2  0  0  0  0
 21 23  1  0  0  0  0
 23 24  1  0  0  0  0
 24 45  1  0  0  0  0
 24 46  1  0  0  0  0
 24 47  1  0  0  0  0
M  CHG  1  11   1
M  CHG  1  20  -1
M  END
> <s_m_source_file>
AV-unprocessed.smi

> <i_m_source_file_index>
512

> <i_lp_mmshare_version>
43012

> <i_f3d_flags>
0

> <s_epik_input>
W0NIM11uMWMoPU8pW25IXWMoPU8pYyhjMTIpbihbQ0gyXVtDSDJdT1tDSDJdW0NIM10pYyhuMilOM1tDSDJdW0NIMl1OKFtDSDNdKVtDSDJdW0NIMl0z

> <s_epik_cmdline>
J2VwaWtfcHl0aG9uJywgJy1waCcsICc3LjAnLCAnLXRuJywgJzgnLCAnLW1hJywgJzIwMCcsICctbWV0YWxfYmluZGluZycsICctaW1hZScsICc8aW5maWxlLm1hZT4nLCAnLW9tYWUnLCAnPG91dGZpbGUubWFlPic=

> <r_epik_Ionization_Penalty>
5.9926

> <r_epik_Ionization_Penalty_Charging>
0.122107

> <r_epik_Ionization_Penalty_Neutral>
5.87049

> <r_epik_State_Penalty>
5.92685

> <r_epik_Charging_Adjusted_Penalty>
6.04896

> <i_epik_Tot_Q>
0

> <i_epik_Tot_abs_Q>
2

> <r_epik_Metal_State_Penalty>
1.88919

> <b_epik_Metal_Only>
1

> <s_lp_Force_Field>
OPLS_2005

> <r_lp_Energy>
50.2729

> <b_lp_Chiralities_Consistent>
1

> <s_lp_Variant>
AV-unprocessed.smi:512-3

> <Gold.Version>
5.8.1

> <Gold.Id.Protein>
6NUR|6NUR_protein|mol2

> <Gold.PLP.Fitness>
37.6235

> <Gold.PLP.PLP>
-26.8189

> <Gold.PLP.part.hbond>
-3.0000

> <Gold.PLP.part.metal>
0.0000

> <Gold.PLP.part.buried>
-4.2329

> <Gold.PLP.part.nonpolar>
-20.0172

> <Gold.PLP.part.repulsive>
0.3429

> <Gold.PLP.ligand.clash>
0.0000

> <Gold.PLP.ligand.torsion>
0.8991

> <Gold.PLP.Chemscore.Hbond>
4.0000

> <Gold.PLP.Chemscore.CHOScore>
0.0000

> <Gold.PLP.Chemscore.Metal>
0.0000

> <Gold.Chemscore.Hbonds>
donor molecule, donor type, donor heavy atom, donor atom, acceptor molecule, acceptor atom, score
      L1  H    11    48       P1 10957  2.00
      P1  H  7989  7998       L1    22  1.00
      P1  H 10752 10765       L1    19  1.00

> <Gold.PLP.Chemscore.Internal.Correction>
0.6027

> <Gold.Rescore>
     Score         DG    S(hbond)    S(metal)    S(lipo)     H(rot)  DE(clash)    DE(int)     intcor
     15.31     -16.43       2.96        0.00      44.89       1.63       0.00       1.11       ----

> <Gold.Chemscore.Fitness>
15.3107

> <Gold.Chemscore.DG>
-16.4277

> <Gold.Chemscore.ZeroCoef>
-5.4800

> <Gold.Chemscore.Hbond>
2.9569

> <Gold.Chemscore.Metal>
0.0000

> <Gold.Chemscore.Lipo>
44.8860

> <Gold.Chemscore.Internal_Hbond>
0.0000

> <Gold.Chemscore.DEClash>
0.0021

> <Gold.Chemscore.DEInternal>
1.1149

> <Gold.Chemscore.Rot>
1.6328

> <Gold.Chemscore.Internal.Correction>
   9.000000E+99

> <Gold.Chemscore.Hbonds>
donor molecule, donor type, donor heavy atom, donor atom, acceptor molecule, acceptor atom, score
      L1  H    11    48       P1 10957  0.89
      P1  H  7989  7998       L1    22  0.96
      P1  H 10752 10765       L1    19  0.88

> <Gold.Chemscore.Hbond.Weighted>
-9.8761

> <Gold.Chemscore.Metal.Weighted>
-0.0000

> <Gold.Chemscore.Lipo.Weighted>
-5.2517

> <Gold.Chemscore.Internal_Hbond.Weighted>
0.0000

> <Gold.Chemscore.DEClash.Weighted>
0.0021

> <Gold.Chemscore.DEInternal.Weighted>
1.1149

> <Gold.Chemscore.Rot.Weighted>
4.1800

> <Gold.Chemscore.Internal.Correction.Weighted>
   9.000000E+99

> <Gold.Protein.RotatedTorsions>
[ 6907 6896 6895 6894 ] final -141.65 input  -60.11 | X-H torsion
[ 7974 7965 7964 7962 ] final   71.10 input  175.53 | X-H torsion
[ 8008 7997 7996 7995 ] final  -41.64 input   59.86 | X-H torsion
[ 10167 10162 10161 10158 ] final   22.17 input  -65.29 | X-H torsion
[ 10718 10713 10712 10709 ] final -137.53 input   66.30 | X-H torsion
[ 10763 10752 10751 10750 ] final -166.54 input  -60.55 | X-H torsion
[ 11005 11000 10999 10996 ] final -113.23 input  -57.11 | X-H torsion

> <Gold.Protein.ActiveResidues>
 VAL166  LYS551  ARG553  GLY616  TRP617  ASP618  TYR619  PRO620  LYS621  CYS622 
 ASP623  PHE694  ASN695  SER759  ASP760  ASP761  ALA762  ILE779  LEU786  VAL792 
 PHE793  MET794  SER795  GLU796  ALA797  LYS798  CYS799  TRP800  GLU811  SER814 

> <Gold.Protein.RotatedAtoms>
  151.0767  133.5423  159.2623 H   0  0  0  0  0  0  0  0  0  0  0  0  # atno 6907 bound_to 6896
  151.2342  135.0565  159.9009 H   0  0  0  0  0  0  0  0  0  0  0  0  # atno 6908 bound_to 6896
  152.5418  134.0551  159.8181 H   0  0  0  0  0  0  0  0  0  0  0  0  # atno 6909 bound_to 6896
  145.7699  139.2838  143.1327 H   0  0  0  0  0  0  0  0  0  0  0  0  # atno 7974 bound_to 7965
  154.4003  140.1494  156.3224 H   0  0  0  0  0  0  0  0  0  0  0  0  # atno 8008 bound_to 7997
  155.8518  140.3457  155.5677 H   0  0  0  0  0  0  0  0  0  0  0  0  # atno 8009 bound_to 7997
  155.7976  140.0865  157.1965 H   0  0  0  0  0  0  0  0  0  0  0  0  # atno 8010 bound_to 7997
  140.5370  143.9744  150.6497 H   0  0  0  0  0  0  0  0  0  0  0  0  # atno 10167 bound_to 10162
  156.2891  130.7365  151.1385 H   0  0  0  0  0  0  0  0  0  0  0  0  # atno 10718 bound_to 10713
  154.6822  135.2956  154.9597 H   0  0  0  0  0  0  0  0  0  0  0  0  # atno 10763 bound_to 10752
  154.0588  135.6634  153.4813 H   0  0  0  0  0  0  0  0  0  0  0  0  # atno 10764 bound_to 10752
  153.0555  135.5147  154.7871 H   0  0  0  0  0  0  0  0  0  0  0  0  # atno 10765 bound_to 10752
  141.0627  133.9509  157.2637 H   0  0  0  0  0  0  0  0  0  0  0  0  # atno 11005 bound_to 11000
  146.0180  140.8375  142.9938 LP  0  0  0  0  0  0  0  0  0  0  0  0  # atno 17320 bound_to 7965
  144.6814  140.2586  143.7322 LP  0  0  0  0  0  0  0  0  0  0  0  0  # atno 17321 bound_to 7965
  140.3134  143.3183  152.0856 LP  0  0  0  0  0  0  0  0  0  0  0  0  # atno 17342 bound_to 10162
  139.4974  144.6621  151.6440 LP  0  0  0  0  0  0  0  0  0  0  0  0  # atno 17343 bound_to 10162
  157.7337  131.0588  150.5562 LP  0  0  0  0  0  0  0  0  0  0  0  0  # atno 17370 bound_to 10713
  156.5676  130.4271  149.6034 LP  0  0  0  0  0  0  0  0  0  0  0  0  # atno 17371 bound_to 10713
  139.9447  135.0186  156.8817 LP  0  0  0  0  0  0  0  0  0  0  0  0  # atno 17394 bound_to 11000
  140.5836  134.0329  155.7473 LP  0  0  0  0  0  0  0  0  0  0  0  0  # atno 17395 bound_to 11000

$$$$
