AV-unprocessed.smi:72|AV-procd|sdf|743|dock10
  -GOLD-   2262017 73D 1   1.00000     0.00000
 Structure written by MMmdl.
 29 30  0  0  0  0  0  0  0  0  1 V2000
  153.0226  138.0583  160.3895 N   0  0  0  0  0  0  0  0  0  0  0  0
  152.7187  138.1399  159.0467 C   0  0  0  0  0  0  0  0  0  0  0  0
  151.9428  139.2377  158.6494 N   0  0  0  0  0  0  0  0  0  0  0  0
  151.6679  139.3260  157.3867 C   0  0  0  0  0  0  0  0  0  0  0  0
  152.1498  138.3380  156.4386 N   0  0  0  0  0  0  0  0  0  0  0  0
  151.8241  138.4450  154.9659 C   0  0  2  0  0  0  0  0  0  0  0  0
  151.0711  139.6029  154.7537 O   0  0  0  0  0  0  0  0  0  0  0  0
  149.9705  139.3145  153.8980 C   0  0  2  0  0  0  0  0  0  0  0  0
  148.8361  140.3156  154.1629 C   0  0  0  0  0  0  0  0  0  0  0  0
  149.2600  141.6219  153.8382 O   0  0  0  0  0  0  0  0  0  0  0  0
  149.6212  137.8759  154.2831 C   0  0  1  0  0  0  0  0  0  0  0  0
  148.8430  137.2123  153.3046 O   0  0  0  0  0  0  0  0  0  0  0  0
  150.9904  137.2394  154.5030 C   0  0  1  0  0  0  0  0  0  0  0  0
  151.5283  136.6800  153.3190 O   0  0  0  0  0  0  0  0  0  0  0  0
  152.9067  137.2326  156.9147 C   0  0  0  0  0  0  0  0  0  0  0  0
  153.2877  136.3578  156.1370 O   0  0  0  0  0  0  0  0  0  0  0  0
  153.1824  137.1891  158.2870 N   0  0  0  0  0  0  0  0  0  0  0  0
  152.7724  138.5533  154.4378 H   0  0  0  0  0  0  0  0  0  0  0  0
  150.3001  139.3485  152.8576 H   0  0  0  0  0  0  0  0  0  0  0  0
  149.0740  137.8745  155.2268 H   0  0  0  0  0  0  0  0  0  0  0  0
  150.9569  136.4630  155.2689 H   0  0  0  0  0  0  0  0  0  0  0  0
  153.5730  137.3124  160.7893 H   0  0  0  0  0  0  0  0  0  0  0  0
  152.7113  138.7327  161.0736 H   0  0  0  0  0  0  0  0  0  0  0  0
  151.0659  140.1300  156.9609 H   0  0  0  0  0  0  0  0  0  0  0  0
  147.9759  140.0845  153.5338 H   0  0  0  0  0  0  0  0  0  0  0  0
  148.5013  140.2711  155.1998 H   0  0  0  0  0  0  0  0  0  0  0  0
  149.4421  141.6549  152.9113 H   0  0  0  0  0  0  0  0  0  0  0  0
  149.3892  137.0405  152.5530 H   0  0  0  0  0  0  0  0  0  0  0  0
  150.9004  136.7909  152.6216 H   0  0  0  0  0  0  0  0  0  0  0  0
  1  2  1  0  0  0  0
  1 22  1  0  0  0  0
  1 23  1  0  0  0  0
  2 17  2  0  0  0  0
  2  3  1  0  0  0  0
  3  4  2  0  0  0  0
  4  5  1  0  0  0  0
  4 24  1  0  0  0  0
  5  6  1  0  0  0  0
  5 15  1  0  0  0  0
  6 18  1  0  0  0  0
  6 13  1  0  0  0  0
  6  7  1  0  0  0  0
  7  8  1  0  0  0  0
  8 19  1  0  0  0  0
  8  9  1  0  0  0  0
  8 11  1  0  0  0  0
  9 10  1  0  0  0  0
  9 25  1  0  0  0  0
  9 26  1  0  0  0  0
 10 27  1  0  0  0  0
 11 20  1  0  0  0  0
 11 12  1  0  0  0  0
 11 13  1  0  0  0  0
 12 28  1  0  0  0  0
 13 21  1  0  0  0  0
 13 14  1  0  0  0  0
 14 29  1  0  0  0  0
 15 16  2  0  0  0  0
 15 17  1  0  0  0  0
M  END
> <s_m_source_file>
AV-unprocessed.smi

> <i_m_source_file_index>
72

> <i_lp_mmshare_version>
43012

> <i_f3d_flags>
0

> <s_epik_input>
W05IMl1jMW5bY0hdbihjKD1PKW4xKVtDQEBIXTJPW0NASF0oW0NIMl1bT0hdKVtDQEBIXShbT0hdKVtDQEhdMltPSF0=

> <s_epik_cmdline>
J2VwaWtfcHl0aG9uJywgJy1waCcsICc3LjAnLCAnLXRuJywgJzgnLCAnLW1hJywgJzIwMCcsICctbWV0YWxfYmluZGluZycsICctaW1hZScsICc8aW5maWxlLm1hZT4nLCAnLW9tYWUnLCAnPG91dGZpbGUubWFlPic=

> <r_lp_tautomer_probability>
4.77166e-05

> <r_epik_Ionization_Penalty>
1.3546

> <r_epik_Ionization_Penalty_Charging>
1.46833e-10

> <r_epik_Ionization_Penalty_Neutral>
1.3546

> <r_epik_State_Penalty>
3.51908

> <r_epik_Charging_Adjusted_Penalty>
3.51908

> <i_epik_Tot_Q>
0

> <i_epik_Tot_abs_Q>
0

> <r_epik_Metal_State_Penalty>
3.44088

> <b_epik_Metal_Only>
1

> <s_epik_Chemistry_Notes>
This compound contains an acetal/aminal-like group ( X-CH(R)-Y where X, Y are N, S, or O) that may be acid/base labile, releasing an aldehyde.

> <s_lp_Force_Field>
OPLS_2005

> <r_lp_Energy>
30.18

> <b_lp_Chiralities_Consistent>
1

> <s_lp_Variant>
AV-unprocessed.smi:72-81

> <Gold.Version>
5.8.1

> <Gold.Id.Protein>
6NUR|6NUR_protein|mol2

> <Gold.PLP.Fitness>
40.3508

> <Gold.PLP.PLP>
-26.1033

> <Gold.PLP.part.hbond>
-8.4256

> <Gold.PLP.part.metal>
0.0000

> <Gold.PLP.part.buried>
-2.0801

> <Gold.PLP.part.nonpolar>
-15.5587

> <Gold.PLP.part.repulsive>
0.1307

> <Gold.PLP.ligand.clash>
0.0000

> <Gold.PLP.ligand.torsion>
0.0104

> <Gold.PLP.Chemscore.Hbond>
4.7512

> <Gold.PLP.Chemscore.CHOScore>
0.0000

> <Gold.PLP.Chemscore.Metal>
0.0000

> <Gold.Chemscore.Hbonds>
donor molecule, donor type, donor heavy atom, donor atom, acceptor molecule, acceptor atom, score
      L1  H    10    27       P1  7957  0.11
      L1  H    14    29       P1  7949  0.15
      P1  H  7989  7998       L1     7  0.40
      P1  H 10752 10763       L1    14  1.00
      P1  H 10752 10764       L1    16  0.38

> <Gold.PLP.Chemscore.Internal.Correction>
0.0147

> <Gold.Rescore>
     Score         DG    S(hbond)    S(metal)    S(lipo)     H(rot)  DE(clash)    DE(int)     intcor
     10.88     -12.04       4.27        0.00      23.13       4.06       0.07       1.09       ----

> <Gold.Chemscore.Fitness>
10.8765

> <Gold.Chemscore.DG>
-12.0376

> <Gold.Chemscore.ZeroCoef>
-5.4800

> <Gold.Chemscore.Hbond>
4.2650

> <Gold.Chemscore.Metal>
0.0000

> <Gold.Chemscore.Lipo>
23.1281

> <Gold.Chemscore.Internal_Hbond>
0.0000

> <Gold.Chemscore.DEClash>
0.0720

> <Gold.Chemscore.DEInternal>
1.0891

> <Gold.Chemscore.Rot>
4.0600

> <Gold.Chemscore.Internal.Correction>
   9.000000E+99

> <Gold.Chemscore.Hbonds>
donor molecule, donor type, donor heavy atom, donor atom, acceptor molecule, acceptor atom, score
      L1  H    10    27       P1  7957  0.13
      L1  H    12    28       P1  7948  0.01
      L1  H    14    29       P1  7949  0.02
      P1  H  7989  7998       L1     7  0.01
      P1  H 10752 10763       L1    14  0.35
      P1  H 10752 10764       L1    16  0.37

> <Gold.Chemscore.Hbond.Weighted>
-14.2452

> <Gold.Chemscore.Metal.Weighted>
-0.0000

> <Gold.Chemscore.Lipo.Weighted>
-2.7060

> <Gold.Chemscore.Internal_Hbond.Weighted>
0.0000

> <Gold.Chemscore.DEClash.Weighted>
0.0720

> <Gold.Chemscore.DEInternal.Weighted>
1.0891

> <Gold.Chemscore.Rot.Weighted>
10.3936

> <Gold.Chemscore.Internal.Correction.Weighted>
   9.000000E+99

> <Gold.Protein.RotatedTorsions>
[ 6907 6896 6895 6894 ] final  -67.15 input  -60.11 | X-H torsion
[ 7974 7965 7964 7962 ] final   39.95 input  175.53 | X-H torsion
[ 8008 7997 7996 7995 ] final  154.93 input   59.86 | X-H torsion
[ 10167 10162 10161 10158 ] final -156.84 input  -65.29 | X-H torsion
[ 10718 10713 10712 10709 ] final  -95.10 input   66.30 | X-H torsion
[ 10763 10752 10751 10750 ] final   23.52 input  -60.55 | X-H torsion
[ 11005 11000 10999 10996 ] final -153.19 input  -57.11 | X-H torsion

> <Gold.Protein.ActiveResidues>
 VAL166  LYS551  ARG553  GLY616  TRP617  ASP618  TYR619  PRO620  LYS621  CYS622 
 ASP623  PHE694  ASN695  SER759  ASP760  ASP761  ALA762  ILE779  LEU786  VAL792 
 PHE793  MET794  SER795  GLU796  ALA797  LYS798  CYS799  TRP800  GLU811  SER814 

> <Gold.Protein.RotatedAtoms>
  150.7425  134.5920  159.5992 H   0  0  0  0  0  0  0  0  0  0  0  0  # atno 6907 bound_to 6896
  152.3305  134.7262  160.0299 H   0  0  0  0  0  0  0  0  0  0  0  0  # atno 6908 bound_to 6896
  151.7747  133.3308  159.3491 H   0  0  0  0  0  0  0  0  0  0  0  0  # atno 6909 bound_to 6896
  146.0944  139.5591  142.9455 H   0  0  0  0  0  0  0  0  0  0  0  0  # atno 7974 bound_to 7965
  156.2505  140.1953  156.6723 H   0  0  0  0  0  0  0  0  0  0  0  0  # atno 8008 bound_to 7997
  154.6383  140.0587  156.9841 H   0  0  0  0  0  0  0  0  0  0  0  0  # atno 8009 bound_to 7997
  155.1602  140.3259  155.4415 H   0  0  0  0  0  0  0  0  0  0  0  0  # atno 8010 bound_to 7997
  139.6818  143.9569  152.2340 H   0  0  0  0  0  0  0  0  0  0  0  0  # atno 10167 bound_to 10162
  156.0038  130.5095  150.6026 H   0  0  0  0  0  0  0  0  0  0  0  0  # atno 10718 bound_to 10713
  153.0832  135.6625  154.0002 H   0  0  0  0  0  0  0  0  0  0  0  0  # atno 10763 bound_to 10752
  153.9618  135.2973  155.3434 H   0  0  0  0  0  0  0  0  0  0  0  0  # atno 10764 bound_to 10752
  154.7236  135.5154  153.8922 H   0  0  0  0  0  0  0  0  0  0  0  0  # atno 10765 bound_to 10752
  140.7107  134.3835  157.5198 H   0  0  0  0  0  0  0  0  0  0  0  0  # atno 11005 bound_to 11000
  145.5977  141.0360  143.2035 LP  0  0  0  0  0  0  0  0  0  0  0  0  # atno 17320 bound_to 7965
  144.7384  139.7519  143.7320 LP  0  0  0  0  0  0  0  0  0  0  0  0  # atno 17321 bound_to 7965
  139.9361  144.6711  150.8314 LP  0  0  0  0  0  0  0  0  0  0  0  0  # atno 17342 bound_to 10162
  140.7654  143.3276  151.2482 LP  0  0  0  0  0  0  0  0  0  0  0  0  # atno 17343 bound_to 10162
  157.3873  131.0790  151.1425 LP  0  0  0  0  0  0  0  0  0  0  0  0  # atno 17370 bound_to 10713
  157.2128  130.6446  149.5781 LP  0  0  0  0  0  0  0  0  0  0  0  0  # atno 17371 bound_to 10713
  139.8872  134.8888  156.2540 LP  0  0  0  0  0  0  0  0  0  0  0  0  # atno 17394 bound_to 11000
  141.0086  133.7109  156.1075 LP  0  0  0  0  0  0  0  0  0  0  0  0  # atno 17395 bound_to 11000

$$$$
