#       Name:                AV-unprocessed.smi:1809
#       Creating user name   scv26
#       Creation time:       Fri Mar 27 08:57:24 2020


#       File generated by GOLD software.
#

@<TRIPOS>MOLECULE
AV-unprocessed.smi:1809
    46    48     1
SMALL
NO_CHARGES


@<TRIPOS>ATOM
      1 ****        -7.5462   2.6691  -1.3961 C.3            1 S1                 0.0000
      2 ****        -6.1894   2.0523  -1.4145 C.2            1 S1                 0.0000
      3 ****        -5.9518   0.8128  -0.9681 N.2            1 S1                 0.0000
      4 ****        -4.6147   0.4592  -1.0840 N.2            1 S1                 0.0000
      5 ****        -3.8805   1.4468  -1.6147 C.2            1 S1                 0.0000
      6 ****        -2.4824   1.3555  -1.8454 N.am           1 S1                 0.0000
      7 ****        -1.6652   0.3140  -1.6104 C.2            1 S1                 0.0000
      8 ****        -2.0111  -0.7704  -1.1408 O.2            1 S1                 0.0000
      9 ****        -0.4027   0.6016  -1.9586 N.am           1 S1                 0.0000
     10 ****         0.7323  -0.3063  -1.8302 C.3            1 S1                 0.0000
     11 ****         1.4697  -0.1132  -0.4945 C.3            1 S1                 0.0000
     12 ****         2.7733  -0.9430  -0.4413 C.3            1 S1                 0.0000
     13 ****         3.3785  -0.8346   0.8720 N.3            1 S1                 0.0000
     14 ****         4.5668  -1.6207   1.1099 C.3            1 S1                 0.0000
     15 ****         4.7141  -1.6327   2.6417 C.3            1 S1                 0.0000
     16 ****         3.3058  -1.2755   3.1675 C.3            1 S1                 0.0000
     17 ****         2.4620  -1.2676   1.8917 C.3            1 S1                 0.0000
     18 ****         1.1920  -0.4059   1.8796 C.3            1 S1                 0.0000
     19 ****         0.6061  -0.5082   0.5797 O.3            1 S1                 0.0000
     20 ****        -4.7730   2.9035  -2.0188 S.3            1 S1                 0.0000
     21 ****        -8.3167   1.8988  -1.4426 H              1 S1                 0.0000
     22 ****        -7.6680   3.3348  -2.2506 H              1 S1                 0.0000
     23 ****        -7.6802   3.2451  -0.4805 H              1 S1                 0.0000
     24 ****        -2.0545   2.1804  -2.2389 H              1 S1                 0.0000
     25 ****        -0.2093   1.5179  -2.3349 H              1 S1                 0.0000
     26 ****         0.4194  -1.3451  -1.9498 H              1 S1                 0.0000
     27 ****         1.4121  -0.0952  -2.6560 H              1 S1                 0.0000
     28 ****         1.7163   0.9431  -0.3710 H              1 S1                 0.0000
     29 ****         2.5549  -1.9883  -0.6649 H              1 S1                 0.0000
     30 ****         3.4730  -0.5950  -1.2018 H              1 S1                 0.0000
     31 ****         4.4244  -2.6387   0.7436 H              1 S1                 0.0000
     32 ****         5.4366  -1.1980   0.6066 H              1 S1                 0.0000
     33 ****         5.0474  -2.6089   2.9951 H              1 S1                 0.0000
     34 ****         5.4419  -0.8902   2.9710 H              1 S1                 0.0000
     35 ****         2.9353  -1.9915   3.9016 H              1 S1                 0.0000
     36 ****         3.3169  -0.2879   3.6308 H              1 S1                 0.0000
     37 ****         2.1681  -2.2994   1.6857 H              1 S1                 0.0000
     38 ****         0.4794  -0.7570   2.6261 H              1 S1                 0.0000
     39 ****         1.4184   0.6370   2.1063 H              1 S1                 0.0000
     40 ****        -6.6570   0.2106  -0.5940 LP             1 S1                 0.0000
     41 ****        -4.2436  -0.4264  -0.8049 LP             1 S1                 0.0000
     42 ****        -2.9690  -0.9290  -0.9016 LP             1 S1                 0.0000
     43 ****        -1.3341  -1.4925  -0.9986 LP             1 S1                 0.0000
     44 ****         3.6230   0.1345   0.9054 LP             1 S1                 0.0000
     45 ****         0.3389  -1.4603   0.4316 LP             1 S1                 0.0000
     46 ****        -0.2069   0.0736   0.5569 LP             1 S1                 0.0000
@<TRIPOS>BOND
    1    1    2 1     
    2    1   21 1     
    3    1   22 1     
    4    1   23 1     
    5    2   20 1     
    6    2    3 2     
    7    3    4 1     
    8    4    5 2     
    9    5    6 1     
   10    5   20 1     
   11    6    7 am    
   12    6   24 1     
   13    7    8 2     
   14    7    9 am    
   15    9   10 1     
   16    9   25 1     
   17   10   11 1     
   18   10   26 1     
   19   10   27 1     
   20   11   19 1     
   21   11   12 1     
   22   11   28 1     
   23   12   13 1     
   24   12   29 1     
   25   12   30 1     
   26   13   17 1     
   27   13   14 1     
   28   14   15 1     
   29   14   31 1     
   30   14   32 1     
   31   15   16 1     
   32   15   33 1     
   33   15   34 1     
   34   16   17 1     
   35   16   35 1     
   36   16   36 1     
   37   17   18 1     
   38   17   37 1     
   39   18   19 1     
   40   18   38 1     
   41   18   39 1     
   42    3   40 1     
   43    4   41 1     
   44    8   42 1     
   45    8   43 1     
   46   13   44 1     
   47   19   45 1     
   48   19   46 1     
@<TRIPOS>SUBSTRUCTURE
      1 S1             1
@<TRIPOS>SET
LONE_PAIRS      STATIC     ATOMS    <user>   **** ""
7 40 41 42 43 44 45 46
DONOR_HYDROGENS      STATIC     ATOMS    <user>   **** ""
2 24 25
ATOM$BLUE        STATIC     ATOMS    COLORGROUP SYSTEM
7 40 41 42 43 44 45 46
ATOM$RED        STATIC     ATOMS    COLORGROUP SYSTEM
2 24 25
