AV-unprocessed.smi:1705|AV-procd|sdf|6883|dock5
  -GOLD-   22720 8 93D 1   1.00000     0.00000
 Structure written by MMmdl.
 38 39  0  0  0  0  0  0  0  0  1 V2000
  152.4012  139.3304  155.3982 C   0  0  0  0  0  0  0  0  0  0  0  0
  151.3859  139.8721  156.4153 C   0  0  1  0  0  0  0  0  0  0  0  0
  152.0852  140.4823  157.5379 N   0  0  0  0  0  0  0  0  0  0  0  0
  152.6539  139.8422  158.6359 C   0  0  0  0  0  0  0  0  0  0  0  0
  152.6178  138.4871  158.7839 C   0  0  0  0  0  0  0  0  0  0  0  0
  152.0478  137.5962  157.8227 C   0  0  0  0  0  0  0  0  0  0  0  0
  151.5737  136.8549  157.0697 N   0  0  0  0  0  0  0  0  0  0  0  0
  153.2061  137.8181  159.9427 C   0  0  0  0  0  0  0  0  0  0  0  0
  153.1819  136.5972  160.1159 O   0  0  0  0  0  0  0  0  0  0  0  0
  153.8128  138.6790  160.8789 N   0  0  0  0  0  0  0  0  0  0  0  0
  154.3971  138.0522  162.0486 C   0  0  0  0  0  0  0  0  0  0  0  0
  153.8590  140.0827  160.7547 C   0  0  0  0  0  0  0  0  0  0  0  0
  154.3789  140.7938  161.6201 O   0  0  0  0  0  0  0  0  0  0  0  0
  153.2772  140.6489  159.5937 N   0  0  0  0  0  0  0  0  0  0  0  0
  153.3689  142.0939  159.5217 C   0  0  0  0  0  0  0  0  0  0  0  0
  150.4245  140.8890  155.7730 C   0  0  2  0  0  0  0  0  0  0  0  0
  149.1514  141.1511  156.5797 C   0  0  0  0  0  0  0  0  0  0  0  0
  148.1537  141.6192  155.5324 C   0  0  0  0  0  0  0  0  0  0  0  0
  148.7817  141.1919  154.2030 C   0  0  0  0  0  0  0  0  0  0  0  0
  149.8944  140.3828  154.5579 O   0  0  0  0  0  0  0  0  0  0  0  0
  151.9006  138.8159  154.5776 H   0  0  0  0  0  0  0  0  0  0  0  0
  153.0864  138.6196  155.8600 H   0  0  0  0  0  0  0  0  0  0  0  0
  153.0001  140.1348  154.9701 H   0  0  0  0  0  0  0  0  0  0  0  0
  150.7823  139.0415  156.7786 H   0  0  0  0  0  0  0  0  0  0  0  0
  151.7507  141.4155  157.7310 H   0  0  0  0  0  0  0  0  0  0  0  0
  154.9893  138.7609  162.6266 H   0  0  0  0  0  0  0  0  0  0  0  0
  155.0517  137.2491  161.7044 H   0  0  0  0  0  0  0  0  0  0  0  0
  153.5720  137.6640  162.6479 H   0  0  0  0  0  0  0  0  0  0  0  0
  152.7764  142.4977  160.3445 H   0  0  0  0  0  0  0  0  0  0  0  0
  152.9866  142.4588  158.5712 H   0  0  0  0  0  0  0  0  0  0  0  0
  154.4226  142.3660  159.6089 H   0  0  0  0  0  0  0  0  0  0  0  0
  150.9387  141.8308  155.5703 H   0  0  0  0  0  0  0  0  0  0  0  0
  148.7961  140.2257  157.0351 H   0  0  0  0  0  0  0  0  0  0  0  0
  149.2996  141.8802  157.3765 H   0  0  0  0  0  0  0  0  0  0  0  0
  147.1778  141.1583  155.6882 H   0  0  0  0  0  0  0  0  0  0  0  0
  148.0235  142.7014  155.5632 H   0  0  0  0  0  0  0  0  0  0  0  0
  148.0859  140.6420  153.5689 H   0  0  0  0  0  0  0  0  0  0  0  0
  149.1330  142.0628  153.6479 H   0  0  0  0  0  0  0  0  0  0  0  0
  1  2  1  0  0  0  0
  1 21  1  0  0  0  0
  1 22  1  0  0  0  0
  1 23  1  0  0  0  0
  2  3  1  0  0  0  0
  2 16  1  0  0  0  0
  2 24  1  0  0  0  0
  3  4  1  0  0  0  0
  3 25  1  0  0  0  0
  4 14  1  0  0  0  0
  4  5  2  0  0  0  0
  5  6  1  0  0  0  0
  5  8  1  0  0  0  0
  6  7  3  0  0  0  0
  8  9  2  0  0  0  0
  8 10  1  0  0  0  0
 10 11  1  0  0  0  0
 10 12  1  0  0  0  0
 11 26  1  0  0  0  0
 11 27  1  0  0  0  0
 11 28  1  0  0  0  0
 12 13  2  0  0  0  0
 12 14  1  0  0  0  0
 14 15  1  0  0  0  0
 15 29  1  0  0  0  0
 15 30  1  0  0  0  0
 15 31  1  0  0  0  0
 16 20  1  0  0  0  0
 16 17  1  0  0  0  0
 16 32  1  0  0  0  0
 17 18  1  0  0  0  0
 17 33  1  0  0  0  0
 17 34  1  0  0  0  0
 18 19  1  0  0  0  0
 18 35  1  0  0  0  0
 18 36  1  0  0  0  0
 19 20  1  0  0  0  0
 19 37  1  0  0  0  0
 19 38  1  0  0  0  0
M  END
> <s_m_source_file>
AV-unprocessed.smi

> <i_m_source_file_index>
1705

> <i_lp_mmshare_version>
43012

> <i_f3d_flags>
0

> <s_epik_input>
TzFbQ0gyXVtDSDJdW0NIMl1bQ0BIXTFbQ0BIXShbQ0gzXSlbTkhdYzJjKEMjTiljKD1PKW4oW0NIM10pYyg9TyluMltDSDNd

> <s_epik_cmdline>
J2VwaWtfcHl0aG9uJywgJy1waCcsICc3LjAnLCAnLXRuJywgJzgnLCAnLW1hJywgJzIwMCcsICctbWV0YWxfYmluZGluZycsICctaW1hZScsICc8aW5maWxlLm1hZT4nLCAnLW9tYWUnLCAnPG91dGZpbGUubWFlPic=

> <r_epik_Ionization_Penalty>
0.000446268

> <r_epik_Ionization_Penalty_Charging>
9.41922e-10

> <r_epik_Ionization_Penalty_Neutral>
0.000446267

> <r_epik_State_Penalty>
0.000275531

> <r_epik_Charging_Adjusted_Penalty>
0.000275532

> <i_epik_Tot_Q>
0

> <i_epik_Tot_abs_Q>
0

> <r_epik_Metal_State_Penalty>
-0

> <b_epik_Metal_Only>
0

> <s_lp_Force_Field>
OPLS_2005

> <r_lp_Energy>
36.9916

> <b_lp_Chiralities_Consistent>
1

> <s_lp_Variant>
AV-unprocessed.smi:1705-2

> <Gold.Version>
5.8.1

> <Gold.Id.Protein>
6NUR|6NUR_protein|mol2

> <Gold.PLP.Fitness>
36.9093

> <Gold.PLP.PLP>
-33.0764

> <Gold.PLP.part.hbond>
-2.0435

> <Gold.PLP.part.metal>
0.0000

> <Gold.PLP.part.buried>
-3.0127

> <Gold.PLP.part.nonpolar>
-27.6117

> <Gold.PLP.part.repulsive>
0.2050

> <Gold.PLP.ligand.clash>
7.7832

> <Gold.PLP.ligand.torsion>
0.5022

> <Gold.PLP.Chemscore.Hbond>
1.6032

> <Gold.PLP.Chemscore.CHOScore>
0.0000

> <Gold.PLP.Chemscore.Metal>
0.0000

> <Gold.Chemscore.Hbonds>
donor molecule, donor type, donor heavy atom, donor atom, acceptor molecule, acceptor atom, score
      P1  H  6896  6908       L1     9  1.00
      P1  H  7989  7998       L1    20  0.50

> <Gold.PLP.Chemscore.Internal.Correction>
7.8108

> <Gold.Rescore>
     Score         DG    S(hbond)    S(metal)    S(lipo)     H(rot)  DE(clash)    DE(int)     intcor
     10.38     -12.92       1.00        0.00      62.94       1.28       0.14       2.40       ----

> <Gold.Chemscore.Fitness>
10.3836

> <Gold.Chemscore.DG>
-12.9218

> <Gold.Chemscore.ZeroCoef>
-5.4800

> <Gold.Chemscore.Hbond>
1.0029

> <Gold.Chemscore.Metal>
0.0000

> <Gold.Chemscore.Lipo>
62.9391

> <Gold.Chemscore.Internal_Hbond>
0.0000

> <Gold.Chemscore.DEClash>
0.1426

> <Gold.Chemscore.DEInternal>
2.3956

> <Gold.Chemscore.Rot>
1.2780

> <Gold.Chemscore.Internal.Correction>
   9.000000E+99

> <Gold.Chemscore.Hbonds>
donor molecule, donor type, donor heavy atom, donor atom, acceptor molecule, acceptor atom, score
      P1  H  6896  6908       L1     9  0.97
      P1  H  7989  7998       L1    20  0.03

> <Gold.Chemscore.Hbond.Weighted>
-3.3496

> <Gold.Chemscore.Metal.Weighted>
-0.0000

> <Gold.Chemscore.Lipo.Weighted>
-7.3639

> <Gold.Chemscore.Internal_Hbond.Weighted>
0.0000

> <Gold.Chemscore.DEClash.Weighted>
0.1426

> <Gold.Chemscore.DEInternal.Weighted>
2.3956

> <Gold.Chemscore.Rot.Weighted>
3.2717

> <Gold.Chemscore.Internal.Correction.Weighted>
   9.000000E+99

> <Gold.Protein.RotatedTorsions>
[ 6907 6896 6895 6894 ] final -102.13 input  -60.11 | X-H torsion
[ 7974 7965 7964 7962 ] final -127.75 input  175.53 | X-H torsion
[ 8008 7997 7996 7995 ] final  -55.67 input   59.86 | X-H torsion
[ 10167 10162 10161 10158 ] final  -24.32 input  -65.29 | X-H torsion
[ 10718 10713 10712 10709 ] final -149.14 input   66.30 | X-H torsion
[ 10763 10752 10751 10750 ] final   -1.54 input  -60.55 | X-H torsion
[ 11005 11000 10999 10996 ] final    3.62 input  -57.11 | X-H torsion

> <Gold.Protein.ActiveResidues>
 VAL166  LYS551  ARG553  GLY616  TRP617  ASP618  TYR619  PRO620  LYS621  CYS622 
 ASP623  PHE694  ASN695  SER759  ASP760  ASP761  ALA762  ILE779  LEU786  VAL792 
 PHE793  MET794  SER795  GLU796  ALA797  LYS798  CYS799  TRP800  GLU811  SER814 

> <Gold.Protein.RotatedAtoms>
  150.7183  134.0628  159.3836 H   0  0  0  0  0  0  0  0  0  0  0  0  # atno 6907 bound_to 6896
  151.8608  135.0522  160.0478 H   0  0  0  0  0  0  0  0  0  0  0  0  # atno 6908 bound_to 6896
  152.2718  133.5354  159.5480 H   0  0  0  0  0  0  0  0  0  0  0  0  # atno 6909 bound_to 6896
  144.9739  140.7573  143.4653 H   0  0  0  0  0  0  0  0  0  0  0  0  # atno 7974 bound_to 7965
  154.4203  140.1147  156.5515 H   0  0  0  0  0  0  0  0  0  0  0  0  # atno 8008 bound_to 7997
  155.6405  140.3496  155.4694 H   0  0  0  0  0  0  0  0  0  0  0  0  # atno 8009 bound_to 7997
  155.9874  140.1172  157.0660 H   0  0  0  0  0  0  0  0  0  0  0  0  # atno 8010 bound_to 7997
  140.7288  143.4364  151.0723 H   0  0  0  0  0  0  0  0  0  0  0  0  # atno 10167 bound_to 10162
  156.4293  130.8068  151.2294 H   0  0  0  0  0  0  0  0  0  0  0  0  # atno 10718 bound_to 10713
  153.3462  135.6983  153.6826 H   0  0  0  0  0  0  0  0  0  0  0  0  # atno 10763 bound_to 10752
  153.5571  135.3542  155.2784 H   0  0  0  0  0  0  0  0  0  0  0  0  # atno 10764 bound_to 10752
  154.8645  135.4240  154.2687 H   0  0  0  0  0  0  0  0  0  0  0  0  # atno 10765 bound_to 10752
  140.5910  133.9924  155.8089 H   0  0  0  0  0  0  0  0  0  0  0  0  # atno 11005 bound_to 11000
  145.2519  139.2028  143.4938 LP  0  0  0  0  0  0  0  0  0  0  0  0  # atno 17320 bound_to 7965
  146.3390  140.2433  142.8596 LP  0  0  0  0  0  0  0  0  0  0  0  0  # atno 17321 bound_to 7965
  139.8026  143.8062  152.3164 LP  0  0  0  0  0  0  0  0  0  0  0  0  # atno 17342 bound_to 10162
  139.8084  144.7346  150.9730 LP  0  0  0  0  0  0  0  0  0  0  0  0  # atno 17343 bound_to 10162
  157.7508  131.0203  150.3703 LP  0  0  0  0  0  0  0  0  0  0  0  0  # atno 17370 bound_to 10713
  156.4037  130.3921  149.6941 LP  0  0  0  0  0  0  0  0  0  0  0  0  # atno 17371 bound_to 10713
  141.0935  133.9880  157.3199 LP  0  0  0  0  0  0  0  0  0  0  0  0  # atno 17394 bound_to 11000
  139.9274  135.0201  156.8282 LP  0  0  0  0  0  0  0  0  0  0  0  0  # atno 17395 bound_to 11000

$$$$
