AV-unprocessed.smi:1434|AV-procd|sdf|5850|dock1
  -GOLD-   22720 5513D 1   1.00000     0.00000
 Structure written by MMmdl.
 44 45  0  0  0  0  0  0  0  0  1 V2000
  148.3056  136.4669  159.2423 C   0  0  0  0  0  0  0  0  0  0  0  0
  148.1595  135.1498  157.9696 S   0  0  0  0  0  0  0  0  0  0  0  0
  149.4437  134.4417  157.8604 O   0  0  0  0  0  0  0  0  0  0  0  0
  146.9202  134.3958  158.2124 O   0  0  0  0  0  0  0  0  0  0  0  0
  147.9427  136.0533  156.5174 N   0  0  0  0  0  0  0  0  0  0  0  0
  148.9798  137.0172  156.1532 C   0  0  1  0  0  0  0  0  0  0  0  0
  150.2293  136.2937  155.6083 C   0  0  0  0  0  0  0  0  0  0  0  0
  151.2751  137.2913  155.0689 C   0  0  0  0  0  0  0  0  0  0  0  0
  150.6269  138.3242  154.1266 C   0  0  0  0  0  0  0  0  0  0  0  0
  149.5170  138.9784  154.8386 N   0  0  0  0  0  0  0  0  0  0  0  0
  149.5394  140.2101  155.4055 C   0  0  0  0  0  0  0  0  0  0  0  0
  148.5363  140.7543  155.8690 O   0  0  0  0  0  0  0  0  0  0  0  0
  150.7645  140.7558  155.5097 N   0  0  0  0  0  0  0  0  0  0  0  0
  151.0962  141.9474  156.2888 C   0  0  0  0  0  0  0  0  0  0  0  0
  150.8651  141.7390  157.8008 C   0  0  0  0  0  0  0  0  0  0  0  0
  151.3100  142.9101  158.6637 C   0  0  0  0  0  0  0  0  0  0  0  0
  151.9909  142.6912  159.8810 C   0  0  0  0  0  0  0  0  0  0  0  0
  152.3411  143.8070  160.6653 C   0  0  0  0  0  0  0  0  0  0  0  0
  151.9984  145.0926  160.2057 C   0  0  0  0  0  0  0  0  0  0  0  0
  151.3275  145.2062  158.9718 C   0  0  0  0  0  0  0  0  0  0  0  0
  150.9921  144.1431  158.2090 N   0  0  0  0  0  0  0  0  0  0  0  0
  148.4377  138.0273  155.1246 C   0  0  0  0  0  0  0  0  0  0  0  0
  148.4425  136.0088  160.2216 H   0  0  0  0  0  0  0  0  0  0  0  0
  147.3984  137.0707  159.2482 H   0  0  0  0  0  0  0  0  0  0  0  0
  149.1633  137.0998  159.0159 H   0  0  0  0  0  0  0  0  0  0  0  0
  147.0168  136.4789  156.4828 H   0  0  0  0  0  0  0  0  0  0  0  0
  149.2616  137.5716  157.0490 H   0  0  0  0  0  0  0  0  0  0  0  0
  150.6746  135.6678  156.3829 H   0  0  0  0  0  0  0  0  0  0  0  0
  149.9342  135.6225  154.8006 H   0  0  0  0  0  0  0  0  0  0  0  0
  151.7467  137.8096  155.9041 H   0  0  0  0  0  0  0  0  0  0  0  0
  152.0705  136.7550  154.5508 H   0  0  0  0  0  0  0  0  0  0  0  0
  151.3738  139.0255  153.7537 H   0  0  0  0  0  0  0  0  0  0  0  0
  150.2370  137.8223  153.2398 H   0  0  0  0  0  0  0  0  0  0  0  0
  151.5384  140.2481  155.1066 H   0  0  0  0  0  0  0  0  0  0  0  0
  152.1414  142.1982  156.1086 H   0  0  0  0  0  0  0  0  0  0  0  0
  150.5174  142.8053  155.9427 H   0  0  0  0  0  0  0  0  0  0  0  0
  149.8051  141.5550  157.9802 H   0  0  0  0  0  0  0  0  0  0  0  0
  151.3854  140.8392  158.1314 H   0  0  0  0  0  0  0  0  0  0  0  0
  152.2283  141.6920  160.2146 H   0  0  0  0  0  0  0  0  0  0  0  0
  152.8528  143.6785  161.6078 H   0  0  0  0  0  0  0  0  0  0  0  0
  152.2424  145.9704  160.7858 H   0  0  0  0  0  0  0  0  0  0  0  0
  151.0517  146.1768  158.5875 H   0  0  0  0  0  0  0  0  0  0  0  0
  148.1366  137.5202  154.2065 H   0  0  0  0  0  0  0  0  0  0  0  0
  147.5378  138.5124  155.5064 H   0  0  0  0  0  0  0  0  0  0  0  0
  1  2  1  0  0  0  0
  1 23  1  0  0  0  0
  1 24  1  0  0  0  0
  1 25  1  0  0  0  0
  2  3  2  0  0  0  0
  2  4  2  0  0  0  0
  2  5  1  0  0  0  0
  5  6  1  0  0  0  0
  5 26  1  0  0  0  0
  6 22  1  0  0  0  0
  6  7  1  0  0  0  0
  6 27  1  0  0  0  0
  7  8  1  0  0  0  0
  7 28  1  0  0  0  0
  7 29  1  0  0  0  0
  8  9  1  0  0  0  0
  8 30  1  0  0  0  0
  8 31  1  0  0  0  0
  9 10  1  0  0  0  0
  9 32  1  0  0  0  0
  9 33  1  0  0  0  0
 10 11  1  0  0  0  0
 10 22  1  0  0  0  0
 11 12  2  0  0  0  0
 11 13  1  0  0  0  0
 13 14  1  0  0  0  0
 13 34  1  0  0  0  0
 14 15  1  0  0  0  0
 14 35  1  0  0  0  0
 14 36  1  0  0  0  0
 15 16  1  0  0  0  0
 15 37  1  0  0  0  0
 15 38  1  0  0  0  0
 16 21  1  0  0  0  0
 16 17  2  0  0  0  0
 17 18  1  0  0  0  0
 17 39  1  0  0  0  0
 18 19  2  0  0  0  0
 18 40  1  0  0  0  0
 19 20  1  0  0  0  0
 19 41  1  0  0  0  0
 20 21  2  0  0  0  0
 20 42  1  0  0  0  0
 22 43  1  0  0  0  0
 22 44  1  0  0  0  0
M  END
> <s_m_source_file>
AV-unprocessed.smi

> <i_m_source_file_index>
1434

> <i_lp_mmshare_version>
43012

> <i_f3d_flags>
0

> <s_epik_input>
W0NIM11TKD1PKSg9TylbTkhdW0NAQEhdMVtDSDJdW0NIMl1bQ0gyXU4oW0NIMl0xKUMoPU8pW05IXVtDSDJdW0NIMl1jMltjSF1bY0hdW2NIXVtjSF1uMg==

> <s_epik_cmdline>
J2VwaWtfcHl0aG9uJywgJy1waCcsICc3LjAnLCAnLXRuJywgJzgnLCAnLW1hJywgJzIwMCcsICctbWV0YWxfYmluZGluZycsICctaW1hZScsICc8aW5maWxlLm1hZT4nLCAnLW9tYWUnLCAnPG91dGZpbGUubWFlPic=

> <r_epik_Ionization_Penalty>
0.0449488

> <r_epik_Ionization_Penalty_Charging>
0

> <r_epik_Ionization_Penalty_Neutral>
0.0449488

> <r_epik_State_Penalty>
0.0380669

> <r_epik_Charging_Adjusted_Penalty>
0.0380669

> <i_epik_Tot_Q>
0

> <i_epik_Tot_abs_Q>
0

> <r_epik_Metal_State_Penalty>
0.0441384

> <b_epik_Metal_Only>
0

> <s_lp_Force_Field>
OPLS_2005

> <r_lp_Energy>
20.2695

> <b_lp_Chiralities_Consistent>
1

> <s_lp_Variant>
AV-unprocessed.smi:1434-2

> <Gold.Version>
5.8.1

> <Gold.Id.Protein>
6NUR|6NUR_protein|mol2

> <Gold.PLP.Fitness>
37.9820

> <Gold.PLP.PLP>
-35.9295

> <Gold.PLP.part.hbond>
-1.0000

> <Gold.PLP.part.metal>
0.0000

> <Gold.PLP.part.buried>
-7.4134

> <Gold.PLP.part.nonpolar>
-28.5463

> <Gold.PLP.part.repulsive>
0.8809

> <Gold.PLP.ligand.clash>
0.0000

> <Gold.PLP.ligand.torsion>
0.5584

> <Gold.PLP.Chemscore.Hbond>
1.0000

> <Gold.PLP.Chemscore.CHOScore>
0.0000

> <Gold.PLP.Chemscore.Metal>
0.0000

> <Gold.Chemscore.Hbonds>
donor molecule, donor type, donor heavy atom, donor atom, acceptor molecule, acceptor atom, score
      P1  H  6896  6908       L1     3  1.00

> <Gold.PLP.Chemscore.Internal.Correction>
0.1693

> <Gold.Rescore>
     Score         DG    S(hbond)    S(metal)    S(lipo)     H(rot)  DE(clash)    DE(int)     intcor
     14.42     -15.10       0.99        0.00      98.38       2.03       0.05       0.63       ----

> <Gold.Chemscore.Fitness>
14.4241

> <Gold.Chemscore.DG>
-15.1015

> <Gold.Chemscore.ZeroCoef>
-5.4800

> <Gold.Chemscore.Hbond>
0.9934

> <Gold.Chemscore.Metal>
0.0000

> <Gold.Chemscore.Lipo>
98.3813

> <Gold.Chemscore.Internal_Hbond>
0.0000

> <Gold.Chemscore.DEClash>
0.0456

> <Gold.Chemscore.DEInternal>
0.6318

> <Gold.Chemscore.Rot>
2.0340

> <Gold.Chemscore.Internal.Correction>
   9.000000E+99

> <Gold.Chemscore.Hbonds>
donor molecule, donor type, donor heavy atom, donor atom, acceptor molecule, acceptor atom, score
      P1  H  6896  6908       L1     3  0.98

> <Gold.Chemscore.Hbond.Weighted>
-3.3180

> <Gold.Chemscore.Metal.Weighted>
-0.0000

> <Gold.Chemscore.Lipo.Weighted>
-11.5106

> <Gold.Chemscore.Internal_Hbond.Weighted>
0.0000

> <Gold.Chemscore.DEClash.Weighted>
0.0456

> <Gold.Chemscore.DEInternal.Weighted>
0.6318

> <Gold.Chemscore.Rot.Weighted>
5.2071

> <Gold.Chemscore.Internal.Correction.Weighted>
   9.000000E+99

> <Gold.Protein.RotatedTorsions>
[ 6907 6896 6895 6894 ] final  133.84 input  -60.11 | X-H torsion
[ 7974 7965 7964 7962 ] final  -53.40 input  175.53 | X-H torsion
[ 8008 7997 7996 7995 ] final  139.03 input   59.86 | X-H torsion
[ 10167 10162 10161 10158 ] final  171.00 input  -65.29 | X-H torsion
[ 10718 10713 10712 10709 ] final  157.57 input   66.30 | X-H torsion
[ 10763 10752 10751 10750 ] final  108.53 input  -60.55 | X-H torsion
[ 11005 11000 10999 10996 ] final   52.99 input  -57.11 | X-H torsion

> <Gold.Protein.ActiveResidues>
 VAL166  LYS551  ARG553  GLY616  TRP617  ASP618  TYR619  PRO620  LYS621  CYS622 
 ASP623  PHE694  ASN695  SER759  ASP760  ASP761  ALA762  ILE779  LEU786  VAL792 
 PHE793  MET794  SER795  GLU796  ALA797  LYS798  CYS799  TRP800  GLU811  SER814 

> <Gold.Protein.RotatedAtoms>
  152.3176  133.5819  159.5722 H   0  0  0  0  0  0  0  0  0  0  0  0  # atno 6907 bound_to 6896
  150.7355  134.0059  159.3662 H   0  0  0  0  0  0  0  0  0  0  0  0  # atno 6908 bound_to 6896
  151.7946  135.0726  160.0443 H   0  0  0  0  0  0  0  0  0  0  0  0  # atno 6909 bound_to 6896
  145.8972  140.8023  142.9761 H   0  0  0  0  0  0  0  0  0  0  0  0  # atno 7974 bound_to 7965
  156.2993  140.2378  156.4171 H   0  0  0  0  0  0  0  0  0  0  0  0  # atno 8008 bound_to 7997
  154.8389  140.0429  157.1548 H   0  0  0  0  0  0  0  0  0  0  0  0  # atno 8009 bound_to 7997
  154.9125  140.2992  155.5262 H   0  0  0  0  0  0  0  0  0  0  0  0  # atno 8010 bound_to 7997
  139.5034  144.3534  151.9899 H   0  0  0  0  0  0  0  0  0  0  0  0  # atno 10167 bound_to 10162
  157.1897  131.0651  151.2086 H   0  0  0  0  0  0  0  0  0  0  0  0  # atno 10718 bound_to 10713
  153.4219  135.3809  155.2117 H   0  0  0  0  0  0  0  0  0  0  0  0  # atno 10763 bound_to 10752
  154.8745  135.3819  154.4373 H   0  0  0  0  0  0  0  0  0  0  0  0  # atno 10764 bound_to 10752
  153.4894  135.7088  153.5955 H   0  0  0  0  0  0  0  0  0  0  0  0  # atno 10765 bound_to 10752
  140.0803  134.5347  155.8953 H   0  0  0  0  0  0  0  0  0  0  0  0  # atno 11005 bound_to 11000
  144.6733  140.1621  143.7421 LP  0  0  0  0  0  0  0  0  0  0  0  0  # atno 17320 bound_to 7965
  145.8836  139.2336  143.1591 LP  0  0  0  0  0  0  0  0  0  0  0  0  # atno 17321 bound_to 7965
  140.2970  144.3689  150.6071 LP  0  0  0  0  0  0  0  0  0  0  0  0  # atno 17342 bound_to 10162
  140.5902  143.2168  151.7266 LP  0  0  0  0  0  0  0  0  0  0  0  0  # atno 17343 bound_to 10162
  157.3873  130.7263  149.6672 LP  0  0  0  0  0  0  0  0  0  0  0  0  # atno 17370 bound_to 10713
  155.9713  130.4156  150.4190 LP  0  0  0  0  0  0  0  0  0  0  0  0  # atno 17371 bound_to 10713
  141.2044  133.6639  156.6121 LP  0  0  0  0  0  0  0  0  0  0  0  0  # atno 17394 bound_to 11000
  140.3497  134.7779  157.4458 LP  0  0  0  0  0  0  0  0  0  0  0  0  # atno 17395 bound_to 11000

$$$$
