AV-unprocessed.smi:2449|AV-procd|sdf|9663|dock4
  -GOLD-   2272013303D 1   1.00000     0.00000
 Structure written by MMmdl.
 37 37  0  0  0  0  0  0  0  0  1 V2000
  153.4199  142.2763  161.9836 C   0  0  0  0  0  0  0  0  0  0  0  0
  153.1733  142.9914  160.6511 C   0  0  0  0  0  0  0  0  0  0  0  0
  151.7759  143.6415  160.5851 C   0  0  0  0  0  0  0  0  0  0  0  0
  151.3382  144.1709  159.1902 C   0  0  0  0  0  0  0  0  0  0  0  0
  149.8674  144.6305  159.2315 C   0  0  0  0  0  0  0  0  0  0  0  0
  152.2063  145.3859  158.7964 C   0  0  0  0  0  0  0  0  0  0  0  0
  151.4326  143.1279  158.1602 N   0  0  0  0  0  0  0  0  0  0  0  0
  150.5983  142.0968  157.9371 C   0  0  0  0  0  0  0  0  0  0  0  0
  149.6089  141.8536  158.6287 O   0  0  0  0  0  0  0  0  0  0  0  0
  150.9506  141.1941  156.7468 C   0  0  0  0  0  0  0  0  0  0  0  0
  149.8431  141.0653  155.7884 N   0  0  0  0  0  0  0  0  0  0  0  0
  148.6520  141.7466  155.9951 C   0  0  0  0  0  0  0  0  0  0  0  0
  147.5995  141.6822  155.1454 C   0  0  0  0  0  0  0  0  0  0  0  0
  147.6741  140.8687  153.9366 C   0  0  0  0  0  0  0  0  0  0  0  0
  146.7753  140.7455  153.1078 O   0  0  0  0  0  0  0  0  0  0  0  0
  148.8892  140.2005  153.7630 N   0  0  0  0  0  0  0  0  0  0  0  0
  149.9777  140.2625  154.6342 C   0  0  0  0  0  0  0  0  0  0  0  0
  151.0060  139.6342  154.3847 O   0  0  0  0  0  0  0  0  0  0  0  0
  148.9884  139.6271  152.9377 H   0  0  0  0  0  0  0  0  0  0  0  0
  154.4112  141.8228  162.0020 H   0  0  0  0  0  0  0  0  0  0  0  0
  152.6880  141.4849  162.1475 H   0  0  0  0  0  0  0  0  0  0  0  0
  153.3567  142.9717  162.8210 H   0  0  0  0  0  0  0  0  0  0  0  0
  153.9493  143.7442  160.5127 H   0  0  0  0  0  0  0  0  0  0  0  0
  153.2926  142.2723  159.8414 H   0  0  0  0  0  0  0  0  0  0  0  0
  151.0372  142.9203  160.9377 H   0  0  0  0  0  0  0  0  0  0  0  0
  151.7430  144.4562  161.3090 H   0  0  0  0  0  0  0  0  0  0  0  0
  149.7074  145.3821  160.0054 H   0  0  0  0  0  0  0  0  0  0  0  0
  149.1857  143.8034  159.4298 H   0  0  0  0  0  0  0  0  0  0  0  0
  149.5650  145.0720  158.2811 H   0  0  0  0  0  0  0  0  0  0  0  0
  152.0719  146.2081  159.5001 H   0  0  0  0  0  0  0  0  0  0  0  0
  151.9442  145.7584  157.8054 H   0  0  0  0  0  0  0  0  0  0  0  0
  153.2698  145.1470  158.7865 H   0  0  0  0  0  0  0  0  0  0  0  0
  152.2147  143.2161  157.5277 H   0  0  0  0  0  0  0  0  0  0  0  0
  151.8400  141.5705  156.2369 H   0  0  0  0  0  0  0  0  0  0  0  0
  151.2339  140.2161  157.1382 H   0  0  0  0  0  0  0  0  0  0  0  0
  148.5526  142.3657  156.8753 H   0  0  0  0  0  0  0  0  0  0  0  0
  146.6976  142.2369  155.3607 H   0  0  0  0  0  0  0  0  0  0  0  0
  1  2  1  0  0  0  0
  1 20  1  0  0  0  0
  1 21  1  0  0  0  0
  1 22  1  0  0  0  0
  2  3  1  0  0  0  0
  2 23  1  0  0  0  0
  2 24  1  0  0  0  0
  3  4  1  0  0  0  0
  3 25  1  0  0  0  0
  3 26  1  0  0  0  0
  4  5  1  0  0  0  0
  4  6  1  0  0  0  0
  4  7  1  0  0  0  0
  5 27  1  0  0  0  0
  5 28  1  0  0  0  0
  5 29  1  0  0  0  0
  6 30  1  0  0  0  0
  6 31  1  0  0  0  0
  6 32  1  0  0  0  0
  7  8  1  0  0  0  0
  7 33  1  0  0  0  0
  8  9  2  0  0  0  0
  8 10  1  0  0  0  0
 10 11  1  0  0  0  0
 10 34  1  0  0  0  0
 10 35  1  0  0  0  0
 11 17  1  0  0  0  0
 11 12  1  0  0  0  0
 12 13  2  0  0  0  0
 12 36  1  0  0  0  0
 13 14  1  0  0  0  0
 13 37  1  0  0  0  0
 14 15  2  0  0  0  0
 14 16  1  0  0  0  0
 16 19  1  0  0  0  0
 16 17  1  0  0  0  0
 17 18  2  0  0  0  0
M  END
> <s_m_source_file>
AV-unprocessed.smi

> <i_m_source_file_index>
2449

> <i_lp_mmshare_version>
43012

> <i_f3d_flags>
0

> <s_epik_input>
W0NIM11bQ0gyXVtDSDJdQyhbQ0gzXSkoW0NIM10pW05IXUMoPU8pW0NIMl1uMVtjSF1bY0hdYyg9TylbbkhdYzE9Tw==

> <s_epik_cmdline>
J2VwaWtfcHl0aG9uJywgJy1waCcsICc3LjAnLCAnLXRuJywgJzgnLCAnLW1hJywgJzIwMCcsICctbWV0YWxfYmluZGluZycsICctaW1hZScsICc8aW5maWxlLm1hZT4nLCAnLW9tYWUnLCAnPG91dGZpbGUubWFlPic=

> <r_lp_tautomer_probability>
0.999537

> <r_epik_Ionization_Penalty>
0.00292856

> <r_epik_Ionization_Penalty_Charging>
0.00292854

> <r_epik_Ionization_Penalty_Neutral>
1.95902e-08

> <r_epik_State_Penalty>
0.00205284

> <r_epik_Charging_Adjusted_Penalty>
0.00498138

> <i_epik_Tot_Q>
0

> <i_epik_Tot_abs_Q>
0

> <r_epik_Metal_State_Penalty>
0.360056

> <b_epik_Metal_Only>
0

> <s_lp_Force_Field>
OPLS_2005

> <r_lp_Energy>
5.67084

> <b_lp_Chiralities_Consistent>
1

> <s_lp_Variant>
AV-unprocessed.smi:2449-1

> <Gold.Version>
5.8.1

> <Gold.Id.Protein>
6NUR|6NUR_protein|mol2

> <Gold.PLP.Fitness>
40.5299

> <Gold.PLP.PLP>
-36.4398

> <Gold.PLP.part.hbond>
-2.5599

> <Gold.PLP.part.metal>
0.0000

> <Gold.PLP.part.buried>
-1.0319

> <Gold.PLP.part.nonpolar>
-33.0878

> <Gold.PLP.part.repulsive>
0.5761

> <Gold.PLP.ligand.clash>
0.0000

> <Gold.PLP.ligand.torsion>
0.4363

> <Gold.PLP.Chemscore.Hbond>
1.4200

> <Gold.PLP.Chemscore.CHOScore>
0.2219

> <Gold.PLP.Chemscore.Metal>
0.0000

> <Gold.Chemscore.Hbonds>
donor molecule, donor type, donor heavy atom, donor atom, acceptor molecule, acceptor atom, score
      L1  H    16    19       P1  7957  0.64
      P1  H  7989  7998       L1    18  0.65
      L1  C    12    36       P1  8028  0.23

> <Gold.PLP.Chemscore.Internal.Correction>
0.0370

> <Gold.Rescore>
     Score         DG    S(hbond)    S(metal)    S(lipo)     H(rot)  DE(clash)    DE(int)     intcor
      9.34     -13.23       1.15        0.00      80.12       2.14       0.76       3.13       ----

> <Gold.Chemscore.Fitness>
9.3447

> <Gold.Chemscore.DG>
-13.2325

> <Gold.Chemscore.ZeroCoef>
-5.4800

> <Gold.Chemscore.Hbond>
1.1546

> <Gold.Chemscore.Metal>
0.0000

> <Gold.Chemscore.Lipo>
80.1177

> <Gold.Chemscore.Internal_Hbond>
0.0000

> <Gold.Chemscore.DEClash>
0.7599

> <Gold.Chemscore.DEInternal>
3.1279

> <Gold.Chemscore.Rot>
2.1397

> <Gold.Chemscore.Internal.Correction>
   9.000000E+99

> <Gold.Chemscore.Hbonds>
donor molecule, donor type, donor heavy atom, donor atom, acceptor molecule, acceptor atom, score
      L1  H    16    19       P1  7957  0.64
      P1  H  7989  7998       L1    18  0.06

> <Gold.Chemscore.Hbond.Weighted>
-3.8564

> <Gold.Chemscore.Metal.Weighted>
-0.0000

> <Gold.Chemscore.Lipo.Weighted>
-9.3738

> <Gold.Chemscore.Internal_Hbond.Weighted>
0.0000

> <Gold.Chemscore.DEClash.Weighted>
0.7599

> <Gold.Chemscore.DEInternal.Weighted>
3.1279

> <Gold.Chemscore.Rot.Weighted>
5.4777

> <Gold.Chemscore.Internal.Correction.Weighted>
   9.000000E+99

> <Gold.Protein.RotatedTorsions>
[ 6907 6896 6895 6894 ] final   12.08 input  -60.11 | X-H torsion
[ 7974 7965 7964 7962 ] final -120.08 input  175.53 | X-H torsion
[ 8008 7997 7996 7995 ] final  172.84 input   59.86 | X-H torsion
[ 10167 10162 10161 10158 ] final -132.71 input  -65.29 | X-H torsion
[ 10718 10713 10712 10709 ] final  148.65 input   66.30 | X-H torsion
[ 10763 10752 10751 10750 ] final  -78.09 input  -60.55 | X-H torsion
[ 11005 11000 10999 10996 ] final -124.42 input  -57.11 | X-H torsion

> <Gold.Protein.ActiveResidues>
 VAL166  LYS551  ARG553  GLY616  TRP617  ASP618  TYR619  PRO620  LYS621  CYS622 
 ASP623  PHE694  ASN695  SER759  ASP760  ASP761  ALA762  ILE779  LEU786  VAL792 
 PHE793  MET794  SER795  GLU796  ALA797  LYS798  CYS799  TRP800  GLU811  SER814 

> <Gold.Protein.RotatedAtoms>
  151.7646  135.0801  160.0350 H   0  0  0  0  0  0  0  0  0  0  0  0  # atno 6907 bound_to 6896
  152.3330  133.5975  159.5831 H   0  0  0  0  0  0  0  0  0  0  0  0  # atno 6908 bound_to 6896
  150.7433  133.9755  159.3601 H   0  0  0  0  0  0  0  0  0  0  0  0  # atno 6909 bound_to 6896
  145.0553  140.8250  143.4184 H   0  0  0  0  0  0  0  0  0  0  0  0  # atno 7974 bound_to 7965
  156.1135  140.1475  156.9305 H   0  0  0  0  0  0  0  0  0  0  0  0  # atno 8008 bound_to 7997
  154.4784  140.0887  156.7360 H   0  0  0  0  0  0  0  0  0  0  0  0  # atno 8009 bound_to 7997
  155.4555  140.3436  155.4308 H   0  0  0  0  0  0  0  0  0  0  0  0  # atno 8010 bound_to 7997
  139.9057  143.6554  152.2586 H   0  0  0  0  0  0  0  0  0  0  0  0  # atno 10167 bound_to 10162
  157.3059  131.0879  151.1354 H   0  0  0  0  0  0  0  0  0  0  0  0  # atno 10718 bound_to 10713
  154.5214  135.5742  153.6683 H   0  0  0  0  0  0  0  0  0  0  0  0  # atno 10763 bound_to 10752
  152.9918  135.6182  154.2750 H   0  0  0  0  0  0  0  0  0  0  0  0  # atno 10764 bound_to 10752
  154.2671  135.2854  155.2733 H   0  0  0  0  0  0  0  0  0  0  0  0  # atno 10765 bound_to 10752
  140.9843  134.0629  157.3729 H   0  0  0  0  0  0  0  0  0  0  0  0  # atno 11005 bound_to 11000
  145.1476  139.2534  143.5458 LP  0  0  0  0  0  0  0  0  0  0  0  0  # atno 17320 bound_to 7965
  146.3521  140.1170  142.8601 LP  0  0  0  0  0  0  0  0  0  0  0  0  # atno 17321 bound_to 7965
  139.6986  144.7638  151.1313 LP  0  0  0  0  0  0  0  0  0  0  0  0  # atno 17342 bound_to 10162
  140.7697  143.5489  150.9227 LP  0  0  0  0  0  0  0  0  0  0  0  0  # atno 17343 bound_to 10162
  157.2695  130.6697  149.6012 LP  0  0  0  0  0  0  0  0  0  0  0  0  # atno 17370 bound_to 10713
  155.9674  130.4483  150.5616 LP  0  0  0  0  0  0  0  0  0  0  0  0  # atno 17371 bound_to 10713
  139.8963  135.0145  156.7047 LP  0  0  0  0  0  0  0  0  0  0  0  0  # atno 17394 bound_to 11000
  140.7139  133.9199  155.8102 LP  0  0  0  0  0  0  0  0  0  0  0  0  # atno 17395 bound_to 11000

$$$$
