AV-unprocessed.smi:703|AV-procd|sdf|3428|dock10
  -GOLD-   22720 0413D 1   1.00000     0.00000
 Structure written by MMmdl.
 38 39  0  0  0  0  0  0  0  0  2 V2000
  152.5040  137.4427  154.0682 C   0  0  0  0  0  0  0  0  0  0  0  0
  151.1030  138.0688  154.0492 C   0  0  0  0  0  0  0  0  0  0  0  0
  150.0319  137.0511  154.1634 N   0  3  1  0  0  0  0  0  0  0  0  0
  150.4417  135.7779  154.7923 C   0  0  0  0  0  0  0  0  0  0  0  0
  149.1614  135.1612  155.3622 C   0  0  2  0  0  0  0  0  0  0  0  0
  148.4250  134.3051  154.3184 C   0  0  0  0  0  0  0  0  0  0  0  0
  148.3450  136.3890  155.7877 C   0  0  1  0  0  0  0  0  0  0  0  0
  148.6252  136.7118  157.1907 N   0  0  0  0  0  0  0  0  0  0  0  0
  148.1327  135.5845  158.4008 S   0  0  0  0  0  0  0  0  0  0  0  0
  146.6625  135.5314  158.3925 O   0  0  0  0  0  0  0  0  0  0  0  0
  148.9121  134.3544  158.1970 O   0  0  0  0  0  0  0  0  0  0  0  0
  148.6822  136.3993  159.9589 C   0  0  0  0  0  0  0  0  0  0  0  0
  147.5047  136.5714  160.8745 C   0  0  0  0  0  0  0  0  0  0  0  0
  146.7779  135.5709  161.5767 C   0  0  0  0  0  0  0  0  0  0  0  0
  145.8269  136.2820  162.2500 C   0  0  0  0  0  0  0  0  0  0  0  0
  145.9488  137.6073  161.9859 O   0  0  0  0  0  0  0  0  0  0  0  0
  147.0220  137.7819  161.1048 N   0  0  0  0  0  0  0  0  0  0  0  0
  148.8144  137.5257  154.8604 C   0  0  0  0  0  0  0  0  0  0  0  0
  153.2682  138.2069  153.9248 H   0  0  0  0  0  0  0  0  0  0  0  0
  152.6182  136.7073  153.2713 H   0  0  0  0  0  0  0  0  0  0  0  0
  152.7118  136.9474  155.0169 H   0  0  0  0  0  0  0  0  0  0  0  0
  151.0044  138.8057  154.8478 H   0  0  0  0  0  0  0  0  0  0  0  0
  150.9743  138.6059  153.1086 H   0  0  0  0  0  0  0  0  0  0  0  0
  150.9510  135.1223  154.0851 H   0  0  0  0  0  0  0  0  0  0  0  0
  151.1346  135.9840  155.6098 H   0  0  0  0  0  0  0  0  0  0  0  0
  149.3946  134.5200  156.2139 H   0  0  0  0  0  0  0  0  0  0  0  0
  148.1633  134.8858  153.4332 H   0  0  0  0  0  0  0  0  0  0  0  0
  147.5022  133.8958  154.7307 H   0  0  0  0  0  0  0  0  0  0  0  0
  149.0403  133.4648  153.9955 H   0  0  0  0  0  0  0  0  0  0  0  0
  147.2743  136.2055  155.6840 H   0  0  0  0  0  0  0  0  0  0  0  0
  149.6042  136.9696  157.3162 H   0  0  0  0  0  0  0  0  0  0  0  0
  149.4585  135.7854  160.4164 H   0  0  0  0  0  0  0  0  0  0  0  0
  149.1235  137.3632  159.7070 H   0  0  0  0  0  0  0  0  0  0  0  0
  146.9326  134.5024  161.5888 H   0  0  0  0  0  0  0  0  0  0  0  0
  145.0301  136.0037  162.9237 H   0  0  0  0  0  0  0  0  0  0  0  0
  149.0047  138.4463  155.4148 H   0  0  0  0  0  0  0  0  0  0  0  0
  148.0546  137.7536  154.1123 H   0  0  0  0  0  0  0  0  0  0  0  0
  149.7359  136.8213  153.2253 H   0  0  0  0  0  0  0  0  0  0  0  0
  1  2  1  0  0  0  0
  1 19  1  0  0  0  0
  1 20  1  0  0  0  0
  1 21  1  0  0  0  0
  2  3  1  0  0  0  0
  2 22  1  0  0  0  0
  2 23  1  0  0  0  0
  3 18  1  0  0  0  0
  3  4  1  0  0  0  0
  3 38  1  0  0  0  0
  4  5  1  0  0  0  0
  4 24  1  0  0  0  0
  4 25  1  0  0  0  0
  5  6  1  0  0  0  0
  5  7  1  0  0  0  0
  5 26  1  0  0  0  0
  6 27  1  0  0  0  0
  6 28  1  0  0  0  0
  6 29  1  0  0  0  0
  7  8  1  0  0  0  0
  7 18  1  0  0  0  0
  7 30  1  0  0  0  0
  8  9  1  0  0  0  0
  8 31  1  0  0  0  0
  9 10  2  0  0  0  0
  9 11  2  0  0  0  0
  9 12  1  0  0  0  0
 12 13  1  0  0  0  0
 12 32  1  0  0  0  0
 12 33  1  0  0  0  0
 13 17  2  0  0  0  0
 13 14  1  0  0  0  0
 14 15  2  0  0  0  0
 14 34  1  0  0  0  0
 15 16  1  0  0  0  0
 15 35  1  0  0  0  0
 16 17  1  0  0  0  0
 18 36  1  0  0  0  0
 18 37  1  0  0  0  0
M  CHG  1   3   1
M  END
> <s_m_source_file>
AV-unprocessed.smi

> <i_m_source_file_index>
703

> <i_lp_mmshare_version>
43012

> <i_f3d_flags>
0

> <s_epik_input>
W0NIM11bQ0gyXU4xW0NIMl1bQ0BASF0oW0NIM10pW0NASF0oW0NIMl0xKVtOSF1TKD1PKSg9TylbQ0gyXWMyW2NIXVtjSF1vbjI=

> <s_epik_cmdline>
J2VwaWtfcHl0aG9uJywgJy1waCcsICc3LjAnLCAnLXRuJywgJzgnLCAnLW1hJywgJzIwMCcsICctbWV0YWxfYmluZGluZycsICctaW1hZScsICc8aW5maWxlLm1hZT4nLCAnLW9tYWUnLCAnPG91dGZpbGUubWFlPic=

> <r_epik_Ionization_Penalty>
0.00324529

> <r_epik_Ionization_Penalty_Charging>
0.0019384

> <r_epik_Ionization_Penalty_Neutral>
0.00130689

> <r_epik_State_Penalty>
0.00218682

> <r_epik_Charging_Adjusted_Penalty>
0.00412522

> <i_epik_Tot_Q>
1

> <i_epik_Tot_abs_Q>
1

> <r_epik_Metal_State_Penalty>
0.310831

> <b_epik_Metal_Only>
0

> <s_lp_Force_Field>
OPLS_2005

> <r_lp_Energy>
19.6453

> <b_lp_Chiralities_Consistent>
1

> <s_lp_Variant>
AV-unprocessed.smi:703-3

> <Gold.Version>
5.8.1

> <Gold.Id.Protein>
6NUR|6NUR_protein|mol2

> <Gold.PLP.Fitness>
37.9756

> <Gold.PLP.PLP>
-27.0719

> <Gold.PLP.part.hbond>
-3.5196

> <Gold.PLP.part.metal>
0.0000

> <Gold.PLP.part.buried>
-4.3316

> <Gold.PLP.part.nonpolar>
-18.7647

> <Gold.PLP.part.repulsive>
0.0274

> <Gold.PLP.ligand.clash>
0.0865

> <Gold.PLP.ligand.torsion>
0.6359

> <Gold.PLP.Chemscore.Hbond>
4.0312

> <Gold.PLP.Chemscore.CHOScore>
0.0000

> <Gold.PLP.Chemscore.Metal>
0.0000

> <Gold.Chemscore.Hbonds>
donor molecule, donor type, donor heavy atom, donor atom, acceptor molecule, acceptor atom, score
      L1  H     3    38       P1  7948  2.00
      P1  H  6896  6908       L1    11  0.78
      P1  H  6931  6943       L1    17  0.10
      P1  H  6934  6947       L1    17  0.32

> <Gold.PLP.Chemscore.Internal.Correction>
0.1684

> <Gold.Rescore>
     Score         DG    S(hbond)    S(metal)    S(lipo)     H(rot)  DE(clash)    DE(int)     intcor
     16.62     -17.45       2.97        0.00      59.92       1.94       0.00       0.82       ----

> <Gold.Chemscore.Fitness>
16.6187

> <Gold.Chemscore.DG>
-17.4457

> <Gold.Chemscore.ZeroCoef>
-5.4800

> <Gold.Chemscore.Hbond>
2.9705

> <Gold.Chemscore.Metal>
0.0000

> <Gold.Chemscore.Lipo>
59.9205

> <Gold.Chemscore.Internal_Hbond>
0.0000

> <Gold.Chemscore.DEClash>
0.0021

> <Gold.Chemscore.DEInternal>
0.8250

> <Gold.Chemscore.Rot>
1.9400

> <Gold.Chemscore.Internal.Correction>
   9.000000E+99

> <Gold.Chemscore.Hbonds>
donor molecule, donor type, donor heavy atom, donor atom, acceptor molecule, acceptor atom, score
      L1  H     3    38       P1  7948  0.39
      P1  H  6896  6908       L1    11  0.60
      P1  H  6934  6947       L1    17  0.20

> <Gold.Chemscore.Hbond.Weighted>
-9.9215

> <Gold.Chemscore.Metal.Weighted>
-0.0000

> <Gold.Chemscore.Lipo.Weighted>
-7.0107

> <Gold.Chemscore.Internal_Hbond.Weighted>
0.0000

> <Gold.Chemscore.DEClash.Weighted>
0.0021

> <Gold.Chemscore.DEInternal.Weighted>
0.8250

> <Gold.Chemscore.Rot.Weighted>
4.9665

> <Gold.Chemscore.Internal.Correction.Weighted>
   9.000000E+99

> <Gold.Protein.RotatedTorsions>
[ 6907 6896 6895 6894 ] final  154.31 input  -60.11 | X-H torsion
[ 7974 7965 7964 7962 ] final  -16.05 input  175.53 | X-H torsion
[ 8008 7997 7996 7995 ] final  -30.11 input   59.86 | X-H torsion
[ 10167 10162 10161 10158 ] final  133.00 input  -65.29 | X-H torsion
[ 10718 10713 10712 10709 ] final   87.66 input   66.30 | X-H torsion
[ 10763 10752 10751 10750 ] final -173.36 input  -60.55 | X-H torsion
[ 11005 11000 10999 10996 ] final -137.11 input  -57.11 | X-H torsion

> <Gold.Protein.ActiveResidues>
 VAL166  LYS551  ARG553  GLY616  TRP617  ASP618  TYR619  PRO620  LYS621  CYS622 
 ASP623  PHE694  ASN695  SER759  ASP760  ASP761  ALA762  ILE779  LEU786  VAL792 
 PHE793  MET794  SER795  GLU796  ALA797  LYS798  CYS799  TRP800  GLU811  SER814 

> <Gold.Protein.RotatedAtoms>
  152.0602  133.4059  159.4414 H   0  0  0  0  0  0  0  0  0  0  0  0  # atno 6907 bound_to 6896
  150.6866  134.3208  159.4795 H   0  0  0  0  0  0  0  0  0  0  0  0  # atno 6908 bound_to 6896
  152.1029  134.9329  160.0619 H   0  0  0  0  0  0  0  0  0  0  0  0  # atno 6909 bound_to 6896
  146.2005  140.3581  142.8425 H   0  0  0  0  0  0  0  0  0  0  0  0  # atno 7974 bound_to 7965
  154.4263  140.1800  156.1355 H   0  0  0  0  0  0  0  0  0  0  0  0  # atno 8008 bound_to 7997
  156.0033  140.3358  155.6842 H   0  0  0  0  0  0  0  0  0  0  0  0  # atno 8009 bound_to 7997
  155.6212  140.0660  157.2668 H   0  0  0  0  0  0  0  0  0  0  0  0  # atno 8010 bound_to 7997
  139.5315  144.6636  151.4933 H   0  0  0  0  0  0  0  0  0  0  0  0  # atno 10167 bound_to 10162
  157.6942  131.0264  150.3156 H   0  0  0  0  0  0  0  0  0  0  0  0  # atno 10718 bound_to 10713
  154.6088  135.2862  155.0455 H   0  0  0  0  0  0  0  0  0  0  0  0  # atno 10763 bound_to 10752
  154.1693  135.6475  153.5009 H   0  0  0  0  0  0  0  0  0  0  0  0  # atno 10764 bound_to 10752
  153.0186  135.5397  154.6833 H   0  0  0  0  0  0  0  0  0  0  0  0  # atno 10765 bound_to 10752
  140.8742  134.2013  157.4632 H   0  0  0  0  0  0  0  0  0  0  0  0  # atno 11005 bound_to 11000
  144.8673  140.7223  143.6069 LP  0  0  0  0  0  0  0  0  0  0  0  0  # atno 17320 bound_to 7965
  145.3500  139.1709  143.4440 LP  0  0  0  0  0  0  0  0  0  0  0  0  # atno 17321 bound_to 7965
  140.6496  143.8723  150.6772 LP  0  0  0  0  0  0  0  0  0  0  0  0  # atno 17342 bound_to 10162
  140.2084  143.3903  152.1738 LP  0  0  0  0  0  0  0  0  0  0  0  0  # atno 17343 bound_to 10162
  156.3651  130.3853  149.7220 LP  0  0  0  0  0  0  0  0  0  0  0  0  # atno 17370 bound_to 10713
  156.4653  130.7971  151.2990 LP  0  0  0  0  0  0  0  0  0  0  0  0  # atno 17371 bound_to 10713
  139.8714  134.9788  156.5011 LP  0  0  0  0  0  0  0  0  0  0  0  0  # atno 17394 bound_to 11000
  140.8538  133.8112  155.9195 LP  0  0  0  0  0  0  0  0  0  0  0  0  # atno 17395 bound_to 11000

$$$$
