AV-unprocessed.smi:3261|AV-procd|sdf|12480|dock3
  -GOLD-   2272018383D 1   1.00000     0.00000
 Structure written by MMmdl.
 31 32  0  0  0  0  0  0  0  0  2 V2000
  146.9208  132.6028  153.8292 O   0  0  0  0  0  0  0  0  0  0  0  0
  147.4865  132.0088  152.9144 C   0  0  0  0  0  0  0  0  0  0  0  0
  147.0553  131.9752  151.6375 N   0  0  0  0  0  0  0  0  0  0  0  0
  145.8784  132.5402  151.0739 C   0  0  0  0  0  0  0  0  0  0  0  0
  145.4302  133.7698  151.6057 C   0  0  0  0  0  0  0  0  0  0  0  0
  144.2776  134.3813  151.0714 C   0  0  0  0  0  0  0  0  0  0  0  0
  143.6165  133.7934  150.0516 N   0  3  0  0  0  0  0  0  0  0  0  0
  144.0129  132.6260  149.5013 C   0  0  0  0  0  0  0  0  0  0  0  0
  145.1581  131.9676  149.9940 C   0  0  0  0  0  0  0  0  0  0  0  0
  148.6387  131.3470  153.1263 N   0  0  0  0  0  0  0  0  0  0  0  0
  149.3764  131.1859  154.3805 C   0  0  2  0  0  0  0  0  0  0  0  0
  150.1972  132.4481  154.7046 C   0  0  0  0  0  0  0  0  0  0  0  0
  151.2095  132.1082  155.8060 C   0  0  0  0  0  0  0  0  0  0  0  0
  151.6266  130.3364  155.5867 S   0  0  0  0  0  0  0  0  0  0  0  0
  152.9577  130.2121  154.9739 O   0  0  0  0  0  0  0  0  0  0  0  0
  151.2896  129.6114  156.8211 O   0  0  0  0  0  0  0  0  0  0  0  0
  150.3497  129.9978  154.3182 C   0  0  0  0  0  0  0  0  0  0  0  0
  147.6707  131.5179  150.9807 H   0  0  0  0  0  0  0  0  0  0  0  0
  145.9606  134.2423  152.4199 H   0  0  0  0  0  0  0  0  0  0  0  0
  143.8692  135.3169  151.4253 H   0  0  0  0  0  0  0  0  0  0  0  0
  143.4097  132.2577  148.6842 H   0  0  0  0  0  0  0  0  0  0  0  0
  145.4640  131.0462  149.5236 H   0  0  0  0  0  0  0  0  0  0  0  0
  149.0624  130.9201  152.3147 H   0  0  0  0  0  0  0  0  0  0  0  0
  148.6825  131.0308  155.2084 H   0  0  0  0  0  0  0  0  0  0  0  0
  150.7441  132.7605  153.8137 H   0  0  0  0  0  0  0  0  0  0  0  0
  149.5594  133.2839  154.9942 H   0  0  0  0  0  0  0  0  0  0  0  0
  152.1120  132.7177  155.7565 H   0  0  0  0  0  0  0  0  0  0  0  0
  150.7628  132.2284  156.7933 H   0  0  0  0  0  0  0  0  0  0  0  0
  149.8741  129.0368  154.5135 H   0  0  0  0  0  0  0  0  0  0  0  0
  150.8500  129.9486  153.3502 H   0  0  0  0  0  0  0  0  0  0  0  0
  142.7858  134.2528  149.6777 H   0  0  0  0  0  0  0  0  0  0  0  0
  1  2  2  0  0  0  0
  2  3  1  0  0  0  0
  2 10  1  0  0  0  0
  3  4  1  0  0  0  0
  3 18  1  0  0  0  0
  4  9  1  0  0  0  0
  4  5  2  0  0  0  0
  5  6  1  0  0  0  0
  5 19  1  0  0  0  0
  6  7  2  0  0  0  0
  6 20  1  0  0  0  0
  7  8  1  0  0  0  0
  7 31  1  0  0  0  0
  8  9  2  0  0  0  0
  8 21  1  0  0  0  0
  9 22  1  0  0  0  0
 10 11  1  0  0  0  0
 10 23  1  0  0  0  0
 11 17  1  0  0  0  0
 11 12  1  0  0  0  0
 11 24  1  0  0  0  0
 12 13  1  0  0  0  0
 12 25  1  0  0  0  0
 12 26  1  0  0  0  0
 13 14  1  0  0  0  0
 13 27  1  0  0  0  0
 13 28  1  0  0  0  0
 14 15  2  0  0  0  0
 14 16  2  0  0  0  0
 14 17  1  0  0  0  0
 17 29  1  0  0  0  0
 17 30  1  0  0  0  0
M  CHG  1   7   1
M  END
> <s_m_source_file>
AV-unprocessed.smi

> <i_m_source_file_index>
3261

> <i_lp_mmshare_version>
43012

> <i_f3d_flags>
0

> <s_epik_input>
Tz1TMSg9TylbQ0gyXVtDSDJdW0NASF0oW0NIMl0xKVtOSF1DKD1PKVtOSF1jMltjSF1bY0hdbltjSF1bY0hdMg==

> <s_epik_cmdline>
J2VwaWtfcHl0aG9uJywgJy1waCcsICc3LjAnLCAnLXRuJywgJzgnLCAnLW1hJywgJzIwMCcsICctbWV0YWxfYmluZGluZycsICctaW1hZScsICc8aW5maWxlLm1hZT4nLCAnLW9tYWUnLCAnPG91dGZpbGUubWFlPic=

> <r_epik_Ionization_Penalty>
1.10375

> <r_epik_Ionization_Penalty_Charging>
1.10372

> <r_epik_Ionization_Penalty_Neutral>
2.06752e-05

> <r_epik_State_Penalty>
1.16109

> <r_epik_Charging_Adjusted_Penalty>
2.26482

> <i_epik_Tot_Q>
1

> <i_epik_Tot_abs_Q>
1

> <r_epik_Metal_State_Penalty>
1.24883

> <b_epik_Metal_Only>
0

> <s_lp_Force_Field>
OPLS_2005

> <r_lp_Energy>
25.5271

> <b_lp_Chiralities_Consistent>
1

> <s_lp_Variant>
AV-unprocessed.smi:3261-3

> <Gold.Version>
5.8.1

> <Gold.Id.Protein>
6NUR|6NUR_protein|mol2

> <Gold.PLP.Fitness>
41.0214

> <Gold.PLP.PLP>
-30.3875

> <Gold.PLP.part.hbond>
-3.0000

> <Gold.PLP.part.metal>
0.0000

> <Gold.PLP.part.buried>
-4.8652

> <Gold.PLP.part.nonpolar>
-22.8238

> <Gold.PLP.part.repulsive>
0.1881

> <Gold.PLP.ligand.clash>
0.0000

> <Gold.PLP.ligand.torsion>
0.5033

> <Gold.PLP.Chemscore.Hbond>
3.8800

> <Gold.PLP.Chemscore.CHOScore>
0.0000

> <Gold.PLP.Chemscore.Metal>
0.0000

> <Gold.Chemscore.Hbonds>
donor molecule, donor type, donor heavy atom, donor atom, acceptor molecule, acceptor atom, score
      L1  H     3    18       P1 10747  1.00
      L1  H     7    31       P1 10186  2.00
      L1  H    10    23       P1 10747  0.90

> <Gold.PLP.Chemscore.Internal.Correction>
0.0005

> <Gold.Rescore>
     Score         DG    S(hbond)    S(metal)    S(lipo)     H(rot)  DE(clash)    DE(int)     intcor
     16.47     -18.30       2.38        0.00      63.61       1.00       0.28       1.55       ----

> <Gold.Chemscore.Fitness>
16.4674

> <Gold.Chemscore.DG>
-18.2952

> <Gold.Chemscore.ZeroCoef>
-5.4800

> <Gold.Chemscore.Hbond>
2.3751

> <Gold.Chemscore.Metal>
0.0000

> <Gold.Chemscore.Lipo>
63.6105

> <Gold.Chemscore.Internal_Hbond>
0.0000

> <Gold.Chemscore.DEClash>
0.2753

> <Gold.Chemscore.DEInternal>
1.5525

> <Gold.Chemscore.Rot>
1.0000

> <Gold.Chemscore.Internal.Correction>
   9.000000E+99

> <Gold.Chemscore.Hbonds>
donor molecule, donor type, donor heavy atom, donor atom, acceptor molecule, acceptor atom, score
      L1  H     3    18       P1 10747  0.99
      L1  H     7    31       P1 10186  0.96
      L1  H    10    23       P1 10747  0.29

> <Gold.Chemscore.Hbond.Weighted>
-7.9328

> <Gold.Chemscore.Metal.Weighted>
-0.0000

> <Gold.Chemscore.Lipo.Weighted>
-7.4424

> <Gold.Chemscore.Internal_Hbond.Weighted>
0.0000

> <Gold.Chemscore.DEClash.Weighted>
0.2753

> <Gold.Chemscore.DEInternal.Weighted>
1.5525

> <Gold.Chemscore.Rot.Weighted>
2.5600

> <Gold.Chemscore.Internal.Correction.Weighted>
   9.000000E+99

> <Gold.Protein.RotatedTorsions>
[ 6907 6896 6895 6894 ] final  -15.78 input  -60.11 | X-H torsion
[ 7974 7965 7964 7962 ] final -158.04 input  175.53 | X-H torsion
[ 8008 7997 7996 7995 ] final   55.33 input   59.86 | X-H torsion
[ 10167 10162 10161 10158 ] final -161.84 input  -65.29 | X-H torsion
[ 10718 10713 10712 10709 ] final  -13.74 input   66.30 | X-H torsion
[ 10763 10752 10751 10750 ] final -126.28 input  -60.55 | X-H torsion
[ 11005 11000 10999 10996 ] final  -71.20 input  -57.11 | X-H torsion

> <Gold.Protein.ActiveResidues>
 VAL166  LYS551  ARG553  GLY616  TRP617  ASP618  TYR619  PRO620  LYS621  CYS622 
 ASP623  PHE694  ASN695  SER759  ASP760  ASP761  ALA762  ILE779  LEU786  VAL792 
 PHE793  MET794  SER795  GLU796  ALA797  LYS798  CYS799  TRP800  GLU811  SER814 

> <Gold.Protein.RotatedAtoms>
  151.3187  135.0813  159.9297 H   0  0  0  0  0  0  0  0  0  0  0  0  # atno 6907 bound_to 6896
  152.5261  133.9661  159.7750 H   0  0  0  0  0  0  0  0  0  0  0  0  # atno 6908 bound_to 6896
  150.9978  133.6033  159.2729 H   0  0  0  0  0  0  0  0  0  0  0  0  # atno 6909 bound_to 6896
  144.7522  140.3884  143.6039 H   0  0  0  0  0  0  0  0  0  0  0  0  # atno 7974 bound_to 7965
  155.4993  140.3474  155.4368 H   0  0  0  0  0  0  0  0  0  0  0  0  # atno 8008 bound_to 7997
  156.0924  140.1414  156.9602 H   0  0  0  0  0  0  0  0  0  0  0  0  # atno 8009 bound_to 7997
  154.4643  140.0923  156.6955 H   0  0  0  0  0  0  0  0  0  0  0  0  # atno 8010 bound_to 7997
  139.6436  144.0214  152.2110 H   0  0  0  0  0  0  0  0  0  0  0  0  # atno 10167 bound_to 10162
  156.6259  130.4888  149.6147 H   0  0  0  0  0  0  0  0  0  0  0  0  # atno 10718 bound_to 10713
  154.8744  135.4001  154.3405 H   0  0  0  0  0  0  0  0  0  0  0  0  # atno 10763 bound_to 10752
  153.4205  135.7023  153.6303 H   0  0  0  0  0  0  0  0  0  0  0  0  # atno 10764 bound_to 10752
  153.4967  135.3736  155.2489 H   0  0  0  0  0  0  0  0  0  0  0  0  # atno 10765 bound_to 10752
  141.1588  133.6811  156.6869 H   0  0  0  0  0  0  0  0  0  0  0  0  # atno 11005 bound_to 11000
  145.6902  139.1637  143.2651 LP  0  0  0  0  0  0  0  0  0  0  0  0  # atno 17320 bound_to 7965
  146.1488  140.6954  142.9332 LP  0  0  0  0  0  0  0  0  0  0  0  0  # atno 17321 bound_to 7965
  139.9910  144.6361  150.7814 LP  0  0  0  0  0  0  0  0  0  0  0  0  # atno 17342 bound_to 10162
  140.7503  143.2953  151.3221 LP  0  0  0  0  0  0  0  0  0  0  0  0  # atno 17343 bound_to 10162
  156.2274  130.6774  151.1429 LP  0  0  0  0  0  0  0  0  0  0  0  0  # atno 17370 bound_to 10713
  157.7214  131.0679  150.6119 LP  0  0  0  0  0  0  0  0  0  0  0  0  # atno 17371 bound_to 10713
  140.3060  134.8125  157.4137 LP  0  0  0  0  0  0  0  0  0  0  0  0  # atno 17394 bound_to 11000
  140.1220  134.5207  155.8176 LP  0  0  0  0  0  0  0  0  0  0  0  0  # atno 17395 bound_to 11000

$$$$
