AV-unprocessed.smi:1758|AV-procd|sdf|7085|dock3
  -GOLD-   22720 8303D 1   1.00000     0.00000
 Structure written by MMmdl.
 44 46  0  0  0  0  0  0  0  0  2 V2000
  150.5968  141.2980  156.7748 C   0  0  0  0  0  0  0  0  0  0  0  0
  150.0689  141.5152  155.3516 C   0  0  0  0  0  0  0  0  0  0  0  0
  149.0559  140.5394  154.9989 N   0  0  0  0  0  0  0  0  0  0  0  0
  149.0287  139.6939  153.9076 C   0  0  0  0  0  0  0  0  0  0  0  0
  147.8728  138.9749  154.0261 C   0  0  0  0  0  0  0  0  0  0  0  0
  147.3485  137.9667  153.1781 N   0  0  0  0  0  0  0  0  0  0  0  0
  146.0620  137.6089  153.0372 C   0  0  0  0  0  0  0  0  0  0  0  0
  145.1133  138.1219  153.6307 O   0  0  0  0  0  0  0  0  0  0  0  0
  145.9255  136.6106  152.1530 N   0  0  0  0  0  0  0  0  0  0  0  0
  144.6546  135.9839  151.7983 C   0  0  2  0  0  0  0  0  0  0  0  0
  143.9110  135.4041  152.9947 C   0  0  0  0  0  0  0  0  0  0  0  0
  142.9146  134.4376  152.3460 C   0  0  0  0  0  0  0  0  0  0  0  0
  143.5086  134.0095  151.0552 N   0  3  2  0  0  0  0  0  0  0  0  0
  143.6295  132.5344  150.9047 C   0  0  0  0  0  0  0  0  0  0  0  0
  144.5934  132.1745  149.7644 C   0  0  0  0  0  0  0  0  0  0  0  0
  146.0153  132.6997  150.0401 C   0  0  0  0  0  0  0  0  0  0  0  0
  146.0248  133.8955  151.0116 C   0  0  0  0  0  0  0  0  0  0  0  0
  144.7662  134.7811  150.8412 C   0  0  2  0  0  0  0  0  0  0  0  0
  147.2507  139.4357  155.2156 C   0  0  0  0  0  0  0  0  0  0  0  0
  147.9715  140.3818  155.7979 N   0  0  0  0  0  0  0  0  0  0  0  0
  151.3626  142.0340  157.0201 H   0  0  0  0  0  0  0  0  0  0  0  0
  151.0402  140.3076  156.8825 H   0  0  0  0  0  0  0  0  0  0  0  0
  149.7986  141.3908  157.5119 H   0  0  0  0  0  0  0  0  0  0  0  0
  149.6446  142.5152  155.2521 H   0  0  0  0  0  0  0  0  0  0  0  0
  150.8861  141.4447  154.6327 H   0  0  0  0  0  0  0  0  0  0  0  0
  149.8172  139.6858  153.1695 H   0  0  0  0  0  0  0  0  0  0  0  0
  148.0270  137.4590  152.6294 H   0  0  0  0  0  0  0  0  0  0  0  0
  146.7568  136.2472  151.7098 H   0  0  0  0  0  0  0  0  0  0  0  0
  144.0095  136.7372  151.3404 H   0  0  0  0  0  0  0  0  0  0  0  0
  144.5985  134.8511  153.6365 H   0  0  0  0  0  0  0  0  0  0  0  0
  143.4227  136.1662  153.6030 H   0  0  0  0  0  0  0  0  0  0  0  0
  142.6765  133.6037  153.0080 H   0  0  0  0  0  0  0  0  0  0  0  0
  141.9799  134.9552  152.1278 H   0  0  0  0  0  0  0  0  0  0  0  0
  143.9926  132.0893  151.8328 H   0  0  0  0  0  0  0  0  0  0  0  0
  142.6404  132.1146  150.7191 H   0  0  0  0  0  0  0  0  0  0  0  0
  144.6182  131.0954  149.6101 H   0  0  0  0  0  0  0  0  0  0  0  0
  144.2189  132.6060  148.8350 H   0  0  0  0  0  0  0  0  0  0  0  0
  146.6367  131.9039  150.4523 H   0  0  0  0  0  0  0  0  0  0  0  0
  146.4773  132.9840  149.0937 H   0  0  0  0  0  0  0  0  0  0  0  0
  146.0706  133.5277  152.0376 H   0  0  0  0  0  0  0  0  0  0  0  0
  146.9378  134.4703  150.8554 H   0  0  0  0  0  0  0  0  0  0  0  0
  144.7628  135.1500  149.8144 H   0  0  0  0  0  0  0  0  0  0  0  0
  146.3199  139.1234  155.6657 H   0  0  0  0  0  0  0  0  0  0  0  0
  142.8722  134.3209  150.3352 H   0  0  0  0  0  0  0  0  0  0  0  0
  1  2  1  0  0  0  0
  1 21  1  0  0  0  0
  1 22  1  0  0  0  0
  1 23  1  0  0  0  0
  2  3  1  0  0  0  0
  2 24  1  0  0  0  0
  2 25  1  0  0  0  0
  3 20  1  0  0  0  0
  3  4  1  0  0  0  0
  4  5  2  0  0  0  0
  4 26  1  0  0  0  0
  5  6  1  0  0  0  0
  5 19  1  0  0  0  0
  6  7  1  0  0  0  0
  6 27  1  0  0  0  0
  7  8  2  0  0  0  0
  7  9  1  0  0  0  0
  9 10  1  0  0  0  0
  9 28  1  0  0  0  0
 10 18  1  0  0  0  0
 10 11  1  0  0  0  0
 10 29  1  0  0  0  0
 11 12  1  0  0  0  0
 11 30  1  0  0  0  0
 11 31  1  0  0  0  0
 12 13  1  0  0  0  0
 12 32  1  0  0  0  0
 12 33  1  0  0  0  0
 13 18  1  0  0  0  0
 13 14  1  0  0  0  0
 13 44  1  0  0  0  0
 14 15  1  0  0  0  0
 14 34  1  0  0  0  0
 14 35  1  0  0  0  0
 15 16  1  0  0  0  0
 15 36  1  0  0  0  0
 15 37  1  0  0  0  0
 16 17  1  0  0  0  0
 16 38  1  0  0  0  0
 16 39  1  0  0  0  0
 17 18  1  0  0  0  0
 17 40  1  0  0  0  0
 17 41  1  0  0  0  0
 18 42  1  0  0  0  0
 19 20  2  0  0  0  0
 19 43  1  0  0  0  0
M  CHG  1  13   1
M  END
> <s_m_source_file>
AV-unprocessed.smi

> <i_m_source_file_index>
1758

> <i_lp_mmshare_version>
43012

> <i_f3d_flags>
0

> <s_epik_input>
W0NIM11bQ0gyXW4xW2NIXWMoW2NIXW4xKVtOSF1DKD1PKVtOSF1bQ0BIXShbQ0gyXVtDSDJdMilbQ0BASF0oTjIzKVtDSDJdW0NIMl1bQ0gyXVtDSDJdMw==

> <s_epik_cmdline>
J2VwaWtfcHl0aG9uJywgJy1waCcsICc3LjAnLCAnLXRuJywgJzgnLCAnLW1hJywgJzIwMCcsICctbWV0YWxfYmluZGluZycsICctaW1hZScsICc8aW5maWxlLm1hZT4nLCAnLW9tYWUnLCAnPG91dGZpbGUubWFlPic=

> <r_lp_tautomer_probability>
1

> <r_epik_Ionization_Penalty>
0.00111541

> <r_epik_Ionization_Penalty_Charging>
0.000974069

> <r_epik_Ionization_Penalty_Neutral>
0.000141346

> <r_epik_State_Penalty>
0.000633842

> <r_epik_Charging_Adjusted_Penalty>
0.00160791

> <i_epik_Tot_Q>
1

> <i_epik_Tot_abs_Q>
1

> <r_epik_Metal_State_Penalty>
-0

> <b_epik_Metal_Only>
0

> <s_lp_Force_Field>
OPLS_2005

> <r_lp_Energy>
44.8791

> <b_lp_Chiralities_Consistent>
1

> <s_lp_Variant>
AV-unprocessed.smi:1758-7

> <Gold.Version>
5.8.1

> <Gold.Id.Protein>
6NUR|6NUR_protein|mol2

> <Gold.PLP.Fitness>
46.3193

> <Gold.PLP.PLP>
-33.1310

> <Gold.PLP.part.hbond>
-3.0000

> <Gold.PLP.part.metal>
0.0000

> <Gold.PLP.part.buried>
-4.1244

> <Gold.PLP.part.nonpolar>
-27.7240

> <Gold.PLP.part.repulsive>
0.9111

> <Gold.PLP.ligand.clash>
0.0000

> <Gold.PLP.ligand.torsion>
0.1824

> <Gold.PLP.Chemscore.Hbond>
3.6101

> <Gold.PLP.Chemscore.CHOScore>
0.9070

> <Gold.PLP.Chemscore.Metal>
0.0000

> <Gold.Chemscore.Hbonds>
donor molecule, donor type, donor heavy atom, donor atom, acceptor molecule, acceptor atom, score
      L1  H     6    27       P1  7948  1.00
      L1  H     9    28       P1  7948  0.57
      L1  H    13    44       P1 10186  2.00
      L1  C     4    26       P1  7957  0.94

> <Gold.PLP.Chemscore.Internal.Correction>
0.0019

> <Gold.Rescore>
     Score         DG    S(hbond)    S(metal)    S(lipo)     H(rot)  DE(clash)    DE(int)     intcor
     18.56     -19.93       2.40        0.00      81.08       1.19       0.09       1.28       ----

> <Gold.Chemscore.Fitness>
18.5632

> <Gold.Chemscore.DG>
-19.9338

> <Gold.Chemscore.ZeroCoef>
-5.4800

> <Gold.Chemscore.Hbond>
2.3981

> <Gold.Chemscore.Metal>
0.0000

> <Gold.Chemscore.Lipo>
81.0816

> <Gold.Chemscore.Internal_Hbond>
0.0000

> <Gold.Chemscore.DEClash>
0.0858

> <Gold.Chemscore.DEInternal>
1.2848

> <Gold.Chemscore.Rot>
1.1884

> <Gold.Chemscore.Internal.Correction>
   9.000000E+99

> <Gold.Chemscore.Hbonds>
donor molecule, donor type, donor heavy atom, donor atom, acceptor molecule, acceptor atom, score
      L1  H     6    27       P1  7948  1.00
      L1  H     9    28       P1  7948  0.56
      L1  H    13    44       P1 10186  0.71

> <Gold.Chemscore.Hbond.Weighted>
-8.0095

> <Gold.Chemscore.Metal.Weighted>
-0.0000

> <Gold.Chemscore.Lipo.Weighted>
-9.4865

> <Gold.Chemscore.Internal_Hbond.Weighted>
0.0000

> <Gold.Chemscore.DEClash.Weighted>
0.0858

> <Gold.Chemscore.DEInternal.Weighted>
1.2848

> <Gold.Chemscore.Rot.Weighted>
3.0423

> <Gold.Chemscore.Internal.Correction.Weighted>
   9.000000E+99

> <Gold.Protein.RotatedTorsions>
[ 6907 6896 6895 6894 ] final  110.59 input  -60.11 | X-H torsion
[ 7974 7965 7964 7962 ] final  144.25 input  175.53 | X-H torsion
[ 8008 7997 7996 7995 ] final  -72.76 input   59.86 | X-H torsion
[ 10167 10162 10161 10158 ] final  120.37 input  -65.29 | X-H torsion
[ 10718 10713 10712 10709 ] final   88.82 input   66.30 | X-H torsion
[ 10763 10752 10751 10750 ] final    6.38 input  -60.55 | X-H torsion
[ 11005 11000 10999 10996 ] final  -95.23 input  -57.11 | X-H torsion

> <Gold.Protein.ActiveResidues>
 VAL166  LYS551  ARG553  GLY616  TRP617  ASP618  TYR619  PRO620  LYS621  CYS622 
 ASP623  PHE694  ASN695  SER759  ASP760  ASP761  ALA762  ILE779  LEU786  VAL792 
 PHE793  MET794  SER795  GLU796  ALA797  LYS798  CYS799  TRP800  GLU811  SER814 

> <Gold.Protein.RotatedAtoms>
  152.5012  133.8779  159.7331 H   0  0  0  0  0  0  0  0  0  0  0  0  # atno 6907 bound_to 6896
  150.9249  133.6827  159.2830 H   0  0  0  0  0  0  0  0  0  0  0  0  # atno 6908 bound_to 6896
  151.4192  135.1000  159.9661 H   0  0  0  0  0  0  0  0  0  0  0  0  # atno 6909 bound_to 6896
  144.8852  139.5640  143.5824 H   0  0  0  0  0  0  0  0  0  0  0  0  # atno 7974 bound_to 7965
  154.5192  140.0791  156.8139 H   0  0  0  0  0  0  0  0  0  0  0  0  # atno 8008 bound_to 7997
  155.3613  140.3418  155.4222 H   0  0  0  0  0  0  0  0  0  0  0  0  # atno 8009 bound_to 7997
  156.1662  140.1604  156.8514 H   0  0  0  0  0  0  0  0  0  0  0  0  # atno 8010 bound_to 7997
  139.5986  144.7050  151.3116 H   0  0  0  0  0  0  0  0  0  0  0  0  # atno 10167 bound_to 10162
  157.6951  131.0309  150.3332 H   0  0  0  0  0  0  0  0  0  0  0  0  # atno 10718 bound_to 10713
  153.2484  135.6911  153.7706 H   0  0  0  0  0  0  0  0  0  0  0  0  # atno 10763 bound_to 10752
  153.6810  135.3328  155.3179 H   0  0  0  0  0  0  0  0  0  0  0  0  # atno 10764 bound_to 10752
  154.8384  135.4522  154.1432 H   0  0  0  0  0  0  0  0  0  0  0  0  # atno 10765 bound_to 10752
  141.1448  133.8012  157.0407 H   0  0  0  0  0  0  0  0  0  0  0  0  # atno 11005 bound_to 11000
  146.3020  139.7456  142.9084 LP  0  0  0  0  0  0  0  0  0  0  0  0  # atno 17320 bound_to 7965
  145.3882  141.0368  143.3139 LP  0  0  0  0  0  0  0  0  0  0  0  0  # atno 17321 bound_to 7965
  140.7232  143.7078  150.7794 LP  0  0  0  0  0  0  0  0  0  0  0  0  # atno 17342 bound_to 10162
  140.0649  143.5118  152.2609 LP  0  0  0  0  0  0  0  0  0  0  0  0  # atno 17343 bound_to 10162
  156.3803  130.3879  149.7107 LP  0  0  0  0  0  0  0  0  0  0  0  0  # atno 17370 bound_to 10713
  156.4491  130.7898  151.2919 LP  0  0  0  0  0  0  0  0  0  0  0  0  # atno 17371 bound_to 10713
  140.0694  134.9710  157.1442 LP  0  0  0  0  0  0  0  0  0  0  0  0  # atno 17394 bound_to 11000
  140.3732  134.2367  155.7176 LP  0  0  0  0  0  0  0  0  0  0  0  0  # atno 17395 bound_to 11000

$$$$
