AV-unprocessed.smi:2280|AV-procd|sdf|9192|dock6
  -GOLD-   2272012413D 1   1.00000     0.00000
 Structure written by MMmdl.
 41 42  0  0  0  0  0  0  0  0  1 V2000
  146.5121  136.9939  154.6181 C   0  0  0  0  0  0  0  0  0  0  0  0
  147.9589  137.4543  154.6443 C   0  0  0  0  0  0  0  0  0  0  0  0
  148.9011  136.4673  154.9478 N   0  0  0  0  0  0  0  0  0  0  0  0
  150.1580  136.7676  154.9915 C   0  0  0  0  0  0  0  0  0  0  0  0
  150.6150  138.0706  154.7357 N   0  0  0  0  0  0  0  0  0  0  0  0
  152.0705  138.2799  154.8183 C   0  0  0  0  0  0  0  0  0  0  0  0
  152.5601  138.3910  156.2805 C   0  0  1  0  0  0  0  0  0  0  0  0
  153.9741  138.4129  156.2639 O   0  0  0  0  0  0  0  0  0  0  0  0
  152.0945  139.6974  156.9456 C   0  0  0  0  0  0  0  0  0  0  0  0
  152.9211  139.9532  158.0732 O   0  0  0  0  0  0  0  0  0  0  0  0
  152.6541  141.0583  158.8553 C   0  0  0  0  0  0  0  0  0  0  0  0
  151.7633  142.0926  158.4692 C   0  0  0  0  0  0  0  0  0  0  0  0
  151.5349  143.1941  159.3144 C   0  0  0  0  0  0  0  0  0  0  0  0
  152.1909  143.2776  160.5543 C   0  0  0  0  0  0  0  0  0  0  0  0
  153.0756  142.2579  160.9486 C   0  0  0  0  0  0  0  0  0  0  0  0
  153.3126  141.1472  160.1070 C   0  0  0  0  0  0  0  0  0  0  0  0
  154.2728  140.0444  160.5422 C   0  0  0  0  0  0  0  0  0  0  0  0
  154.6171  140.1601  161.8255 F   0  0  0  0  0  0  0  0  0  0  0  0
  153.6984  138.8533  160.3721 F   0  0  0  0  0  0  0  0  0  0  0  0
  155.3847  140.0967  159.8084 F   0  0  0  0  0  0  0  0  0  0  0  0
  149.7626  139.0949  154.4410 C   0  0  0  0  0  0  0  0  0  0  0  0
  150.1734  140.2380  154.2316 O   0  0  0  0  0  0  0  0  0  0  0  0
  148.3354  138.7382  154.3942 C   0  0  0  0  0  0  0  0  0  0  0  0
  147.3544  139.8547  154.0591 C   0  0  0  0  0  0  0  0  0  0  0  0
  146.0691  137.1782  153.6389 H   0  0  0  0  0  0  0  0  0  0  0  0
  145.9292  137.5251  155.3712 H   0  0  0  0  0  0  0  0  0  0  0  0
  146.4311  135.9259  154.8254 H   0  0  0  0  0  0  0  0  0  0  0  0
  150.9322  136.0365  155.2306 H   0  0  0  0  0  0  0  0  0  0  0  0
  152.6292  137.5094  154.2822 H   0  0  0  0  0  0  0  0  0  0  0  0
  152.3097  139.1996  154.2812 H   0  0  0  0  0  0  0  0  0  0  0  0
  152.2081  137.5410  156.8668 H   0  0  0  0  0  0  0  0  0  0  0  0
  154.2718  138.0338  155.4512 H   0  0  0  0  0  0  0  0  0  0  0  0
  152.1118  140.5247  156.2336 H   0  0  0  0  0  0  0  0  0  0  0  0
  151.0686  139.5807  157.2986 H   0  0  0  0  0  0  0  0  0  0  0  0
  151.2386  142.0659  157.5267 H   0  0  0  0  0  0  0  0  0  0  0  0
  150.8548  143.9758  159.0098 H   0  0  0  0  0  0  0  0  0  0  0  0
  152.0156  144.1229  161.2033 H   0  0  0  0  0  0  0  0  0  0  0  0
  153.5696  142.3393  161.9053 H   0  0  0  0  0  0  0  0  0  0  0  0
  147.4493  140.6679  154.7795 H   0  0  0  0  0  0  0  0  0  0  0  0
  146.3151  139.5308  154.0672 H   0  0  0  0  0  0  0  0  0  0  0  0
  147.5669  140.2550  153.0670 H   0  0  0  0  0  0  0  0  0  0  0  0
  1  2  1  0  0  0  0
  1 25  1  0  0  0  0
  1 26  1  0  0  0  0
  1 27  1  0  0  0  0
  2 23  2  0  0  0  0
  2  3  1  0  0  0  0
  3  4  2  0  0  0  0
  4  5  1  0  0  0  0
  4 28  1  0  0  0  0
  5  6  1  0  0  0  0
  5 21  1  0  0  0  0
  6  7  1  0  0  0  0
  6 29  1  0  0  0  0
  6 30  1  0  0  0  0
  7  8  1  0  0  0  0
  7  9  1  0  0  0  0
  7 31  1  0  0  0  0
  8 32  1  0  0  0  0
  9 10  1  0  0  0  0
  9 33  1  0  0  0  0
  9 34  1  0  0  0  0
 10 11  1  0  0  0  0
 11 16  1  0  0  0  0
 11 12  2  0  0  0  0
 12 13  1  0  0  0  0
 12 35  1  0  0  0  0
 13 14  2  0  0  0  0
 13 36  1  0  0  0  0
 14 15  1  0  0  0  0
 14 37  1  0  0  0  0
 15 16  2  0  0  0  0
 15 38  1  0  0  0  0
 16 17  1  0  0  0  0
 17 18  1  0  0  0  0
 17 19  1  0  0  0  0
 17 20  1  0  0  0  0
 21 22  2  0  0  0  0
 21 23  1  0  0  0  0
 23 24  1  0  0  0  0
 24 39  1  0  0  0  0
 24 40  1  0  0  0  0
 24 41  1  0  0  0  0
M  END
> <s_m_source_file>
AV-unprocessed.smi

> <i_m_source_file_index>
2280

> <i_lp_mmshare_version>
43012

> <i_f3d_flags>
0

> <s_epik_input>
W0NIM11jMW5bY0hdbihjKD1PKWMxW0NIM10pW0NIMl1bQ0BIXShbT0hdKVtDSDJdT2MyW2NIXVtjSF1bY0hdW2NIXWMyQyhGKShGKUY=

> <s_epik_cmdline>
J2VwaWtfcHl0aG9uJywgJy1waCcsICc3LjAnLCAnLXRuJywgJzgnLCAnLW1hJywgJzIwMCcsICctbWV0YWxfYmluZGluZycsICctaW1hZScsICc8aW5maWxlLm1hZT4nLCAnLW9tYWUnLCAnPG91dGZpbGUubWFlPic=

> <r_lp_tautomer_probability>
1

> <r_epik_Ionization_Penalty>
3.7476e-05

> <r_epik_Ionization_Penalty_Charging>
8.44705e-08

> <r_epik_Ionization_Penalty_Neutral>
3.73915e-05

> <r_epik_State_Penalty>
-0

> <r_epik_Charging_Adjusted_Penalty>
8.44705e-08

> <i_epik_Tot_Q>
0

> <i_epik_Tot_abs_Q>
0

> <r_epik_Metal_State_Penalty>
-0

> <b_epik_Metal_Only>
0

> <s_lp_Force_Field>
OPLS_2005

> <r_lp_Energy>
26.5065

> <b_lp_Chiralities_Consistent>
1

> <s_lp_Variant>
AV-unprocessed.smi:2280-2

> <Gold.Version>
5.8.1

> <Gold.Id.Protein>
6NUR|6NUR_protein|mol2

> <Gold.PLP.Fitness>
48.4111

> <Gold.PLP.PLP>
-44.5364

> <Gold.PLP.part.hbond>
-2.5047

> <Gold.PLP.part.metal>
0.0000

> <Gold.PLP.part.buried>
-4.7640

> <Gold.PLP.part.nonpolar>
-37.5233

> <Gold.PLP.part.repulsive>
0.4127

> <Gold.PLP.ligand.clash>
0.1111

> <Gold.PLP.ligand.torsion>
0.9264

> <Gold.PLP.Chemscore.Hbond>
1.7664

> <Gold.PLP.Chemscore.CHOScore>
0.0000

> <Gold.PLP.Chemscore.Metal>
0.0000

> <Gold.Chemscore.Hbonds>
donor molecule, donor type, donor heavy atom, donor atom, acceptor molecule, acceptor atom, score
      P1  H  7989  7998       L1    22  0.98
      P1  H  7997  8010       L1    10  0.88

> <Gold.PLP.Chemscore.Internal.Correction>
0.5393

> <Gold.Rescore>
     Score         DG    S(hbond)    S(metal)    S(lipo)     H(rot)  DE(clash)    DE(int)     intcor
     11.72     -14.56       1.32        0.00      99.81       2.73       0.00       2.85       ----

> <Gold.Chemscore.Fitness>
11.7168

> <Gold.Chemscore.DG>
-14.5643

> <Gold.Chemscore.ZeroCoef>
-5.4800

> <Gold.Chemscore.Hbond>
1.3158

> <Gold.Chemscore.Metal>
0.0000

> <Gold.Chemscore.Lipo>
99.8140

> <Gold.Chemscore.Internal_Hbond>
0.0000

> <Gold.Chemscore.DEClash>
0.0000

> <Gold.Chemscore.DEInternal>
2.8475

> <Gold.Chemscore.Rot>
2.7300

> <Gold.Chemscore.Internal.Correction>
   9.000000E+99

> <Gold.Chemscore.Hbonds>
donor molecule, donor type, donor heavy atom, donor atom, acceptor molecule, acceptor atom, score
      P1  H  7989  7998       L1    22  0.92
      P1  H  7997  8010       L1    10  0.16

> <Gold.Chemscore.Hbond.Weighted>
-4.3948

> <Gold.Chemscore.Metal.Weighted>
-0.0000

> <Gold.Chemscore.Lipo.Weighted>
-11.6782

> <Gold.Chemscore.Internal_Hbond.Weighted>
0.0000

> <Gold.Chemscore.DEClash.Weighted>
0.0000

> <Gold.Chemscore.DEInternal.Weighted>
2.8475

> <Gold.Chemscore.Rot.Weighted>
6.9888

> <Gold.Chemscore.Internal.Correction.Weighted>
   9.000000E+99

> <Gold.Protein.RotatedTorsions>
[ 6907 6896 6895 6894 ] final  151.19 input  -60.11 | X-H torsion
[ 7974 7965 7964 7962 ] final  -54.42 input  175.53 | X-H torsion
[ 8008 7997 7996 7995 ] final   24.77 input   59.86 | X-H torsion
[ 10167 10162 10161 10158 ] final   66.98 input  -65.29 | X-H torsion
[ 10718 10713 10712 10709 ] final  158.56 input   66.30 | X-H torsion
[ 10763 10752 10751 10750 ] final   18.14 input  -60.55 | X-H torsion
[ 11005 11000 10999 10996 ] final   51.62 input  -57.11 | X-H torsion

> <Gold.Protein.ActiveResidues>
 VAL166  LYS551  ARG553  GLY616  TRP617  ASP618  TYR619  PRO620  LYS621  CYS622 
 ASP623  PHE694  ASN695  SER759  ASP760  ASP761  ALA762  ILE779  LEU786  VAL792 
 PHE793  MET794  SER795  GLU796  ALA797  LYS798  CYS799  TRP800  GLU811  SER814 

> <Gold.Protein.RotatedAtoms>
  152.1040  133.4265  159.4599 H   0  0  0  0  0  0  0  0  0  0  0  0  # atno 6907 bound_to 6896
  150.6865  134.2727  159.4604 H   0  0  0  0  0  0  0  0  0  0  0  0  # atno 6908 bound_to 6896
  152.0590  134.9606  160.0625 H   0  0  0  0  0  0  0  0  0  0  0  0  # atno 6909 bound_to 6896
  145.8857  140.8110  142.9817 H   0  0  0  0  0  0  0  0  0  0  0  0  # atno 7974 bound_to 7965
  155.0015  140.3126  155.4865 H   0  0  0  0  0  0  0  0  0  0  0  0  # atno 8008 bound_to 7997
  156.2924  140.2231  156.5066 H   0  0  0  0  0  0  0  0  0  0  0  0  # atno 8009 bound_to 7997
  154.7614  140.0459  157.0965 H   0  0  0  0  0  0  0  0  0  0  0  0  # atno 8010 bound_to 7997
  140.0945  144.4958  150.7077 H   0  0  0  0  0  0  0  0  0  0  0  0  # atno 10167 bound_to 10162
  157.1762  131.0622  151.2156 H   0  0  0  0  0  0  0  0  0  0  0  0  # atno 10718 bound_to 10713
  153.1275  135.6733  153.9232 H   0  0  0  0  0  0  0  0  0  0  0  0  # atno 10763 bound_to 10752
  153.8729  135.3067  155.3444 H   0  0  0  0  0  0  0  0  0  0  0  0  # atno 10764 bound_to 10752
  154.7678  135.4955  153.9669 H   0  0  0  0  0  0  0  0  0  0  0  0  # atno 10765 bound_to 10752
  140.0917  134.5200  155.8846 H   0  0  0  0  0  0  0  0  0  0  0  0  # atno 11005 bound_to 11000
  144.6728  140.1453  143.7434 LP  0  0  0  0  0  0  0  0  0  0  0  0  # atno 17320 bound_to 7965
  145.8969  139.2408  143.1516 LP  0  0  0  0  0  0  0  0  0  0  0  0  # atno 17321 bound_to 7965
  140.7011  143.2435  151.4862 LP  0  0  0  0  0  0  0  0  0  0  0  0  # atno 17342 bound_to 10162
  139.5706  144.1938  152.1830 LP  0  0  0  0  0  0  0  0  0  0  0  0  # atno 17343 bound_to 10162
  157.3996  130.7326  149.6757 LP  0  0  0  0  0  0  0  0  0  0  0  0  # atno 17370 bound_to 10713
  155.9731  130.4124  150.4032 LP  0  0  0  0  0  0  0  0  0  0  0  0  # atno 17371 bound_to 10713
  141.2080  133.6669  156.6341 LP  0  0  0  0  0  0  0  0  0  0  0  0  # atno 17394 bound_to 11000
  140.3343  134.7902  157.4350 LP  0  0  0  0  0  0  0  0  0  0  0  0  # atno 17395 bound_to 11000

$$$$
