AV-unprocessed.smi:99|AV-procd|sdf|870|dock7
  -GOLD-   2262017333D 1   1.00000     0.00000
 Structure written by MMmdl.
 53 56  0  0  0  0  0  0  0  0  1 V2000
  156.1135  139.7075  153.9444 O   0  0  0  0  0  0  0  0  0  0  0  0
  155.9666  138.4859  153.8682 C   0  0  0  0  0  0  0  0  0  0  0  0
  154.8886  137.8337  154.3454 O   0  0  0  0  0  0  0  0  0  0  0  0
  153.9138  138.5350  155.0990 C   0  0  0  0  0  0  0  0  0  0  0  0
  152.5148  138.1717  154.5834 C   0  0  1  0  0  0  0  0  0  0  0  0
  151.9530  137.1065  155.3347 O   0  0  0  0  0  0  0  0  0  0  0  0
  150.5751  137.1030  155.1343 C   0  0  1  0  0  0  0  0  0  0  0  0
  149.9289  136.6711  156.4314 N   0  0  0  0  0  0  0  0  0  0  0  0
  150.1526  137.3903  157.5974 C   0  0  0  0  0  0  0  0  0  0  0  0
  149.6353  137.0385  158.7977 C   0  0  0  0  0  0  0  0  0  0  0  0
  148.8033  135.8469  158.9225 C   0  0  0  0  0  0  0  0  0  0  0  0
  148.2855  135.4494  159.9639 O   0  0  0  0  0  0  0  0  0  0  0  0
  148.6190  135.1416  157.7299 N   0  0  0  0  0  0  0  0  0  0  0  0
  149.1510  135.4924  156.4876 C   0  0  0  0  0  0  0  0  0  0  0  0
  148.9226  134.7866  155.5064 O   0  0  0  0  0  0  0  0  0  0  0  0
  150.1470  138.5267  154.7309 C   0  0  2  0  0  0  0  0  0  0  0  0
  149.5518  138.5668  153.4496 O   0  0  0  0  0  0  0  0  0  0  0  0
  151.4711  139.2889  154.7017 C   0  0  1  0  0  0  0  0  0  0  0  0
  151.6596  140.0162  155.9108 O   0  0  0  0  0  0  0  0  0  0  0  0
  150.8921  141.0840  156.2114 C   0  0  0  0  0  0  0  0  0  0  0  0
  149.9069  141.4249  155.5544 O   0  0  0  0  0  0  0  0  0  0  0  0
  151.3592  141.8004  157.4326 C   0  0  0  0  0  0  0  0  0  0  0  0
  152.0631  141.0855  158.4293 C   0  0  0  0  0  0  0  0  0  0  0  0
  152.5200  141.7371  159.5915 C   0  0  0  0  0  0  0  0  0  0  0  0
  152.2787  143.1117  159.7706 C   0  0  0  0  0  0  0  0  0  0  0  0
  151.5796  143.8342  158.7863 C   0  0  0  0  0  0  0  0  0  0  0  0
  151.1215  143.1845  157.6237 C   0  0  0  0  0  0  0  0  0  0  0  0
  156.9641  137.5750  153.2359 C   0  0  0  0  0  0  0  0  0  0  0  0
  158.2504  137.4501  153.8109 C   0  0  0  0  0  0  0  0  0  0  0  0
  159.2139  136.5985  153.2362 C   0  0  0  0  0  0  0  0  0  0  0  0
  158.9026  135.8612  152.0790 C   0  0  0  0  0  0  0  0  0  0  0  0
  157.6264  135.9759  151.4978 C   0  0  0  0  0  0  0  0  0  0  0  0
  156.6614  136.8269  152.0714 C   0  0  0  0  0  0  0  0  0  0  0  0
  148.0549  134.3053  157.7713 H   0  0  0  0  0  0  0  0  0  0  0  0
  154.0049  138.2982  156.1601 H   0  0  0  0  0  0  0  0  0  0  0  0
  154.0844  139.6063  154.9837 H   0  0  0  0  0  0  0  0  0  0  0  0
  152.5725  137.8614  153.5383 H   0  0  0  0  0  0  0  0  0  0  0  0
  150.3451  136.3626  154.3672 H   0  0  0  0  0  0  0  0  0  0  0  0
  150.7730  138.2718  157.5593 H   0  0  0  0  0  0  0  0  0  0  0  0
  149.8428  137.6397  159.6712 H   0  0  0  0  0  0  0  0  0  0  0  0
  149.4409  138.9447  155.4497 H   0  0  0  0  0  0  0  0  0  0  0  0
  149.4481  137.6813  153.1366 H   0  0  0  0  0  0  0  0  0  0  0  0
  151.5436  139.9679  153.8502 H   0  0  0  0  0  0  0  0  0  0  0  0
  152.2604  140.0294  158.3137 H   0  0  0  0  0  0  0  0  0  0  0  0
  153.0563  141.1809  160.3460 H   0  0  0  0  0  0  0  0  0  0  0  0
  152.6282  143.6109  160.6624 H   0  0  0  0  0  0  0  0  0  0  0  0
  151.3933  144.8893  158.9230 H   0  0  0  0  0  0  0  0  0  0  0  0
  150.5878  143.7698  156.8891 H   0  0  0  0  0  0  0  0  0  0  0  0
  158.5130  138.0066  154.6991 H   0  0  0  0  0  0  0  0  0  0  0  0
  160.1928  136.5117  153.6843 H   0  0  0  0  0  0  0  0  0  0  0  0
  159.6415  135.2085  151.6379 H   0  0  0  0  0  0  0  0  0  0  0  0
  157.3861  135.4101  150.6099 H   0  0  0  0  0  0  0  0  0  0  0  0
  155.6918  136.8912  151.5998 H   0  0  0  0  0  0  0  0  0  0  0  0
  1  2  2  0  0  0  0
  2  3  1  0  0  0  0
  2 28  1  0  0  0  0
  3  4  1  0  0  0  0
  4  5  1  0  0  0  0
  4 35  1  0  0  0  0
  4 36  1  0  0  0  0
  5 18  1  0  0  0  0
  5  6  1  0  0  0  0
  5 37  1  0  0  0  0
  6  7  1  0  0  0  0
  7  8  1  0  0  0  0
  7 16  1  0  0  0  0
  7 38  1  0  0  0  0
  8 14  1  0  0  0  0
  8  9  1  0  0  0  0
  9 10  2  0  0  0  0
  9 39  1  0  0  0  0
 10 11  1  0  0  0  0
 10 40  1  0  0  0  0
 11 12  2  0  0  0  0
 11 13  1  0  0  0  0
 13 34  1  0  0  0  0
 13 14  1  0  0  0  0
 14 15  2  0  0  0  0
 16 17  1  0  0  0  0
 16 18  1  0  0  0  0
 16 41  1  0  0  0  0
 17 42  1  0  0  0  0
 18 19  1  0  0  0  0
 18 43  1  0  0  0  0
 19 20  1  0  0  0  0
 20 21  2  0  0  0  0
 20 22  1  0  0  0  0
 22 27  1  0  0  0  0
 22 23  2  0  0  0  0
 23 24  1  0  0  0  0
 23 44  1  0  0  0  0
 24 25  2  0  0  0  0
 24 45  1  0  0  0  0
 25 26  1  0  0  0  0
 25 46  1  0  0  0  0
 26 27  2  0  0  0  0
 26 47  1  0  0  0  0
 27 48  1  0  0  0  0
 28 33  1  0  0  0  0
 28 29  2  0  0  0  0
 29 30  1  0  0  0  0
 29 49  1  0  0  0  0
 30 31  2  0  0  0  0
 30 50  1  0  0  0  0
 31 32  1  0  0  0  0
 31 51  1  0  0  0  0
 32 33  2  0  0  0  0
 32 52  1  0  0  0  0
 33 53  1  0  0  0  0
M  END
> <s_m_source_file>
AV-unprocessed.smi

> <i_m_source_file_index>
99

> <i_lp_mmshare_version>
43012

> <i_f3d_flags>
0

> <s_epik_input>
W2NIXTFbY0hdW2NIXVtjSF1bY0hdYzFDKD1PKU9bQ0gyXVtDQEBIXTJPW0NAQEhdKG4zW2NIXVtjSF1jKD1PKVtuSF1jMz1PKVtDQEBIXShbT0hdKVtDQEhdMk9DKD1PKWM0W2NIXVtjSF1bY0hdW2NIXVtjSF00

> <s_epik_cmdline>
J2VwaWtfcHl0aG9uJywgJy1waCcsICc3LjAnLCAnLXRuJywgJzgnLCAnLW1hJywgJzIwMCcsICctbWV0YWxfYmluZGluZycsICctaW1hZScsICc8aW5maWxlLm1hZT4nLCAnLW9tYWUnLCAnPG91dGZpbGUubWFlPic=

> <r_lp_tautomer_probability>
1

> <r_epik_Ionization_Penalty>
0.00454555

> <r_epik_Ionization_Penalty_Charging>
0.0045191

> <r_epik_Ionization_Penalty_Neutral>
2.64449e-05

> <r_epik_State_Penalty>
-0

> <r_epik_Charging_Adjusted_Penalty>
0.0045191

> <i_epik_Tot_Q>
0

> <i_epik_Tot_abs_Q>
0

> <r_epik_Metal_State_Penalty>
1.27877

> <b_epik_Metal_Only>
0

> <s_epik_Chemistry_Notes>
This compound has an ester and may undergo hydrolysis at high or low pH. This compound contains an acetal/aminal-like group ( X-CH(R)-Y where X, Y are N, S, or O) that may be acid/base labile, releasing an aldehyde.

> <s_lp_Force_Field>
OPLS_2005

> <r_lp_Energy>
31.5911

> <b_lp_Chiralities_Consistent>
1

> <s_lp_Variant>
AV-unprocessed.smi:99-6

> <Gold.Version>
5.8.1

> <Gold.Id.Protein>
6NUR|6NUR_protein|mol2

> <Gold.PLP.Fitness>
64.5344

> <Gold.PLP.PLP>
-59.8279

> <Gold.PLP.part.hbond>
-5.0000

> <Gold.PLP.part.metal>
0.0000

> <Gold.PLP.part.buried>
-1.6813

> <Gold.PLP.part.nonpolar>
-53.0461

> <Gold.PLP.part.repulsive>
0.2898

> <Gold.PLP.ligand.clash>
0.0000

> <Gold.PLP.ligand.torsion>
2.4268

> <Gold.PLP.Chemscore.Hbond>
2.9760

> <Gold.PLP.Chemscore.CHOScore>
0.0000

> <Gold.PLP.Chemscore.Metal>
0.0000

> <Gold.Chemscore.Hbonds>
donor molecule, donor type, donor heavy atom, donor atom, acceptor molecule, acceptor atom, score
      L1  H    17    42       P1  7948  1.00
      P1  H  7997  8009       L1     1  1.00
      P1  H 10752 10763       L1     6  0.93

> <Gold.PLP.Chemscore.Internal.Correction>
0.6321

> <Gold.Rescore>
     Score         DG    S(hbond)    S(metal)    S(lipo)     H(rot)  DE(clash)    DE(int)     intcor
     14.76     -22.34       1.79        0.00     162.73       3.19       3.56       4.02       ----

> <Gold.Chemscore.Fitness>
14.7567

> <Gold.Chemscore.DG>
-22.3361

> <Gold.Chemscore.ZeroCoef>
-5.4800

> <Gold.Chemscore.Hbond>
1.7915

> <Gold.Chemscore.Metal>
0.0000

> <Gold.Chemscore.Lipo>
162.7308

> <Gold.Chemscore.Internal_Hbond>
0.0000

> <Gold.Chemscore.DEClash>
3.5571

> <Gold.Chemscore.DEInternal>
4.0223

> <Gold.Chemscore.Rot>
3.1903

> <Gold.Chemscore.Internal.Correction>
   9.000000E+99

> <Gold.Chemscore.Hbonds>
donor molecule, donor type, donor heavy atom, donor atom, acceptor molecule, acceptor atom, score
      L1  H    17    42       P1  7948  0.88
      P1  H  7997  8009       L1     1  0.84
      P1  H 10752 10763       L1     6  0.39

> <Gold.Chemscore.Hbond.Weighted>
-5.9837

> <Gold.Chemscore.Metal.Weighted>
-0.0000

> <Gold.Chemscore.Lipo.Weighted>
-19.0395

> <Gold.Chemscore.Internal_Hbond.Weighted>
0.0000

> <Gold.Chemscore.DEClash.Weighted>
3.5571

> <Gold.Chemscore.DEInternal.Weighted>
4.0223

> <Gold.Chemscore.Rot.Weighted>
8.1671

> <Gold.Chemscore.Internal.Correction.Weighted>
   9.000000E+99

> <Gold.Protein.RotatedTorsions>
[ 6907 6896 6895 6894 ] final   70.54 input  -60.11 | X-H torsion
[ 7974 7965 7964 7962 ] final  160.74 input  175.53 | X-H torsion
[ 8008 7997 7996 7995 ] final  -40.63 input   59.86 | X-H torsion
[ 10167 10162 10161 10158 ] final    2.58 input  -65.29 | X-H torsion
[ 10718 10713 10712 10709 ] final  -22.06 input   66.30 | X-H torsion
[ 10763 10752 10751 10750 ] final   75.03 input  -60.55 | X-H torsion
[ 11005 11000 10999 10996 ] final -174.81 input  -57.11 | X-H torsion

> <Gold.Protein.ActiveResidues>
 VAL166  LYS551  ARG553  GLY616  TRP617  ASP618  TYR619  PRO620  LYS621  CYS622 
 ASP623  PHE694  ASN695  SER759  ASP760  ASP761  ALA762  ILE779  LEU786  VAL792 
 PHE793  MET794  SER795  GLU796  ALA797  LYS798  CYS799  TRP800  GLU811  SER814 

> <Gold.Protein.RotatedAtoms>
  152.4755  134.4853  159.9678 H   0  0  0  0  0  0  0  0  0  0  0  0  # atno 6907 bound_to 6896
  151.4870  133.3527  159.2855 H   0  0  0  0  0  0  0  0  0  0  0  0  # atno 6908 bound_to 6896
  150.8792  134.8206  159.7273 H   0  0  0  0  0  0  0  0  0  0  0  0  # atno 6909 bound_to 6896
  144.7721  139.7799  143.6293 H   0  0  0  0  0  0  0  0  0  0  0  0  # atno 7974 bound_to 7965
  154.4010  140.1520  156.3059 H   0  0  0  0  0  0  0  0  0  0  0  0  # atno 8008 bound_to 7997
  155.8659  140.3451  155.5766 H   0  0  0  0  0  0  0  0  0  0  0  0  # atno 8009 bound_to 7997
  155.7828  140.0846  157.2040 H   0  0  0  0  0  0  0  0  0  0  0  0  # atno 8010 bound_to 7997
  140.6628  143.7259  150.7770 H   0  0  0  0  0  0  0  0  0  0  0  0  # atno 10167 bound_to 10162
  156.5097  130.4607  149.6655 H   0  0  0  0  0  0  0  0  0  0  0  0  # atno 10718 bound_to 10713
  153.0627  135.5004  154.8129 H   0  0  0  0  0  0  0  0  0  0  0  0  # atno 10763 bound_to 10752
  154.6907  135.2984  154.9486 H   0  0  0  0  0  0  0  0  0  0  0  0  # atno 10764 bound_to 10752
  154.0242  135.6738  153.4828 H   0  0  0  0  0  0  0  0  0  0  0  0  # atno 10765 bound_to 10752
  140.4703  134.6172  157.4879 H   0  0  0  0  0  0  0  0  0  0  0  0  # atno 11005 bound_to 11000
  146.1875  139.5098  142.9826 LP  0  0  0  0  0  0  0  0  0  0  0  0  # atno 17320 bound_to 7965
  145.6292  141.0307  143.1872 LP  0  0  0  0  0  0  0  0  0  0  0  0  # atno 17321 bound_to 7965
  140.0931  143.4859  152.2468 LP  0  0  0  0  0  0  0  0  0  0  0  0  # atno 17342 bound_to 10162
  139.5867  144.7534  151.3502 LP  0  0  0  0  0  0  0  0  0  0  0  0  # atno 17343 bound_to 10162
  156.3252  130.7302  151.2221 LP  0  0  0  0  0  0  0  0  0  0  0  0  # atno 17370 bound_to 10713
  157.7452  131.0445  150.4795 LP  0  0  0  0  0  0  0  0  0  0  0  0  # atno 17371 bound_to 10713
  139.9889  134.7016  155.9724 LP  0  0  0  0  0  0  0  0  0  0  0  0  # atno 17394 bound_to 11000
  141.1580  133.6541  156.4225 LP  0  0  0  0  0  0  0  0  0  0  0  0  # atno 17395 bound_to 11000

$$$$
