AV-unprocessed.smi:2271|AV-procd|sdf|9160|dock9
  -GOLD-   2272012373D 1   1.00000     0.00000
 Structure written by MMmdl.
 46 47  0  0  0  0  0  0  0  0  2 V2000
  153.5481  141.4627  160.0891 C   0  0  0  0  0  0  0  0  0  0  0  0
  152.7950  142.5960  159.4247 C   0  0  0  0  0  0  0  0  0  0  0  0
  152.9324  143.9228  159.8777 C   0  0  0  0  0  0  0  0  0  0  0  0
  152.2070  144.9282  159.2137 C   0  0  0  0  0  0  0  0  0  0  0  0
  151.3806  144.5687  158.1316 C   0  0  0  0  0  0  0  0  0  0  0  0
  151.2997  143.2133  157.7397 C   0  0  0  0  0  0  0  0  0  0  0  0
  150.4344  142.9531  156.6437 N   0  0  0  0  0  0  0  0  0  0  0  0
  150.3054  141.8139  155.9411 C   0  0  0  0  0  0  0  0  0  0  0  0
  150.9771  140.7951  156.1063 O   0  0  0  0  0  0  0  0  0  0  0  0
  149.3326  141.9159  155.0230 N   0  0  0  0  0  0  0  0  0  0  0  0
  148.9327  140.8617  154.0949 C   0  0  0  0  0  0  0  0  0  0  0  0
  149.0077  139.4538  154.7245 C   0  0  2  0  0  0  0  0  0  0  0  0
  150.2820  138.6777  154.3332 C   0  0  0  0  0  0  0  0  0  0  0  0
  150.2895  137.2594  154.9251 C   0  0  0  0  0  0  0  0  0  0  0  0
  149.0810  136.5009  154.5165 N   0  3  1  0  0  0  0  0  0  0  0  0
  149.1312  135.0814  154.9497 C   0  0  0  0  0  0  0  0  0  0  0  0
  147.8907  134.2882  154.5064 C   0  0  0  0  0  0  0  0  0  0  0  0
  147.8569  134.1960  153.0981 O   0  0  0  0  0  0  0  0  0  0  0  0
  147.8377  137.2012  154.9312 C   0  0  0  0  0  0  0  0  0  0  0  0
  147.7767  138.6164  154.3334 C   0  0  0  0  0  0  0  0  0  0  0  0
  152.0026  142.2508  158.3873 N   0  0  0  0  0  0  0  0  0  0  0  0
  154.0593  141.8018  160.9904 H   0  0  0  0  0  0  0  0  0  0  0  0
  154.2940  141.0549  159.4062 H   0  0  0  0  0  0  0  0  0  0  0  0
  152.8635  140.6612  160.3688 H   0  0  0  0  0  0  0  0  0  0  0  0
  153.5753  144.1664  160.7108 H   0  0  0  0  0  0  0  0  0  0  0  0
  152.2823  145.9587  159.5282 H   0  0  0  0  0  0  0  0  0  0  0  0
  150.8167  145.3292  157.6111 H   0  0  0  0  0  0  0  0  0  0  0  0
  149.8304  143.7165  156.3778 H   0  0  0  0  0  0  0  0  0  0  0  0
  148.8332  142.7909  154.9571 H   0  0  0  0  0  0  0  0  0  0  0  0
  147.9061  141.0716  153.7929 H   0  0  0  0  0  0  0  0  0  0  0  0
  149.5277  140.9030  153.1807 H   0  0  0  0  0  0  0  0  0  0  0  0
  149.0030  139.5706  155.8096 H   0  0  0  0  0  0  0  0  0  0  0  0
  150.3610  138.6213  153.2465 H   0  0  0  0  0  0  0  0  0  0  0  0
  151.1713  139.2035  154.6803 H   0  0  0  0  0  0  0  0  0  0  0  0
  151.1850  136.7384  154.5843 H   0  0  0  0  0  0  0  0  0  0  0  0
  150.3430  137.3047  156.0141 H   0  0  0  0  0  0  0  0  0  0  0  0
  150.0140  134.5952  154.5316 H   0  0  0  0  0  0  0  0  0  0  0  0
  149.2445  135.0353  156.0337 H   0  0  0  0  0  0  0  0  0  0  0  0
  147.9344  133.2777  154.9132 H   0  0  0  0  0  0  0  0  0  0  0  0
  146.9648  134.7335  154.8685 H   0  0  0  0  0  0  0  0  0  0  0  0
  148.3218  134.9354  152.7358 H   0  0  0  0  0  0  0  0  0  0  0  0
  146.9607  136.6433  154.6055 H   0  0  0  0  0  0  0  0  0  0  0  0
  147.7918  137.2514  156.0203 H   0  0  0  0  0  0  0  0  0  0  0  0
  146.8661  139.1142  154.6689 H   0  0  0  0  0  0  0  0  0  0  0  0
  147.7067  138.5475  153.2467 H   0  0  0  0  0  0  0  0  0  0  0  0
  149.0897  136.4844  153.5062 H   0  0  0  0  0  0  0  0  0  0  0  0
  1  2  1  0  0  0  0
  1 22  1  0  0  0  0
  1 23  1  0  0  0  0
  1 24  1  0  0  0  0
  2 21  1  0  0  0  0
  2  3  2  0  0  0  0
  3  4  1  0  0  0  0
  3 25  1  0  0  0  0
  4  5  2  0  0  0  0
  4 26  1  0  0  0  0
  5  6  1  0  0  0  0
  5 27  1  0  0  0  0
  6  7  1  0  0  0  0
  6 21  2  0  0  0  0
  7  8  1  0  0  0  0
  7 28  1  0  0  0  0
  8  9  2  0  0  0  0
  8 10  1  0  0  0  0
 10 11  1  0  0  0  0
 10 29  1  0  0  0  0
 11 12  1  0  0  0  0
 11 30  1  0  0  0  0
 11 31  1  0  0  0  0
 12 20  1  0  0  0  0
 12 13  1  0  0  0  0
 12 32  1  0  0  0  0
 13 14  1  0  0  0  0
 13 33  1  0  0  0  0
 13 34  1  0  0  0  0
 14 15  1  0  0  0  0
 14 35  1  0  0  0  0
 14 36  1  0  0  0  0
 15 16  1  0  0  0  0
 15 19  1  0  0  0  0
 15 46  1  0  0  0  0
 16 17  1  0  0  0  0
 16 37  1  0  0  0  0
 16 38  1  0  0  0  0
 17 18  1  0  0  0  0
 17 39  1  0  0  0  0
 17 40  1  0  0  0  0
 18 41  1  0  0  0  0
 19 20  1  0  0  0  0
 19 42  1  0  0  0  0
 19 43  1  0  0  0  0
 20 44  1  0  0  0  0
 20 45  1  0  0  0  0
M  CHG  1  15   1
M  END
> <s_m_source_file>
AV-unprocessed.smi

> <i_m_source_file_index>
2271

> <i_lp_mmshare_version>
43012

> <i_f3d_flags>
0

> <s_epik_input>
W0NIM11jMVtjSF1bY0hdW2NIXWMobjEpW05IXUMoPU8pW05IXVtDSDJdW0NIXTJbQ0gyXVtDSDJdTihbQ0gyXVtDSDJdMilbQ0gyXVtDSDJdW09IXQ==

> <s_epik_cmdline>
J2VwaWtfcHl0aG9uJywgJy1waCcsICc3LjAnLCAnLXRuJywgJzgnLCAnLW1hJywgJzIwMCcsICctbWV0YWxfYmluZGluZycsICctaW1hZScsICc8aW5maWxlLm1hZT4nLCAnLW9tYWUnLCAnPG91dGZpbGUubWFlPic=

> <r_epik_Ionization_Penalty>
0.00184663

> <r_epik_Ionization_Penalty_Charging>
0.00177223

> <r_epik_Ionization_Penalty_Neutral>
7.44064e-05

> <r_epik_State_Penalty>
0.00120075

> <r_epik_Charging_Adjusted_Penalty>
0.00297297

> <i_epik_Tot_Q>
1

> <i_epik_Tot_abs_Q>
1

> <r_epik_Metal_State_Penalty>
-0

> <b_epik_Metal_Only>
0

> <s_lp_Force_Field>
OPLS_2005

> <r_lp_Energy>
18.6881

> <b_lp_Chiralities_Consistent>
1

> <s_lp_Variant>
AV-unprocessed.smi:2271-1

> <Gold.Version>
5.8.1

> <Gold.Id.Protein>
6NUR|6NUR_protein|mol2

> <Gold.PLP.Fitness>
54.9629

> <Gold.PLP.PLP>
-41.9373

> <Gold.PLP.part.hbond>
-4.0000

> <Gold.PLP.part.metal>
0.0000

> <Gold.PLP.part.buried>
-5.2569

> <Gold.PLP.part.nonpolar>
-33.5413

> <Gold.PLP.part.repulsive>
0.2907

> <Gold.PLP.ligand.clash>
0.0000

> <Gold.PLP.ligand.torsion>
0.7929

> <Gold.PLP.Chemscore.Hbond>
4.8564

> <Gold.PLP.Chemscore.CHOScore>
0.0000

> <Gold.PLP.Chemscore.Metal>
0.0000

> <Gold.Chemscore.Hbonds>
donor molecule, donor type, donor heavy atom, donor atom, acceptor molecule, acceptor atom, score
      L1  H     7    28       P1  8028  1.00
      L1  H    10    29       P1  8028  0.83
      L1  H    15    46       P1  7948  2.00
      L1  H    18    41       P1  7948  1.00

> <Gold.PLP.Chemscore.Internal.Correction>
0.0422

> <Gold.Rescore>
     Score         DG    S(hbond)    S(metal)    S(lipo)     H(rot)  DE(clash)    DE(int)     intcor
     19.08     -23.87       3.94        0.00      97.15       2.39       0.00       4.79       ----

> <Gold.Chemscore.Fitness>
19.0770

> <Gold.Chemscore.DG>
-23.8729

> <Gold.Chemscore.ZeroCoef>
-5.4800

> <Gold.Chemscore.Hbond>
3.9382

> <Gold.Chemscore.Metal>
0.0000

> <Gold.Chemscore.Lipo>
97.1515

> <Gold.Chemscore.Internal_Hbond>
0.0000

> <Gold.Chemscore.DEClash>
0.0029

> <Gold.Chemscore.DEInternal>
4.7930

> <Gold.Chemscore.Rot>
2.3935

> <Gold.Chemscore.Internal.Correction>
   9.000000E+99

> <Gold.Chemscore.Hbonds>
donor molecule, donor type, donor heavy atom, donor atom, acceptor molecule, acceptor atom, score
      L1  H     7    28       P1  8028  0.95
      L1  H    10    29       P1  8028  0.77
      L1  H    15    46       P1  7948  0.99
      L1  H    18    41       P1  7948  0.65

> <Gold.Chemscore.Hbond.Weighted>
-13.1536

> <Gold.Chemscore.Metal.Weighted>
-0.0000

> <Gold.Chemscore.Lipo.Weighted>
-11.3667

> <Gold.Chemscore.Internal_Hbond.Weighted>
0.0000

> <Gold.Chemscore.DEClash.Weighted>
0.0029

> <Gold.Chemscore.DEInternal.Weighted>
4.7930

> <Gold.Chemscore.Rot.Weighted>
6.1274

> <Gold.Chemscore.Internal.Correction.Weighted>
   9.000000E+99

> <Gold.Protein.RotatedTorsions>
[ 6907 6896 6895 6894 ] final   83.59 input  -60.11 | X-H torsion
[ 7974 7965 7964 7962 ] final   99.65 input  175.53 | X-H torsion
[ 8008 7997 7996 7995 ] final  141.39 input   59.86 | X-H torsion
[ 10167 10162 10161 10158 ] final  114.83 input  -65.29 | X-H torsion
[ 10718 10713 10712 10709 ] final -178.24 input   66.30 | X-H torsion
[ 10763 10752 10751 10750 ] final   54.92 input  -60.55 | X-H torsion
[ 11005 11000 10999 10996 ] final  152.52 input  -57.11 | X-H torsion

> <Gold.Protein.ActiveResidues>
 VAL166  LYS551  ARG553  GLY616  TRP617  ASP618  TYR619  PRO620  LYS621  CYS622 
 ASP623  PHE694  ASN695  SER759  ASP760  ASP761  ALA762  ILE779  LEU786  VAL792 
 PHE793  MET794  SER795  GLU796  ALA797  LYS798  CYS799  TRP800  GLU811  SER814 

> <Gold.Protein.RotatedAtoms>
  152.5331  134.2872  159.9029 H   0  0  0  0  0  0  0  0  0  0  0  0  # atno 6907 bound_to 6896
  151.2825  133.4196  159.2635 H   0  0  0  0  0  0  0  0  0  0  0  0  # atno 6908 bound_to 6896
  151.0271  134.9528  159.8148 H   0  0  0  0  0  0  0  0  0  0  0  0  # atno 6909 bound_to 6896
  145.3960  139.2355  143.3326 H   0  0  0  0  0  0  0  0  0  0  0  0  # atno 7974 bound_to 7965
  156.2966  140.2316  156.4557 H   0  0  0  0  0  0  0  0  0  0  0  0  # atno 8008 bound_to 7997
  154.8063  140.0445  157.1330 H   0  0  0  0  0  0  0  0  0  0  0  0  # atno 8009 bound_to 7997
  154.9475  140.3037  155.5094 H   0  0  0  0  0  0  0  0  0  0  0  0  # atno 8010 bound_to 7997
  139.6360  144.7120  151.2334 H   0  0  0  0  0  0  0  0  0  0  0  0  # atno 10167 bound_to 10162
  156.8413  130.9687  151.3100 H   0  0  0  0  0  0  0  0  0  0  0  0  # atno 10718 bound_to 10713
  152.9810  135.5728  154.4983 H   0  0  0  0  0  0  0  0  0  0  0  0  # atno 10763 bound_to 10752
  154.4506  135.2778  155.1785 H   0  0  0  0  0  0  0  0  0  0  0  0  # atno 10764 bound_to 10752
  154.3415  135.6228  153.5652 H   0  0  0  0  0  0  0  0  0  0  0  0  # atno 10765 bound_to 10752
  140.1315  134.8799  157.2210 H   0  0  0  0  0  0  0  0  0  0  0  0  # atno 11005 bound_to 11000
  146.2775  140.4650  142.8790 LP  0  0  0  0  0  0  0  0  0  0  0  0  # atno 17320 bound_to 7965
  144.8407  140.6852  143.6231 LP  0  0  0  0  0  0  0  0  0  0  0  0  # atno 17321 bound_to 7965
  140.7465  143.6395  150.8348 LP  0  0  0  0  0  0  0  0  0  0  0  0  # atno 17342 bound_to 10162
  140.0026  143.5727  152.2869 LP  0  0  0  0  0  0  0  0  0  0  0  0  # atno 17343 bound_to 10162
  157.6354  130.8762  149.9349 LP  0  0  0  0  0  0  0  0  0  0  0  0  # atno 17370 bound_to 10713
  156.0879  130.3666  150.0452 LP  0  0  0  0  0  0  0  0  0  0  0  0  # atno 17371 bound_to 10713
  140.2836  134.3321  155.7335 LP  0  0  0  0  0  0  0  0  0  0  0  0  # atno 17394 bound_to 11000
  141.2171  133.7493  156.9400 LP  0  0  0  0  0  0  0  0  0  0  0  0  # atno 17395 bound_to 11000

$$$$
