AV-unprocessed.smi:5|AV-procd|sdf|38|dock7
  -GOLD-   2262015153D 1   1.00000     0.00000
 Structure written by MMmdl.
 43 44  0  0  0  0  0  0  0  0  2 V2000
  152.0701  144.5553  157.9987 C   0  0  0  0  0  0  0  0  0  0  0  0
  151.9503  143.0701  158.2722 C   0  0  0  0  0  0  0  0  0  0  0  0
  152.8410  142.3997  159.0284 C   0  0  0  0  0  0  0  0  0  0  0  0
  152.7166  140.9156  159.3258 C   0  0  0  0  0  0  0  0  0  0  0  0
  151.3322  140.3768  158.9184 C   0  0  0  0  0  0  0  0  0  0  0  0
  150.9662  140.9035  157.5915 N   0  0  0  0  0  0  0  0  0  0  0  0
  150.9662  140.1998  156.4306 C   0  0  0  0  0  0  0  0  0  0  0  0
  150.9445  140.7288  155.3186 O   0  0  0  0  0  0  0  0  0  0  0  0
  151.0550  138.8671  156.5851 N   0  0  0  0  0  0  0  0  0  0  0  0
  151.3035  137.9068  155.5124 C   0  0  0  0  0  0  0  0  0  0  0  0
  150.7988  136.4960  155.8231 C   0  0  0  0  0  0  0  0  0  0  0  0
  149.8386  135.8597  155.1147 C   0  0  0  0  0  0  0  0  0  0  0  0
  149.3818  134.5660  155.4257 N   0  0  0  0  0  0  0  0  0  0  0  0
  148.3132  133.9931  154.5765 C   0  0  0  0  0  0  0  0  0  0  0  0
  147.0175  133.7834  155.3801 C   0  0  0  0  0  0  0  0  0  0  0  0
  148.7783  132.7062  153.8679 C   0  0  0  0  0  0  0  0  0  0  0  0
  149.9379  133.8948  156.4798 C   0  0  0  0  0  0  0  0  0  0  0  0
  149.5502  132.7568  156.7452 O   0  0  0  0  0  0  0  0  0  0  0  0
  150.9155  134.5099  157.2122 N   0  5  0  0  0  0  0  0  0  0  0  0
  151.3791  135.7662  156.9527 C   0  0  0  0  0  0  0  0  0  0  0  0
  152.2617  136.2926  157.6298 O   0  0  0  0  0  0  0  0  0  0  0  0
  150.7667  142.3631  157.6164 C   0  0  0  0  0  0  0  0  0  0  0  0
  151.1706  145.0735  158.3313 H   0  0  0  0  0  0  0  0  0  0  0  0
  152.1957  144.7343  156.9308 H   0  0  0  0  0  0  0  0  0  0  0  0
  152.9250  144.9884  158.5191 H   0  0  0  0  0  0  0  0  0  0  0  0
  153.6890  142.9120  159.4590 H   0  0  0  0  0  0  0  0  0  0  0  0
  153.5034  140.3905  158.7836 H   0  0  0  0  0  0  0  0  0  0  0  0
  152.8876  140.7432  160.3886 H   0  0  0  0  0  0  0  0  0  0  0  0
  151.3082  139.2898  158.9952 H   0  0  0  0  0  0  0  0  0  0  0  0
  150.5866  140.7254  159.6347 H   0  0  0  0  0  0  0  0  0  0  0  0
  151.0583  138.5033  157.5267 H   0  0  0  0  0  0  0  0  0  0  0  0
  150.8014  138.2662  154.6138 H   0  0  0  0  0  0  0  0  0  0  0  0
  152.3696  137.8728  155.2808 H   0  0  0  0  0  0  0  0  0  0  0  0
  149.3540  136.3023  154.2590 H   0  0  0  0  0  0  0  0  0  0  0  0
  148.0534  134.6833  153.7735 H   0  0  0  0  0  0  0  0  0  0  0  0
  146.2093  133.4441  154.7316 H   0  0  0  0  0  0  0  0  0  0  0  0
  146.6936  134.7140  155.8471 H   0  0  0  0  0  0  0  0  0  0  0  0
  147.1378  133.0391  156.1672 H   0  0  0  0  0  0  0  0  0  0  0  0
  148.0250  132.3622  153.1591 H   0  0  0  0  0  0  0  0  0  0  0  0
  148.9611  131.8884  154.5652 H   0  0  0  0  0  0  0  0  0  0  0  0
  149.6980  132.8797  153.3082 H   0  0  0  0  0  0  0  0  0  0  0  0
  149.8571  142.5996  158.1694 H   0  0  0  0  0  0  0  0  0  0  0  0
  150.6359  142.7804  156.6173 H   0  0  0  0  0  0  0  0  0  0  0  0
  1  2  1  0  0  0  0
  1 23  1  0  0  0  0
  1 24  1  0  0  0  0
  1 25  1  0  0  0  0
  2 22  1  0  0  0  0
  2  3  2  0  0  0  0
  3  4  1  0  0  0  0
  3 26  1  0  0  0  0
  4  5  1  0  0  0  0
  4 27  1  0  0  0  0
  4 28  1  0  0  0  0
  5  6  1  0  0  0  0
  5 29  1  0  0  0  0
  5 30  1  0  0  0  0
  6  7  1  0  0  0  0
  6 22  1  0  0  0  0
  7  8  2  0  0  0  0
  7  9  1  0  0  0  0
  9 10  1  0  0  0  0
  9 31  1  0  0  0  0
 10 11  1  0  0  0  0
 10 32  1  0  0  0  0
 10 33  1  0  0  0  0
 11 20  1  0  0  0  0
 11 12  2  0  0  0  0
 12 13  1  0  0  0  0
 12 34  1  0  0  0  0
 13 14  1  0  0  0  0
 13 17  1  0  0  0  0
 14 15  1  0  0  0  0
 14 16  1  0  0  0  0
 14 35  1  0  0  0  0
 15 36  1  0  0  0  0
 15 37  1  0  0  0  0
 15 38  1  0  0  0  0
 16 39  1  0  0  0  0
 16 40  1  0  0  0  0
 16 41  1  0  0  0  0
 17 18  2  0  0  0  0
 17 19  1  0  0  0  0
 19 20  1  0  0  0  0
 20 21  2  0  0  0  0
 22 42  1  0  0  0  0
 22 43  1  0  0  0  0
M  CHG  1  19  -1
M  END
> <s_m_source_file>
AV-unprocessed.smi

> <i_m_source_file_index>
5

> <i_lp_mmshare_version>
43012

> <i_f3d_flags>
0

> <s_epik_input>
W0NIM11DMT1bQ0hdW0NIMl1bQ0gyXU4oW0NIMl0xKUMoPU8pW05IXVtDSDJdYzJbY0hdbihbQ0hdKFtDSDNdKVtDSDNdKWMoPU8pW25IXWMyPU8=

> <s_epik_cmdline>
J2VwaWtfcHl0aG9uJywgJy1waCcsICc3LjAnLCAnLXRuJywgJzgnLCAnLW1hJywgJzIwMCcsICctbWV0YWxfYmluZGluZycsICctaW1hZScsICc8aW5maWxlLm1hZT4nLCAnLW9tYWUnLCAnPG91dGZpbGUubWFlPic=

> <r_lp_tautomer_probability>
0.999537

> <r_epik_Ionization_Penalty>
3.83548

> <r_epik_Ionization_Penalty_Charging>
1.96903e-07

> <r_epik_Ionization_Penalty_Neutral>
3.83548

> <r_epik_State_Penalty>
3.83512

> <r_epik_Charging_Adjusted_Penalty>
3.83512

> <i_epik_Tot_Q>
-1

> <i_epik_Tot_abs_Q>
1

> <r_epik_Metal_State_Penalty>
0.576105

> <b_epik_Metal_Only>
1

> <s_lp_Force_Field>
OPLS_2005

> <r_lp_Energy>
38.6384

> <b_lp_Chiralities_Consistent>
1

> <s_lp_Variant>
AV-unprocessed.smi:5-2

> <Gold.Version>
5.8.1

> <Gold.Id.Protein>
6NUR|6NUR_protein|mol2

> <Gold.PLP.Fitness>
43.8449

> <Gold.PLP.PLP>
-38.4145

> <Gold.PLP.part.hbond>
-2.8491

> <Gold.PLP.part.metal>
0.0000

> <Gold.PLP.part.buried>
-5.0519

> <Gold.PLP.part.nonpolar>
-31.8548

> <Gold.PLP.part.repulsive>
0.0801

> <Gold.PLP.ligand.clash>
0.0000

> <Gold.PLP.ligand.torsion>
0.2676

> <Gold.PLP.Chemscore.Hbond>
0.9680

> <Gold.PLP.Chemscore.CHOScore>
1.0000

> <Gold.PLP.Chemscore.Metal>
0.0000

> <Gold.Chemscore.Hbonds>
donor molecule, donor type, donor heavy atom, donor atom, acceptor molecule, acceptor atom, score
      P1  H  6896  6907       L1    19  0.20
      P1  H  7989  7998       L1     8  0.85
      L1  C    12    34       P1  7948  1.00

> <Gold.PLP.Chemscore.Internal.Correction>
0.0616

> <Gold.Rescore>
     Score         DG    S(hbond)    S(metal)    S(lipo)     H(rot)  DE(clash)    DE(int)     intcor
     13.20     -14.92       0.99        0.00      84.32       1.46       0.05       1.67       ----

> <Gold.Chemscore.Fitness>
13.2011

> <Gold.Chemscore.DG>
-14.9238

> <Gold.Chemscore.ZeroCoef>
-5.4800

> <Gold.Chemscore.Hbond>
0.9898

> <Gold.Chemscore.Metal>
0.0000

> <Gold.Chemscore.Lipo>
84.3192

> <Gold.Chemscore.Internal_Hbond>
0.0000

> <Gold.Chemscore.DEClash>
0.0489

> <Gold.Chemscore.DEInternal>
1.6739

> <Gold.Chemscore.Rot>
1.4561

> <Gold.Chemscore.Internal.Correction>
   9.000000E+99

> <Gold.Chemscore.Hbonds>
donor molecule, donor type, donor heavy atom, donor atom, acceptor molecule, acceptor atom, score
      P1  H  6896  6907       L1    19  0.04
      P1  H  7989  7998       L1     8  0.82

> <Gold.Chemscore.Hbond.Weighted>
-3.3061

> <Gold.Chemscore.Metal.Weighted>
-0.0000

> <Gold.Chemscore.Lipo.Weighted>
-9.8653

> <Gold.Chemscore.Internal_Hbond.Weighted>
0.0000

> <Gold.Chemscore.DEClash.Weighted>
0.0489

> <Gold.Chemscore.DEInternal.Weighted>
1.6739

> <Gold.Chemscore.Rot.Weighted>
3.7276

> <Gold.Chemscore.Internal.Correction.Weighted>
   9.000000E+99

> <Gold.Protein.RotatedTorsions>
[ 6907 6896 6895 6894 ] final  -77.76 input  -60.11 | X-H torsion
[ 7974 7965 7964 7962 ] final  -49.34 input  175.53 | X-H torsion
[ 8008 7997 7996 7995 ] final  -62.05 input   59.86 | X-H torsion
[ 10167 10162 10161 10158 ] final  -96.02 input  -65.29 | X-H torsion
[ 10718 10713 10712 10709 ] final   22.80 input   66.30 | X-H torsion
[ 10763 10752 10751 10750 ] final    8.91 input  -60.55 | X-H torsion
[ 11005 11000 10999 10996 ] final  -69.05 input  -57.11 | X-H torsion

> <Gold.Protein.ActiveResidues>
 VAL166  LYS551  ARG553  GLY616  TRP617  ASP618  TYR619  PRO620  LYS621  CYS622 
 ASP623  PHE694  ASN695  SER759  ASP760  ASP761  ALA762  ILE779  LEU786  VAL792 
 PHE793  MET794  SER795  GLU796  ALA797  LYS798  CYS799  TRP800  GLU811  SER814 

> <Gold.Protein.RotatedAtoms>
  150.6990  134.4374  159.5276 H   0  0  0  0  0  0  0  0  0  0  0  0  # atno 6907 bound_to 6896
  152.2090  134.8516  160.0508 H   0  0  0  0  0  0  0  0  0  0  0  0  # atno 6908 bound_to 6896
  151.9408  133.3602  159.4001 H   0  0  0  0  0  0  0  0  0  0  0  0  # atno 6909 bound_to 6896
  145.9416  140.7657  142.9549 H   0  0  0  0  0  0  0  0  0  0  0  0  # atno 7974 bound_to 7965
  154.4479  140.1004  156.6526 H   0  0  0  0  0  0  0  0  0  0  0  0  # atno 8008 bound_to 7997
  155.5380  140.3483  155.4422 H   0  0  0  0  0  0  0  0  0  0  0  0  # atno 8009 bound_to 7997
  156.0617  140.1328  156.9922 H   0  0  0  0  0  0  0  0  0  0  0  0  # atno 8010 bound_to 7997
  140.2981  143.3179  152.0277 H   0  0  0  0  0  0  0  0  0  0  0  0  # atno 10167 bound_to 10162
  157.1573  130.6701  149.6032 H   0  0  0  0  0  0  0  0  0  0  0  0  # atno 10718 bound_to 10713
  153.2198  135.6880  153.8013 H   0  0  0  0  0  0  0  0  0  0  0  0  # atno 10763 bound_to 10752
  153.7216  135.3266  155.3269 H   0  0  0  0  0  0  0  0  0  0  0  0  # atno 10764 bound_to 10752
  154.8264  135.4614  154.1041 H   0  0  0  0  0  0  0  0  0  0  0  0  # atno 10765 bound_to 10752
  141.1545  133.6755  156.6540 H   0  0  0  0  0  0  0  0  0  0  0  0  # atno 11005 bound_to 11000
  144.6780  140.2289  143.7357 LP  0  0  0  0  0  0  0  0  0  0  0  0  # atno 17320 bound_to 7965
  145.8292  139.2078  143.1892 LP  0  0  0  0  0  0  0  0  0  0  0  0  # atno 17321 bound_to 7965
  139.4921  144.6476  151.6745 LP  0  0  0  0  0  0  0  0  0  0  0  0  # atno 17342 bound_to 10162
  140.5675  144.0165  150.6199 LP  0  0  0  0  0  0  0  0  0  0  0  0  # atno 17343 bound_to 10162
  155.9760  130.4724  150.6497 LP  0  0  0  0  0  0  0  0  0  0  0  0  # atno 17370 bound_to 10713
  157.4165  131.0831  151.1171 LP  0  0  0  0  0  0  0  0  0  0  0  0  # atno 17371 bound_to 10713
  140.3298  134.7938  157.4317 LP  0  0  0  0  0  0  0  0  0  0  0  0  # atno 17394 bound_to 11000
  140.1026  134.5452  155.8339 LP  0  0  0  0  0  0  0  0  0  0  0  0  # atno 17395 bound_to 11000

$$$$
