#       Name:                AV-unprocessed.smi:883
#       Creating user name   scv26
#       Creation time:       Fri Mar 27 01:53:18 2020


#       File generated by GOLD software.
#

@<TRIPOS>MOLECULE
AV-unprocessed.smi:883
    33    35     1
SMALL
NO_CHARGES


@<TRIPOS>ATOM
      1 ****        -6.6377  -0.8607   0.2649 N.1            1 S1                 0.0000
      2 ****        -5.4890  -0.9045   0.1331 C.1            1 S1                 0.0000
      3 ****        -4.0467  -0.9599  -0.0325 C.ar           1 S1                 0.0000
      4 ****        -3.3835  -2.1934  -0.1852 C.ar           1 S1                 0.0000
      5 ****        -1.9833  -2.1958  -0.3416 C.ar           1 S1                 0.0000
      6 ****        -1.2954  -0.9638  -0.3394 C.ar           1 S1                 0.0000
      7 ****         0.0982  -0.9740  -0.4957 N.pl3          1 S1                 0.0000
      8 ****         0.8885   0.2444  -0.3528 C.3            1 S1                 0.0000
      9 ****         1.0303   0.7038   1.1041 C.3            1 S1                 0.0000
     10 ****         2.5537   0.7714   1.2687 C.3            1 S1                 0.0000
     11 ****         3.1789   1.9097   0.4508 C.3            1 S1                 0.0000
     12 ****         3.0723   1.3660  -0.9737 C.3            1 S1                 0.0000
     13 ****         2.3591   0.0259  -0.7478 C.3            1 S1                 0.0000
     14 ****         2.9354  -0.3504   0.4927 O.3            1 S1                 0.0000
     15 ****        -1.9329   0.2230  -0.1956 N.ar           1 S1                 0.0000
     16 ****        -3.2750   0.2196  -0.0453 C.ar           1 S1                 0.0000
     17 ****        -3.9323  -3.1243  -0.1828 H              1 S1                 0.0000
     18 ****        -1.4511  -3.1285  -0.4598 H              1 S1                 0.0000
     19 ****         0.5845  -1.8563  -0.5642 H              1 S1                 0.0000
     20 ****         0.4535   1.0263  -0.9769 H              1 S1                 0.0000
     21 ****         0.5473   1.6634   1.2903 H              1 S1                 0.0000
     22 ****         0.6105  -0.0251   1.7991 H              1 S1                 0.0000
     23 ****         2.8877   0.7352   2.3059 H              1 S1                 0.0000
     24 ****         2.6503   2.8541   0.5853 H              1 S1                 0.0000
     25 ****         4.2237   2.0593   0.7253 H              1 S1                 0.0000
     26 ****         2.5188   2.0273  -1.6410 H              1 S1                 0.0000
     27 ****         4.0649   1.2080  -1.3970 H              1 S1                 0.0000
     28 ****         2.5112  -0.6895  -1.5570 H              1 S1                 0.0000
     29 ****        -3.7407   1.1880   0.0672 H              1 S1                 0.0000
     30 ****        -7.6305  -0.8228   0.3788 LP             1 S1                 0.0000
     31 ****         2.5433  -1.2001   0.8451 LP             1 S1                 0.0000
     32 ****         3.9292  -0.4422   0.4312 LP             1 S1                 0.0000
     33 ****        -1.4212   1.0822  -0.2006 LP             1 S1                 0.0000
@<TRIPOS>BOND
    1    1    2 3     
    2    2    3 1     
    3    3   16 ar    
    4    3    4 ar    
    5    4    5 ar    
    6    4   17 1     
    7    5    6 ar    
    8    5   18 1     
    9    6    7 1     
   10    6   15 ar    
   11    7    8 1     
   12    7   19 1     
   13    8   13 1     
   14    8    9 1     
   15    8   20 1     
   16    9   10 1     
   17    9   21 1     
   18    9   22 1     
   19   10   14 1     
   20   10   11 1     
   21   10   23 1     
   22   11   12 1     
   23   11   24 1     
   24   11   25 1     
   25   12   13 1     
   26   12   26 1     
   27   12   27 1     
   28   13   14 1     
   29   13   28 1     
   30   15   16 ar    
   31   16   29 1     
   32    1   30 1     
   33   14   31 1     
   34   14   32 1     
   35   15   33 1     
@<TRIPOS>SUBSTRUCTURE
      1 S1             1
@<TRIPOS>SET
LONE_PAIRS      STATIC     ATOMS    <user>   **** ""
4 30 31 32 33
DONOR_HYDROGENS      STATIC     ATOMS    <user>   **** ""
1 19
ATOM$BLUE        STATIC     ATOMS    COLORGROUP SYSTEM
4 30 31 32 33
ATOM$RED        STATIC     ATOMS    COLORGROUP SYSTEM
1 19
