AV-unprocessed.smi:148|AV-procd|sdf|1205|dock9
  -GOLD-   2262018373D 1   1.00000     0.00000
 Structure written by MMmdl.
 63 67  0  0  0  0  0  0  0  0  1 V2000
  150.8597  142.8439  156.6489 O   0  0  0  0  0  0  0  0  0  0  0  0
  150.2822  142.5037  157.8921 C   0  0  0  0  0  0  0  0  0  0  0  0
  150.9362  141.2254  158.4675 C   0  0  1  0  0  0  0  0  0  0  0  0
  150.6750  140.0181  157.5312 C   0  0  0  0  0  0  0  0  0  0  0  0
  150.3062  138.8044  158.2383 N   0  0  0  0  0  0  0  0  0  0  0  0
  151.1427  137.9831  158.9614 C   0  0  0  0  0  0  0  0  0  0  0  0
  150.5670  136.9493  159.5121 N   0  0  0  0  0  0  0  0  0  0  0  0
  149.2364  137.0629  159.1305 C   0  0  0  0  0  0  0  0  0  0  0  0
  148.0724  136.2864  159.3698 C   0  0  0  0  0  0  0  0  0  0  0  0
  148.1043  135.1679  160.1332 N   0  0  0  0  0  0  0  0  0  0  0  0
  147.2927  135.3940  161.3312 C   0  0  0  0  0  0  0  0  0  0  0  0
  147.4466  134.2566  162.3479 C   0  0  0  0  0  0  0  0  0  0  0  0
  147.1276  132.9121  161.6889 C   0  0  0  0  0  0  0  0  0  0  0  0
  148.0363  132.7127  160.4706 C   0  0  0  0  0  0  0  0  0  0  0  0
  147.9007  133.8744  159.4502 C   0  0  2  0  0  0  0  0  0  0  0  0
  148.8143  133.6857  158.1938 C   0  0  2  0  0  0  0  0  0  0  0  0
  148.1656  134.0963  156.8606 C   0  0  0  0  0  0  0  0  0  0  0  0
  148.9008  133.3098  155.7627 C   0  0  0  0  0  0  0  0  0  0  0  0
  149.8833  132.3770  156.4803 C   0  0  0  0  0  0  0  0  0  0  0  0
  149.3548  132.2736  157.9114 C   0  0  1  0  0  0  0  0  0  0  0  0
  150.3793  131.8875  158.8033 O   0  0  0  0  0  0  0  0  0  0  0  0
  146.8989  136.7207  158.8362 N   0  0  0  0  0  0  0  0  0  0  0  0
  146.8736  137.8312  158.0928 C   0  0  0  0  0  0  0  0  0  0  0  0
  147.8820  138.6459  157.7742 N   0  0  0  0  0  0  0  0  0  0  0  0
  149.0552  138.2206  158.3248 C   0  0  0  0  0  0  0  0  0  0  0  0
  152.4419  141.4009  158.8137 C   0  0  2  0  0  0  0  0  0  0  0  0
  153.1165  140.2004  159.4801 C   0  0  0  0  0  0  0  0  0  0  0  0
  153.8682  140.8044  160.6670 C   0  0  0  0  0  0  0  0  0  0  0  0
  154.0062  142.1763  160.3328 O   0  0  0  0  0  0  0  0  0  0  0  0
  152.7812  142.5734  159.7414 C   0  0  0  0  0  0  0  0  0  0  0  0
  150.3672  143.5577  156.2735 H   0  0  0  0  0  0  0  0  0  0  0  0
  150.3980  143.3472  158.5727 H   0  0  0  0  0  0  0  0  0  0  0  0
  149.2135  142.3725  157.7302 H   0  0  0  0  0  0  0  0  0  0  0  0
  150.4390  141.0126  159.4152 H   0  0  0  0  0  0  0  0  0  0  0  0
  149.8742  140.2464  156.8271 H   0  0  0  0  0  0  0  0  0  0  0  0
  151.5620  139.8105  156.9311 H   0  0  0  0  0  0  0  0  0  0  0  0
  152.1987  138.1799  159.0761 H   0  0  0  0  0  0  0  0  0  0  0  0
  147.5748  136.3361  161.8043 H   0  0  0  0  0  0  0  0  0  0  0  0
  146.2445  135.4870  161.0420 H   0  0  0  0  0  0  0  0  0  0  0  0
  148.4656  134.2467  162.7374 H   0  0  0  0  0  0  0  0  0  0  0  0
  146.7874  134.4250  163.1997 H   0  0  0  0  0  0  0  0  0  0  0  0
  147.2705  132.1007  162.4030 H   0  0  0  0  0  0  0  0  0  0  0  0
  146.0812  132.8831  161.3829 H   0  0  0  0  0  0  0  0  0  0  0  0
  149.0625  132.6409  160.8293 H   0  0  0  0  0  0  0  0  0  0  0  0
  147.8018  131.7545  160.0102 H   0  0  0  0  0  0  0  0  0  0  0  0
  146.8676  133.8714  159.0990 H   0  0  0  0  0  0  0  0  0  0  0  0
  149.6826  134.3393  158.2793 H   0  0  0  0  0  0  0  0  0  0  0  0
  147.1076  133.8409  156.8296 H   0  0  0  0  0  0  0  0  0  0  0  0
  148.2359  135.1731  156.7029 H   0  0  0  0  0  0  0  0  0  0  0  0
  148.1846  132.7306  155.1785 H   0  0  0  0  0  0  0  0  0  0  0  0
  149.4237  133.9728  155.0723 H   0  0  0  0  0  0  0  0  0  0  0  0
  149.9707  131.4050  155.9940 H   0  0  0  0  0  0  0  0  0  0  0  0
  150.8740  132.8351  156.4800 H   0  0  0  0  0  0  0  0  0  0  0  0
  148.5593  131.5298  157.9329 H   0  0  0  0  0  0  0  0  0  0  0  0
  149.9875  131.4347  159.5344 H   0  0  0  0  0  0  0  0  0  0  0  0
  145.9066  138.1089  157.6996 H   0  0  0  0  0  0  0  0  0  0  0  0
  152.9972  141.5598  157.8888 H   0  0  0  0  0  0  0  0  0  0  0  0
  152.4258  139.4213  159.8007 H   0  0  0  0  0  0  0  0  0  0  0  0
  153.8168  139.7375  158.7834 H   0  0  0  0  0  0  0  0  0  0  0  0
  153.2791  140.7144  161.5811 H   0  0  0  0  0  0  0  0  0  0  0  0
  154.8363  140.3327  160.8367 H   0  0  0  0  0  0  0  0  0  0  0  0
  152.8836  143.5166  159.2043 H   0  0  0  0  0  0  0  0  0  0  0  0
  152.0396  142.7090  160.5286 H   0  0  0  0  0  0  0  0  0  0  0  0
  1  2  1  0  0  0  0
  1 31  1  0  0  0  0
  2  3  1  0  0  0  0
  2 32  1  0  0  0  0
  2 33  1  0  0  0  0
  3  4  1  0  0  0  0
  3 26  1  0  0  0  0
  3 34  1  0  0  0  0
  4  5  1  0  0  0  0
  4 35  1  0  0  0  0
  4 36  1  0  0  0  0
  5 25  1  0  0  0  0
  5  6  1  0  0  0  0
  6  7  2  0  0  0  0
  6 37  1  0  0  0  0
  7  8  1  0  0  0  0
  8 25  2  0  0  0  0
  8  9  1  0  0  0  0
  9 10  1  0  0  0  0
  9 22  2  0  0  0  0
 10 15  1  0  0  0  0
 10 11  1  0  0  0  0
 11 12  1  0  0  0  0
 11 38  1  0  0  0  0
 11 39  1  0  0  0  0
 12 13  1  0  0  0  0
 12 40  1  0  0  0  0
 12 41  1  0  0  0  0
 13 14  1  0  0  0  0
 13 42  1  0  0  0  0
 13 43  1  0  0  0  0
 14 15  1  0  0  0  0
 14 44  1  0  0  0  0
 14 45  1  0  0  0  0
 15 16  1  0  0  0  0
 15 46  1  0  0  0  0
 16 20  1  0  0  0  0
 16 17  1  0  0  0  0
 16 47  1  0  0  0  0
 17 18  1  0  0  0  0
 17 48  1  0  0  0  0
 17 49  1  0  0  0  0
 18 19  1  0  0  0  0
 18 50  1  0  0  0  0
 18 51  1  0  0  0  0
 19 20  1  0  0  0  0
 19 52  1  0  0  0  0
 19 53  1  0  0  0  0
 20 21  1  0  0  0  0
 20 54  1  0  0  0  0
 21 55  1  0  0  0  0
 22 23  1  0  0  0  0
 23 24  2  0  0  0  0
 23 56  1  0  0  0  0
 24 25  1  0  0  0  0
 26 30  1  0  0  0  0
 26 27  1  0  0  0  0
 26 57  1  0  0  0  0
 27 28  1  0  0  0  0
 27 58  1  0  0  0  0
 27 59  1  0  0  0  0
 28 29  1  0  0  0  0
 28 60  1  0  0  0  0
 28 61  1  0  0  0  0
 29 30  1  0  0  0  0
 30 62  1  0  0  0  0
 30 63  1  0  0  0  0
M  END
> <s_m_source_file>
AV-unprocessed.smi

> <i_m_source_file_index>
148

> <i_lp_mmshare_version>
43012

> <i_f3d_flags>
0

> <s_epik_input>
W0NIMl0xT1tDSDJdW0NIMl1bQ0BIXTFbQ0BIXShbQ0gyXVtPSF0pW0NIMl1uKFtjSF1uMiljKGMyMyluW2NIXW5jM040W0NIMl1bQ0gyXVtDSDJdW0NIMl1bQ0BIXTRbQ0BASF01W0NIMl1bQ0gyXVtDSDJdW0NASF01W09IXQ==

> <s_epik_cmdline>
J2VwaWtfcHl0aG9uJywgJy1waCcsICc3LjAnLCAnLXRuJywgJzgnLCAnLW1hJywgJzIwMCcsICctbWV0YWxfYmluZGluZycsICctaW1hZScsICc8aW5maWxlLm1hZT4nLCAnLW9tYWUnLCAnPG91dGZpbGUubWFlPic=

> <r_lp_tautomer_probability>
1

> <r_epik_Ionization_Penalty>
0.00556303

> <r_epik_Ionization_Penalty_Charging>
0

> <r_epik_Ionization_Penalty_Neutral>
0.00556303

> <r_epik_State_Penalty>
0.00401767

> <r_epik_Charging_Adjusted_Penalty>
0.00401767

> <i_epik_Tot_Q>
0

> <i_epik_Tot_abs_Q>
0

> <r_epik_Metal_State_Penalty>
-0

> <b_epik_Metal_Only>
0

> <s_lp_Force_Field>
OPLS_2005

> <r_lp_Energy>
67.6364

> <b_lp_Chiralities_Consistent>
1

> <s_lp_Variant>
AV-unprocessed.smi:148-4

> <Gold.Version>
5.8.1

> <Gold.Id.Protein>
6NUR|6NUR_protein|mol2

> <Gold.PLP.Fitness>
47.2521

> <Gold.PLP.PLP>
-41.8723

> <Gold.PLP.part.hbond>
-3.0000

> <Gold.PLP.part.metal>
0.0000

> <Gold.PLP.part.buried>
-6.8088

> <Gold.PLP.part.nonpolar>
-32.3938

> <Gold.PLP.part.repulsive>
0.0000

> <Gold.PLP.ligand.clash>
0.2762

> <Gold.PLP.ligand.torsion>
1.9053

> <Gold.PLP.Chemscore.Hbond>
3.0000

> <Gold.PLP.Chemscore.CHOScore>
0.0000

> <Gold.PLP.Chemscore.Metal>
0.0000

> <Gold.Chemscore.Hbonds>
donor molecule, donor type, donor heavy atom, donor atom, acceptor molecule, acceptor atom, score
      L1  H     1    31       P1  8028  1.00
      P1  H  6896  6907       L1    21  1.00
      P1  H  6896  6908       L1     7  1.00

> <Gold.PLP.Chemscore.Internal.Correction>
0.4665

> <Gold.Rescore>
     Score         DG    S(hbond)    S(metal)    S(lipo)     H(rot)  DE(clash)    DE(int)     intcor
     14.17     -17.39       2.71        0.00      97.16       3.32       0.00       3.22       ----

> <Gold.Chemscore.Fitness>
14.1708

> <Gold.Chemscore.DG>
-17.3888

> <Gold.Chemscore.ZeroCoef>
-5.4800

> <Gold.Chemscore.Hbond>
2.7070

> <Gold.Chemscore.Metal>
0.0000

> <Gold.Chemscore.Lipo>
97.1571

> <Gold.Chemscore.Internal_Hbond>
0.0000

> <Gold.Chemscore.DEClash>
0.0015

> <Gold.Chemscore.DEInternal>
3.2165

> <Gold.Chemscore.Rot>
3.3203

> <Gold.Chemscore.Internal.Correction>
   9.000000E+99

> <Gold.Chemscore.Hbonds>
donor molecule, donor type, donor heavy atom, donor atom, acceptor molecule, acceptor atom, score
      L1  H     1    31       P1  8028  0.98
      P1  H  6896  6907       L1    21  0.37
      P1  H  6896  6908       L1     7  0.80

> <Gold.Chemscore.Hbond.Weighted>
-9.0414

> <Gold.Chemscore.Metal.Weighted>
-0.0000

> <Gold.Chemscore.Lipo.Weighted>
-11.3674

> <Gold.Chemscore.Internal_Hbond.Weighted>
0.0000

> <Gold.Chemscore.DEClash.Weighted>
0.0015

> <Gold.Chemscore.DEInternal.Weighted>
3.2165

> <Gold.Chemscore.Rot.Weighted>
8.5000

> <Gold.Chemscore.Internal.Correction.Weighted>
   9.000000E+99

> <Gold.Protein.RotatedTorsions>
[ 6907 6896 6895 6894 ] final -150.85 input  -60.11 | X-H torsion
[ 7974 7965 7964 7962 ] final  -96.72 input  175.53 | X-H torsion
[ 8008 7997 7996 7995 ] final  -95.94 input   59.86 | X-H torsion
[ 10167 10162 10161 10158 ] final  107.99 input  -65.29 | X-H torsion
[ 10718 10713 10712 10709 ] final   98.09 input   66.30 | X-H torsion
[ 10763 10752 10751 10750 ] final -172.00 input  -60.55 | X-H torsion
[ 11005 11000 10999 10996 ] final -122.14 input  -57.11 | X-H torsion

> <Gold.Protein.ActiveResidues>
 VAL166  LYS551  ARG553  GLY616  TRP617  ASP618  TYR619  PRO620  LYS621  CYS622 
 ASP623  PHE694  ASN695  SER759  ASP760  ASP761  ALA762  ILE779  LEU786  VAL792 
 PHE793  MET794  SER795  GLU796  ALA797  LYS798  CYS799  TRP800  GLU811  SER814 

> <Gold.Protein.RotatedAtoms>
  151.2046  133.4591  159.2596 H   0  0  0  0  0  0  0  0  0  0  0  0  # atno 6907 bound_to 6896
  151.1036  134.9986  159.8470 H   0  0  0  0  0  0  0  0  0  0  0  0  # atno 6908 bound_to 6896
  152.5445  134.1971  159.8750 H   0  0  0  0  0  0  0  0  0  0  0  0  # atno 6909 bound_to 6896
  145.3432  140.9463  143.2596 H   0  0  0  0  0  0  0  0  0  0  0  0  # atno 7974 bound_to 7965
  154.7679  140.0475  157.1027 H   0  0  0  0  0  0  0  0  0  0  0  0  # atno 8008 bound_to 7997
  154.9856  140.3107  155.4908 H   0  0  0  0  0  0  0  0  0  0  0  0  # atno 8009 bound_to 7997
  156.2916  140.2228  156.4958 H   0  0  0  0  0  0  0  0  0  0  0  0  # atno 8010 bound_to 7997
  139.6882  144.7111  151.1395 H   0  0  0  0  0  0  0  0  0  0  0  0  # atno 10167 bound_to 10162
  157.6901  131.0629  150.4743 H   0  0  0  0  0  0  0  0  0  0  0  0  # atno 10718 bound_to 10713
  154.6242  135.2879  155.0292 H   0  0  0  0  0  0  0  0  0  0  0  0  # atno 10763 bound_to 10752
  154.1476  135.6508  153.4960 H   0  0  0  0  0  0  0  0  0  0  0  0  # atno 10764 bound_to 10752
  153.0249  135.5348  154.7043 H   0  0  0  0  0  0  0  0  0  0  0  0  # atno 10765 bound_to 10752
  141.0018  134.0392  157.3528 H   0  0  0  0  0  0  0  0  0  0  0  0  # atno 11005 bound_to 11000
  144.8774  139.4951  143.6739 LP  0  0  0  0  0  0  0  0  0  0  0  0  # atno 17320 bound_to 7965
  146.2999  139.7393  142.9099 LP  0  0  0  0  0  0  0  0  0  0  0  0  # atno 17321 bound_to 7965
  140.7674  143.5598  150.9111 LP  0  0  0  0  0  0  0  0  0  0  0  0  # atno 17342 bound_to 10162
  139.9274  143.6533  152.3084 LP  0  0  0  0  0  0  0  0  0  0  0  0  # atno 17343 bound_to 10162
  156.5079  130.4132  149.6317 LP  0  0  0  0  0  0  0  0  0  0  0  0  # atno 17370 bound_to 10713
  156.3268  130.7310  151.2232 LP  0  0  0  0  0  0  0  0  0  0  0  0  # atno 17371 bound_to 10713
  139.9042  135.0174  156.7412 LP  0  0  0  0  0  0  0  0  0  0  0  0  # atno 17394 bound_to 11000
  140.6877  133.9418  155.7948 LP  0  0  0  0  0  0  0  0  0  0  0  0  # atno 17395 bound_to 11000

$$$$
