AV-unprocessed.smi:224|AV-procd|sdf|1713|dock4
  -GOLD-   2262020183D 1   1.00000     0.00000
 Structure written by MMmdl.
 56 59  0  0  0  0  0  0  0  0  2 V2000
  144.3924  131.9332  150.1888 C   0  0  0  0  0  0  0  0  0  0  0  0
  145.8592  132.0748  150.6156 C   0  0  2  0  0  0  0  0  0  0  0  0
  146.6652  131.5979  149.5569 O   0  0  0  0  0  0  0  0  0  0  0  0
  146.1607  131.2701  151.8962 C   0  0  0  0  0  0  0  0  0  0  0  0
  147.5383  131.4906  152.4101 N   0  3  1  0  0  0  0  0  0  0  0  0
  147.8224  132.9006  152.7916 C   0  0  0  0  0  0  0  0  0  0  0  0
  149.3042  133.0786  153.1680 C   0  0  0  0  0  0  0  0  0  0  0  0
  149.7087  132.1169  154.1917 N   0  0  0  0  0  0  0  0  0  0  0  0
  149.6297  132.4639  155.5053 C   0  0  0  0  0  0  0  0  0  0  0  0
  149.5357  131.4911  156.4512 N   0  0  0  0  0  0  0  0  0  0  0  0
  149.4682  131.8070  157.7472 C   0  0  0  0  0  0  0  0  0  0  0  0
  149.4742  133.0150  158.3111 N   0  0  0  0  0  0  0  0  0  0  0  0
  149.5578  133.9992  157.3716 C   0  0  0  0  0  0  0  0  0  0  0  0
  149.6371  133.8144  155.9613 C   0  0  0  0  0  0  0  0  0  0  0  0
  149.6899  135.0519  155.3296 N   0  0  0  0  0  0  0  0  0  0  0  0
  149.6566  135.9149  156.3077 C   0  0  0  0  0  0  0  0  0  0  0  0
  149.5810  135.3688  157.5686 N   0  0  0  0  0  0  0  0  0  0  0  0
  149.5227  136.0957  158.8276 C   0  0  0  0  0  0  0  0  0  0  0  0
  148.1457  136.0094  159.5255 C   0  0  2  0  0  0  0  0  0  0  0  0
  148.2730  136.4845  160.8551 O   0  0  0  0  0  0  0  0  0  0  0  0
  147.5513  134.6046  159.5660 C   0  0  0  0  0  0  0  0  0  0  0  0
  146.0535  134.8690  159.5068 C   0  0  0  0  0  0  0  0  0  0  0  0
  145.9656  135.9391  158.5818 O   0  0  0  0  0  0  0  0  0  0  0  0
  147.0503  136.8313  158.8166 C   0  0  0  0  0  0  0  0  0  0  0  0
  149.4370  130.7229  153.8444 C   0  0  0  0  0  0  0  0  0  0  0  0
  147.9580  130.5058  153.4521 C   0  0  1  0  0  0  0  0  0  0  0  0
  147.0264  130.4821  154.6835 C   0  0  0  0  0  0  0  0  0  0  0  0
  143.7217  132.3076  150.9625 H   0  0  0  0  0  0  0  0  0  0  0  0
  144.1313  130.8916  149.9977 H   0  0  0  0  0  0  0  0  0  0  0  0
  144.1911  132.4985  149.2783 H   0  0  0  0  0  0  0  0  0  0  0  0
  146.0704  133.1338  150.7592 H   0  0  0  0  0  0  0  0  0  0  0  0
  147.5673  131.5883  149.8369 H   0  0  0  0  0  0  0  0  0  0  0  0
  145.4428  131.5221  152.6783 H   0  0  0  0  0  0  0  0  0  0  0  0
  146.0157  130.2105  151.6783 H   0  0  0  0  0  0  0  0  0  0  0  0
  147.5895  133.5736  151.9678 H   0  0  0  0  0  0  0  0  0  0  0  0
  147.1797  133.1961  153.6213 H   0  0  0  0  0  0  0  0  0  0  0  0
  149.9249  132.9107  152.2870 H   0  0  0  0  0  0  0  0  0  0  0  0
  149.5052  134.1036  153.4823 H   0  0  0  0  0  0  0  0  0  0  0  0
  149.4000  130.9729  158.4299 H   0  0  0  0  0  0  0  0  0  0  0  0
  149.6869  136.9813  156.1362 H   0  0  0  0  0  0  0  0  0  0  0  0
  150.3023  135.7063  159.4838 H   0  0  0  0  0  0  0  0  0  0  0  0
  149.7811  137.1374  158.6334 H   0  0  0  0  0  0  0  0  0  0  0  0
  148.0022  135.7977  161.4451 H   0  0  0  0  0  0  0  0  0  0  0  0
  147.8398  134.0474  158.6743 H   0  0  0  0  0  0  0  0  0  0  0  0
  147.8545  134.0204  160.4358 H   0  0  0  0  0  0  0  0  0  0  0  0
  145.4827  134.0015  159.1752 H   0  0  0  0  0  0  0  0  0  0  0  0
  145.6704  135.1869  160.4778 H   0  0  0  0  0  0  0  0  0  0  0  0
  146.7083  137.6717  159.4231 H   0  0  0  0  0  0  0  0  0  0  0  0
  147.3882  137.2363  157.8621 H   0  0  0  0  0  0  0  0  0  0  0  0
  150.0760  130.4668  152.9988 H   0  0  0  0  0  0  0  0  0  0  0  0
  149.7097  130.0332  154.6410 H   0  0  0  0  0  0  0  0  0  0  0  0
  147.8999  129.5166  152.9959 H   0  0  0  0  0  0  0  0  0  0  0  0
  147.3854  129.7661  155.4234 H   0  0  0  0  0  0  0  0  0  0  0  0
  146.0126  130.1829  154.4185 H   0  0  0  0  0  0  0  0  0  0  0  0
  146.9654  131.4518  155.1756 H   0  0  0  0  0  0  0  0  0  0  0  0
  148.1450  131.2980  151.6264 H   0  0  0  0  0  0  0  0  0  0  0  0
  1  2  1  0  0  0  0
  1 28  1  0  0  0  0
  1 29  1  0  0  0  0
  1 30  1  0  0  0  0
  2  3  1  0  0  0  0
  2  4  1  0  0  0  0
  2 31  1  0  0  0  0
  3 32  1  0  0  0  0
  4  5  1  0  0  0  0
  4 33  1  0  0  0  0
  4 34  1  0  0  0  0
  5 26  1  0  0  0  0
  5  6  1  0  0  0  0
  5 56  1  0  0  0  0
  6  7  1  0  0  0  0
  6 35  1  0  0  0  0
  6 36  1  0  0  0  0
  7  8  1  0  0  0  0
  7 37  1  0  0  0  0
  7 38  1  0  0  0  0
  8  9  1  0  0  0  0
  8 25  1  0  0  0  0
  9 14  1  0  0  0  0
  9 10  2  0  0  0  0
 10 11  1  0  0  0  0
 11 12  2  0  0  0  0
 11 39  1  0  0  0  0
 12 13  1  0  0  0  0
 13 17  1  0  0  0  0
 13 14  2  0  0  0  0
 14 15  1  0  0  0  0
 15 16  2  0  0  0  0
 16 17  1  0  0  0  0
 16 40  1  0  0  0  0
 17 18  1  0  0  0  0
 18 19  1  0  0  0  0
 18 41  1  0  0  0  0
 18 42  1  0  0  0  0
 19 24  1  0  0  0  0
 19 20  1  0  0  0  0
 19 21  1  0  0  0  0
 20 43  1  0  0  0  0
 21 22  1  0  0  0  0
 21 44  1  0  0  0  0
 21 45  1  0  0  0  0
 22 23  1  0  0  0  0
 22 46  1  0  0  0  0
 22 47  1  0  0  0  0
 23 24  1  0  0  0  0
 24 48  1  0  0  0  0
 24 49  1  0  0  0  0
 25 26  1  0  0  0  0
 25 50  1  0  0  0  0
 25 51  1  0  0  0  0
 26 27  1  0  0  0  0
 26 52  1  0  0  0  0
 27 53  1  0  0  0  0
 27 54  1  0  0  0  0
 27 55  1  0  0  0  0
M  CHG  1   5   1
M  END
> <s_m_source_file>
AV-unprocessed.smi

> <i_m_source_file_index>
224

> <i_lp_mmshare_version>
43012

> <i_f3d_flags>
0

> <s_epik_input>
W0NIM11bQ0BIXShbT0hdKVtDSDJdTjFbQ0gyXVtDSDJdTihbQ0gyXVtDQEhdMVtDSDNdKWMobltjSF1uMiljKGMyMyluW2NIXW4zW0NIMl1bQ0BAXTQoW09IXSlbQ0gyXVtDSDJdT1tDSDJdNA==

> <s_epik_cmdline>
J2VwaWtfcHl0aG9uJywgJy1waCcsICc3LjAnLCAnLXRuJywgJzgnLCAnLW1hJywgJzIwMCcsICctbWV0YWxfYmluZGluZycsICctaW1hZScsICc8aW5maWxlLm1hZT4nLCAnLW9tYWUnLCAnPG91dGZpbGUubWFlPic=

> <r_lp_tautomer_probability>
1

> <r_epik_Ionization_Penalty>
0.00516958

> <r_epik_Ionization_Penalty_Charging>
0.00509693

> <r_epik_Ionization_Penalty_Neutral>
7.26542e-05

> <r_epik_State_Penalty>
-0

> <r_epik_Charging_Adjusted_Penalty>
0.00509693

> <i_epik_Tot_Q>
1

> <i_epik_Tot_abs_Q>
1

> <r_epik_Metal_State_Penalty>
-0

> <b_epik_Metal_Only>
0

> <s_lp_Force_Field>
OPLS_2005

> <r_lp_Energy>
51.1284

> <b_lp_Chiralities_Consistent>
1

> <s_lp_Variant>
AV-unprocessed.smi:224-7

> <Gold.Version>
5.8.1

> <Gold.Id.Protein>
6NUR|6NUR_protein|mol2

> <Gold.PLP.Fitness>
49.5794

> <Gold.PLP.PLP>
-36.1274

> <Gold.PLP.part.hbond>
-4.9682

> <Gold.PLP.part.metal>
0.0000

> <Gold.PLP.part.buried>
-6.0455

> <Gold.PLP.part.nonpolar>
-25.6544

> <Gold.PLP.part.repulsive>
0.1177

> <Gold.PLP.ligand.clash>
0.0000

> <Gold.PLP.ligand.torsion>
0.4269

> <Gold.PLP.Chemscore.Hbond>
4.6410

> <Gold.PLP.Chemscore.CHOScore>
0.0000

> <Gold.PLP.Chemscore.Metal>
0.0000

> <Gold.Chemscore.Hbonds>
donor molecule, donor type, donor heavy atom, donor atom, acceptor molecule, acceptor atom, score
      L1  H     3    32       P1 10747  1.00
      L1  H     5    56       P1 10747  1.00
      P1  H  6896  6907       L1    12  0.65
      P1  H  6931  6943       L1    20  0.62

> <Gold.PLP.Chemscore.Internal.Correction>
0.3827

> <Gold.Rescore>
     Score         DG    S(hbond)    S(metal)    S(lipo)     H(rot)  DE(clash)    DE(int)     intcor
     14.31     -16.29       3.15        0.00      68.59       3.02       0.12       1.85       ----

> <Gold.Chemscore.Fitness>
14.3126

> <Gold.Chemscore.DG>
-16.2888

> <Gold.Chemscore.ZeroCoef>
-5.4800

> <Gold.Chemscore.Hbond>
3.1505

> <Gold.Chemscore.Metal>
0.0000

> <Gold.Chemscore.Lipo>
68.5904

> <Gold.Chemscore.Internal_Hbond>
0.0000

> <Gold.Chemscore.DEClash>
0.1245

> <Gold.Chemscore.DEInternal>
1.8517

> <Gold.Chemscore.Rot>
3.0231

> <Gold.Chemscore.Internal.Correction>
   9.000000E+99

> <Gold.Chemscore.Hbonds>
donor molecule, donor type, donor heavy atom, donor atom, acceptor molecule, acceptor atom, score
      L1  H     3    32       P1 10747  0.97
      L1  H     5    56       P1 10747  1.00
      P1  H  6896  6907       L1    12  0.06
      P1  H  6931  6943       L1    20  0.51

> <Gold.Chemscore.Hbond.Weighted>
-10.5228

> <Gold.Chemscore.Metal.Weighted>
-0.0000

> <Gold.Chemscore.Lipo.Weighted>
-8.0251

> <Gold.Chemscore.Internal_Hbond.Weighted>
0.0000

> <Gold.Chemscore.DEClash.Weighted>
0.1245

> <Gold.Chemscore.DEInternal.Weighted>
1.8517

> <Gold.Chemscore.Rot.Weighted>
7.7391

> <Gold.Chemscore.Internal.Correction.Weighted>
   9.000000E+99

> <Gold.Protein.RotatedTorsions>
[ 6907 6896 6895 6894 ] final -127.89 input  -60.11 | X-H torsion
[ 7974 7965 7964 7962 ] final  -69.14 input  175.53 | X-H torsion
[ 8008 7997 7996 7995 ] final -153.20 input   59.86 | X-H torsion
[ 10167 10162 10161 10158 ] final  126.36 input  -65.29 | X-H torsion
[ 10718 10713 10712 10709 ] final   34.10 input   66.30 | X-H torsion
[ 10763 10752 10751 10750 ] final  -32.29 input  -60.55 | X-H torsion
[ 11005 11000 10999 10996 ] final  162.95 input  -57.11 | X-H torsion

> <Gold.Protein.ActiveResidues>
 VAL166  LYS551  ARG553  GLY616  TRP617  ASP618  TYR619  PRO620  LYS621  CYS622 
 ASP623  PHE694  ASN695  SER759  ASP760  ASP761  ALA762  ILE779  LEU786  VAL792 
 PHE793  MET794  SER795  GLU796  ALA797  LYS798  CYS799  TRP800  GLU811  SER814 

> <Gold.Protein.RotatedAtoms>
  150.9120  133.6985  159.2852 H   0  0  0  0  0  0  0  0  0  0  0  0  # atno 6907 bound_to 6896
  151.4468  135.1024  159.9696 H   0  0  0  0  0  0  0  0  0  0  0  0  # atno 6908 bound_to 6896
  152.4935  133.8516  159.7259 H   0  0  0  0  0  0  0  0  0  0  0  0  # atno 6909 bound_to 6896
  145.7076  140.9091  143.0698 H   0  0  0  0  0  0  0  0  0  0  0  0  # atno 7974 bound_to 7965
  155.6671  140.0729  157.2533 H   0  0  0  0  0  0  0  0  0  0  0  0  # atno 8008 bound_to 7997
  154.4131  140.1706  156.1890 H   0  0  0  0  0  0  0  0  0  0  0  0  # atno 8009 bound_to 7997
  155.9648  140.3367  155.6526 H   0  0  0  0  0  0  0  0  0  0  0  0  # atno 8010 bound_to 7997
  139.5635  144.6897  151.3975 H   0  0  0  0  0  0  0  0  0  0  0  0  # atno 10167 bound_to 10162
  157.3061  130.7375  149.6696 H   0  0  0  0  0  0  0  0  0  0  0  0  # atno 10718 bound_to 10713
  153.8113  135.6882  153.4840 H   0  0  0  0  0  0  0  0  0  0  0  0  # atno 10763 bound_to 10752
  153.1627  135.4573  154.9792 H   0  0  0  0  0  0  0  0  0  0  0  0  # atno 10764 bound_to 10752
  154.7966  135.3321  154.7593 H   0  0  0  0  0  0  0  0  0  0  0  0  # atno 10765 bound_to 10752
  140.2309  134.8125  157.3316 H   0  0  0  0  0  0  0  0  0  0  0  0  # atno 11005 bound_to 11000
  144.6951  139.9031  143.7459 LP  0  0  0  0  0  0  0  0  0  0  0  0  # atno 17320 bound_to 7965
  146.0742  139.3730  143.0504 LP  0  0  0  0  0  0  0  0  0  0  0  0  # atno 17321 bound_to 7965
  140.6917  143.7845  150.7265 LP  0  0  0  0  0  0  0  0  0  0  0  0  # atno 17342 bound_to 10162
  140.1330  143.4509  152.2242 LP  0  0  0  0  0  0  0  0  0  0  0  0  # atno 17343 bound_to 10162
  155.9674  130.4265  150.4702 LP  0  0  0  0  0  0  0  0  0  0  0  0  # atno 17370 bound_to 10713
  157.2692  131.0583  151.2270 LP  0  0  0  0  0  0  0  0  0  0  0  0  # atno 17371 bound_to 10713
  140.1751  134.4559  155.7806 LP  0  0  0  0  0  0  0  0  0  0  0  0  # atno 17394 bound_to 11000
  141.2218  133.6959  156.7774 LP  0  0  0  0  0  0  0  0  0  0  0  0  # atno 17395 bound_to 11000

$$$$
