AV-unprocessed.smi:1135|AV-procd|sdf|4859|dock9
  -GOLD-   22720 3433D 1   1.00000     0.00000
 Structure written by MMmdl.
 45 46  0  0  0  0  0  0  0  0  1 V2000
  144.1359  134.8109  151.5890 C   0  0  0  0  0  0  0  0  0  0  0  0
  145.0470  133.7739  152.2608 C   0  0  2  0  0  0  0  0  0  0  0  0
  145.3837  134.1739  153.7092 C   0  0  0  0  0  0  0  0  0  0  0  0
  146.3245  133.1534  154.3787 C   0  0  0  0  0  0  0  0  0  0  0  0
  147.6346  132.9307  153.5853 C   0  0  2  0  0  0  0  0  0  0  0  0
  148.4478  131.8077  154.2639 C   0  0  0  0  0  0  0  0  0  0  0  0
  148.3958  134.1885  153.6215 N   0  0  0  0  0  0  0  0  0  0  0  0
  148.8510  134.8603  154.6916 C   0  0  0  0  0  0  0  0  0  0  0  0
  148.6765  134.5182  155.8611 O   0  0  0  0  0  0  0  0  0  0  0  0
  149.5323  135.9560  154.3293 N   0  0  0  0  0  0  0  0  0  0  0  0
  150.1678  136.8856  155.2559 C   0  0  0  0  0  0  0  0  0  0  0  0
  150.7718  138.0928  154.5192 C   0  0  0  0  0  0  0  0  0  0  0  0
  149.7924  139.2460  154.4089 C   0  0  0  0  0  0  0  0  0  0  0  0
  148.5008  139.0442  153.8775 C   0  0  0  0  0  0  0  0  0  0  0  0
  147.6325  140.1490  153.7857 C   0  0  0  0  0  0  0  0  0  0  0  0
  148.0871  141.4071  154.2254 C   0  0  0  0  0  0  0  0  0  0  0  0
  149.3950  141.5043  154.7411 C   0  0  0  0  0  0  0  0  0  0  0  0
  150.2356  140.4511  154.8337 N   0  0  0  0  0  0  0  0  0  0  0  0
  147.2616  132.5259  152.1343 C   0  0  0  0  0  0  0  0  0  0  0  0
  146.3361  133.5479  151.4498 C   0  0  0  0  0  0  0  0  0  0  0  0
  144.6241  135.7837  151.5214 H   0  0  0  0  0  0  0  0  0  0  0  0
  143.2098  134.9410  152.1493 H   0  0  0  0  0  0  0  0  0  0  0  0
  143.8686  134.5016  150.5782 H   0  0  0  0  0  0  0  0  0  0  0  0
  144.5018  132.8293  152.2929 H   0  0  0  0  0  0  0  0  0  0  0  0
  145.8402  135.1644  153.7233 H   0  0  0  0  0  0  0  0  0  0  0  0
  144.4659  134.2557  154.2925 H   0  0  0  0  0  0  0  0  0  0  0  0
  146.5499  133.4793  155.3952 H   0  0  0  0  0  0  0  0  0  0  0  0
  145.7937  132.2056  154.4804 H   0  0  0  0  0  0  0  0  0  0  0  0
  147.8715  130.8839  154.3235 H   0  0  0  0  0  0  0  0  0  0  0  0
  148.7318  132.0819  155.2805 H   0  0  0  0  0  0  0  0  0  0  0  0
  149.3624  131.5776  153.7174 H   0  0  0  0  0  0  0  0  0  0  0  0
  148.6120  134.5840  152.7184 H   0  0  0  0  0  0  0  0  0  0  0  0
  149.6243  136.1584  153.3446 H   0  0  0  0  0  0  0  0  0  0  0  0
  149.4143  137.2221  155.9685 H   0  0  0  0  0  0  0  0  0  0  0  0
  150.9346  136.3692  155.8361 H   0  0  0  0  0  0  0  0  0  0  0  0
  151.6687  138.4388  155.0347 H   0  0  0  0  0  0  0  0  0  0  0  0
  151.0893  137.8001  153.5172 H   0  0  0  0  0  0  0  0  0  0  0  0
  148.1827  138.0670  153.5446 H   0  0  0  0  0  0  0  0  0  0  0  0
  146.6370  140.0332  153.3835 H   0  0  0  0  0  0  0  0  0  0  0  0
  147.4494  142.2767  154.1687 H   0  0  0  0  0  0  0  0  0  0  0  0
  149.7766  142.4536  155.0870 H   0  0  0  0  0  0  0  0  0  0  0  0
  148.1532  132.3746  151.5264 H   0  0  0  0  0  0  0  0  0  0  0  0
  146.7575  131.5586  152.1510 H   0  0  0  0  0  0  0  0  0  0  0  0
  146.0861  133.1950  150.4488 H   0  0  0  0  0  0  0  0  0  0  0  0
  146.8635  134.4931  151.3155 H   0  0  0  0  0  0  0  0  0  0  0  0
  1  2  1  0  0  0  0
  1 21  1  0  0  0  0
  1 22  1  0  0  0  0
  1 23  1  0  0  0  0
  2 20  1  0  0  0  0
  2  3  1  0  0  0  0
  2 24  1  0  0  0  0
  3  4  1  0  0  0  0
  3 25  1  0  0  0  0
  3 26  1  0  0  0  0
  4  5  1  0  0  0  0
  4 27  1  0  0  0  0
  4 28  1  0  0  0  0
  5  6  1  0  0  0  0
  5  7  1  0  0  0  0
  5 19  1  0  0  0  0
  6 29  1  0  0  0  0
  6 30  1  0  0  0  0
  6 31  1  0  0  0  0
  7  8  1  0  0  0  0
  7 32  1  0  0  0  0
  8  9  2  0  0  0  0
  8 10  1  0  0  0  0
 10 11  1  0  0  0  0
 10 33  1  0  0  0  0
 11 12  1  0  0  0  0
 11 34  1  0  0  0  0
 11 35  1  0  0  0  0
 12 13  1  0  0  0  0
 12 36  1  0  0  0  0
 12 37  1  0  0  0  0
 13 18  1  0  0  0  0
 13 14  2  0  0  0  0
 14 15  1  0  0  0  0
 14 38  1  0  0  0  0
 15 16  2  0  0  0  0
 15 39  1  0  0  0  0
 16 17  1  0  0  0  0
 16 40  1  0  0  0  0
 17 18  2  0  0  0  0
 17 41  1  0  0  0  0
 19 20  1  0  0  0  0
 19 42  1  0  0  0  0
 19 43  1  0  0  0  0
 20 44  1  0  0  0  0
 20 45  1  0  0  0  0
M  END
> <s_m_source_file>
AV-unprocessed.smi

> <i_m_source_file_index>
1135

> <i_lp_mmshare_version>
43012

> <i_f3d_flags>
0

> <s_epik_input>
W0NIMl0xW0NIMl1bQ0BIXShbQ0gzXSlbQ0gyXVtDSDJdW0NAQF0xKFtDSDNdKVtOSF1DKD1PKVtOSF1bQ0gyXVtDSDJdYzJbY0hdW2NIXVtjSF1bY0hdbjI=

> <s_epik_cmdline>
J2VwaWtfcHl0aG9uJywgJy1waCcsICc3LjAnLCAnLXRuJywgJzgnLCAnLW1hJywgJzIwMCcsICctbWV0YWxfYmluZGluZycsICctaW1hZScsICc8aW5maWxlLm1hZT4nLCAnLW9tYWUnLCAnPG91dGZpbGUubWFlPic=

> <r_epik_Ionization_Penalty>
0.0448679

> <r_epik_Ionization_Penalty_Charging>
0

> <r_epik_Ionization_Penalty_Neutral>
0.0448679

> <r_epik_State_Penalty>
0.0379931

> <r_epik_Charging_Adjusted_Penalty>
0.0379931

> <i_epik_Tot_Q>
0

> <i_epik_Tot_abs_Q>
0

> <r_epik_Metal_State_Penalty>
0.0353093

> <b_epik_Metal_Only>
0

> <s_lp_Force_Field>
OPLS_2005

> <r_lp_Energy>
6.34065

> <b_lp_Chiralities_Consistent>
1

> <s_lp_Variant>
AV-unprocessed.smi:1135-2

> <Gold.Version>
5.8.1

> <Gold.Id.Protein>
6NUR|6NUR_protein|mol2

> <Gold.PLP.Fitness>
43.0919

> <Gold.PLP.PLP>
-31.8567

> <Gold.PLP.part.hbond>
-3.0240

> <Gold.PLP.part.metal>
0.0000

> <Gold.PLP.part.buried>
-1.9087

> <Gold.PLP.part.nonpolar>
-26.4987

> <Gold.PLP.part.repulsive>
0.1474

> <Gold.PLP.ligand.clash>
0.0000

> <Gold.PLP.ligand.torsion>
0.2687

> <Gold.PLP.Chemscore.Hbond>
2.9200

> <Gold.PLP.Chemscore.CHOScore>
1.0000

> <Gold.PLP.Chemscore.Metal>
0.0000

> <Gold.Chemscore.Hbonds>
donor molecule, donor type, donor heavy atom, donor atom, acceptor molecule, acceptor atom, score
      L1  H     7    32       P1  7948  0.66
      L1  H    10    33       P1  7948  1.00
      P1  H  7989  7998       L1    18  0.99
      L1  C    17    41       P1  8028  1.00

> <Gold.PLP.Chemscore.Internal.Correction>
0.0127

> <Gold.Rescore>
     Score         DG    S(hbond)    S(metal)    S(lipo)     H(rot)  DE(clash)    DE(int)     intcor
     16.21     -16.67       1.84        0.00      74.11       1.42       0.02       0.44       ----

> <Gold.Chemscore.Fitness>
16.2051

> <Gold.Chemscore.DG>
-16.6716

> <Gold.Chemscore.ZeroCoef>
-5.4800

> <Gold.Chemscore.Hbond>
1.8439

> <Gold.Chemscore.Metal>
0.0000

> <Gold.Chemscore.Lipo>
74.1147

> <Gold.Chemscore.Internal_Hbond>
0.0000

> <Gold.Chemscore.DEClash>
0.0224

> <Gold.Chemscore.DEInternal>
0.4442

> <Gold.Chemscore.Rot>
1.4213

> <Gold.Chemscore.Internal.Correction>
   9.000000E+99

> <Gold.Chemscore.Hbonds>
donor molecule, donor type, donor heavy atom, donor atom, acceptor molecule, acceptor atom, score
      L1  H     7    32       P1  7948  0.08
      L1  H    10    33       P1  7948  0.24
      P1  H  7989  7998       L1    18  0.11

> <Gold.Chemscore.Hbond.Weighted>
-6.1587

> <Gold.Chemscore.Metal.Weighted>
-0.0000

> <Gold.Chemscore.Lipo.Weighted>
-8.6714

> <Gold.Chemscore.Internal_Hbond.Weighted>
0.0000

> <Gold.Chemscore.DEClash.Weighted>
0.0224

> <Gold.Chemscore.DEInternal.Weighted>
0.4442

> <Gold.Chemscore.Rot.Weighted>
3.6385

> <Gold.Chemscore.Internal.Correction.Weighted>
   9.000000E+99

> <Gold.Protein.RotatedTorsions>
[ 6907 6896 6895 6894 ] final -165.87 input  -60.11 | X-H torsion
[ 7974 7965 7964 7962 ] final  143.68 input  175.53 | X-H torsion
[ 8008 7997 7996 7995 ] final  107.08 input   59.86 | X-H torsion
[ 10167 10162 10161 10158 ] final  130.44 input  -65.29 | X-H torsion
[ 10718 10713 10712 10709 ] final -109.69 input   66.30 | X-H torsion
[ 10763 10752 10751 10750 ] final   93.46 input  -60.55 | X-H torsion
[ 11005 11000 10999 10996 ] final -127.51 input  -57.11 | X-H torsion

> <Gold.Protein.ActiveResidues>
 VAL166  LYS551  ARG553  GLY616  TRP617  ASP618  TYR619  PRO620  LYS621  CYS622 
 ASP623  PHE694  ASN695  SER759  ASP760  ASP761  ALA762  ILE779  LEU786  VAL792 
 PHE793  MET794  SER795  GLU796  ALA797  LYS798  CYS799  TRP800  GLU811  SER814 

> <Gold.Protein.RotatedAtoms>
  151.4345  133.3660  159.2773 H   0  0  0  0  0  0  0  0  0  0  0  0  # atno 6907 bound_to 6896
  150.9201  134.8620  159.7494 H   0  0  0  0  0  0  0  0  0  0  0  0  # atno 6908 bound_to 6896
  152.4977  134.4282  159.9555 H   0  0  0  0  0  0  0  0  0  0  0  0  # atno 6909 bound_to 6896
  144.8900  139.5572  143.5803 H   0  0  0  0  0  0  0  0  0  0  0  0  # atno 7974 bound_to 7965
  156.1796  140.3101  155.9123 H   0  0  0  0  0  0  0  0  0  0  0  0  # atno 8008 bound_to 7997
  155.3414  140.0466  157.3062 H   0  0  0  0  0  0  0  0  0  0  0  0  # atno 8009 bound_to 7997
  154.5327  140.2236  155.8786 H   0  0  0  0  0  0  0  0  0  0  0  0  # atno 8010 bound_to 7997
  139.5430  144.6748  151.4564 H   0  0  0  0  0  0  0  0  0  0  0  0  # atno 10167 bound_to 10162
  156.0550  130.5777  150.8134 H   0  0  0  0  0  0  0  0  0  0  0  0  # atno 10718 bound_to 10713
  153.2306  135.4324  155.0591 H   0  0  0  0  0  0  0  0  0  0  0  0  # atno 10763 bound_to 10752
  154.8295  135.3378  154.6793 H   0  0  0  0  0  0  0  0  0  0  0  0  # atno 10764 bound_to 10752
  153.7220  135.7016  153.5066 H   0  0  0  0  0  0  0  0  0  0  0  0  # atno 10765 bound_to 10752
  140.9593  134.0958  157.3984 H   0  0  0  0  0  0  0  0  0  0  0  0  # atno 11005 bound_to 11000
  146.3048  139.7543  142.9064 LP  0  0  0  0  0  0  0  0  0  0  0  0  # atno 17320 bound_to 7965
  145.3800  141.0357  143.3183 LP  0  0  0  0  0  0  0  0  0  0  0  0  # atno 17321 bound_to 7965
  140.6667  143.8382  150.6950 LP  0  0  0  0  0  0  0  0  0  0  0  0  # atno 17342 bound_to 10162
  140.1793  143.4128  152.1944 LP  0  0  0  0  0  0  0  0  0  0  0  0  # atno 17343 bound_to 10162
  157.5512  131.0944  150.9692 LP  0  0  0  0  0  0  0  0  0  0  0  0  # atno 17370 bound_to 10713
  156.9952  130.5578  149.5306 LP  0  0  0  0  0  0  0  0  0  0  0  0  # atno 17371 bound_to 10713
  139.8873  135.0088  156.6550 LP  0  0  0  0  0  0  0  0  0  0  0  0  # atno 17394 bound_to 11000
  140.7490  133.8913  155.8333 LP  0  0  0  0  0  0  0  0  0  0  0  0  # atno 17395 bound_to 11000

$$$$
