AV-unprocessed.smi:825|AV-procd|sdf|3851|dock1
  -GOLD-   22720 1303D 1   1.00000     0.00000
 Structure written by MMmdl.
 38 39  0  0  0  0  0  0  0  0  1 V2000
  145.4969  138.3038  153.4220 O   0  0  0  0  0  0  0  0  0  0  0  0
  146.3003  138.1456  152.5030 C   0  0  0  0  0  0  0  0  0  0  0  0
  147.2937  139.0012  152.2242 N   0  0  0  0  0  0  0  0  0  0  0  0
  147.5770  140.2399  152.9423 C   0  0  0  0  0  0  0  0  0  0  0  0
  148.3427  139.9590  154.2462 C   0  0  0  0  0  0  0  0  0  0  0  0
  149.0480  141.1808  154.8480 C   0  0  0  0  0  0  0  0  0  0  0  0
  150.1749  140.6189  155.7262 C   0  0  0  0  0  0  0  0  0  0  0  0
  150.3455  139.1456  155.3268 C   0  0  0  0  0  0  0  0  0  0  0  0
  149.4745  138.9437  154.0851 C   0  0  0  0  0  0  0  0  0  0  0  0
  146.3019  137.1071  151.6520 N   0  0  0  0  0  0  0  0  0  0  0  0
  145.4280  135.9913  151.6594 C   0  0  0  0  0  0  0  0  0  0  0  0
  144.2532  135.7698  152.4324 C   0  0  0  0  0  0  0  0  0  0  0  0
  143.7180  134.5901  152.1554 N   0  0  0  0  0  0  0  0  0  0  0  0
  144.5286  134.0469  151.2140 N   0  0  0  0  0  0  0  0  0  0  0  0
  144.2323  132.7289  150.6876 C   0  0  0  0  0  0  0  0  0  0  0  0
  144.0997  132.7507  149.1585 C   0  0  0  0  0  0  0  0  0  0  0  0
  142.8803  132.1537  148.7734 O   0  0  0  0  0  0  0  0  0  0  0  0
  145.5823  134.8779  150.8895 C   0  0  0  0  0  0  0  0  0  0  0  0
  147.9016  138.7820  151.4485 H   0  0  0  0  0  0  0  0  0  0  0  0
  148.1521  140.9347  152.3284 H   0  0  0  0  0  0  0  0  0  0  0  0
  146.6292  140.7334  153.1590 H   0  0  0  0  0  0  0  0  0  0  0  0
  147.6443  139.5676  154.9885 H   0  0  0  0  0  0  0  0  0  0  0  0
  149.4816  141.7883  154.0523 H   0  0  0  0  0  0  0  0  0  0  0  0
  148.3650  141.8180  155.4107 H   0  0  0  0  0  0  0  0  0  0  0  0
  151.0969  141.1810  155.5746 H   0  0  0  0  0  0  0  0  0  0  0  0
  149.9184  140.6948  156.7834 H   0  0  0  0  0  0  0  0  0  0  0  0
  151.3877  138.8833  155.1424 H   0  0  0  0  0  0  0  0  0  0  0  0
  149.9858  138.5060  156.1339 H   0  0  0  0  0  0  0  0  0  0  0  0
  149.1097  137.9202  153.9933 H   0  0  0  0  0  0  0  0  0  0  0  0
  150.0561  139.1705  153.1903 H   0  0  0  0  0  0  0  0  0  0  0  0
  147.0090  137.1084  150.9316 H   0  0  0  0  0  0  0  0  0  0  0  0
  143.7777  136.3984  153.1706 H   0  0  0  0  0  0  0  0  0  0  0  0
  145.0224  132.0421  150.9954 H   0  0  0  0  0  0  0  0  0  0  0  0
  143.3075  132.3738  151.1446 H   0  0  0  0  0  0  0  0  0  0  0  0
  144.1271  133.7750  148.7851 H   0  0  0  0  0  0  0  0  0  0  0  0
  144.9236  132.2103  148.6910 H   0  0  0  0  0  0  0  0  0  0  0  0
  142.1894  132.7911  148.8716 H   0  0  0  0  0  0  0  0  0  0  0  0
  146.3317  134.6082  150.1600 H   0  0  0  0  0  0  0  0  0  0  0  0
  1  2  2  0  0  0  0
  2  3  1  0  0  0  0
  2 10  1  0  0  0  0
  3  4  1  0  0  0  0
  3 19  1  0  0  0  0
  4  5  1  0  0  0  0
  4 20  1  0  0  0  0
  4 21  1  0  0  0  0
  5  9  1  0  0  0  0
  5  6  1  0  0  0  0
  5 22  1  0  0  0  0
  6  7  1  0  0  0  0
  6 23  1  0  0  0  0
  6 24  1  0  0  0  0
  7  8  1  0  0  0  0
  7 25  1  0  0  0  0
  7 26  1  0  0  0  0
  8  9  1  0  0  0  0
  8 27  1  0  0  0  0
  8 28  1  0  0  0  0
  9 29  1  0  0  0  0
  9 30  1  0  0  0  0
 10 11  1  0  0  0  0
 10 31  1  0  0  0  0
 11 18  2  0  0  0  0
 11 12  1  0  0  0  0
 12 13  2  0  0  0  0
 12 32  1  0  0  0  0
 13 14  1  0  0  0  0
 14 15  1  0  0  0  0
 14 18  1  0  0  0  0
 15 16  1  0  0  0  0
 15 33  1  0  0  0  0
 15 34  1  0  0  0  0
 16 17  1  0  0  0  0
 16 35  1  0  0  0  0
 16 36  1  0  0  0  0
 17 37  1  0  0  0  0
 18 38  1  0  0  0  0
M  END
> <s_m_source_file>
AV-unprocessed.smi

> <i_m_source_file_index>
825

> <i_lp_mmshare_version>
43012

> <i_f3d_flags>
0

> <s_epik_input>
W0NIMl0xW0NIMl1bQ0gyXVtDSDJdW0NIXTFbQ0gyXVtOSF1DKD1PKVtOSF1jMltjSF1ubihbY0hdMilbQ0gyXVtDSDJdW09IXQ==

> <s_epik_cmdline>
J2VwaWtfcHl0aG9uJywgJy1waCcsICc3LjAnLCAnLXRuJywgJzgnLCAnLW1hJywgJzIwMCcsICctbWV0YWxfYmluZGluZycsICctaW1hZScsICc8aW5maWxlLm1hZT4nLCAnLW9tYWUnLCAnPG91dGZpbGUubWFlPic=

> <r_lp_tautomer_probability>
1

> <r_epik_Ionization_Penalty>
0.000577844

> <r_epik_Ionization_Penalty_Charging>
0

> <r_epik_Ionization_Penalty_Neutral>
0.000577844

> <r_epik_State_Penalty>
-0

> <r_epik_Charging_Adjusted_Penalty>
0

> <i_epik_Tot_Q>
0

> <i_epik_Tot_abs_Q>
0

> <r_epik_Metal_State_Penalty>
-0

> <b_epik_Metal_Only>
0

> <s_lp_Force_Field>
OPLS_2005

> <r_lp_Energy>
26.6731

> <b_lp_Chiralities_Consistent>
1

> <s_lp_Variant>
AV-unprocessed.smi:825-1

> <Gold.Version>
5.8.1

> <Gold.Id.Protein>
6NUR|6NUR_protein|mol2

> <Gold.PLP.Fitness>
45.7188

> <Gold.PLP.PLP>
-37.4071

> <Gold.PLP.part.hbond>
-5.2866

> <Gold.PLP.part.metal>
0.0000

> <Gold.PLP.part.buried>
0.0136

> <Gold.PLP.part.nonpolar>
-32.6811

> <Gold.PLP.part.repulsive>
1.0181

> <Gold.PLP.ligand.clash>
0.0000

> <Gold.PLP.ligand.torsion>
0.6676

> <Gold.PLP.Chemscore.Hbond>
2.2070

> <Gold.PLP.Chemscore.CHOScore>
1.0000

> <Gold.PLP.Chemscore.Metal>
0.0000

> <Gold.Chemscore.Hbonds>
donor molecule, donor type, donor heavy atom, donor atom, acceptor molecule, acceptor atom, score
      L1  H     3    19       P1  7957  0.31
      L1  H    10    31       P1  7948  0.07
      L1  H    17    37       P1 10186  0.81
      P1  H 10785 10796       L1    17  0.99
      L1  C    18    38       P1  7921  0.94

> <Gold.PLP.Chemscore.Internal.Correction>
0.0259

> <Gold.Rescore>
     Score         DG    S(hbond)    S(metal)    S(lipo)     H(rot)  DE(clash)    DE(int)     intcor
     12.36     -14.69       1.94        0.00      73.99       2.31       0.53       1.80       ----

> <Gold.Chemscore.Fitness>
12.3566

> <Gold.Chemscore.DG>
-14.6896

> <Gold.Chemscore.ZeroCoef>
-5.4800

> <Gold.Chemscore.Hbond>
1.9360

> <Gold.Chemscore.Metal>
0.0000

> <Gold.Chemscore.Lipo>
73.9850

> <Gold.Chemscore.Internal_Hbond>
0.0000

> <Gold.Chemscore.DEClash>
0.5299

> <Gold.Chemscore.DEInternal>
1.8032

> <Gold.Chemscore.Rot>
2.3097

> <Gold.Chemscore.Internal.Correction>
   9.000000E+99

> <Gold.Chemscore.Hbonds>
donor molecule, donor type, donor heavy atom, donor atom, acceptor molecule, acceptor atom, score
      L1  H     3    19       P1  7957  0.19
      L1  H    10    31       P1  7948  0.07
      L1  H    17    37       P1 10186  0.79
      P1  H 10785 10796       L1    17  0.54

> <Gold.Chemscore.Hbond.Weighted>
-6.4661

> <Gold.Chemscore.Metal.Weighted>
-0.0000

> <Gold.Chemscore.Lipo.Weighted>
-8.6562

> <Gold.Chemscore.Internal_Hbond.Weighted>
0.0000

> <Gold.Chemscore.DEClash.Weighted>
0.5299

> <Gold.Chemscore.DEInternal.Weighted>
1.8032

> <Gold.Chemscore.Rot.Weighted>
5.9128

> <Gold.Chemscore.Internal.Correction.Weighted>
   9.000000E+99

> <Gold.Protein.RotatedTorsions>
[ 6907 6896 6895 6894 ] final  -14.89 input  -60.11 | X-H torsion
[ 7974 7965 7964 7962 ] final -133.12 input  175.53 | X-H torsion
[ 8008 7997 7996 7995 ] final   65.19 input   59.86 | X-H torsion
[ 10167 10162 10161 10158 ] final  156.67 input  -65.29 | X-H torsion
[ 10718 10713 10712 10709 ] final   26.34 input   66.30 | X-H torsion
[ 10763 10752 10751 10750 ] final   65.09 input  -60.55 | X-H torsion
[ 11005 11000 10999 10996 ] final -150.20 input  -57.11 | X-H torsion

> <Gold.Protein.ActiveResidues>
 VAL166  LYS551  ARG553  GLY616  TRP617  ASP618  TYR619  PRO620  LYS621  CYS622 
 ASP623  PHE694  ASN695  SER759  ASP760  ASP761  ALA762  ILE779  LEU786  VAL792 
 PHE793  MET794  SER795  GLU796  ALA797  LYS798  CYS799  TRP800  GLU811  SER814 

> <Gold.Protein.RotatedAtoms>
  151.3324  135.0844  159.9342 H   0  0  0  0  0  0  0  0  0  0  0  0  # atno 6907 bound_to 6896
  152.5231  133.9530  159.7691 H   0  0  0  0  0  0  0  0  0  0  0  0  # atno 6908 bound_to 6896
  150.9871  133.6134  159.2743 H   0  0  0  0  0  0  0  0  0  0  0  0  # atno 6909 bound_to 6896
  144.9223  140.7028  143.4958 H   0  0  0  0  0  0  0  0  0  0  0  0  # atno 7974 bound_to 7965
  155.6578  140.3497  155.4771 H   0  0  0  0  0  0  0  0  0  0  0  0  # atno 8008 bound_to 7997
  155.9794  140.1171  157.0763 H   0  0  0  0  0  0  0  0  0  0  0  0  # atno 8009 bound_to 7997
  154.4187  140.1141  156.5401 H   0  0  0  0  0  0  0  0  0  0  0  0  # atno 8010 bound_to 7997
  139.4821  144.4987  151.8200 H   0  0  0  0  0  0  0  0  0  0  0  0  # atno 10167 bound_to 10162
  157.2055  130.6910  149.6206 H   0  0  0  0  0  0  0  0  0  0  0  0  # atno 10718 bound_to 10713
  153.0082  135.5369  154.6612 H   0  0  0  0  0  0  0  0  0  0  0  0  # atno 10763 bound_to 10752
  154.5820  135.2851  155.0725 H   0  0  0  0  0  0  0  0  0  0  0  0  # atno 10764 bound_to 10752
  154.1850  135.6510  153.5097 H   0  0  0  0  0  0  0  0  0  0  0  0  # atno 10765 bound_to 10752
  140.7427  134.3496  157.5144 H   0  0  0  0  0  0  0  0  0  0  0  0  # atno 11005 bound_to 11000
  145.3277  139.1769  143.4554 LP  0  0  0  0  0  0  0  0  0  0  0  0  # atno 17320 bound_to 7965
  146.3210  140.3302  142.8640 LP  0  0  0  0  0  0  0  0  0  0  0  0  # atno 17321 bound_to 7965
  140.4478  144.1897  150.5895 LP  0  0  0  0  0  0  0  0  0  0  0  0  # atno 17342 bound_to 10162
  140.4616  143.2447  151.9212 LP  0  0  0  0  0  0  0  0  0  0  0  0  # atno 17343 bound_to 10162
  155.9696  130.4568  150.5939 LP  0  0  0  0  0  0  0  0  0  0  0  0  # atno 17370 bound_to 10713
  157.3724  131.0768  151.1546 LP  0  0  0  0  0  0  0  0  0  0  0  0  # atno 17371 bound_to 10713
  139.8803  134.9091  156.2983 LP  0  0  0  0  0  0  0  0  0  0  0  0  # atno 17394 bound_to 11000
  140.9822  133.7260  156.0689 LP  0  0  0  0  0  0  0  0  0  0  0  0  # atno 17395 bound_to 11000

$$$$
