#       Name:                AV-unprocessed.smi:48
#       Creating user name   scv26
#       Creation time:       Thu Mar 26 16:31:37 2020


#       File generated by GOLD software.
#

@<TRIPOS>MOLECULE
AV-unprocessed.smi:48
    41    43     1
SMALL
NO_CHARGES


@<TRIPOS>ATOM
      1 ****        -3.3155   1.6549   2.1358 O.3            1 S1                 0.0000
      2 ****        -3.1089   0.2710   1.9478 C.3            1 S1                 0.0000
      3 ****        -1.7136   0.0244   1.3479 C.3            1 S1                 0.0000
      4 ****        -1.7227   0.1761  -0.0681 O.3            1 S1                 0.0000
      5 ****        -0.5794  -0.4175  -0.6078 C.3            1 S1                 0.0000
      6 ****         0.4562   0.6467  -0.8044 N.pl3          1 S1                 0.0000
      7 ****         0.4159   1.9573  -0.4787 C.2            1 S1                 0.0000
      8 ****         1.4823   2.6972  -0.7827 N.2            1 S1                 0.0000
      9 ****         2.3057   1.7617  -1.3870 C.ar           1 S1                 0.0000
     10 ****         3.5983   1.8436  -1.9598 C.ar           1 S1                 0.0000
     11 ****         4.4642   3.3359  -1.9908 Cl             1 S1                 0.0000
     12 ****         4.1422   0.7202  -2.4867 N.ar           1 S1                 0.0000
     13 ****         3.4478  -0.4242  -2.4515 C.ar           1 S1                 0.0000
     14 ****         2.2291  -0.6536  -1.9480 N.ar           1 S1                 0.0000
     15 ****         1.6854   0.4812  -1.4169 C.ar           1 S1                 0.0000
     16 ****        -0.0830  -1.4486   0.4238 C.3            1 S1                 0.0000
     17 ****         0.0904  -2.7444  -0.1177 O.3            1 S1                 0.0000
     18 ****        -1.1627  -1.3977   1.5050 C.3            1 S1                 0.0000
     19 ****        -2.1897  -2.3540   1.2966 O.3            1 S1                 0.0000
     20 ****        -0.9926   0.7206   1.7815 H              1 S1                 0.0000
     21 ****        -0.7677  -0.8144  -1.6063 H              1 S1                 0.0000
     22 ****         0.8655  -1.1139   0.8474 H              1 S1                 0.0000
     23 ****        -0.7430  -1.5615   2.4981 H              1 S1                 0.0000
     24 ****        -4.1771   1.7819   2.5029 H              1 S1                 0.0000
     25 ****        -3.1871  -0.2063   2.9251 H              1 S1                 0.0000
     26 ****        -3.8945  -0.1458   1.3167 H              1 S1                 0.0000
     27 ****        -0.4411   2.3980   0.0095 H              1 S1                 0.0000
     28 ****         3.9385  -1.2801  -2.8909 H              1 S1                 0.0000
     29 ****         0.7501  -2.6993  -0.7934 H              1 S1                 0.0000
     30 ****        -1.7921  -3.2104   1.2513 H              1 S1                 0.0000
     31 ****        -3.2499   2.1283   1.2574 LP             1 S1                 0.0000
     32 ****        -2.6252   2.0172   2.7621 LP             1 S1                 0.0000
     33 ****        -1.7337   1.1491  -0.2989 LP             1 S1                 0.0000
     34 ****        -2.5370  -0.2651  -0.4452 LP             1 S1                 0.0000
     35 ****         1.6447   3.6701  -0.6180 LP             1 S1                 0.0000
     36 ****         5.0533   0.7454  -2.8981 LP             1 S1                 0.0000
     37 ****         1.7738  -1.5439  -1.9592 LP             1 S1                 0.0000
     38 ****        -0.7723  -3.0653  -0.5086 LP             1 S1                 0.0000
     39 ****         0.3854  -3.3741   0.6010 LP             1 S1                 0.0000
     40 ****        -2.6669  -2.1568   0.4403 LP             1 S1                 0.0000
     41 ****        -2.8402  -2.3227   2.0555 LP             1 S1                 0.0000
@<TRIPOS>BOND
    1    1    2 1     
    2    1   24 1     
    3    2    3 1     
    4    2   25 1     
    5    2   26 1     
    6    3   20 1     
    7    3   18 1     
    8    3    4 1     
    9    4    5 1     
   10    5   21 1     
   11    5    6 1     
   12    5   16 1     
   13    6   15 1     
   14    6    7 1     
   15    7    8 2     
   16    7   27 1     
   17    8    9 1     
   18    9   15 ar    
   19    9   10 ar    
   20   10   11 1     
   21   10   12 ar    
   22   12   13 ar    
   23   13   14 ar    
   24   13   28 1     
   25   14   15 ar    
   26   16   22 1     
   27   16   17 1     
   28   16   18 1     
   29   17   29 1     
   30   18   23 1     
   31   18   19 1     
   32   19   30 1     
   33    1   31 1     
   34    1   32 1     
   35    4   33 1     
   36    4   34 1     
   37    8   35 1     
   38   12   36 1     
   39   14   37 1     
   40   17   38 1     
   41   17   39 1     
   42   19   40 1     
   43   19   41 1     
@<TRIPOS>SUBSTRUCTURE
      1 S1             1
@<TRIPOS>SET
LONE_PAIRS      STATIC     ATOMS    <user>   **** ""
11 31 32 33 34 35 36 37 38 39 40 41
DONOR_HYDROGENS      STATIC     ATOMS    <user>   **** ""
3 24 29 30
ATOM$BLUE        STATIC     ATOMS    COLORGROUP SYSTEM
11 31 32 33 34 35 36 37 38 39 40 41
ATOM$RED        STATIC     ATOMS    COLORGROUP SYSTEM
3 24 29 30
