AV-unprocessed.smi:438|AV-procd|sdf|2578|dock1
  -GOLD-   2262022563D 1   1.00000     0.00000
 Structure written by MMmdl.
 48 49  0  0  0  0  0  0  0  0  1 V2000
  151.5967  132.2865  156.3012 C   0  0  0  0  0  0  0  0  0  0  0  0
  150.8382  133.5945  156.1718 C   0  0  0  0  0  0  0  0  0  0  0  0
  151.4131  134.6674  156.7580 N   0  0  0  0  0  0  0  0  0  0  0  0
  150.7548  135.8217  156.6635 C   0  0  0  0  0  0  0  0  0  0  0  0
  151.4909  137.1975  157.5219 S   0  0  0  0  0  0  0  0  0  0  0  0
  150.5089  138.5935  156.8777 C   0  0  0  0  0  0  0  0  0  0  0  0
  151.2628  139.9255  156.8139 C   0  0  0  0  0  0  0  0  0  0  0  0
  151.4431  140.4721  155.7263 O   0  0  0  0  0  0  0  0  0  0  0  0
  151.6757  140.4485  157.9794 N   0  0  0  0  0  0  0  0  0  0  0  0
  152.2799  141.7678  158.1464 C   0  0  1  0  0  0  0  0  0  0  0  0
  151.2251  142.8543  157.8457 C   0  0  0  0  0  0  0  0  0  0  0  0
  151.7843  144.2667  158.0633 C   0  0  0  0  0  0  0  0  0  0  0  0
  152.3355  144.4231  159.4868 C   0  0  0  0  0  0  0  0  0  0  0  0
  153.3966  143.3538  159.7883 C   0  0  0  0  0  0  0  0  0  0  0  0
  152.8526  141.9260  159.5767 C   0  0  2  0  0  0  0  0  0  0  0  0
  153.9370  140.8812  159.8958 C   0  0  0  0  0  0  0  0  0  0  0  0
  149.5985  136.0464  156.0372 N   0  0  0  0  0  0  0  0  0  0  0  0
  149.0103  134.9834  155.4484 C   0  0  0  0  0  0  0  0  0  0  0  0
  147.8243  135.1858  154.8046 O   0  0  0  0  0  0  0  0  0  0  0  0
  149.5976  133.6940  155.4917 C   0  0  0  0  0  0  0  0  0  0  0  0
  148.9285  132.4926  154.8366 C   0  0  0  0  0  0  0  0  0  0  0  0
  148.7396  132.6883  153.3267 C   0  0  0  0  0  0  0  0  0  0  0  0
  147.9359  131.6515  152.8080 O   0  0  0  0  0  0  0  0  0  0  0  0
  151.7222  131.8165  155.3257 H   0  0  0  0  0  0  0  0  0  0  0  0
  151.0555  131.5996  156.9521 H   0  0  0  0  0  0  0  0  0  0  0  0
  152.5890  132.4421  156.7270 H   0  0  0  0  0  0  0  0  0  0  0  0
  150.1551  138.3404  155.8784 H   0  0  0  0  0  0  0  0  0  0  0  0
  149.6239  138.7116  157.5038 H   0  0  0  0  0  0  0  0  0  0  0  0
  151.4916  139.9239  158.8227 H   0  0  0  0  0  0  0  0  0  0  0  0
  153.1040  141.8754  157.4382 H   0  0  0  0  0  0  0  0  0  0  0  0
  150.8641  142.7594  156.8208 H   0  0  0  0  0  0  0  0  0  0  0  0
  150.3577  142.7118  158.4911 H   0  0  0  0  0  0  0  0  0  0  0  0
  152.5749  144.4638  157.3379 H   0  0  0  0  0  0  0  0  0  0  0  0
  151.0043  145.0066  157.8818 H   0  0  0  0  0  0  0  0  0  0  0  0
  152.7636  145.4179  159.6124 H   0  0  0  0  0  0  0  0  0  0  0  0
  151.5199  144.3434  160.2067 H   0  0  0  0  0  0  0  0  0  0  0  0
  154.2645  143.5152  159.1475 H   0  0  0  0  0  0  0  0  0  0  0  0
  153.7466  143.4710  160.8145 H   0  0  0  0  0  0  0  0  0  0  0  0
  152.0367  141.7767  160.2861 H   0  0  0  0  0  0  0  0  0  0  0  0
  154.7731  140.9544  159.1998 H   0  0  0  0  0  0  0  0  0  0  0  0
  153.5460  139.8650  159.8413 H   0  0  0  0  0  0  0  0  0  0  0  0
  154.3307  141.0212  160.9028 H   0  0  0  0  0  0  0  0  0  0  0  0
  147.9394  135.4122  153.8945 H   0  0  0  0  0  0  0  0  0  0  0  0
  149.5117  131.5918  155.0271 H   0  0  0  0  0  0  0  0  0  0  0  0
  147.9628  132.3162  155.3119 H   0  0  0  0  0  0  0  0  0  0  0  0
  148.2622  133.6463  153.1182 H   0  0  0  0  0  0  0  0  0  0  0  0
  149.7009  132.6832  152.8120 H   0  0  0  0  0  0  0  0  0  0  0  0
  148.3813  131.2680  152.0680 H   0  0  0  0  0  0  0  0  0  0  0  0
  1  2  1  0  0  0  0
  1 24  1  0  0  0  0
  1 25  1  0  0  0  0
  1 26  1  0  0  0  0
  2 20  1  0  0  0  0
  2  3  2  0  0  0  0
  3  4  1  0  0  0  0
  4  5  1  0  0  0  0
  4 17  2  0  0  0  0
  5  6  1  0  0  0  0
  6  7  1  0  0  0  0
  6 27  1  0  0  0  0
  6 28  1  0  0  0  0
  7  8  2  0  0  0  0
  7  9  1  0  0  0  0
  9 10  1  0  0  0  0
  9 29  1  0  0  0  0
 10 15  1  0  0  0  0
 10 11  1  0  0  0  0
 10 30  1  0  0  0  0
 11 12  1  0  0  0  0
 11 31  1  0  0  0  0
 11 32  1  0  0  0  0
 12 13  1  0  0  0  0
 12 33  1  0  0  0  0
 12 34  1  0  0  0  0
 13 14  1  0  0  0  0
 13 35  1  0  0  0  0
 13 36  1  0  0  0  0
 14 15  1  0  0  0  0
 14 37  1  0  0  0  0
 14 38  1  0  0  0  0
 15 16  1  0  0  0  0
 15 39  1  0  0  0  0
 16 40  1  0  0  0  0
 16 41  1  0  0  0  0
 16 42  1  0  0  0  0
 17 18  1  0  0  0  0
 18 19  1  0  0  0  0
 18 20  2  0  0  0  0
 19 43  1  0  0  0  0
 20 21  1  0  0  0  0
 21 22  1  0  0  0  0
 21 44  1  0  0  0  0
 21 45  1  0  0  0  0
 22 23  1  0  0  0  0
 22 46  1  0  0  0  0
 22 47  1  0  0  0  0
 23 48  1  0  0  0  0
M  END
> <s_m_source_file>
AV-unprocessed.smi

> <i_m_source_file_index>
438

> <i_lp_mmshare_version>
43012

> <i_f3d_flags>
0

> <s_epik_input>
W09IXVtDSDJdW0NIMl1jMWMoW09IXSluYyhuYzFbQ0gzXSlTW0NIMl1DKD1PKVtOSF1bQ0BASF0yW0NIMl1bQ0gyXVtDSDJdW0NIMl1bQ0BIXTJbQ0gzXQ==

> <s_epik_cmdline>
J2VwaWtfcHl0aG9uJywgJy1waCcsICc3LjAnLCAnLXRuJywgJzgnLCAnLW1hJywgJzIwMCcsICctbWV0YWxfYmluZGluZycsICctaW1hZScsICc8aW5maWxlLm1hZT4nLCAnLW9tYWUnLCAnPG91dGZpbGUubWFlPic=

> <r_lp_tautomer_probability>
0.0660145

> <r_epik_Ionization_Penalty>
2.91405

> <r_epik_Ionization_Penalty_Charging>
0

> <r_epik_Ionization_Penalty_Neutral>
2.91405

> <r_epik_State_Penalty>
2.44767

> <r_epik_Charging_Adjusted_Penalty>
2.44767

> <i_epik_Tot_Q>
0

> <i_epik_Tot_abs_Q>
0

> <r_epik_Metal_State_Penalty>
3.04288

> <b_epik_Metal_Only>
0

> <s_lp_Force_Field>
OPLS_2005

> <r_lp_Energy>
-0.453605

> <b_lp_Chiralities_Consistent>
1

> <s_lp_Variant>
AV-unprocessed.smi:438-16

> <Gold.Version>
5.8.1

> <Gold.Id.Protein>
6NUR|6NUR_protein|mol2

> <Gold.PLP.Fitness>
50.0203

> <Gold.PLP.PLP>
-42.6869

> <Gold.PLP.part.hbond>
-3.6089

> <Gold.PLP.part.metal>
0.0000

> <Gold.PLP.part.buried>
-6.4974

> <Gold.PLP.part.nonpolar>
-32.5271

> <Gold.PLP.part.repulsive>
0.1498

> <Gold.PLP.ligand.clash>
0.0000

> <Gold.PLP.ligand.torsion>
0.4165

> <Gold.PLP.Chemscore.Hbond>
2.7134

> <Gold.PLP.Chemscore.CHOScore>
0.0000

> <Gold.PLP.Chemscore.Metal>
0.0000

> <Gold.Chemscore.Hbonds>
donor molecule, donor type, donor heavy atom, donor atom, acceptor molecule, acceptor atom, score
      L1  H    19    43       P1  7948  0.06
      L1  H    23    48       P1 10747  1.00
      P1  H  7989  7998       L1     8  0.35

> <Gold.PLP.Chemscore.Internal.Correction>
0.0260

> <Gold.Rescore>
     Score         DG    S(hbond)    S(metal)    S(lipo)     H(rot)  DE(clash)    DE(int)     intcor
     17.80     -18.41       2.77        0.00     106.57       3.44       0.02       0.59       ----

> <Gold.Chemscore.Fitness>
17.8010

> <Gold.Chemscore.DG>
-18.4124

> <Gold.Chemscore.ZeroCoef>
-5.4800

> <Gold.Chemscore.Hbond>
2.7724

> <Gold.Chemscore.Metal>
0.0000

> <Gold.Chemscore.Lipo>
106.5693

> <Gold.Chemscore.Internal_Hbond>
0.0000

> <Gold.Chemscore.DEClash>
0.0232

> <Gold.Chemscore.DEInternal>
0.5882

> <Gold.Chemscore.Rot>
3.4359

> <Gold.Chemscore.Internal.Correction>
   9.000000E+99

> <Gold.Chemscore.Hbonds>
donor molecule, donor type, donor heavy atom, donor atom, acceptor molecule, acceptor atom, score
      L1  H    19    43       P1  7948  0.11
      L1  H    23    48       P1 10747  0.99
      P1  H  7989  7998       L1     8  0.34

> <Gold.Chemscore.Hbond.Weighted>
-9.2598

> <Gold.Chemscore.Metal.Weighted>
-0.0000

> <Gold.Chemscore.Lipo.Weighted>
-12.4686

> <Gold.Chemscore.Internal_Hbond.Weighted>
0.0000

> <Gold.Chemscore.DEClash.Weighted>
0.0232

> <Gold.Chemscore.DEInternal.Weighted>
0.5882

> <Gold.Chemscore.Rot.Weighted>
8.7960

> <Gold.Chemscore.Internal.Correction.Weighted>
   9.000000E+99

> <Gold.Protein.RotatedTorsions>
[ 6907 6896 6895 6894 ] final  -52.25 input  -60.11 | X-H torsion
[ 7974 7965 7964 7962 ] final   64.33 input  175.53 | X-H torsion
[ 8008 7997 7996 7995 ] final  150.10 input   59.86 | X-H torsion
[ 10167 10162 10161 10158 ] final -173.56 input  -65.29 | X-H torsion
[ 10718 10713 10712 10709 ] final   56.79 input   66.30 | X-H torsion
[ 10763 10752 10751 10750 ] final   79.52 input  -60.55 | X-H torsion
[ 11005 11000 10999 10996 ] final  -88.15 input  -57.11 | X-H torsion

> <Gold.Protein.ActiveResidues>
 VAL166  LYS551  ARG553  GLY616  TRP617  ASP618  TYR619  PRO620  LYS621  CYS622 
 ASP623  PHE694  ASN695  SER759  ASP760  ASP761  ALA762  ILE779  LEU786  VAL792 
 PHE793  MET794  SER795  GLU796  ALA797  LYS798  CYS799  TRP800  GLU811  SER814 

> <Gold.Protein.RotatedAtoms>
  150.8535  134.7867  159.7027 H   0  0  0  0  0  0  0  0  0  0  0  0  # atno 6907 bound_to 6896
  152.4593  134.5216  159.9794 H   0  0  0  0  0  0  0  0  0  0  0  0  # atno 6908 bound_to 6896
  151.5333  133.3407  159.2958 H   0  0  0  0  0  0  0  0  0  0  0  0  # atno 6909 bound_to 6896
  145.8514  139.3257  143.0873 H   0  0  0  0  0  0  0  0  0  0  0  0  # atno 7974 bound_to 7965
  156.2729  140.2084  156.5963 H   0  0  0  0  0  0  0  0  0  0  0  0  # atno 8008 bound_to 7997
  154.6942  140.0527  157.0417 H   0  0  0  0  0  0  0  0  0  0  0  0  # atno 8009 bound_to 7997
  155.0824  140.3188  155.4600 H   0  0  0  0  0  0  0  0  0  0  0  0  # atno 8010 bound_to 7997
  139.5681  144.1706  152.1344 H   0  0  0  0  0  0  0  0  0  0  0  0  # atno 10167 bound_to 10162
  157.5460  130.8731  149.8892 H   0  0  0  0  0  0  0  0  0  0  0  0  # atno 10718 bound_to 10713
  153.0959  135.4837  154.8778 H   0  0  0  0  0  0  0  0  0  0  0  0  # atno 10763 bound_to 10752
  154.7324  135.3063  154.8871 H   0  0  0  0  0  0  0  0  0  0  0  0  # atno 10764 bound_to 10752
  153.9503  135.6824  153.4797 H   0  0  0  0  0  0  0  0  0  0  0  0  # atno 10765 bound_to 10752
  141.1606  133.7553  156.9410 H   0  0  0  0  0  0  0  0  0  0  0  0  # atno 11005 bound_to 11000
  145.9353  140.9019  143.0335 LP  0  0  0  0  0  0  0  0  0  0  0  0  # atno 17320 bound_to 7965
  144.6729  140.1474  143.7432 LP  0  0  0  0  0  0  0  0  0  0  0  0  # atno 17321 bound_to 7965
  140.1233  144.5354  150.6849 LP  0  0  0  0  0  0  0  0  0  0  0  0  # atno 17342 bound_to 10162
  140.6966  143.2407  151.4984 LP  0  0  0  0  0  0  0  0  0  0  0  0  # atno 17343 bound_to 10162
  156.0536  130.3713  150.1143 LP  0  0  0  0  0  0  0  0  0  0  0  0  # atno 17370 bound_to 10713
  156.9320  130.9717  151.3531 LP  0  0  0  0  0  0  0  0  0  0  0  0  # atno 17371 bound_to 10713
  140.1322  134.9348  157.2352 LP  0  0  0  0  0  0  0  0  0  0  0  0  # atno 17394 bound_to 11000
  140.2939  134.3208  155.7307 LP  0  0  0  0  0  0  0  0  0  0  0  0  # atno 17395 bound_to 11000

$$$$
