#       Name:                AV-unprocessed.smi:2355
#       Creating user name   scv26
#       Creation time:       Fri Mar 27 13:02:18 2020


#       File generated by GOLD software.
#

@<TRIPOS>MOLECULE
AV-unprocessed.smi:2355
    54    55     1
SMALL
NO_CHARGES


@<TRIPOS>ATOM
      1 ****        -6.0018   1.4726   1.3548 C.3            1 S1                 0.0000
      2 ****        -4.5886   1.7169   0.8693 C.ar           1 S1                 0.0000
      3 ****        -4.3214   2.7348  -0.0654 C.ar           1 S1                 0.0000
      4 ****        -2.9902   2.9184  -0.4870 C.ar           1 S1                 0.0000
      5 ****        -2.6331   3.9960  -1.4888 C.3            1 S1                 0.0000
      6 ****        -1.9644   2.1656  -0.0354 N.ar           1 S1                 0.0000
      7 ****        -2.2096   1.1836   0.8671 C.ar           1 S1                 0.0000
      8 ****        -1.2024   0.3315   1.3925 N.am           1 S1                 0.0000
      9 ****         0.1218   0.3822   1.1676 C.2            1 S1                 0.0000
     10 ****         0.7016   1.2616   0.5306 O.2            1 S1                 0.0000
     11 ****         0.7511  -0.6662   1.7203 N.am           1 S1                 0.0000
     12 ****         2.1919  -0.9322   1.6793 C.3            1 S1                 0.0000
     13 ****         2.6083  -1.4828   3.0537 C.3            1 S1                 0.0000
     14 ****         2.5547  -1.8866   0.5046 C.3            1 S1                 0.0000
     15 ****         4.0628  -2.2084   0.4251 C.3            1 S1                 0.0000
     16 ****         2.0116  -1.3847  -0.7932 N.4            1 S1                 1.0000
     17 ****         2.7944  -0.3063  -1.4481 C.3            1 S1                 0.0000
     18 ****         2.0104   0.2463  -2.6491 C.3            1 S1                 0.0000
     19 ****         1.7374  -0.8127  -3.5598 O.3            1 S1                 0.0000
     20 ****         0.9363  -1.8328  -2.9736 C.3            1 S1                 0.0000
     21 ****         1.6697  -2.4471  -1.7681 C.3            1 S1                 0.0000
     22 ****        -3.5170   0.9297   1.3383 C.ar           1 S1                 0.0000
     23 ****        -6.5117   2.4186   1.5394 H              1 S1                 0.0000
     24 ****        -6.0056   0.8993   2.2823 H              1 S1                 0.0000
     25 ****        -6.5662   0.9179   0.6052 H              1 S1                 0.0000
     26 ****        -5.1169   3.3575  -0.4482 H              1 S1                 0.0000
     27 ****        -3.5205   4.3596  -2.0076 H              1 S1                 0.0000
     28 ****        -1.9386   3.6112  -2.2361 H              1 S1                 0.0000
     29 ****        -2.1623   4.8391  -0.9826 H              1 S1                 0.0000
     30 ****        -1.5335  -0.4199   1.9794 H              1 S1                 0.0000
     31 ****         0.1884  -1.3341   2.2273 H              1 S1                 0.0000
     32 ****         2.7223   0.0118   1.5436 H              1 S1                 0.0000
     33 ****         3.6905  -1.5765   3.1404 H              1 S1                 0.0000
     34 ****         2.1702  -2.4640   3.2398 H              1 S1                 0.0000
     35 ****         2.2843  -0.8181   3.8554 H              1 S1                 0.0000
     36 ****         2.0425  -2.8270   0.7138 H              1 S1                 0.0000
     37 ****         4.3976  -2.7633   1.3010 H              1 S1                 0.0000
     38 ****         4.6670  -1.3031   0.3628 H              1 S1                 0.0000
     39 ****         4.2948  -2.8266  -0.4420 H              1 S1                 0.0000
     40 ****         3.0020   0.4973  -0.7421 H              1 S1                 0.0000
     41 ****         3.7562  -0.6894  -1.7912 H              1 S1                 0.0000
     42 ****         1.0802   0.7172  -2.3265 H              1 S1                 0.0000
     43 ****         2.5950   1.0113  -3.1600 H              1 S1                 0.0000
     44 ****        -0.0289  -1.4222  -2.6724 H              1 S1                 0.0000
     45 ****         0.7361  -2.5992  -3.7225 H              1 S1                 0.0000
     46 ****         2.5759  -2.9558  -2.0990 H              1 S1                 0.0000
     47 ****         1.0312  -3.1965  -1.2991 H              1 S1                 0.0000
     48 ****        -3.6979   0.1403   2.0538 H              1 S1                 0.0000
     49 ****         1.1262  -0.9631  -0.5504 H              1 S1                 0.0000
     50 ****        -1.0340   2.3303  -0.3628 LP             1 S1                 0.0000
     51 ****         0.1805   2.0165   0.1323 LP             1 S1                 0.0000
     52 ****         1.6936   1.2211   0.4114 LP             1 S1                 0.0000
     53 ****         2.6040  -1.2142  -3.8560 LP             1 S1                 0.0000
     54 ****         1.2547  -0.4397  -4.3522 LP             1 S1                 0.0000
@<TRIPOS>BOND
    1    1    2 1     
    2    1   23 1     
    3    1   24 1     
    4    1   25 1     
    5    2   22 ar    
    6    2    3 ar    
    7    3    4 ar    
    8    3   26 1     
    9    4    5 1     
   10    4    6 ar    
   11    5   27 1     
   12    5   28 1     
   13    5   29 1     
   14    6    7 ar    
   15    7    8 1     
   16    7   22 ar    
   17    8    9 am    
   18    8   30 1     
   19    9   10 2     
   20    9   11 am    
   21   11   12 1     
   22   11   31 1     
   23   12   13 1     
   24   12   14 1     
   25   12   32 1     
   26   13   33 1     
   27   13   34 1     
   28   13   35 1     
   29   14   15 1     
   30   14   16 1     
   31   14   36 1     
   32   15   37 1     
   33   15   38 1     
   34   15   39 1     
   35   16   21 1     
   36   16   17 1     
   37   16   49 1     
   38   17   18 1     
   39   17   40 1     
   40   17   41 1     
   41   18   19 1     
   42   18   42 1     
   43   18   43 1     
   44   19   20 1     
   45   20   21 1     
   46   20   44 1     
   47   20   45 1     
   48   21   46 1     
   49   21   47 1     
   50   22   48 1     
   51    6   50 1     
   52   10   51 1     
   53   10   52 1     
   54   19   53 1     
   55   19   54 1     
@<TRIPOS>SUBSTRUCTURE
      1 S1             1
@<TRIPOS>SET
LONE_PAIRS      STATIC     ATOMS    <user>   **** ""
5 50 51 52 53 54
DONOR_HYDROGENS      STATIC     ATOMS    <user>   **** ""
3 30 31 49
ATOM$BLUE        STATIC     ATOMS    COLORGROUP SYSTEM
5 50 51 52 53 54
ATOM$RED        STATIC     ATOMS    COLORGROUP SYSTEM
3 30 31 49
