AV-unprocessed.smi:2267|AV-procd|sdf|9149|dock7
  -GOLD-   2272012353D 1   1.00000     0.00000
 Structure written by MMmdl.
 41 42  0  0  0  0  0  0  0  0  1 V2000
  153.4303  141.1296  160.5668 C   0  0  0  0  0  0  0  0  0  0  0  0
  152.7938  142.2063  159.7125 C   0  0  0  0  0  0  0  0  0  0  0  0
  152.7873  143.5472  160.1463 C   0  0  0  0  0  0  0  0  0  0  0  0
  152.1926  144.5406  159.3473 C   0  0  0  0  0  0  0  0  0  0  0  0
  151.6046  144.1957  158.1156 C   0  0  0  0  0  0  0  0  0  0  0  0
  151.6018  142.8592  157.6663 C   0  0  0  0  0  0  0  0  0  0  0  0
  151.0050  142.6112  156.4485 O   0  0  0  0  0  0  0  0  0  0  0  0
  151.0196  141.2807  155.9481 C   0  0  0  0  0  0  0  0  0  0  0  0
  149.7672  141.0608  155.0824 C   0  0  1  0  0  0  0  0  0  0  0  0
  150.1253  140.1605  154.0521 O   0  0  0  0  0  0  0  0  0  0  0  0
  148.6132  140.4231  155.8892 C   0  0  0  0  0  0  0  0  0  0  0  0
  148.0666  141.3442  156.9004 N   0  0  0  0  0  0  0  0  0  0  0  0
  148.8713  141.5804  158.0271 C   0  0  0  0  0  0  0  0  0  0  0  0
  148.4945  142.3716  158.9775 N   0  0  0  0  0  0  0  0  0  0  0  0
  147.2552  143.0136  158.9000 C   0  0  0  0  0  0  0  0  0  0  0  0
  146.9116  143.9194  160.0694 C   0  0  0  0  0  0  0  0  0  0  0  0
  146.4251  142.8223  157.8386 C   0  0  0  0  0  0  0  0  0  0  0  0
  145.0633  143.4919  157.7017 C   0  0  0  0  0  0  0  0  0  0  0  0
  146.8400  141.9228  156.7497 C   0  0  0  0  0  0  0  0  0  0  0  0
  146.1358  141.6976  155.7634 O   0  0  0  0  0  0  0  0  0  0  0  0
  152.2024  141.8640  158.4788 C   0  0  0  0  0  0  0  0  0  0  0  0
  154.0273  141.5617  161.3704 H   0  0  0  0  0  0  0  0  0  0  0  0
  154.0831  140.4997  159.9618 H   0  0  0  0  0  0  0  0  0  0  0  0
  152.6606  140.4993  161.0126 H   0  0  0  0  0  0  0  0  0  0  0  0
  153.2368  143.8181  161.0905 H   0  0  0  0  0  0  0  0  0  0  0  0
  152.1871  145.5685  159.6787 H   0  0  0  0  0  0  0  0  0  0  0  0
  151.1505  144.9653  157.5085 H   0  0  0  0  0  0  0  0  0  0  0  0
  151.9270  141.0721  155.3781 H   0  0  0  0  0  0  0  0  0  0  0  0
  150.9976  140.5998  156.8007 H   0  0  0  0  0  0  0  0  0  0  0  0
  149.4520  142.0124  154.6522 H   0  0  0  0  0  0  0  0  0  0  0  0
  149.5749  140.3266  153.3021 H   0  0  0  0  0  0  0  0  0  0  0  0
  147.8403  140.0423  155.2181 H   0  0  0  0  0  0  0  0  0  0  0  0
  148.9764  139.5326  156.4054 H   0  0  0  0  0  0  0  0  0  0  0  0
  149.8252  141.0504  158.0428 H   0  0  0  0  0  0  0  0  0  0  0  0
  146.7509  144.9424  159.7276 H   0  0  0  0  0  0  0  0  0  0  0  0
  147.7145  143.9364  160.8076 H   0  0  0  0  0  0  0  0  0  0  0  0
  146.0069  143.5712  160.5686 H   0  0  0  0  0  0  0  0  0  0  0  0
  144.2784  142.7373  157.6425 H   0  0  0  0  0  0  0  0  0  0  0  0
  145.0281  144.0899  156.7906 H   0  0  0  0  0  0  0  0  0  0  0  0
  144.8223  144.1505  158.5346 H   0  0  0  0  0  0  0  0  0  0  0  0
  152.2214  140.8282  158.1760 H   0  0  0  0  0  0  0  0  0  0  0  0
  1  2  1  0  0  0  0
  1 22  1  0  0  0  0
  1 23  1  0  0  0  0
  1 24  1  0  0  0  0
  2 21  1  0  0  0  0
  2  3  2  0  0  0  0
  3  4  1  0  0  0  0
  3 25  1  0  0  0  0
  4  5  2  0  0  0  0
  4 26  1  0  0  0  0
  5  6  1  0  0  0  0
  5 27  1  0  0  0  0
  6  7  1  0  0  0  0
  6 21  2  0  0  0  0
  7  8  1  0  0  0  0
  8  9  1  0  0  0  0
  8 28  1  0  0  0  0
  8 29  1  0  0  0  0
  9 10  1  0  0  0  0
  9 11  1  0  0  0  0
  9 30  1  0  0  0  0
 10 31  1  0  0  0  0
 11 12  1  0  0  0  0
 11 32  1  0  0  0  0
 11 33  1  0  0  0  0
 12 19  1  0  0  0  0
 12 13  1  0  0  0  0
 13 14  2  0  0  0  0
 13 34  1  0  0  0  0
 14 15  1  0  0  0  0
 15 16  1  0  0  0  0
 15 17  2  0  0  0  0
 16 35  1  0  0  0  0
 16 36  1  0  0  0  0
 16 37  1  0  0  0  0
 17 18  1  0  0  0  0
 17 19  1  0  0  0  0
 18 38  1  0  0  0  0
 18 39  1  0  0  0  0
 18 40  1  0  0  0  0
 19 20  2  0  0  0  0
 21 41  1  0  0  0  0
M  END
> <s_m_source_file>
AV-unprocessed.smi

> <i_m_source_file_index>
2267

> <i_lp_mmshare_version>
43012

> <i_f3d_flags>
0

> <s_epik_input>
W0NIM11jMVtjSF1bY0hdW2NIXWMoW2NIXTEpT1tDSDJdW0NASF0oW09IXSlbQ0gyXW4yW2NIXW5jKFtDSDNdKWMoW0NIM10pYzI9Tw==

> <s_epik_cmdline>
J2VwaWtfcHl0aG9uJywgJy1waCcsICc3LjAnLCAnLXRuJywgJzgnLCAnLW1hJywgJzIwMCcsICctbWV0YWxfYmluZGluZycsICctaW1hZScsICc8aW5maWxlLm1hZT4nLCAnLW9tYWUnLCAnPG91dGZpbGUubWFlPic=

> <r_lp_tautomer_probability>
1

> <r_epik_Ionization_Penalty>
3.72236e-05

> <r_epik_Ionization_Penalty_Charging>
8.38864e-08

> <r_epik_Ionization_Penalty_Neutral>
3.71397e-05

> <r_epik_State_Penalty>
-0

> <r_epik_Charging_Adjusted_Penalty>
8.38864e-08

> <i_epik_Tot_Q>
0

> <i_epik_Tot_abs_Q>
0

> <r_epik_Metal_State_Penalty>
-0

> <b_epik_Metal_Only>
0

> <s_lp_Force_Field>
OPLS_2005

> <r_lp_Energy>
23.9214

> <b_lp_Chiralities_Consistent>
1

> <s_lp_Variant>
AV-unprocessed.smi:2267-2

> <Gold.Version>
5.8.1

> <Gold.Id.Protein>
6NUR|6NUR_protein|mol2

> <Gold.PLP.Fitness>
44.6326

> <Gold.PLP.PLP>
-41.7637

> <Gold.PLP.part.hbond>
-3.0000

> <Gold.PLP.part.metal>
0.0000

> <Gold.PLP.part.buried>
-4.9079

> <Gold.PLP.part.nonpolar>
-32.2753

> <Gold.PLP.part.repulsive>
1.2015

> <Gold.PLP.ligand.clash>
0.0000

> <Gold.PLP.ligand.torsion>
0.8055

> <Gold.PLP.Chemscore.Hbond>
1.4770

> <Gold.PLP.Chemscore.CHOScore>
0.0000

> <Gold.PLP.Chemscore.Metal>
0.0000

> <Gold.Chemscore.Hbonds>
donor molecule, donor type, donor heavy atom, donor atom, acceptor molecule, acceptor atom, score
      L1  H    10    31       P1  7957  0.52
      P1  H  7989  7998       L1    10  0.87

> <Gold.PLP.Chemscore.Internal.Correction>
0.0490

> <Gold.Rescore>
     Score         DG    S(hbond)    S(metal)    S(lipo)     H(rot)  DE(clash)    DE(int)     intcor
     11.92     -14.53       0.79        0.00     106.27       2.35       0.62       2.00       ----

> <Gold.Chemscore.Fitness>
11.9203

> <Gold.Chemscore.DG>
-14.5315

> <Gold.Chemscore.ZeroCoef>
-5.4800

> <Gold.Chemscore.Hbond>
0.7878

> <Gold.Chemscore.Metal>
0.0000

> <Gold.Chemscore.Lipo>
106.2714

> <Gold.Chemscore.Internal_Hbond>
0.0000

> <Gold.Chemscore.DEClash>
0.6150

> <Gold.Chemscore.DEInternal>
1.9962

> <Gold.Chemscore.Rot>
2.3490

> <Gold.Chemscore.Internal.Correction>
   9.000000E+99

> <Gold.Chemscore.Hbonds>
donor molecule, donor type, donor heavy atom, donor atom, acceptor molecule, acceptor atom, score
      L1  H    10    31       P1  7957  0.52
      P1  H  7989  7998       L1    10  0.06

> <Gold.Chemscore.Hbond.Weighted>
-2.6313

> <Gold.Chemscore.Metal.Weighted>
-0.0000

> <Gold.Chemscore.Lipo.Weighted>
-12.4338

> <Gold.Chemscore.Internal_Hbond.Weighted>
0.0000

> <Gold.Chemscore.DEClash.Weighted>
0.6150

> <Gold.Chemscore.DEInternal.Weighted>
1.9962

> <Gold.Chemscore.Rot.Weighted>
6.0136

> <Gold.Chemscore.Internal.Correction.Weighted>
   9.000000E+99

> <Gold.Protein.RotatedTorsions>
[ 6907 6896 6895 6894 ] final   -4.91 input  -60.11 | X-H torsion
[ 7974 7965 7964 7962 ] final   55.66 input  175.53 | X-H torsion
[ 8008 7997 7996 7995 ] final   40.79 input   59.86 | X-H torsion
[ 10167 10162 10161 10158 ] final  -70.59 input  -65.29 | X-H torsion
[ 10718 10713 10712 10709 ] final   92.09 input   66.30 | X-H torsion
[ 10763 10752 10751 10750 ] final  -97.10 input  -60.55 | X-H torsion
[ 11005 11000 10999 10996 ] final -137.96 input  -57.11 | X-H torsion

> <Gold.Protein.ActiveResidues>
 VAL166  LYS551  ARG553  GLY616  TRP617  ASP618  TYR619  PRO620  LYS621  CYS622 
 ASP623  PHE694  ASN695  SER759  ASP760  ASP761  ALA762  ILE779  LEU786  VAL792 
 PHE793  MET794  SER795  GLU796  ALA797  LYS798  CYS799  TRP800  GLU811  SER814 

> <Gold.Protein.RotatedAtoms>
  151.4900  135.1057  159.9800 H   0  0  0  0  0  0  0  0  0  0  0  0  # atno 6907 bound_to 6896
  152.4745  133.8101  159.7009 H   0  0  0  0  0  0  0  0  0  0  0  0  # atno 6908 bound_to 6896
  150.8774  133.7358  159.2969 H   0  0  0  0  0  0  0  0  0  0  0  0  # atno 6909 bound_to 6896
  145.9481  139.3947  143.0323 H   0  0  0  0  0  0  0  0  0  0  0  0  # atno 7974 bound_to 7965
  155.2589  140.3358  155.4275 H   0  0  0  0  0  0  0  0  0  0  0  0  # atno 8008 bound_to 7997
  156.2183  140.1798  156.7580 H   0  0  0  0  0  0  0  0  0  0  0  0  # atno 8009 bound_to 7997
  154.5787  140.0657  156.9056 H   0  0  0  0  0  0  0  0  0  0  0  0  # atno 8010 bound_to 7997
  140.5340  143.2319  151.7210 H   0  0  0  0  0  0  0  0  0  0  0  0  # atno 10167 bound_to 10162
  157.6959  131.0430  150.3828 H   0  0  0  0  0  0  0  0  0  0  0  0  # atno 10718 bound_to 10713
  154.7298  135.5059  153.8946 H   0  0  0  0  0  0  0  0  0  0  0  0  # atno 10763 bound_to 10752
  153.0939  135.6667  153.9809 H   0  0  0  0  0  0  0  0  0  0  0  0  # atno 10764 bound_to 10752
  153.9612  135.3047  155.3412 H   0  0  0  0  0  0  0  0  0  0  0  0  # atno 10765 bound_to 10752
  140.8661  134.2109  157.4679 H   0  0  0  0  0  0  0  0  0  0  0  0  # atno 11005 bound_to 11000
  145.8209  140.9679  143.0899 LP  0  0  0  0  0  0  0  0  0  0  0  0  # atno 17320 bound_to 7965
  144.6791  140.0040  143.7484 LP  0  0  0  0  0  0  0  0  0  0  0  0  # atno 17321 bound_to 7965
  139.4964  144.4070  152.0121 LP  0  0  0  0  0  0  0  0  0  0  0  0  # atno 17342 bound_to 10162
  140.3174  144.3467  150.6018 LP  0  0  0  0  0  0  0  0  0  0  0  0  # atno 17343 bound_to 10162
  156.4240  130.3958  149.6805 LP  0  0  0  0  0  0  0  0  0  0  0  0  # atno 17370 bound_to 10713
  156.4046  130.7692  151.2702 LP  0  0  0  0  0  0  0  0  0  0  0  0  # atno 17371 bound_to 10713
  139.8709  134.9752  156.4876 LP  0  0  0  0  0  0  0  0  0  0  0  0  # atno 17394 bound_to 11000
  140.8627  133.8047  155.9282 LP  0  0  0  0  0  0  0  0  0  0  0  0  # atno 17395 bound_to 11000

$$$$
