AV-unprocessed.smi:2545|AV-procd|sdf|9995|dock5
  -GOLD-   2272014 43D 1   1.00000     0.00000
 Structure written by MMmdl.
 27 28  0  0  0  0  0  0  0  0  2 V2000
  148.9993  138.1068  153.8292 N   0  0  0  0  0  0  0  0  0  0  0  0
  148.8181  139.4603  154.1197 C   0  0  0  0  0  0  0  0  0  0  0  0
  147.7580  140.1639  153.5081 C   0  0  0  0  0  0  0  0  0  0  0  0
  147.5760  141.5301  153.8016 C   0  0  0  0  0  0  0  0  0  0  0  0
  148.4130  142.1496  154.6604 N   0  3  0  0  0  0  0  0  0  0  0  0
  149.4391  141.5156  155.2677 C   0  0  0  0  0  0  0  0  0  0  0  0
  149.6784  140.1431  155.0176 C   0  0  0  0  0  0  0  0  0  0  0  0
  150.7425  139.4700  155.6401 N   0  0  0  0  0  0  0  0  0  0  0  0
  151.7811  139.0382  154.7132 C   0  0  0  0  0  0  0  0  0  0  0  0
  152.8340  138.1985  155.4572 C   0  0  0  0  0  0  0  0  0  0  0  0
  153.3561  138.9492  156.5501 O   0  0  0  0  0  0  0  0  0  0  0  0
  152.3447  139.2976  157.4914 C   0  0  0  0  0  0  0  0  0  0  0  0
  151.2792  140.1676  156.8021 C   0  0  0  0  0  0  0  0  0  0  0  0
  149.7448  137.5669  154.2448 H   0  0  0  0  0  0  0  0  0  0  0  0
  148.3838  137.6230  153.1906 H   0  0  0  0  0  0  0  0  0  0  0  0
  147.0899  139.6649  152.8210 H   0  0  0  0  0  0  0  0  0  0  0  0
  146.7921  142.1410  153.3778 H   0  0  0  0  0  0  0  0  0  0  0  0
  150.0355  142.1238  155.9320 H   0  0  0  0  0  0  0  0  0  0  0  0
  151.3378  138.4527  153.9067 H   0  0  0  0  0  0  0  0  0  0  0  0
  152.2581  139.9074  154.2585 H   0  0  0  0  0  0  0  0  0  0  0  0
  152.4029  137.2629  155.8177 H   0  0  0  0  0  0  0  0  0  0  0  0
  153.6497  137.9349  154.7838 H   0  0  0  0  0  0  0  0  0  0  0  0
  151.8984  138.3952  157.9127 H   0  0  0  0  0  0  0  0  0  0  0  0
  152.7997  139.8438  158.3177 H   0  0  0  0  0  0  0  0  0  0  0  0
  151.7218  141.1162  156.4951 H   0  0  0  0  0  0  0  0  0  0  0  0
  150.4739  140.3966  157.5011 H   0  0  0  0  0  0  0  0  0  0  0  0
  148.2648  143.1394  154.8596 H   0  0  0  0  0  0  0  0  0  0  0  0
  1  2  1  0  0  0  0
  1 14  1  0  0  0  0
  1 15  1  0  0  0  0
  2  7  1  0  0  0  0
  2  3  2  0  0  0  0
  3  4  1  0  0  0  0
  3 16  1  0  0  0  0
  4  5  2  0  0  0  0
  4 17  1  0  0  0  0
  5  6  1  0  0  0  0
  5 27  1  0  0  0  0
  6  7  2  0  0  0  0
  6 18  1  0  0  0  0
  7  8  1  0  0  0  0
  8 13  1  0  0  0  0
  8  9  1  0  0  0  0
  9 10  1  0  0  0  0
  9 19  1  0  0  0  0
  9 20  1  0  0  0  0
 10 11  1  0  0  0  0
 10 21  1  0  0  0  0
 10 22  1  0  0  0  0
 11 12  1  0  0  0  0
 12 13  1  0  0  0  0
 12 23  1  0  0  0  0
 12 24  1  0  0  0  0
 13 25  1  0  0  0  0
 13 26  1  0  0  0  0
M  CHG  1   5   1
M  END
> <s_m_source_file>
AV-unprocessed.smi

> <i_m_source_file_index>
2545

> <i_lp_mmshare_version>
43012

> <i_f3d_flags>
0

> <s_epik_input>
W05IMl1jMVtjSF1bY0hdbltjSF1jMU4yW0NIMl1bQ0gyXU9bQ0gyXVtDSDJdMg==

> <s_epik_cmdline>
J2VwaWtfcHl0aG9uJywgJy1waCcsICc3LjAnLCAnLXRuJywgJzgnLCAnLW1hJywgJzIwMCcsICctbWV0YWxfYmluZGluZycsICctaW1hZScsICc8aW5maWxlLm1hZT4nLCAnLW9tYWUnLCAnPG91dGZpbGUubWFlPic=

> <r_lp_tautomer_probability>
1

> <r_epik_Ionization_Penalty>
0.0125888

> <r_epik_Ionization_Penalty_Charging>
0.0125847

> <r_epik_Ionization_Penalty_Neutral>
4.08722e-06

> <r_epik_State_Penalty>
0.00974947

> <r_epik_Charging_Adjusted_Penalty>
0.0223342

> <i_epik_Tot_Q>
1

> <i_epik_Tot_abs_Q>
1

> <r_epik_Metal_State_Penalty>
1.6989

> <b_epik_Metal_Only>
0

> <s_lp_Force_Field>
OPLS_2005

> <r_lp_Energy>
29.9348

> <b_lp_Chiralities_Consistent>
1

> <s_lp_Variant>
AV-unprocessed.smi:2545-1

> <Gold.Version>
5.8.1

> <Gold.Id.Protein>
6NUR|6NUR_protein|mol2

> <Gold.PLP.Fitness>
33.4103

> <Gold.PLP.PLP>
-23.3277

> <Gold.PLP.part.hbond>
-2.8542

> <Gold.PLP.part.metal>
0.0000

> <Gold.PLP.part.buried>
-0.8242

> <Gold.PLP.part.nonpolar>
-20.0479

> <Gold.PLP.part.repulsive>
0.2407

> <Gold.PLP.ligand.clash>
0.0325

> <Gold.PLP.ligand.torsion>
0.2690

> <Gold.PLP.Chemscore.Hbond>
3.5120

> <Gold.PLP.Chemscore.CHOScore>
0.0000

> <Gold.PLP.Chemscore.Metal>
0.0000

> <Gold.Chemscore.Hbonds>
donor molecule, donor type, donor heavy atom, donor atom, acceptor molecule, acceptor atom, score
      L1  H     1    15       P1  7948  0.50
      L1  H     5    27       P1  8028  2.00
      P1  H  7997  8010       L1    11  0.99

> <Gold.PLP.Chemscore.Internal.Correction>
0.1170

> <Gold.Rescore>
     Score         DG    S(hbond)    S(metal)    S(lipo)     H(rot)  DE(clash)    DE(int)     intcor
     17.00     -17.40       2.20        0.00      61.01       1.00       0.06       0.34       ----

> <Gold.Chemscore.Fitness>
17.0009

> <Gold.Chemscore.DG>
-17.3993

> <Gold.Chemscore.ZeroCoef>
-5.4800

> <Gold.Chemscore.Hbond>
2.1980

> <Gold.Chemscore.Metal>
0.0000

> <Gold.Chemscore.Lipo>
61.0087

> <Gold.Chemscore.Internal_Hbond>
0.0000

> <Gold.Chemscore.DEClash>
0.0583

> <Gold.Chemscore.DEInternal>
0.3401

> <Gold.Chemscore.Rot>
1.0000

> <Gold.Chemscore.Internal.Correction>
   9.000000E+99

> <Gold.Chemscore.Hbonds>
donor molecule, donor type, donor heavy atom, donor atom, acceptor molecule, acceptor atom, score
      L1  H     1    15       P1  7948  0.48
      L1  H     5    27       P1  8028  0.93
      P1  H  7997  8010       L1    11  0.68

> <Gold.Chemscore.Hbond.Weighted>
-7.3412

> <Gold.Chemscore.Metal.Weighted>
-0.0000

> <Gold.Chemscore.Lipo.Weighted>
-7.1380

> <Gold.Chemscore.Internal_Hbond.Weighted>
0.0000

> <Gold.Chemscore.DEClash.Weighted>
0.0583

> <Gold.Chemscore.DEInternal.Weighted>
0.3401

> <Gold.Chemscore.Rot.Weighted>
2.5600

> <Gold.Chemscore.Internal.Correction.Weighted>
   9.000000E+99

> <Gold.Protein.RotatedTorsions>
[ 6907 6896 6895 6894 ] final  156.87 input  -60.11 | X-H torsion
[ 7974 7965 7964 7962 ] final  -86.23 input  175.53 | X-H torsion
[ 8008 7997 7996 7995 ] final   76.82 input   59.86 | X-H torsion
[ 10167 10162 10161 10158 ] final   98.76 input  -65.29 | X-H torsion
[ 10718 10713 10712 10709 ] final   64.61 input   66.30 | X-H torsion
[ 10763 10752 10751 10750 ] final   56.84 input  -60.55 | X-H torsion
[ 11005 11000 10999 10996 ] final -130.74 input  -57.11 | X-H torsion

> <Gold.Protein.ActiveResidues>
 VAL166  LYS551  ARG553  GLY616  TRP617  ASP618  TYR619  PRO620  LYS621  CYS622 
 ASP623  PHE694  ASN695  SER759  ASP760  ASP761  ALA762  ILE779  LEU786  VAL792 
 PHE793  MET794  SER795  GLU796  ALA797  LYS798  CYS799  TRP800  GLU811  SER814 

> <Gold.Protein.RotatedAtoms>
  152.0234  133.3908  159.4267 H   0  0  0  0  0  0  0  0  0  0  0  0  # atno 6907 bound_to 6896
  150.6888  134.3600  159.4955 H   0  0  0  0  0  0  0  0  0  0  0  0  # atno 6908 bound_to 6896
  152.1377  134.9086  160.0606 H   0  0  0  0  0  0  0  0  0  0  0  0  # atno 6909 bound_to 6896
  145.4827  140.9556  143.1855 H   0  0  0  0  0  0  0  0  0  0  0  0  # atno 7974 bound_to 7965
  155.8328  140.3465  155.5583 H   0  0  0  0  0  0  0  0  0  0  0  0  # atno 8008 bound_to 7997
  155.8224  140.0915  157.1861 H   0  0  0  0  0  0  0  0  0  0  0  0  # atno 8009 bound_to 7997
  154.4004  140.1427  156.3503 H   0  0  0  0  0  0  0  0  0  0  0  0  # atno 8010 bound_to 7997
  139.7679  144.6932  151.0197 H   0  0  0  0  0  0  0  0  0  0  0  0  # atno 10167 bound_to 10162
  157.6051  130.9169  149.9868 H   0  0  0  0  0  0  0  0  0  0  0  0  # atno 10718 bound_to 10713
  152.9839  135.5662  154.5294 H   0  0  0  0  0  0  0  0  0  0  0  0  # atno 10763 bound_to 10752
  154.4768  135.2787  155.1603 H   0  0  0  0  0  0  0  0  0  0  0  0  # atno 10764 bound_to 10752
  154.3128  135.6285  153.5526 H   0  0  0  0  0  0  0  0  0  0  0  0  # atno 10765 bound_to 10752
  140.9320  134.1307  157.4227 H   0  0  0  0  0  0  0  0  0  0  0  0  # atno 11005 bound_to 11000
  144.7879  139.6388  143.7126 LP  0  0  0  0  0  0  0  0  0  0  0  0  # atno 17320 bound_to 7965
  146.2331  139.5853  142.9542 LP  0  0  0  0  0  0  0  0  0  0  0  0  # atno 17321 bound_to 7965
  140.7812  143.4621  151.0263 LP  0  0  0  0  0  0  0  0  0  0  0  0  # atno 17342 bound_to 10162
  139.8306  143.7696  152.3179 LP  0  0  0  0  0  0  0  0  0  0  0  0  # atno 17343 bound_to 10162
  156.1135  130.3649  150.0009 LP  0  0  0  0  0  0  0  0  0  0  0  0  # atno 17370 bound_to 10713
  156.8102  130.9322  151.3644 LP  0  0  0  0  0  0  0  0  0  0  0  0  # atno 17371 bound_to 10713
  139.8798  135.0008  156.6031 LP  0  0  0  0  0  0  0  0  0  0  0  0  # atno 17394 bound_to 11000
  140.7850  133.8629  155.8599 LP  0  0  0  0  0  0  0  0  0  0  0  0  # atno 17395 bound_to 11000

$$$$
