#       Name:                AV-unprocessed.smi:624
#       Creating user name   scv26
#       Creation time:       Fri Mar 27 00:02:08 2020


#       File generated by GOLD software.
#

@<TRIPOS>MOLECULE
AV-unprocessed.smi:624
    34    36     1
SMALL
NO_CHARGES


@<TRIPOS>ATOM
      1 ****        -0.6443   1.7951   0.0072 O.2            1 S1                 0.0000
      2 ****        -1.2469   0.7201   0.0015 C.2            1 S1                 0.0000
      3 ****        -2.5912   0.5293  -0.0033 N.pl3          1 S1                -1.0000
      4 ****        -3.5241   1.5081  -0.0019 C.2            1 S1                 0.0000
      5 ****        -3.2890   2.8358  -0.0077 N.2            1 S1                 0.0000
      6 ****        -4.4424   3.6067  -0.0058 N.2            1 S1                 0.0000
      7 ****        -5.5332   2.8442   0.0005 C.2            1 S1                 0.0000
      8 ****        -5.2466   1.1183   0.0057 S.3            1 S1                 0.0000
      9 ****        -0.5574  -0.4309  -0.0008 N.am           1 S1                 0.0000
     10 ****         0.8946  -0.5919   0.0002 C.3            1 S1                 0.0000
     11 ****         1.3813  -1.3069  -1.2472 C.3            1 S1                 0.0000
     12 ****         2.7819  -1.1046  -1.7751 C.3            1 S1                 0.0000
     13 ****         1.5974  -0.5556  -2.5386 C.3            1 S1                 0.0000
     14 ****         1.3803  -1.3066   1.2481 C.3            1 S1                 0.0000
     15 ****         1.5963  -0.5551   2.5393 C.3            1 S1                 0.0000
     16 ****         2.7809  -1.1047   1.7764 C.3            1 S1                 0.0000
     17 ****        -6.5121   3.2999   0.0022 H              1 S1                 0.0000
     18 ****        -1.0998  -1.2820  -0.0046 H              1 S1                 0.0000
     19 ****         1.3687   0.3911   0.0001 H              1 S1                 0.0000
     20 ****         0.9806  -2.3136  -1.3528 H              1 S1                 0.0000
     21 ****         3.4218  -0.3870  -1.2658 H              1 S1                 0.0000
     22 ****         3.2917  -1.9710  -2.1914 H              1 S1                 0.0000
     23 ****         1.3164  -1.0561  -3.4628 H              1 S1                 0.0000
     24 ****         1.4451   0.5219  -2.5265 H              1 S1                 0.0000
     25 ****         0.9793  -2.3132   1.3538 H              1 S1                 0.0000
     26 ****         1.4445   0.5226   2.5269 H              1 S1                 0.0000
     27 ****         1.3151  -1.0553   3.4637 H              1 S1                 0.0000
     28 ****         3.2903  -1.9713   2.1929 H              1 S1                 0.0000
     29 ****         3.4212  -0.3875   1.2670 H              1 S1                 0.0000
     30 ****        -1.1553   2.6547   0.0087 LP             1 S1                 0.0000
     31 ****         0.3556   1.8078   0.0103 LP             1 S1                 0.0000
     32 ****        -2.9192  -0.4154  -0.0083 LP             1 S1                 0.0000
     33 ****        -2.3692   3.2281  -0.0129 LP             1 S1                 0.0000
     34 ****        -4.4529   4.6066  -0.0088 LP             1 S1                 0.0000
@<TRIPOS>BOND
    1    1    2 2     
    2    2    3 1     
    3    2    9 am    
    4    3    4 1     
    5    4    8 1     
    6    4    5 2     
    7    5    6 1     
    8    6    7 2     
    9    7    8 1     
   10    7   17 1     
   11    9   10 1     
   12    9   18 1     
   13   10   11 1     
   14   10   14 1     
   15   10   19 1     
   16   11   13 1     
   17   11   12 1     
   18   11   20 1     
   19   12   13 1     
   20   12   21 1     
   21   12   22 1     
   22   13   23 1     
   23   13   24 1     
   24   14   16 1     
   25   14   15 1     
   26   14   25 1     
   27   15   16 1     
   28   15   26 1     
   29   15   27 1     
   30   16   28 1     
   31   16   29 1     
   32    1   30 1     
   33    1   31 1     
   34    3   32 1     
   35    5   33 1     
   36    6   34 1     
@<TRIPOS>SUBSTRUCTURE
      1 S1             1
@<TRIPOS>SET
LONE_PAIRS      STATIC     ATOMS    <user>   **** ""
5 30 31 32 33 34
DONOR_HYDROGENS      STATIC     ATOMS    <user>   **** ""
1 18
ATOM$BLUE        STATIC     ATOMS    COLORGROUP SYSTEM
5 30 31 32 33 34
ATOM$RED        STATIC     ATOMS    COLORGROUP SYSTEM
1 18
