#       Name:                AV-unprocessed.smi:1586
#       Creating user name   scv26
#       Creation time:       Fri Mar 27 07:01:28 2020


#       File generated by GOLD software.
#

@<TRIPOS>MOLECULE
AV-unprocessed.smi:1586
    53    54     1
SMALL
NO_CHARGES


@<TRIPOS>ATOM
      1 ****        -4.2915  -1.9441  -4.5175 C.3            1 S1                 0.0000
      2 ****        -3.3974  -2.2613  -3.3099 C.3            1 S1                 0.0000
      3 ****        -1.9746  -2.1176  -3.6274 N.3            1 S1                 0.0000
      4 ****        -1.5280  -0.7425  -3.8784 C.3            1 S1                 0.0000
      5 ****        -1.5334   0.1151  -2.5963 C.3            1 S1                 0.0000
      6 ****        -0.6647  -0.5067  -1.5574 N.4            1 S1                 1.0000
      7 ****        -0.4310   0.2895  -0.3128 C.3            1 S1                 0.0000
      8 ****        -1.7169   0.9712   0.2191 C.3            1 S1                 0.0000
      9 ****         0.7705   1.2571  -0.5009 C.3            1 S1                 0.0000
     10 ****         1.2400   1.7728   0.7864 N.pl3          1 S1                -1.0000
     11 ****         2.0818   1.1107   1.6279 C.2            1 S1                 0.0000
     12 ****         2.5629  -0.0181   1.4719 O.2            1 S1                 0.0000
     13 ****         2.3688   1.8257   2.7309 N.am           1 S1                 0.0000
     14 ****         3.1987   1.4726   3.8278 C.2            1 S1                 0.0000
     15 ****         3.3911   2.3723   4.9100 C.2            1 S1                 0.0000
     16 ****         4.2300   1.6830   5.7396 C.2            1 S1                 0.0000
     17 ****         4.8482   2.0086   7.0559 C.3            1 S1                 0.0000
     18 ****         4.5236   0.4645   5.2110 O.3            1 S1                 0.0000
     19 ****         3.8601   0.3356   3.9853 N.2            1 S1                 0.0000
     20 ****        -1.1066  -1.8992  -1.2954 C.3            1 S1                 0.0000
     21 ****        -1.1138  -2.7165  -2.6045 C.3            1 S1                 0.0000
     22 ****        -5.3303  -2.1897  -4.2963 H              1 S1                 0.0000
     23 ****        -3.9960  -2.5241  -5.3925 H              1 S1                 0.0000
     24 ****        -4.2619  -0.8876  -4.7831 H              1 S1                 0.0000
     25 ****        -3.6852  -1.6490  -2.4561 H              1 S1                 0.0000
     26 ****        -3.5810  -3.2970  -3.0210 H              1 S1                 0.0000
     27 ****        -0.5154  -0.7786  -4.2826 H              1 S1                 0.0000
     28 ****        -2.1390  -0.2759  -4.6500 H              1 S1                 0.0000
     29 ****        -1.1695   1.1131  -2.8413 H              1 S1                 0.0000
     30 ****        -2.5515   0.2400  -2.2281 H              1 S1                 0.0000
     31 ****        -0.1218  -0.4260   0.4509 H              1 S1                 0.0000
     32 ****        -1.5626   1.4117   1.2058 H              1 S1                 0.0000
     33 ****        -2.5239   0.2466   0.3284 H              1 S1                 0.0000
     34 ****        -2.0768   1.7659  -0.4366 H              1 S1                 0.0000
     35 ****         1.5657   0.7324  -1.0329 H              1 S1                 0.0000
     36 ****         0.4725   2.0665  -1.1674 H              1 S1                 0.0000
     37 ****         1.9388   2.7369   2.7854 H              1 S1                 0.0000
     38 ****         2.9823   3.3611   5.0549 H              1 S1                 0.0000
     39 ****         4.7775   3.0759   7.2660 H              1 S1                 0.0000
     40 ****         5.9024   1.7314   7.0686 H              1 S1                 0.0000
     41 ****         4.3463   1.4709   7.8604 H              1 S1                 0.0000
     42 ****        -0.4205  -2.3763  -0.5948 H              1 S1                 0.0000
     43 ****        -2.0883  -1.9014  -0.8207 H              1 S1                 0.0000
     44 ****        -1.4295  -3.7420  -2.4098 H              1 S1                 0.0000
     45 ****        -0.0985  -2.7800  -2.9983 H              1 S1                 0.0000
     46 ****         0.2499  -0.5974  -1.9763 H              1 S1                 0.0000
     47 ****        -1.8827  -2.6160  -4.4894 LP             1 S1                 0.0000
     48 ****         0.9192   2.6770   1.0684 LP             1 S1                 0.0000
     49 ****         2.3411  -0.5473   0.6530 LP             1 S1                 0.0000
     50 ****         3.1736  -0.4015   2.1648 LP             1 S1                 0.0000
     51 ****         4.2199  -0.2552   5.8354 LP             1 S1                 0.0000
     52 ****         5.5105   0.3882   5.0691 LP             1 S1                 0.0000
     53 ****         3.8808  -0.4465   3.3625 LP             1 S1                 0.0000
@<TRIPOS>BOND
    1    1    2 1     
    2    1   22 1     
    3    1   23 1     
    4    1   24 1     
    5    2    3 1     
    6    2   25 1     
    7    2   26 1     
    8    3   21 1     
    9    3    4 1     
   10    4    5 1     
   11    4   27 1     
   12    4   28 1     
   13    5    6 1     
   14    5   29 1     
   15    5   30 1     
   16    6    7 1     
   17    6   20 1     
   18    6   46 1     
   19    7    8 1     
   20    7    9 1     
   21    7   31 1     
   22    8   32 1     
   23    8   33 1     
   24    8   34 1     
   25    9   10 1     
   26    9   35 1     
   27    9   36 1     
   28   10   11 1     
   29   11   12 2     
   30   11   13 am    
   31   13   14 1     
   32   13   37 1     
   33   14   19 2     
   34   14   15 1     
   35   15   16 2     
   36   15   38 1     
   37   16   17 1     
   38   16   18 1     
   39   17   39 1     
   40   17   40 1     
   41   17   41 1     
   42   18   19 1     
   43   20   21 1     
   44   20   42 1     
   45   20   43 1     
   46   21   44 1     
   47   21   45 1     
   48    3   47 1     
   49   10   48 1     
   50   12   49 1     
   51   12   50 1     
   52   18   51 1     
   53   18   52 1     
   54   19   53 1     
@<TRIPOS>SUBSTRUCTURE
      1 S1             1
@<TRIPOS>SET
LONE_PAIRS      STATIC     ATOMS    <user>   **** ""
7 47 48 49 50 51 52 53
DONOR_HYDROGENS      STATIC     ATOMS    <user>   **** ""
2 46 37
ATOM$BLUE        STATIC     ATOMS    COLORGROUP SYSTEM
7 47 48 49 50 51 52 53
ATOM$RED        STATIC     ATOMS    COLORGROUP SYSTEM
2 46 37
