AV-unprocessed.smi:1033|AV-procd|sdf|4513|dock8
  -GOLD-   22720 2523D 1   1.00000     0.00000
 Structure written by MMmdl.
 57 59  0  0  0  0  0  0  0  0  3 V2000
  153.1179  142.5976  161.6834 C   0  0  0  0  0  0  0  0  0  0  0  0
  152.5430  142.2278  160.3272 C   0  0  0  0  0  0  0  0  0  0  0  0
  153.0525  141.0966  159.6508 C   0  0  0  0  0  0  0  0  0  0  0  0
  152.5464  140.7193  158.3878 C   0  0  0  0  0  0  0  0  0  0  0  0
  152.8904  139.6642  157.5602 N   0  0  0  0  0  0  0  0  0  0  0  0
  152.0679  139.8501  156.5324 C   0  0  0  0  0  0  0  0  0  0  0  0
  151.2258  140.8993  156.5979 N   0  0  0  0  0  0  0  0  0  0  0  0
  150.2444  141.2949  155.6033 C   0  0  0  0  0  0  0  0  0  0  0  0
  148.7970  141.1219  156.1021 C   0  0  1  0  0  0  0  0  0  0  0  0
  147.9326  141.9297  155.3260 O   0  0  0  0  0  0  0  0  0  0  0  0
  148.3266  139.6580  155.9924 C   0  0  0  0  0  0  0  0  0  0  0  0
  147.2178  139.4862  155.0183 N   0  3  2  0  0  0  0  0  0  0  0  0
  146.2028  138.4885  155.4437 C   0  0  0  0  0  0  0  0  0  0  0  0
  145.0333  138.4303  154.4424 C   0  0  0  0  0  0  0  0  0  0  0  0
  145.4997  138.1439  153.0622 N   0  3  2  0  0  0  0  0  0  0  0  0
  145.8536  136.7158  152.8382 C   0  0  0  0  0  0  0  0  0  0  0  0
  145.7350  136.2957  151.3590 C   0  0  1  0  0  0  0  0  0  0  0  0
  146.2022  134.8511  151.1395 C   0  0  0  0  0  0  0  0  0  0  0  0
  144.3835  136.3785  150.9535 O   0  0  0  0  0  0  0  0  0  0  0  0
  146.5421  139.1163  152.6386 C   0  0  0  0  0  0  0  0  0  0  0  0
  147.7075  139.2030  153.6461 C   0  0  0  0  0  0  0  0  0  0  0  0
  151.5080  141.5109  157.8150 C   0  0  0  0  0  0  0  0  0  0  0  0
  150.9920  142.6378  158.4790 C   0  0  0  0  0  0  0  0  0  0  0  0
  151.5098  143.0012  159.7398 C   0  0  0  0  0  0  0  0  0  0  0  0
  150.9464  144.2203  160.4485 C   0  0  0  0  0  0  0  0  0  0  0  0
  153.8612  141.8710  162.0124 H   0  0  0  0  0  0  0  0  0  0  0  0
  152.3307  142.6336  162.4366 H   0  0  0  0  0  0  0  0  0  0  0  0
  153.6005  143.5742  161.6388 H   0  0  0  0  0  0  0  0  0  0  0  0
  153.8395  140.5073  160.0982 H   0  0  0  0  0  0  0  0  0  0  0  0
  152.0759  139.1829  155.6827 H   0  0  0  0  0  0  0  0  0  0  0  0
  150.4325  142.3314  155.3198 H   0  0  0  0  0  0  0  0  0  0  0  0
  150.4082  140.6941  154.7076 H   0  0  0  0  0  0  0  0  0  0  0  0
  148.7456  141.4636  157.1356 H   0  0  0  0  0  0  0  0  0  0  0  0
  148.1503  142.8376  155.4797 H   0  0  0  0  0  0  0  0  0  0  0  0
  149.1788  139.0463  155.6909 H   0  0  0  0  0  0  0  0  0  0  0  0
  148.0138  139.2800  156.9670 H   0  0  0  0  0  0  0  0  0  0  0  0
  146.6698  137.5068  155.5379 H   0  0  0  0  0  0  0  0  0  0  0  0
  145.8113  138.7434  156.4279 H   0  0  0  0  0  0  0  0  0  0  0  0
  144.2931  137.6931  154.7561 H   0  0  0  0  0  0  0  0  0  0  0  0
  144.5162  139.3908  154.4363 H   0  0  0  0  0  0  0  0  0  0  0  0
  146.8618  136.5235  153.2048 H   0  0  0  0  0  0  0  0  0  0  0  0
  145.1963  136.0754  153.4290 H   0  0  0  0  0  0  0  0  0  0  0  0
  146.3275  136.9463  150.7168 H   0  0  0  0  0  0  0  0  0  0  0  0
  147.2502  134.7326  151.4162 H   0  0  0  0  0  0  0  0  0  0  0  0
  146.1051  134.5610  150.0926 H   0  0  0  0  0  0  0  0  0  0  0  0
  145.6193  134.1472  151.7350 H   0  0  0  0  0  0  0  0  0  0  0  0
  144.2739  137.1278  150.3886 H   0  0  0  0  0  0  0  0  0  0  0  0
  146.9190  138.8799  151.6442 H   0  0  0  0  0  0  0  0  0  0  0  0
  146.0712  140.0968  152.5543 H   0  0  0  0  0  0  0  0  0  0  0  0
  148.3890  139.9948  153.3322 H   0  0  0  0  0  0  0  0  0  0  0  0
  148.2861  138.2782  153.6486 H   0  0  0  0  0  0  0  0  0  0  0  0
  150.2039  143.2179  158.0223 H   0  0  0  0  0  0  0  0  0  0  0  0
  150.2042  144.7303  159.8335 H   0  0  0  0  0  0  0  0  0  0  0  0
  151.7389  144.9339  160.6745 H   0  0  0  0  0  0  0  0  0  0  0  0
  150.4652  143.9292  161.3823 H   0  0  0  0  0  0  0  0  0  0  0  0
  144.6980  138.3053  152.4688 H   0  0  0  0  0  0  0  0  0  0  0  0
  146.7524  140.3820  154.9705 H   0  0  0  0  0  0  0  0  0  0  0  0
  1  2  1  0  0  0  0
  1 26  1  0  0  0  0
  1 27  1  0  0  0  0
  1 28  1  0  0  0  0
  2 24  1  0  0  0  0
  2  3  2  0  0  0  0
  3  4  1  0  0  0  0
  3 29  1  0  0  0  0
  4 22  2  0  0  0  0
  4  5  1  0  0  0  0
  5  6  2  0  0  0  0
  6  7  1  0  0  0  0
  6 30  1  0  0  0  0
  7  8  1  0  0  0  0
  7 22  1  0  0  0  0
  8  9  1  0  0  0  0
  8 31  1  0  0  0  0
  8 32  1  0  0  0  0
  9 10  1  0  0  0  0
  9 11  1  0  0  0  0
  9 33  1  0  0  0  0
 10 34  1  0  0  0  0
 11 12  1  0  0  0  0
 11 35  1  0  0  0  0
 11 36  1  0  0  0  0
 12 21  1  0  0  0  0
 12 13  1  0  0  0  0
 12 57  1  0  0  0  0
 13 14  1  0  0  0  0
 13 37  1  0  0  0  0
 13 38  1  0  0  0  0
 14 15  1  0  0  0  0
 14 39  1  0  0  0  0
 14 40  1  0  0  0  0
 15 16  1  0  0  0  0
 15 20  1  0  0  0  0
 15 56  1  0  0  0  0
 16 17  1  0  0  0  0
 16 41  1  0  0  0  0
 16 42  1  0  0  0  0
 17 18  1  0  0  0  0
 17 19  1  0  0  0  0
 17 43  1  0  0  0  0
 18 44  1  0  0  0  0
 18 45  1  0  0  0  0
 18 46  1  0  0  0  0
 19 47  1  0  0  0  0
 20 21  1  0  0  0  0
 20 48  1  0  0  0  0
 20 49  1  0  0  0  0
 21 50  1  0  0  0  0
 21 51  1  0  0  0  0
 22 23  1  0  0  0  0
 23 24  2  0  0  0  0
 23 52  1  0  0  0  0
 24 25  1  0  0  0  0
 25 53  1  0  0  0  0
 25 54  1  0  0  0  0
 25 55  1  0  0  0  0
M  CHG  1  12   1
M  CHG  1  15   1
M  END
> <s_m_source_file>
AV-unprocessed.smi

> <i_m_source_file_index>
1033

> <i_lp_mmshare_version>
43012

> <i_f3d_flags>
0

> <s_epik_input>
W0NIM11jKFtjSF0xKWMoW0NIM10pW2NIXWMoYzEyKW4oW2NIXW4yKVtDSDJdW0NASF0oW09IXSlbQ0gyXU4zW0NIMl1bQ0gyXU4oW0NIMl1bQ0gyXTMpW0NIMl1bQ0BIXShbQ0gzXSlbT0hd

> <s_epik_cmdline>
J2VwaWtfcHl0aG9uJywgJy1waCcsICc3LjAnLCAnLXRuJywgJzgnLCAnLW1hJywgJzIwMCcsICctbWV0YWxfYmluZGluZycsICctaW1hZScsICc8aW5maWxlLm1hZT4nLCAnLW9tYWUnLCAnPG91dGZpbGUubWFlPic=

> <r_epik_Ionization_Penalty>
3.16016

> <r_epik_Ionization_Penalty_Charging>
3.07679

> <r_epik_Ionization_Penalty_Neutral>
0.083365

> <r_epik_State_Penalty>
2.09701

> <r_epik_Charging_Adjusted_Penalty>
5.1738

> <i_epik_Tot_Q>
2

> <i_epik_Tot_abs_Q>
2

> <r_epik_Metal_State_Penalty>
2.02534

> <b_epik_Metal_Only>
0

> <s_lp_Force_Field>
OPLS_2005

> <r_lp_Energy>
29.7728

> <b_lp_Chiralities_Consistent>
1

> <s_lp_Variant>
AV-unprocessed.smi:1033-24

> <Gold.Version>
5.8.1

> <Gold.Id.Protein>
6NUR|6NUR_protein|mol2

> <Gold.PLP.Fitness>
49.1676

> <Gold.PLP.PLP>
-41.7194

> <Gold.PLP.part.hbond>
-3.7960

> <Gold.PLP.part.metal>
0.0000

> <Gold.PLP.part.buried>
-2.4847

> <Gold.PLP.part.nonpolar>
-34.8039

> <Gold.PLP.part.repulsive>
0.0000

> <Gold.PLP.ligand.clash>
0.0000

> <Gold.PLP.ligand.torsion>
1.6343

> <Gold.PLP.Chemscore.Hbond>
3.5096

> <Gold.PLP.Chemscore.CHOScore>
0.0000

> <Gold.PLP.Chemscore.Metal>
0.0000

> <Gold.Chemscore.Hbonds>
donor molecule, donor type, donor heavy atom, donor atom, acceptor molecule, acceptor atom, score
      L1  H    10    34       P1  8028  1.00
      L1  H    15    56       P1 10175  0.12
      L1  H    19    47       P1 10171  1.00
      P1  H  7997  8008       L1     5  1.00

> <Gold.PLP.Chemscore.Internal.Correction>
0.1881

> <Gold.Rescore>
     Score         DG    S(hbond)    S(metal)    S(lipo)     H(rot)  DE(clash)    DE(int)     intcor
     19.07     -21.02       2.87        0.00     119.63       3.14       0.29       1.65       ----

> <Gold.Chemscore.Fitness>
19.0708

> <Gold.Chemscore.DG>
-21.0180

> <Gold.Chemscore.ZeroCoef>
-5.4800

> <Gold.Chemscore.Hbond>
2.8665

> <Gold.Chemscore.Metal>
0.0000

> <Gold.Chemscore.Lipo>
119.6324

> <Gold.Chemscore.Internal_Hbond>
0.0000

> <Gold.Chemscore.DEClash>
0.2942

> <Gold.Chemscore.DEInternal>
1.6530

> <Gold.Chemscore.Rot>
3.1380

> <Gold.Chemscore.Internal.Correction>
   9.000000E+99

> <Gold.Chemscore.Hbonds>
donor molecule, donor type, donor heavy atom, donor atom, acceptor molecule, acceptor atom, score
      L1  H    10    34       P1  8028  0.90
      L1  H    15    56       P1 10175  0.06
      L1  H    19    47       P1 10171  0.99
      P1  H  7997  8008       L1     5  0.21

> <Gold.Chemscore.Hbond.Weighted>
-9.5742

> <Gold.Chemscore.Metal.Weighted>
-0.0000

> <Gold.Chemscore.Lipo.Weighted>
-13.9970

> <Gold.Chemscore.Internal_Hbond.Weighted>
0.0000

> <Gold.Chemscore.DEClash.Weighted>
0.2942

> <Gold.Chemscore.DEInternal.Weighted>
1.6530

> <Gold.Chemscore.Rot.Weighted>
8.0332

> <Gold.Chemscore.Internal.Correction.Weighted>
   9.000000E+99

> <Gold.Protein.RotatedTorsions>
[ 6907 6896 6895 6894 ] final  131.98 input  -60.11 | X-H torsion
[ 7974 7965 7964 7962 ] final  -75.58 input  175.53 | X-H torsion
[ 8008 7997 7996 7995 ] final  -72.56 input   59.86 | X-H torsion
[ 10167 10162 10161 10158 ] final  134.41 input  -65.29 | X-H torsion
[ 10718 10713 10712 10709 ] final   -7.00 input   66.30 | X-H torsion
[ 10763 10752 10751 10750 ] final  107.13 input  -60.55 | X-H torsion
[ 11005 11000 10999 10996 ] final  -54.32 input  -57.11 | X-H torsion

> <Gold.Protein.ActiveResidues>
 VAL166  LYS551  ARG553  GLY616  TRP617  ASP618  TYR619  PRO620  LYS621  CYS622 
 ASP623  PHE694  ASN695  SER759  ASP760  ASP761  ALA762  ILE779  LEU786  VAL792 
 PHE793  MET794  SER795  GLU796  ALA797  LYS798  CYS799  TRP800  GLU811  SER814 

> <Gold.Protein.RotatedAtoms>
  152.3371  133.6024  159.5850 H   0  0  0  0  0  0  0  0  0  0  0  0  # atno 6907 bound_to 6896
  150.7457  133.9779  159.3575 H   0  0  0  0  0  0  0  0  0  0  0  0  # atno 6908 bound_to 6896
  151.7647  135.0802  160.0402 H   0  0  0  0  0  0  0  0  0  0  0  0  # atno 6909 bound_to 6896
  145.6241  140.9355  143.1122 H   0  0  0  0  0  0  0  0  0  0  0  0  # atno 7974 bound_to 7965
  154.5176  140.0795  156.8111 H   0  0  0  0  0  0  0  0  0  0  0  0  # atno 8008 bound_to 7997
  155.3646  140.3419  155.4223 H   0  0  0  0  0  0  0  0  0  0  0  0  # atno 8009 bound_to 7997
  156.1645  140.1599  156.8542 H   0  0  0  0  0  0  0  0  0  0  0  0  # atno 8010 bound_to 7997
  139.5257  144.6568  151.5136 H   0  0  0  0  0  0  0  0  0  0  0  0  # atno 10167 bound_to 10162
  156.7237  130.5158  149.5862 H   0  0  0  0  0  0  0  0  0  0  0  0  # atno 10718 bound_to 10713
  153.4025  135.3854  155.1997 H   0  0  0  0  0  0  0  0  0  0  0  0  # atno 10763 bound_to 10752
  154.8730  135.3775  154.4601 H   0  0  0  0  0  0  0  0  0  0  0  0  # atno 10764 bound_to 10752
  153.5100  135.7087  153.5848 H   0  0  0  0  0  0  0  0  0  0  0  0  # atno 10765 bound_to 10752
  141.1020  133.6617  156.4303 H   0  0  0  0  0  0  0  0  0  0  0  0  # atno 11005 bound_to 11000
  144.7219  139.8001  143.7379 LP  0  0  0  0  0  0  0  0  0  0  0  0  # atno 17320 bound_to 7965
  146.1408  139.4464  143.0110 LP  0  0  0  0  0  0  0  0  0  0  0  0  # atno 17321 bound_to 7965
  140.6398  143.8912  150.6681 LP  0  0  0  0  0  0  0  0  0  0  0  0  # atno 17342 bound_to 10162
  140.2242  143.3785  152.1618 LP  0  0  0  0  0  0  0  0  0  0  0  0  # atno 17343 bound_to 10162
  156.1577  130.6353  151.0678 LP  0  0  0  0  0  0  0  0  0  0  0  0  # atno 17370 bound_to 10713
  157.6887  131.0816  150.7168 LP  0  0  0  0  0  0  0  0  0  0  0  0  # atno 17371 bound_to 10713
  140.4999  134.6496  157.5244 LP  0  0  0  0  0  0  0  0  0  0  0  0  # atno 17394 bound_to 11000
  139.9875  134.7038  155.9748 LP  0  0  0  0  0  0  0  0  0  0  0  0  # atno 17395 bound_to 11000

$$$$
