AV-unprocessed.smi:1145|AV-procd|sdf|4885|dock3
  -GOLD-   22720 3453D 1   1.00000     0.00000
 Structure written by MMmdl.
 36 37  0  0  0  0  0  0  0  0  1 V2000
  149.8504  140.2140  157.5401 C   0  0  0  0  0  0  0  0  0  0  0  0
  149.6499  141.6758  157.0993 C   0  0  1  0  0  0  0  0  0  0  0  0
  150.9612  142.3627  156.6676 C   0  0  0  0  0  0  0  0  0  0  0  0
  151.4995  143.2486  157.6837 N   0  0  0  0  0  0  0  0  0  0  0  0
  151.4530  144.6262  157.7342 C   0  0  0  0  0  0  0  0  0  0  0  0
  152.0845  145.0119  158.8818 C   0  0  0  0  0  0  0  0  0  0  0  0
  152.4849  143.7829  159.4768 C   0  0  0  0  0  0  0  0  0  0  0  0
  152.1310  142.7294  158.7586 N   0  0  0  0  0  0  0  0  0  0  0  0
  148.6939  141.7431  155.9973 N   0  0  0  0  0  0  0  0  0  0  0  0
  148.8956  141.2674  154.7584 C   0  0  0  0  0  0  0  0  0  0  0  0
  149.9400  140.7133  154.4144 O   0  0  0  0  0  0  0  0  0  0  0  0
  147.7284  141.4354  153.7665 C   0  0  1  0  0  0  0  0  0  0  0  0
  147.1328  140.0843  153.3296 C   0  0  0  0  0  0  0  0  0  0  0  0
  146.3445  139.3780  154.4487 C   0  0  0  0  0  0  0  0  0  0  0  0
  145.4418  140.3196  155.2601 C   0  0  0  0  0  0  0  0  0  0  0  0
  144.5607  139.8446  155.9727 O   0  0  0  0  0  0  0  0  0  0  0  0
  145.6632  141.6449  155.2070 N   0  0  0  0  0  0  0  0  0  0  0  0
  146.5989  142.3350  154.3170 C   0  0  0  0  0  0  0  0  0  0  0  0
  150.5116  140.1447  158.4040 H   0  0  0  0  0  0  0  0  0  0  0  0
  150.2848  139.6153  156.7391 H   0  0  0  0  0  0  0  0  0  0  0  0
  148.9036  139.7533  157.8233 H   0  0  0  0  0  0  0  0  0  0  0  0
  149.2449  142.2341  157.9455 H   0  0  0  0  0  0  0  0  0  0  0  0
  151.7184  141.6144  156.4290 H   0  0  0  0  0  0  0  0  0  0  0  0
  150.8019  142.9444  155.7584 H   0  0  0  0  0  0  0  0  0  0  0  0
  150.9817  145.2101  156.9575 H   0  0  0  0  0  0  0  0  0  0  0  0
  152.2364  146.0183  159.2427 H   0  0  0  0  0  0  0  0  0  0  0  0
  153.0164  143.6258  160.4038 H   0  0  0  0  0  0  0  0  0  0  0  0
  147.8063  142.1821  156.1941 H   0  0  0  0  0  0  0  0  0  0  0  0
  148.1328  141.9276  152.8802 H   0  0  0  0  0  0  0  0  0  0  0  0
  146.4702  140.2486  152.4787 H   0  0  0  0  0  0  0  0  0  0  0  0
  147.9220  139.4247  152.9663 H   0  0  0  0  0  0  0  0  0  0  0  0
  145.7406  138.5748  154.0253 H   0  0  0  0  0  0  0  0  0  0  0  0
  147.0377  138.9048  155.1448 H   0  0  0  0  0  0  0  0  0  0  0  0
  145.0831  142.2324  155.7882 H   0  0  0  0  0  0  0  0  0  0  0  0
  147.0123  143.1960  154.8437 H   0  0  0  0  0  0  0  0  0  0  0  0
  146.0221  142.7390  153.4845 H   0  0  0  0  0  0  0  0  0  0  0  0
  1  2  1  0  0  0  0
  1 19  1  0  0  0  0
  1 20  1  0  0  0  0
  1 21  1  0  0  0  0
  2  3  1  0  0  0  0
  2  9  1  0  0  0  0
  2 22  1  0  0  0  0
  3  4  1  0  0  0  0
  3 23  1  0  0  0  0
  3 24  1  0  0  0  0
  4  8  1  0  0  0  0
  4  5  1  0  0  0  0
  5  6  2  0  0  0  0
  5 25  1  0  0  0  0
  6  7  1  0  0  0  0
  6 26  1  0  0  0  0
  7  8  2  0  0  0  0
  7 27  1  0  0  0  0
  9 10  1  0  0  0  0
  9 28  1  0  0  0  0
 10 11  2  0  0  0  0
 10 12  1  0  0  0  0
 12 18  1  0  0  0  0
 12 13  1  0  0  0  0
 12 29  1  0  0  0  0
 13 14  1  0  0  0  0
 13 30  1  0  0  0  0
 13 31  1  0  0  0  0
 14 15  1  0  0  0  0
 14 32  1  0  0  0  0
 14 33  1  0  0  0  0
 15 16  2  0  0  0  0
 15 17  1  0  0  0  0
 17 18  1  0  0  0  0
 17 34  1  0  0  0  0
 18 35  1  0  0  0  0
 18 36  1  0  0  0  0
M  END
> <s_m_source_file>
AV-unprocessed.smi

> <i_m_source_file_index>
1145

> <i_lp_mmshare_version>
43012

> <i_f3d_flags>
0

> <s_epik_input>
bjFbY0hdW2NIXVtjSF1uMVtDSDJdW0NAQEhdKFtDSDNdKVtOSF1DKD1PKVtDQEBIXTJbQ0gyXVtDSDJdQyg9TylbTkhdW0NIMl0y

> <s_epik_cmdline>
J2VwaWtfcHl0aG9uJywgJy1waCcsICc3LjAnLCAnLXRuJywgJzgnLCAnLW1hJywgJzIwMCcsICctbWV0YWxfYmluZGluZycsICctaW1hZScsICc8aW5maWxlLm1hZT4nLCAnLW9tYWUnLCAnPG91dGZpbGUubWFlPic=

> <r_lp_tautomer_probability>
1

> <r_epik_Ionization_Penalty>
0.000314064

> <r_epik_Ionization_Penalty_Charging>
0

> <r_epik_Ionization_Penalty_Neutral>
0.000314064

> <r_epik_State_Penalty>
-0

> <r_epik_Charging_Adjusted_Penalty>
0

> <i_epik_Tot_Q>
0

> <i_epik_Tot_abs_Q>
0

> <r_epik_Metal_State_Penalty>
-0

> <b_epik_Metal_Only>
0

> <s_lp_Force_Field>
OPLS_2005

> <r_lp_Energy>
8.22521

> <b_lp_Chiralities_Consistent>
1

> <s_lp_Variant>
AV-unprocessed.smi:1145-4

> <Gold.Version>
5.8.1

> <Gold.Id.Protein>
6NUR|6NUR_protein|mol2

> <Gold.PLP.Fitness>
40.2145

> <Gold.PLP.PLP>
-36.9309

> <Gold.PLP.part.hbond>
-2.0000

> <Gold.PLP.part.metal>
0.0000

> <Gold.PLP.part.buried>
-6.5226

> <Gold.PLP.part.nonpolar>
-29.8619

> <Gold.PLP.part.repulsive>
0.2494

> <Gold.PLP.ligand.clash>
0.0000

> <Gold.PLP.ligand.torsion>
0.9653

> <Gold.PLP.Chemscore.Hbond>
0.7520

> <Gold.PLP.Chemscore.CHOScore>
0.9729

> <Gold.PLP.Chemscore.Metal>
0.0000

> <Gold.Chemscore.Hbonds>
donor molecule, donor type, donor heavy atom, donor atom, acceptor molecule, acceptor atom, score
      P1  H  7989  7998       L1    11  0.74
      L1  C     5    25       P1  8028  1.00

> <Gold.PLP.Chemscore.Internal.Correction>
0.0397

> <Gold.Rescore>
     Score         DG    S(hbond)    S(metal)    S(lipo)     H(rot)  DE(clash)    DE(int)     intcor
     11.42     -13.31       0.85        0.00      82.05       1.80       0.12       1.77       ----

> <Gold.Chemscore.Fitness>
11.4193

> <Gold.Chemscore.DG>
-13.3103

> <Gold.Chemscore.ZeroCoef>
-5.4800

> <Gold.Chemscore.Hbond>
0.8485

> <Gold.Chemscore.Metal>
0.0000

> <Gold.Chemscore.Lipo>
82.0502

> <Gold.Chemscore.Internal_Hbond>
0.0000

> <Gold.Chemscore.DEClash>
0.1166

> <Gold.Chemscore.DEInternal>
1.7744

> <Gold.Chemscore.Rot>
1.7982

> <Gold.Chemscore.Internal.Correction>
   9.000000E+99

> <Gold.Chemscore.Hbonds>
donor molecule, donor type, donor heavy atom, donor atom, acceptor molecule, acceptor atom, score
      P1  H  7989  7998       L1    11  0.74

> <Gold.Chemscore.Hbond.Weighted>
-2.8339

> <Gold.Chemscore.Metal.Weighted>
-0.0000

> <Gold.Chemscore.Lipo.Weighted>
-9.5999

> <Gold.Chemscore.Internal_Hbond.Weighted>
0.0000

> <Gold.Chemscore.DEClash.Weighted>
0.1166

> <Gold.Chemscore.DEInternal.Weighted>
1.7744

> <Gold.Chemscore.Rot.Weighted>
4.6035

> <Gold.Chemscore.Internal.Correction.Weighted>
   9.000000E+99

> <Gold.Protein.RotatedTorsions>
[ 6907 6896 6895 6894 ] final  -57.16 input  -60.11 | X-H torsion
[ 7974 7965 7964 7962 ] final  163.22 input  175.53 | X-H torsion
[ 8008 7997 7996 7995 ] final   89.96 input   59.86 | X-H torsion
[ 10167 10162 10161 10158 ] final  -85.55 input  -65.29 | X-H torsion
[ 10718 10713 10712 10709 ] final -170.00 input   66.30 | X-H torsion
[ 10763 10752 10751 10750 ] final   27.54 input  -60.55 | X-H torsion
[ 11005 11000 10999 10996 ] final   88.26 input  -57.11 | X-H torsion

> <Gold.Protein.ActiveResidues>
 VAL166  LYS551  ARG553  GLY616  TRP617  ASP618  TYR619  PRO620  LYS621  CYS622 
 ASP623  PHE694  ASN695  SER759  ASP760  ASP761  ALA762  ILE779  LEU786  VAL792 
 PHE793  MET794  SER795  GLU796  ALA797  LYS798  CYS799  TRP800  GLU811  SER814 

> <Gold.Protein.RotatedAtoms>
  150.8108  134.7262  159.6686 H   0  0  0  0  0  0  0  0  0  0  0  0  # atno 6907 bound_to 6896
  152.4228  134.5920  159.9986 H   0  0  0  0  0  0  0  0  0  0  0  0  # atno 6908 bound_to 6896
  151.6130  133.3308  159.3107 H   0  0  0  0  0  0  0  0  0  0  0  0  # atno 6909 bound_to 6896
  144.7600  139.8151  143.6336 H   0  0  0  0  0  0  0  0  0  0  0  0  # atno 7974 bound_to 7965
  156.0063  140.3355  155.6896 H   0  0  0  0  0  0  0  0  0  0  0  0  # atno 8008 bound_to 7997
  155.6220  140.0676  157.2693 H   0  0  0  0  0  0  0  0  0  0  0  0  # atno 8009 bound_to 7997
  154.4266  140.1775  156.1370 H   0  0  0  0  0  0  0  0  0  0  0  0  # atno 8010 bound_to 7997
  140.4026  143.2656  151.9122 H   0  0  0  0  0  0  0  0  0  0  0  0  # atno 10167 bound_to 10162
  156.7198  130.9265  151.3096 H   0  0  0  0  0  0  0  0  0  0  0  0  # atno 10718 bound_to 10713
  153.0549  135.6534  154.0602 H   0  0  0  0  0  0  0  0  0  0  0  0  # atno 10763 bound_to 10752
  154.0282  135.2914  155.3373 H   0  0  0  0  0  0  0  0  0  0  0  0  # atno 10764 bound_to 10752
  154.6859  135.5302  153.8392 H   0  0  0  0  0  0  0  0  0  0  0  0  # atno 10765 bound_to 10752
  139.8900  134.8476  156.2976 H   0  0  0  0  0  0  0  0  0  0  0  0  # atno 11005 bound_to 11000
  146.1652  139.4781  142.9962 LP  0  0  0  0  0  0  0  0  0  0  0  0  # atno 17320 bound_to 7965
  145.6651  141.0231  143.1688 LP  0  0  0  0  0  0  0  0  0  0  0  0  # atno 17321 bound_to 7965
  139.4784  144.5618  151.8227 LP  0  0  0  0  0  0  0  0  0  0  0  0  # atno 17342 bound_to 10162
  140.4723  144.1569  150.5920 LP  0  0  0  0  0  0  0  0  0  0  0  0  # atno 17343 bound_to 10162
  157.6902  130.9226  150.0495 LP  0  0  0  0  0  0  0  0  0  0  0  0  # atno 17370 bound_to 10713
  156.1602  130.3644  149.9310 LP  0  0  0  0  0  0  0  0  0  0  0  0  # atno 17371 bound_to 10713
  140.9935  133.7194  156.0850 LP  0  0  0  0  0  0  0  0  0  0  0  0  # atno 17394 bound_to 11000
  140.7594  134.3956  157.5528 LP  0  0  0  0  0  0  0  0  0  0  0  0  # atno 17395 bound_to 11000

$$$$
