AV-unprocessed.smi:1669|AV-procd|sdf|6691|dock7
  -GOLD-   22720 7423D 1   1.00000     0.00000
 Structure written by MMmdl.
 49 51  0  0  0  0  0  0  0  0  3 V2000
  147.9438  134.5855  158.0094 C   0  0  0  0  0  0  0  0  0  0  0  0
  146.5142  134.9691  157.9288 N   0  3  1  0  0  0  0  0  0  0  0  0
  146.1724  135.9777  158.9659 C   0  0  0  0  0  0  0  0  0  0  0  0
  146.5939  135.5543  160.3634 C   0  0  0  0  0  0  0  0  0  0  0  0
  146.2091  134.2947  160.8720 C   0  0  0  0  0  0  0  0  0  0  0  0
  146.6104  133.9001  162.1629 C   0  0  0  0  0  0  0  0  0  0  0  0
  147.3934  134.7646  162.9521 C   0  0  0  0  0  0  0  0  0  0  0  0
  147.7749  136.0239  162.4501 C   0  0  0  0  0  0  0  0  0  0  0  0
  147.3757  136.4186  161.1584 C   0  0  0  0  0  0  0  0  0  0  0  0
  146.0923  135.3757  156.5593 C   0  0  0  0  0  0  0  0  0  0  0  0
  146.2945  134.2843  155.4839 C   0  0  1  0  0  0  0  0  0  0  0  0
  145.4059  133.2126  155.7282 O   0  0  0  0  0  0  0  0  0  0  0  0
  146.0196  134.7769  154.0468 C   0  0  0  0  0  0  0  0  0  0  0  0
  146.5552  133.8850  153.0045 N   0  0  0  0  0  0  0  0  0  0  0  0
  147.7711  133.2711  152.9180 C   0  0  0  0  0  0  0  0  0  0  0  0
  148.8955  133.3629  153.8961 C   0  0  0  0  0  0  0  0  0  0  0  0
  149.2938  134.6952  154.1297 O   0  0  0  0  0  0  0  0  0  0  0  0
  147.7720  132.5350  151.7714 N   0  3  0  0  0  0  0  0  0  0  0  0
  146.5468  132.6741  151.1185 C   0  0  0  0  0  0  0  0  0  0  0  0
  146.0824  132.1213  149.9291 C   0  0  0  0  0  0  0  0  0  0  0  0
  144.7720  132.4673  149.5392 C   0  0  0  0  0  0  0  0  0  0  0  0
  143.9775  133.3298  150.3216 C   0  0  0  0  0  0  0  0  0  0  0  0
  144.4585  133.8824  151.5268 C   0  0  0  0  0  0  0  0  0  0  0  0
  145.7567  133.5373  151.9059 C   0  0  0  0  0  0  0  0  0  0  0  0
  148.5879  135.4129  157.7092 H   0  0  0  0  0  0  0  0  0  0  0  0
  148.1667  133.7282  157.3758 H   0  0  0  0  0  0  0  0  0  0  0  0
  148.2110  134.3006  159.0276 H   0  0  0  0  0  0  0  0  0  0  0  0
  146.6743  136.9203  158.7423 H   0  0  0  0  0  0  0  0  0  0  0  0
  145.1011  136.1843  158.9422 H   0  0  0  0  0  0  0  0  0  0  0  0
  145.6108  133.6243  160.2720 H   0  0  0  0  0  0  0  0  0  0  0  0
  146.3174  132.9346  162.5487 H   0  0  0  0  0  0  0  0  0  0  0  0
  147.7005  134.4624  163.9428 H   0  0  0  0  0  0  0  0  0  0  0  0
  148.3745  136.6870  163.0565 H   0  0  0  0  0  0  0  0  0  0  0  0
  147.6742  137.3854  160.7792 H   0  0  0  0  0  0  0  0  0  0  0  0
  145.0346  135.6343  156.5612 H   0  0  0  0  0  0  0  0  0  0  0  0
  146.6311  136.2847  156.2889 H   0  0  0  0  0  0  0  0  0  0  0  0
  147.3128  133.8996  155.5219 H   0  0  0  0  0  0  0  0  0  0  0  0
  145.7499  132.4286  155.3283 H   0  0  0  0  0  0  0  0  0  0  0  0
  144.9445  134.8586  153.8817 H   0  0  0  0  0  0  0  0  0  0  0  0
  146.4187  135.7799  153.8943 H   0  0  0  0  0  0  0  0  0  0  0  0
  148.5925  132.9122  154.8415 H   0  0  0  0  0  0  0  0  0  0  0  0
  149.7485  132.7930  153.5283 H   0  0  0  0  0  0  0  0  0  0  0  0
  149.0746  135.2146  153.3709 H   0  0  0  0  0  0  0  0  0  0  0  0
  146.6880  131.4574  149.3294 H   0  0  0  0  0  0  0  0  0  0  0  0
  144.3678  132.0615  148.6229 H   0  0  0  0  0  0  0  0  0  0  0  0
  142.9767  133.5704  149.9919 H   0  0  0  0  0  0  0  0  0  0  0  0
  143.8356  134.5399  152.1144 H   0  0  0  0  0  0  0  0  0  0  0  0
  145.9802  134.1438  158.1611 H   0  0  0  0  0  0  0  0  0  0  0  0
  148.5537  131.9700  151.4649 H   0  0  0  0  0  0  0  0  0  0  0  0
  1  2  1  0  0  0  0
  1 25  1  0  0  0  0
  1 26  1  0  0  0  0
  1 27  1  0  0  0  0
  2  3  1  0  0  0  0
  2 10  1  0  0  0  0
  2 48  1  0  0  0  0
  3  4  1  0  0  0  0
  3 28  1  0  0  0  0
  3 29  1  0  0  0  0
  4  9  1  0  0  0  0
  4  5  2  0  0  0  0
  5  6  1  0  0  0  0
  5 30  1  0  0  0  0
  6  7  2  0  0  0  0
  6 31  1  0  0  0  0
  7  8  1  0  0  0  0
  7 32  1  0  0  0  0
  8  9  2  0  0  0  0
  8 33  1  0  0  0  0
  9 34  1  0  0  0  0
 10 11  1  0  0  0  0
 10 35  1  0  0  0  0
 10 36  1  0  0  0  0
 11 12  1  0  0  0  0
 11 13  1  0  0  0  0
 11 37  1  0  0  0  0
 12 38  1  0  0  0  0
 13 14  1  0  0  0  0
 13 39  1  0  0  0  0
 13 40  1  0  0  0  0
 14 24  1  0  0  0  0
 14 15  1  0  0  0  0
 15 16  1  0  0  0  0
 15 18  2  0  0  0  0
 16 17  1  0  0  0  0
 16 41  1  0  0  0  0
 16 42  1  0  0  0  0
 17 43  1  0  0  0  0
 18 19  1  0  0  0  0
 18 49  1  0  0  0  0
 19 24  2  0  0  0  0
 19 20  1  0  0  0  0
 20 21  2  0  0  0  0
 20 44  1  0  0  0  0
 21 22  1  0  0  0  0
 21 45  1  0  0  0  0
 22 23  2  0  0  0  0
 22 46  1  0  0  0  0
 23 24  1  0  0  0  0
 23 47  1  0  0  0  0
M  CHG  1   2   1
M  CHG  1  18   1
M  END
> <s_m_source_file>
AV-unprocessed.smi

> <i_m_source_file_index>
1669

> <i_lp_mmshare_version>
43012

> <i_f3d_flags>
0

> <s_epik_input>
W2NIXTFbY0hdW2NIXVtjSF1bY0hdYzFbQ0gyXU4oW0NIM10pW0NIMl1bQ0BIXShbT0hdKVtDSDJdbihjKG4yKVtDSDJdW09IXSljKGMyMylbY0hdW2NIXVtjSF1bY0hdMw==

> <s_epik_cmdline>
J2VwaWtfcHl0aG9uJywgJy1waCcsICc3LjAnLCAnLXRuJywgJzgnLCAnLW1hJywgJzIwMCcsICctbWV0YWxfYmluZGluZycsICctaW1hZScsICc8aW5maWxlLm1hZT4nLCAnLW9tYWUnLCAnPG91dGZpbGUubWFlPic=

> <r_epik_Ionization_Penalty>
1.57484

> <r_epik_Ionization_Penalty_Charging>
1.57398

> <r_epik_Ionization_Penalty_Neutral>
0.000858917

> <r_epik_State_Penalty>
1.64997

> <r_epik_Charging_Adjusted_Penalty>
3.22395

> <i_epik_Tot_Q>
2

> <i_epik_Tot_abs_Q>
2

> <r_epik_Metal_State_Penalty>
5.70481

> <b_epik_Metal_Only>
0

> <s_lp_Force_Field>
OPLS_2005

> <r_lp_Energy>
25.6323

> <b_lp_Chiralities_Consistent>
1

> <s_lp_Variant>
AV-unprocessed.smi:1669-9

> <Gold.Version>
5.8.1

> <Gold.Id.Protein>
6NUR|6NUR_protein|mol2

> <Gold.PLP.Fitness>
47.4357

> <Gold.PLP.PLP>
-42.1916

> <Gold.PLP.part.hbond>
-2.7991

> <Gold.PLP.part.metal>
0.0000

> <Gold.PLP.part.buried>
-4.3414

> <Gold.PLP.part.nonpolar>
-35.4014

> <Gold.PLP.part.repulsive>
0.0327

> <Gold.PLP.ligand.clash>
0.0000

> <Gold.PLP.ligand.torsion>
0.4288

> <Gold.PLP.Chemscore.Hbond>
1.9280

> <Gold.PLP.Chemscore.CHOScore>
0.0000

> <Gold.PLP.Chemscore.Metal>
0.0000

> <Gold.Chemscore.Hbonds>
donor molecule, donor type, donor heavy atom, donor atom, acceptor molecule, acceptor atom, score
      L1  H    17    43       P1  7948  1.00
      L1  H    18    49       P1 10747  0.85

> <Gold.PLP.Chemscore.Internal.Correction>
0.3177

> <Gold.Rescore>
     Score         DG    S(hbond)    S(metal)    S(lipo)     H(rot)  DE(clash)    DE(int)     intcor
     14.53     -15.16       1.77        0.00     103.80       3.27       0.11       0.52       ----

> <Gold.Chemscore.Fitness>
14.5273

> <Gold.Chemscore.DG>
-15.1617

> <Gold.Chemscore.ZeroCoef>
-5.4800

> <Gold.Chemscore.Hbond>
1.7704

> <Gold.Chemscore.Metal>
0.0000

> <Gold.Chemscore.Lipo>
103.7984

> <Gold.Chemscore.Internal_Hbond>
0.0000

> <Gold.Chemscore.DEClash>
0.1108

> <Gold.Chemscore.DEInternal>
0.5236

> <Gold.Chemscore.Rot>
3.2718

> <Gold.Chemscore.Internal.Correction>
   9.000000E+99

> <Gold.Chemscore.Hbonds>
donor molecule, donor type, donor heavy atom, donor atom, acceptor molecule, acceptor atom, score
      L1  H    17    43       P1  7948  0.35
      L1  H    18    49       P1 10747  0.83

> <Gold.Chemscore.Hbond.Weighted>
-5.9132

> <Gold.Chemscore.Metal.Weighted>
-0.0000

> <Gold.Chemscore.Lipo.Weighted>
-12.1444

> <Gold.Chemscore.Internal_Hbond.Weighted>
0.0000

> <Gold.Chemscore.DEClash.Weighted>
0.1108

> <Gold.Chemscore.DEInternal.Weighted>
0.5236

> <Gold.Chemscore.Rot.Weighted>
8.3759

> <Gold.Chemscore.Internal.Correction.Weighted>
   9.000000E+99

> <Gold.Protein.RotatedTorsions>
[ 6907 6896 6895 6894 ] final   97.23 input  -60.11 | X-H torsion
[ 7974 7965 7964 7962 ] final   12.41 input  175.53 | X-H torsion
[ 8008 7997 7996 7995 ] final  -59.27 input   59.86 | X-H torsion
[ 10167 10162 10161 10158 ] final    1.93 input  -65.29 | X-H torsion
[ 10718 10713 10712 10709 ] final   15.54 input   66.30 | X-H torsion
[ 10763 10752 10751 10750 ] final   98.44 input  -60.55 | X-H torsion
[ 11005 11000 10999 10996 ] final  -42.58 input  -57.11 | X-H torsion

> <Gold.Protein.ActiveResidues>
 VAL166  LYS551  ARG553  GLY616  TRP617  ASP618  TYR619  PRO620  LYS621  CYS622 
 ASP623  PHE694  ASN695  SER759  ASP760  ASP761  ALA762  ILE779  LEU786  VAL792 
 PHE793  MET794  SER795  GLU796  ALA797  LYS798  CYS799  TRP800  GLU811  SER814 

> <Gold.Protein.RotatedAtoms>
  152.5426  134.0765  159.8216 H   0  0  0  0  0  0  0  0  0  0  0  0  # atno 6907 bound_to 6896
  151.0872  133.5336  159.2624 H   0  0  0  0  0  0  0  0  0  0  0  0  # atno 6908 bound_to 6896
  151.2141  135.0501  159.8977 H   0  0  0  0  0  0  0  0  0  0  0  0  # atno 6909 bound_to 6896
  146.2352  139.9341  142.8492 H   0  0  0  0  0  0  0  0  0  0  0  0  # atno 7974 bound_to 7965
  154.4345  140.1065  156.6090 H   0  0  0  0  0  0  0  0  0  0  0  0  # atno 8008 bound_to 7997
  155.5830  140.3491  155.4527 H   0  0  0  0  0  0  0  0  0  0  0  0  # atno 8009 bound_to 7997
  156.0304  140.1259  157.0253 H   0  0  0  0  0  0  0  0  0  0  0  0  # atno 8010 bound_to 7997
  140.6659  143.7179  150.7827 H   0  0  0  0  0  0  0  0  0  0  0  0  # atno 10167 bound_to 10162
  157.0550  130.6285  149.5775 H   0  0  0  0  0  0  0  0  0  0  0  0  # atno 10718 bound_to 10713
  153.2891  135.4148  155.1150 H   0  0  0  0  0  0  0  0  0  0  0  0  # atno 10763 bound_to 10752
  154.8514  135.3514  154.6006 H   0  0  0  0  0  0  0  0  0  0  0  0  # atno 10764 bound_to 10752
  153.6428  135.7056  153.5293 H   0  0  0  0  0  0  0  0  0  0  0  0  # atno 10765 bound_to 10752
  141.0325  133.6814  156.2614 H   0  0  0  0  0  0  0  0  0  0  0  0  # atno 11005 bound_to 11000
  145.2016  140.9857  143.4152 LP  0  0  0  0  0  0  0  0  0  0  0  0  # atno 17320 bound_to 7965
  144.9769  139.3823  143.6281 LP  0  0  0  0  0  0  0  0  0  0  0  0  # atno 17321 bound_to 7965
  140.0856  143.4926  152.2506 LP  0  0  0  0  0  0  0  0  0  0  0  0  # atno 17342 bound_to 10162
  139.5908  144.7549  151.3404 LP  0  0  0  0  0  0  0  0  0  0  0  0  # atno 17343 bound_to 10162
  155.9996  130.5072  150.7612 LP  0  0  0  0  0  0  0  0  0  0  0  0  # atno 17370 bound_to 10713
  157.5000  131.0918  151.0325 LP  0  0  0  0  0  0  0  0  0  0  0  0  # atno 17371 bound_to 10713
  140.6381  134.5194  157.5567 LP  0  0  0  0  0  0  0  0  0  0  0  0  # atno 17394 bound_to 11000
  139.9218  134.8134  156.1189 LP  0  0  0  0  0  0  0  0  0  0  0  0  # atno 17395 bound_to 11000

$$$$
