AV-unprocessed.smi:54|AV-procd|sdf|550|dock10
  -GOLD-   2262016453D 1   1.00000     0.00000
 Structure written by MMmdl.
 43 45  0  0  0  0  0  0  0  0  2 V2000
  152.0019  143.3907  161.2666 C   0  0  0  0  0  0  0  0  0  0  0  0
  152.1906  143.1351  159.7619 C   0  0  0  0  0  0  0  0  0  0  0  0
  152.1295  144.4467  158.9618 C   0  0  0  0  0  0  0  0  0  0  0  0
  151.1479  142.1334  159.2459 C   0  0  0  0  0  0  0  0  0  0  0  0
  149.9527  142.4357  159.2877 O   0  0  0  0  0  0  0  0  0  0  0  0
  151.6470  140.9667  158.7793 N   0  0  0  0  0  0  0  0  0  0  0  0
  150.9653  139.8614  158.2565 C   0  0  0  0  0  0  0  0  0  0  0  0
  150.4737  139.8995  157.0378 N   0  0  0  0  0  0  0  0  0  0  0  0
  149.8340  138.7259  156.6918 C   0  0  0  0  0  0  0  0  0  0  0  0
  149.6774  137.5997  157.4507 C   0  0  0  0  0  0  0  0  0  0  0  0
  148.9696  136.6206  156.7641 N   0  0  0  0  0  0  0  0  0  0  0  0
  148.7267  137.2177  155.5975 C   0  0  0  0  0  0  0  0  0  0  0  0
  149.2041  138.4747  155.4793 N   0  0  0  0  0  0  0  0  0  0  0  0
  149.1089  139.4089  154.3090 C   0  0  1  0  0  0  0  0  0  0  0  0
  148.5192  138.7300  153.2403 O   0  0  0  0  0  0  0  0  0  0  0  0
  147.1528  139.1103  153.1264 C   0  0  2  0  0  0  0  0  0  0  0  0
  146.5914  138.7755  151.7335 C   0  0  0  0  0  0  0  0  0  0  0  0
  147.1999  137.6038  151.2339 O   0  0  0  0  0  0  0  0  0  0  0  0
  147.2036  140.6021  153.4783 C   0  0  2  0  0  0  0  0  0  0  0  0
  147.6481  141.3650  152.3713 O   0  0  0  0  0  0  0  0  0  0  0  0
  148.2302  140.6502  154.6039 C   0  0  1  0  0  0  0  0  0  0  0  0
  147.5679  140.6106  155.8564 O   0  0  0  0  0  0  0  0  0  0  0  0
  150.2633  137.6259  158.8122 C   0  0  0  0  0  0  0  0  0  0  0  0
  150.1505  136.6355  159.5320 O   0  0  0  0  0  0  0  0  0  0  0  0
  150.8977  138.7872  159.1577 N   0  5  0  0  0  0  0  0  0  0  0  0
  150.1454  139.6529  154.0731 H   0  0  0  0  0  0  0  0  0  0  0  0
  146.5724  138.5983  153.8963 H   0  0  0  0  0  0  0  0  0  0  0  0
  146.2268  140.9828  153.7804 H   0  0  0  0  0  0  0  0  0  0  0  0
  148.8436  141.5516  154.5678 H   0  0  0  0  0  0  0  0  0  0  0  0
  152.0256  142.4589  161.8333 H   0  0  0  0  0  0  0  0  0  0  0  0
  151.0511  143.8830  161.4745 H   0  0  0  0  0  0  0  0  0  0  0  0
  152.7956  144.0292  161.6551 H   0  0  0  0  0  0  0  0  0  0  0  0
  153.1828  142.7036  159.6191 H   0  0  0  0  0  0  0  0  0  0  0  0
  152.2569  144.2660  157.8938 H   0  0  0  0  0  0  0  0  0  0  0  0
  152.9206  145.1290  159.2735 H   0  0  0  0  0  0  0  0  0  0  0  0
  151.1773  144.9600  159.1024 H   0  0  0  0  0  0  0  0  0  0  0  0
  152.6510  140.8795  158.8339 H   0  0  0  0  0  0  0  0  0  0  0  0
  148.1849  136.7203  154.8068 H   0  0  0  0  0  0  0  0  0  0  0  0
  145.5196  138.5848  151.7972 H   0  0  0  0  0  0  0  0  0  0  0  0
  146.7349  139.6014  151.0362 H   0  0  0  0  0  0  0  0  0  0  0  0
  147.8016  137.2768  151.8850 H   0  0  0  0  0  0  0  0  0  0  0  0
  148.1404  140.7958  151.7994 H   0  0  0  0  0  0  0  0  0  0  0  0
  147.8080  141.3840  156.3451 H   0  0  0  0  0  0  0  0  0  0  0  0
  1  2  1  0  0  0  0
  1 30  1  0  0  0  0
  1 31  1  0  0  0  0
  1 32  1  0  0  0  0
  2  3  1  0  0  0  0
  2  4  1  0  0  0  0
  2 33  1  0  0  0  0
  3 34  1  0  0  0  0
  3 35  1  0  0  0  0
  3 36  1  0  0  0  0
  4  5  2  0  0  0  0
  4  6  1  0  0  0  0
  6 37  1  0  0  0  0
  6  7  1  0  0  0  0
  7 25  1  0  0  0  0
  7  8  2  0  0  0  0
  8  9  1  0  0  0  0
  9 13  1  0  0  0  0
  9 10  2  0  0  0  0
 10 11  1  0  0  0  0
 10 23  1  0  0  0  0
 11 12  2  0  0  0  0
 12 13  1  0  0  0  0
 12 38  1  0  0  0  0
 13 14  1  0  0  0  0
 14 26  1  0  0  0  0
 14 21  1  0  0  0  0
 14 15  1  0  0  0  0
 15 16  1  0  0  0  0
 16 27  1  0  0  0  0
 16 17  1  0  0  0  0
 16 19  1  0  0  0  0
 17 18  1  0  0  0  0
 17 39  1  0  0  0  0
 17 40  1  0  0  0  0
 18 41  1  0  0  0  0
 19 28  1  0  0  0  0
 19 20  1  0  0  0  0
 19 21  1  0  0  0  0
 20 42  1  0  0  0  0
 21 29  1  0  0  0  0
 21 22  1  0  0  0  0
 22 43  1  0  0  0  0
 23 24  2  0  0  0  0
 23 25  1  0  0  0  0
M  CHG  1  25  -1
M  END
> <s_m_source_file>
AV-unprocessed.smi

> <i_m_source_file_index>
54

> <i_lp_mmshare_version>
43012

> <i_f3d_flags>
0

> <s_epik_input>
W0NIM11bQ0hdKFtDSDNdKUMoPU8pW05IXWMobjEpW25IXWMoPU8pYyhjMTIpbltjSF1uMltDQEBIXTNPW0NASF0oW0NIMl1bT0hdKVtDQEBIXShbT0hdKVtDQEhdM1tPSF0=

> <s_epik_cmdline>
J2VwaWtfcHl0aG9uJywgJy1waCcsICc3LjAnLCAnLXRuJywgJzgnLCAnLW1hJywgJzIwMCcsICctbWV0YWxfYmluZGluZycsICctaW1hZScsICc8aW5maWxlLm1hZT4nLCAnLW9tYWUnLCAnPG91dGZpbGUubWFlPic=

> <r_lp_tautomer_probability>
0.85571

> <r_epik_Ionization_Penalty>
1.75936

> <r_epik_Ionization_Penalty_Charging>
4.55893e-11

> <r_epik_Ionization_Penalty_Neutral>
1.75936

> <r_epik_State_Penalty>
1.72072

> <r_epik_Charging_Adjusted_Penalty>
1.72072

> <i_epik_Tot_Q>
-1

> <i_epik_Tot_abs_Q>
1

> <r_epik_Metal_State_Penalty>
0.400338

> <b_epik_Metal_Only>
1

> <s_epik_Chemistry_Notes>
This compound contains an acetal/aminal-like group ( X-CH(R)-Y where X, Y are N, S, or O) that may be acid/base labile, releasing an aldehyde.

> <s_lp_Force_Field>
OPLS_2005

> <r_lp_Energy>
59.3573

> <b_lp_Chiralities_Consistent>
1

> <s_lp_Variant>
AV-unprocessed.smi:54-22

> <Gold.Version>
5.8.1

> <Gold.Id.Protein>
6NUR|6NUR_protein|mol2

> <Gold.PLP.Fitness>
40.1581

> <Gold.PLP.PLP>
-31.6074

> <Gold.PLP.part.hbond>
-5.3056

> <Gold.PLP.part.metal>
0.0000

> <Gold.PLP.part.buried>
-1.2910

> <Gold.PLP.part.nonpolar>
-29.4595

> <Gold.PLP.part.repulsive>
4.0729

> <Gold.PLP.ligand.clash>
0.0000

> <Gold.PLP.ligand.torsion>
1.1553

> <Gold.PLP.Chemscore.Hbond>
3.5920

> <Gold.PLP.Chemscore.CHOScore>
0.0000

> <Gold.PLP.Chemscore.Metal>
0.0000

> <Gold.Chemscore.Hbonds>
donor molecule, donor type, donor heavy atom, donor atom, acceptor molecule, acceptor atom, score
      L1  H    18    41       P1  7948  0.63
      L1  H    20    42       P1  7957  1.00
      P1  H  6896  6908       L1    24  1.00
      P1  H  7954  7966       L1    18  1.00

> <Gold.PLP.Chemscore.Internal.Correction>
0.0853

> <Gold.Rescore>
     Score         DG    S(hbond)    S(metal)    S(lipo)     H(rot)  DE(clash)    DE(int)     intcor
      9.40     -14.45       3.21        0.00      72.86       4.02       3.86       1.19       ----

> <Gold.Chemscore.Fitness>
9.3971

> <Gold.Chemscore.DG>
-14.4469

> <Gold.Chemscore.ZeroCoef>
-5.4800

> <Gold.Chemscore.Hbond>
3.2129

> <Gold.Chemscore.Metal>
0.0000

> <Gold.Chemscore.Lipo>
72.8636

> <Gold.Chemscore.Internal_Hbond>
0.0000

> <Gold.Chemscore.DEClash>
3.8632

> <Gold.Chemscore.DEInternal>
1.1865

> <Gold.Chemscore.Rot>
4.0192

> <Gold.Chemscore.Internal.Correction>
   9.000000E+99

> <Gold.Chemscore.Hbonds>
donor molecule, donor type, donor heavy atom, donor atom, acceptor molecule, acceptor atom, score
      L1  H    18    41       P1  7948  0.60
      L1  H    20    42       P1  7957  0.99
      P1  H  6896  6908       L1    24  1.00
      P1  H  7954  7966       L1    18  0.35

> <Gold.Chemscore.Hbond.Weighted>
-10.7311

> <Gold.Chemscore.Metal.Weighted>
-0.0000

> <Gold.Chemscore.Lipo.Weighted>
-8.5250

> <Gold.Chemscore.Internal_Hbond.Weighted>
0.0000

> <Gold.Chemscore.DEClash.Weighted>
3.8632

> <Gold.Chemscore.DEInternal.Weighted>
1.1865

> <Gold.Chemscore.Rot.Weighted>
10.2893

> <Gold.Chemscore.Internal.Correction.Weighted>
   9.000000E+99

> <Gold.Protein.RotatedTorsions>
[ 6907 6896 6895 6894 ] final -157.44 input  -60.11 | X-H torsion
[ 7974 7965 7964 7962 ] final   65.08 input  175.53 | X-H torsion
[ 8008 7997 7996 7995 ] final   14.46 input   59.86 | X-H torsion
[ 10167 10162 10161 10158 ] final  -86.25 input  -65.29 | X-H torsion
[ 10718 10713 10712 10709 ] final   85.84 input   66.30 | X-H torsion
[ 10763 10752 10751 10750 ] final  -54.75 input  -60.55 | X-H torsion
[ 11005 11000 10999 10996 ] final   14.88 input  -57.11 | X-H torsion

> <Gold.Protein.ActiveResidues>
 VAL166  LYS551  ARG553  GLY616  TRP617  ASP618  TYR619  PRO620  LYS621  CYS622 
 ASP623  PHE694  ASN695  SER759  ASP760  ASP761  ALA762  ILE779  LEU786  VAL792 
 PHE793  MET794  SER795  GLU796  ALA797  LYS798  CYS799  TRP800  GLU811  SER814 

> <Gold.Protein.RotatedAtoms>
  151.3029  133.4114  159.2640 H   0  0  0  0  0  0  0  0  0  0  0  0  # atno 6907 bound_to 6896
  151.0180  134.9448  159.8054 H   0  0  0  0  0  0  0  0  0  0  0  0  # atno 6908 bound_to 6896
  152.5317  134.2993  159.9125 H   0  0  0  0  0  0  0  0  0  0  0  0  # atno 6909 bound_to 6896
  145.8427  139.3205  143.0922 H   0  0  0  0  0  0  0  0  0  0  0  0  # atno 7974 bound_to 7965
  154.8488  140.2926  155.5612 H   0  0  0  0  0  0  0  0  0  0  0  0  # atno 8008 bound_to 7997
  156.3015  140.2500  156.3375 H   0  0  0  0  0  0  0  0  0  0  0  0  # atno 8009 bound_to 7997
  154.9044  140.0390  157.1900 H   0  0  0  0  0  0  0  0  0  0  0  0  # atno 8010 bound_to 7997
  140.3959  143.2684  151.9205 H   0  0  0  0  0  0  0  0  0  0  0  0  # atno 10167 bound_to 10162
  157.6920  131.0191  150.2883 H   0  0  0  0  0  0  0  0  0  0  0  0  # atno 10718 bound_to 10713
  154.1798  135.6445  153.5031 H   0  0  0  0  0  0  0  0  0  0  0  0  # atno 10763 bound_to 10752
  153.0062  135.5403  154.6526 H   0  0  0  0  0  0  0  0  0  0  0  0  # atno 10764 bound_to 10752
  154.5887  135.2932  155.0630 H   0  0  0  0  0  0  0  0  0  0  0  0  # atno 10765 bound_to 10752
  140.4645  134.1093  155.7722 H   0  0  0  0  0  0  0  0  0  0  0  0  # atno 11005 bound_to 11000
  145.9447  140.8954  143.0290 LP  0  0  0  0  0  0  0  0  0  0  0  0  # atno 17320 bound_to 7965
  144.6733  140.1597  143.7423 LP  0  0  0  0  0  0  0  0  0  0  0  0  # atno 17321 bound_to 7965
  139.4786  144.5681  151.8132 LP  0  0  0  0  0  0  0  0  0  0  0  0  # atno 17342 bound_to 10162
  140.4791  144.1476  150.5929 LP  0  0  0  0  0  0  0  0  0  0  0  0  # atno 17343 bound_to 10162
  156.3418  130.3816  149.7403 LP  0  0  0  0  0  0  0  0  0  0  0  0  # atno 17370 bound_to 10713
  156.4909  130.8084  151.3094 LP  0  0  0  0  0  0  0  0  0  0  0  0  # atno 17371 bound_to 10713
  141.1606  133.8800  157.1859 LP  0  0  0  0  0  0  0  0  0  0  0  0  # atno 17394 bound_to 11000
  139.9924  135.0059  157.0005 LP  0  0  0  0  0  0  0  0  0  0  0  0  # atno 17395 bound_to 11000

$$$$
