AV-unprocessed.smi:824|AV-procd|sdf|3849|dock6
  -GOLD-   22720 1293D 1   1.00000     0.00000
 Structure written by MMmdl.
 52 53  0  0  0  0  0  0  0  0  1 V2000
  149.0659  141.3180  154.7907 C   0  0  0  0  0  0  0  0  0  0  0  0
  150.2440  141.0014  155.6954 C   0  0  0  0  0  0  0  0  0  0  0  0
  150.4025  141.8715  156.7585 N   0  0  0  0  0  0  0  0  0  0  0  0
  151.4540  141.6744  157.6449 C   0  0  0  0  0  0  0  0  0  0  0  0
  151.5141  142.6056  158.6791 N   0  0  0  0  0  0  0  0  0  0  0  0
  151.0130  143.9601  158.4493 C   0  0  0  0  0  0  0  0  0  0  0  0
  150.7299  144.6832  159.7770 C   0  0  0  0  0  0  0  0  0  0  0  0
  151.9022  144.6834  160.5811 O   0  0  0  0  0  0  0  0  0  0  0  0
  152.3169  143.3606  160.8967 C   0  0  0  0  0  0  0  0  0  0  0  0
  152.6487  142.6005  159.6018 C   0  0  0  0  0  0  0  0  0  0  0  0
  152.3077  140.6984  157.5297 N   0  0  0  0  0  0  0  0  0  0  0  0
  152.2039  139.7868  156.4684 C   0  0  0  0  0  0  0  0  0  0  0  0
  153.0160  138.8702  156.3517 O   0  0  0  0  0  0  0  0  0  0  0  0
  151.0995  139.9691  155.5036 C   0  0  0  0  0  0  0  0  0  0  0  0
  150.9678  138.9805  154.3482 C   0  0  0  0  0  0  0  0  0  0  0  0
  149.9502  137.8646  154.6582 C   0  0  0  0  0  0  0  0  0  0  0  0
  150.5567  136.6542  155.3926 C   0  0  0  0  0  0  0  0  0  0  0  0
  151.7606  136.6595  155.6573 O   0  0  0  0  0  0  0  0  0  0  0  0
  149.7615  135.6015  155.7057 N   0  0  0  0  0  0  0  0  0  0  0  0
  148.3168  135.6817  155.4647 C   0  0  0  0  0  0  0  0  0  0  0  0
  150.2293  134.3643  156.3522 C   0  0  0  0  0  0  0  0  0  0  0  0
  150.5698  133.2391  155.3448 C   0  0  0  0  0  0  0  0  0  0  0  0
  149.5014  133.0737  154.2506 C   0  0  0  0  0  0  0  0  0  0  0  0
  150.7961  131.9094  156.0791 C   0  0  0  0  0  0  0  0  0  0  0  0
  149.7382  142.6255  156.8566 H   0  0  0  0  0  0  0  0  0  0  0  0
  149.3975  141.4344  153.7587 H   0  0  0  0  0  0  0  0  0  0  0  0
  148.5669  142.2410  155.0880 H   0  0  0  0  0  0  0  0  0  0  0  0
  148.3314  140.5131  154.8286 H   0  0  0  0  0  0  0  0  0  0  0  0
  150.1029  143.9431  157.8488 H   0  0  0  0  0  0  0  0  0  0  0  0
  151.7566  144.5160  157.8766 H   0  0  0  0  0  0  0  0  0  0  0  0
  150.4311  145.7141  159.5863 H   0  0  0  0  0  0  0  0  0  0  0  0
  149.9066  144.2070  160.3116 H   0  0  0  0  0  0  0  0  0  0  0  0
  153.1958  143.4082  161.5396 H   0  0  0  0  0  0  0  0  0  0  0  0
  151.5368  142.8464  161.4603 H   0  0  0  0  0  0  0  0  0  0  0  0
  153.5095  143.0576  159.1114 H   0  0  0  0  0  0  0  0  0  0  0  0
  152.9285  141.5747  159.8466 H   0  0  0  0  0  0  0  0  0  0  0  0
  151.9405  138.5404  154.1282 H   0  0  0  0  0  0  0  0  0  0  0  0
  150.6844  139.5176  153.4416 H   0  0  0  0  0  0  0  0  0  0  0  0
  149.1437  138.2914  155.2512 H   0  0  0  0  0  0  0  0  0  0  0  0
  149.5056  137.5110  153.7273 H   0  0  0  0  0  0  0  0  0  0  0  0
  148.1089  135.9547  154.4289 H   0  0  0  0  0  0  0  0  0  0  0  0
  147.8649  136.4340  156.1126 H   0  0  0  0  0  0  0  0  0  0  0  0
  147.8077  134.7358  155.6514 H   0  0  0  0  0  0  0  0  0  0  0  0
  151.0956  134.5757  156.9798 H   0  0  0  0  0  0  0  0  0  0  0  0
  149.4755  134.0052  157.0544 H   0  0  0  0  0  0  0  0  0  0  0  0
  151.5036  133.4866  154.8414 H   0  0  0  0  0  0  0  0  0  0  0  0
  148.5228  132.8583  154.6806 H   0  0  0  0  0  0  0  0  0  0  0  0
  149.7545  132.2551  153.5761 H   0  0  0  0  0  0  0  0  0  0  0  0
  149.4095  133.9727  153.6412 H   0  0  0  0  0  0  0  0  0  0  0  0
  149.8950  131.5869  156.6018 H   0  0  0  0  0  0  0  0  0  0  0  0
  151.5951  131.9978  156.8155 H   0  0  0  0  0  0  0  0  0  0  0  0
  151.0785  131.1184  155.3838 H   0  0  0  0  0  0  0  0  0  0  0  0
  1 26  1  0  0  0  0
  1 27  1  0  0  0  0
  1 28  1  0  0  0  0
  1  2  1  0  0  0  0
  2 14  2  0  0  0  0
  2  3  1  0  0  0  0
  3 25  1  0  0  0  0
  3  4  1  0  0  0  0
  4  5  1  0  0  0  0
  4 11  2  0  0  0  0
  5 10  1  0  0  0  0
  5  6  1  0  0  0  0
  6  7  1  0  0  0  0
  6 29  1  0  0  0  0
  6 30  1  0  0  0  0
  7  8  1  0  0  0  0
  7 31  1  0  0  0  0
  7 32  1  0  0  0  0
  8  9  1  0  0  0  0
  9 10  1  0  0  0  0
  9 33  1  0  0  0  0
  9 34  1  0  0  0  0
 10 35  1  0  0  0  0
 10 36  1  0  0  0  0
 11 12  1  0  0  0  0
 12 13  2  0  0  0  0
 12 14  1  0  0  0  0
 14 15  1  0  0  0  0
 15 16  1  0  0  0  0
 15 37  1  0  0  0  0
 15 38  1  0  0  0  0
 16 17  1  0  0  0  0
 16 39  1  0  0  0  0
 16 40  1  0  0  0  0
 17 18  2  0  0  0  0
 17 19  1  0  0  0  0
 19 20  1  0  0  0  0
 19 21  1  0  0  0  0
 20 41  1  0  0  0  0
 20 42  1  0  0  0  0
 20 43  1  0  0  0  0
 21 22  1  0  0  0  0
 21 44  1  0  0  0  0
 21 45  1  0  0  0  0
 22 23  1  0  0  0  0
 22 24  1  0  0  0  0
 22 46  1  0  0  0  0
 23 47  1  0  0  0  0
 23 48  1  0  0  0  0
 23 49  1  0  0  0  0
 24 50  1  0  0  0  0
 24 51  1  0  0  0  0
 24 52  1  0  0  0  0
M  END
> <s_m_source_file>
AV-unprocessed.smi

> <i_m_source_file_index>
824

> <i_lp_mmshare_version>
43012

> <i_f3d_flags>
0

> <s_epik_input>
W0NIMl0xW0NIMl1PW0NIMl1bQ0gyXU4xYyhuYzJbQ0gzXSlbbkhdYyg9TyljMltDSDJdW0NIMl1DKD1PKU4oW0NIM10pW0NIMl1bQ0hdKFtDSDNdKVtDSDNd

> <s_epik_cmdline>
J2VwaWtfcHl0aG9uJywgJy1waCcsICc3LjAnLCAnLXRuJywgJzgnLCAnLW1hJywgJzIwMCcsICctbWV0YWxfYmluZGluZycsICctaW1hZScsICc8aW5maWxlLm1hZT4nLCAnLW9tYWUnLCAnPG91dGZpbGUubWFlPic=

> <r_lp_tautomer_probability>
0.108306

> <r_epik_Ionization_Penalty>
0.0729191

> <r_epik_Ionization_Penalty_Charging>
0.0597558

> <r_epik_Ionization_Penalty_Neutral>
0.0131634

> <r_epik_State_Penalty>
1.71329

> <r_epik_Charging_Adjusted_Penalty>
1.77304

> <i_epik_Tot_Q>
0

> <i_epik_Tot_abs_Q>
0

> <r_epik_Metal_State_Penalty>
2.71696

> <b_epik_Metal_Only>
0

> <s_lp_Force_Field>
OPLS_2005

> <r_lp_Energy>
37.7489

> <b_lp_Chiralities_Consistent>
1

> <s_lp_Variant>
AV-unprocessed.smi:824-2

> <Gold.Version>
5.8.1

> <Gold.Id.Protein>
6NUR|6NUR_protein|mol2

> <Gold.PLP.Fitness>
48.9852

> <Gold.PLP.PLP>
-46.6942

> <Gold.PLP.part.hbond>
-2.5081

> <Gold.PLP.part.metal>
0.0000

> <Gold.PLP.part.buried>
-4.3015

> <Gold.PLP.part.nonpolar>
-39.6435

> <Gold.PLP.part.repulsive>
0.2382

> <Gold.PLP.ligand.clash>
0.0000

> <Gold.PLP.ligand.torsion>
1.1344

> <Gold.PLP.Chemscore.Hbond>
1.4000

> <Gold.PLP.Chemscore.CHOScore>
0.0000

> <Gold.PLP.Chemscore.Metal>
0.0000

> <Gold.Chemscore.Hbonds>
donor molecule, donor type, donor heavy atom, donor atom, acceptor molecule, acceptor atom, score
      P1  H  7997  8009       L1    13  0.45
      P1  H 10752 10764       L1    18  1.00

> <Gold.PLP.Chemscore.Internal.Correction>
0.3598

> <Gold.Rescore>
     Score         DG    S(hbond)    S(metal)    S(lipo)     H(rot)  DE(clash)    DE(int)     intcor
     13.83     -16.66       1.00        0.00     104.29       1.71       0.26       2.57       ----

> <Gold.Chemscore.Fitness>
13.8298

> <Gold.Chemscore.DG>
-16.6559

> <Gold.Chemscore.ZeroCoef>
-5.4800

> <Gold.Chemscore.Hbond>
1.0030

> <Gold.Chemscore.Metal>
0.0000

> <Gold.Chemscore.Lipo>
104.2872

> <Gold.Chemscore.Internal_Hbond>
0.0000

> <Gold.Chemscore.DEClash>
0.2554

> <Gold.Chemscore.DEInternal>
2.5707

> <Gold.Chemscore.Rot>
1.7093

> <Gold.Chemscore.Internal.Correction>
   9.000000E+99

> <Gold.Chemscore.Hbonds>
donor molecule, donor type, donor heavy atom, donor atom, acceptor molecule, acceptor atom, score
      P1  H  7997  8009       L1    13  0.02
      P1  H 10752 10764       L1    18  0.97

> <Gold.Chemscore.Hbond.Weighted>
-3.3502

> <Gold.Chemscore.Metal.Weighted>
-0.0000

> <Gold.Chemscore.Lipo.Weighted>
-12.2016

> <Gold.Chemscore.Internal_Hbond.Weighted>
0.0000

> <Gold.Chemscore.DEClash.Weighted>
0.2554

> <Gold.Chemscore.DEInternal.Weighted>
2.5707

> <Gold.Chemscore.Rot.Weighted>
4.3759

> <Gold.Chemscore.Internal.Correction.Weighted>
   9.000000E+99

> <Gold.Protein.RotatedTorsions>
[ 6907 6896 6895 6894 ] final    8.09 input  -60.11 | X-H torsion
[ 7974 7965 7964 7962 ] final   10.70 input  175.53 | X-H torsion
[ 8008 7997 7996 7995 ] final -171.58 input   59.86 | X-H torsion
[ 10167 10162 10161 10158 ] final -171.93 input  -65.29 | X-H torsion
[ 10718 10713 10712 10709 ] final  -92.03 input   66.30 | X-H torsion
[ 10763 10752 10751 10750 ] final  -55.90 input  -60.55 | X-H torsion
[ 11005 11000 10999 10996 ] final   60.70 input  -57.11 | X-H torsion

> <Gold.Protein.ActiveResidues>
 VAL166  LYS551  ARG553  GLY616  TRP617  ASP618  TYR619  PRO620  LYS621  CYS622 
 ASP623  PHE694  ASN695  SER759  ASP760  ASP761  ALA762  ILE779  LEU786  VAL792 
 PHE793  MET794  SER795  GLU796  ALA797  LYS798  CYS799  TRP800  GLU811  SER814 

> <Gold.Protein.RotatedAtoms>
  151.7004  135.0931  160.0249 H   0  0  0  0  0  0  0  0  0  0  0  0  # atno 6907 bound_to 6896
  152.3724  133.6432  159.6106 H   0  0  0  0  0  0  0  0  0  0  0  0  # atno 6908 bound_to 6896
  150.7683  133.9165  159.3426 H   0  0  0  0  0  0  0  0  0  0  0  0  # atno 6909 bound_to 6896
  146.2384  139.9596  142.8460 H   0  0  0  0  0  0  0  0  0  0  0  0  # atno 7974 bound_to 7965
  155.9335  140.1095  157.1113 H   0  0  0  0  0  0  0  0  0  0  0  0  # atno 8008 bound_to 7997
  154.4075  140.1233  156.4899 H   0  0  0  0  0  0  0  0  0  0  0  0  # atno 8009 bound_to 7997
  155.7051  140.3471  155.4952 H   0  0  0  0  0  0  0  0  0  0  0  0  # atno 8010 bound_to 7997
  139.5774  144.1501  152.1469 H   0  0  0  0  0  0  0  0  0  0  0  0  # atno 10167 bound_to 10162
  155.9998  130.4971  150.5564 H   0  0  0  0  0  0  0  0  0  0  0  0  # atno 10718 bound_to 10713
  154.1981  135.6415  153.5079 H   0  0  0  0  0  0  0  0  0  0  0  0  # atno 10763 bound_to 10752
  153.0018  135.5445  154.6344 H   0  0  0  0  0  0  0  0  0  0  0  0  # atno 10764 bound_to 10752
  154.5750  135.2920  155.0763 H   0  0  0  0  0  0  0  0  0  0  0  0  # atno 10765 bound_to 10752
  140.0213  134.6149  155.9636 H   0  0  0  0  0  0  0  0  0  0  0  0  # atno 11005 bound_to 11000
  145.1784  140.9755  143.4281 LP  0  0  0  0  0  0  0  0  0  0  0  0  # atno 17320 bound_to 7965
  144.9964  139.3639  143.6189 LP  0  0  0  0  0  0  0  0  0  0  0  0  # atno 17321 bound_to 7965
  140.1047  144.5509  150.6965 LP  0  0  0  0  0  0  0  0  0  0  0  0  # atno 17342 bound_to 10162
  140.7055  143.2465  151.4738 LP  0  0  0  0  0  0  0  0  0  0  0  0  # atno 17343 bound_to 10162
  157.3479  131.0728  151.1736 LP  0  0  0  0  0  0  0  0  0  0  0  0  # atno 17370 bound_to 10713
  157.2562  130.6637  149.5954 LP  0  0  0  0  0  0  0  0  0  0  0  0  # atno 17371 bound_to 10713
  141.1775  133.6542  156.4887 LP  0  0  0  0  0  0  0  0  0  0  0  0  # atno 17394 bound_to 11000
  140.4383  134.7039  157.4978 LP  0  0  0  0  0  0  0  0  0  0  0  0  # atno 17395 bound_to 11000

$$$$
