AV-unprocessed.smi:102|AV-procd|sdf|953|dock4
  -GOLD-   2262017483D 1   1.00000     0.00000
 Structure written by MMmdl.
 44 45  0  0  0  0  0  0  0  0  1 V2000
  147.8770  135.1678  159.3477 C   0  0  0  0  0  0  0  0  0  0  0  0
  147.8182  136.6896  159.3059 C   0  0  0  0  0  0  0  0  0  0  0  0
  147.9597  137.3643  160.3259 O   0  0  0  0  0  0  0  0  0  0  0  0
  147.6023  137.1652  158.0696 O   0  0  0  0  0  0  0  0  0  0  0  0
  147.6541  138.5635  157.8398 C   0  0  0  0  0  0  0  0  0  0  0  0
  149.1159  139.0051  157.6848 C   0  0  2  0  0  0  0  0  0  0  0  0
  149.4536  139.9945  158.6542 O   0  0  0  0  0  0  0  0  0  0  0  0
  150.4032  140.8827  158.1432 C   0  0  1  0  0  0  0  0  0  0  0  0
  151.6505  140.8623  159.0133 N   0  0  0  0  0  0  0  0  0  0  0  0
  151.9518  141.9698  159.7960 C   0  0  0  0  0  0  0  0  0  0  0  0
  153.0288  142.0310  160.6142 C   0  0  0  0  0  0  0  0  0  0  0  0
  153.2539  143.1437  161.3330 F   0  0  0  0  0  0  0  0  0  0  0  0
  153.9445  140.9005  160.7241 C   0  0  0  0  0  0  0  0  0  0  0  0
  154.9485  140.8617  161.4324 O   0  0  0  0  0  0  0  0  0  0  0  0
  153.5965  139.8005  159.9364 N   0  0  0  0  0  0  0  0  0  0  0  0
  152.4882  139.7234  159.0911 C   0  0  0  0  0  0  0  0  0  0  0  0
  152.2884  138.6945  158.4513 O   0  0  0  0  0  0  0  0  0  0  0  0
  150.6114  140.5746  156.6415 C   0  0  1  0  0  0  0  0  0  0  0  0
  151.8559  139.9558  156.3310 O   0  0  0  0  0  0  0  0  0  0  0  0
  152.0104  139.2683  155.1844 C   0  0  0  0  0  0  0  0  0  0  0  0
  153.3013  138.4617  155.1631 C   0  0  0  0  0  0  0  0  0  0  0  0
  151.2382  139.2724  154.2259 O   0  0  0  0  0  0  0  0  0  0  0  0
  149.4603  139.6294  156.3278 C   0  0  2  0  0  0  0  0  0  0  0  0
  148.3588  140.3589  155.7943 O   0  0  0  0  0  0  0  0  0  0  0  0
  148.5067  141.0926  154.6765 C   0  0  0  0  0  0  0  0  0  0  0  0
  147.2390  141.8518  154.3083 C   0  0  0  0  0  0  0  0  0  0  0  0
  149.5296  141.1797  153.9973 O   0  0  0  0  0  0  0  0  0  0  0  0
  154.1979  138.9908  159.9844 H   0  0  0  0  0  0  0  0  0  0  0  0
  147.7461  134.7435  158.3518 H   0  0  0  0  0  0  0  0  0  0  0  0
  147.0905  134.7787  159.9943 H   0  0  0  0  0  0  0  0  0  0  0  0
  148.8398  134.8385  159.7387 H   0  0  0  0  0  0  0  0  0  0  0  0
  147.1026  138.7888  156.9258 H   0  0  0  0  0  0  0  0  0  0  0  0
  147.1742  139.1046  158.6567 H   0  0  0  0  0  0  0  0  0  0  0  0
  149.7614  138.1390  157.8239 H   0  0  0  0  0  0  0  0  0  0  0  0
  149.9757  141.8774  158.2719 H   0  0  0  0  0  0  0  0  0  0  0  0
  151.3106  142.8385  159.7537 H   0  0  0  0  0  0  0  0  0  0  0  0
  150.5048  141.5008  156.0741 H   0  0  0  0  0  0  0  0  0  0  0  0
  154.1410  139.0813  155.4789 H   0  0  0  0  0  0  0  0  0  0  0  0
  153.5048  138.0908  154.1585 H   0  0  0  0  0  0  0  0  0  0  0  0
  153.2247  137.6093  155.8381 H   0  0  0  0  0  0  0  0  0  0  0  0
  149.7545  138.8497  155.6227 H   0  0  0  0  0  0  0  0  0  0  0  0
  146.3847  141.1752  154.2831 H   0  0  0  0  0  0  0  0  0  0  0  0
  147.3414  142.3143  153.3263 H   0  0  0  0  0  0  0  0  0  0  0  0
  147.0408  142.6348  155.0403 H   0  0  0  0  0  0  0  0  0  0  0  0
  1  2  1  0  0  0  0
  1 29  1  0  0  0  0
  1 30  1  0  0  0  0
  1 31  1  0  0  0  0
  2  3  2  0  0  0  0
  2  4  1  0  0  0  0
  4  5  1  0  0  0  0
  5  6  1  0  0  0  0
  5 32  1  0  0  0  0
  5 33  1  0  0  0  0
  6 23  1  0  0  0  0
  6  7  1  0  0  0  0
  6 34  1  0  0  0  0
  7  8  1  0  0  0  0
  8  9  1  0  0  0  0
  8 18  1  0  0  0  0
  8 35  1  0  0  0  0
  9 16  1  0  0  0  0
  9 10  1  0  0  0  0
 10 11  2  0  0  0  0
 10 36  1  0  0  0  0
 11 12  1  0  0  0  0
 11 13  1  0  0  0  0
 13 14  2  0  0  0  0
 13 15  1  0  0  0  0
 15 28  1  0  0  0  0
 15 16  1  0  0  0  0
 16 17  2  0  0  0  0
 18 19  1  0  0  0  0
 18 23  1  0  0  0  0
 18 37  1  0  0  0  0
 19 20  1  0  0  0  0
 20 21  1  0  0  0  0
 20 22  2  0  0  0  0
 21 38  1  0  0  0  0
 21 39  1  0  0  0  0
 21 40  1  0  0  0  0
 23 24  1  0  0  0  0
 23 41  1  0  0  0  0
 24 25  1  0  0  0  0
 25 26  1  0  0  0  0
 25 27  2  0  0  0  0
 26 42  1  0  0  0  0
 26 43  1  0  0  0  0
 26 44  1  0  0  0  0
M  END
> <s_m_source_file>
AV-unprocessed.smi

> <i_m_source_file_index>
102

> <i_lp_mmshare_version>
43012

> <i_f3d_flags>
0

> <s_epik_input>
W0NIM11DKD1PKU9bQ0gyXVtDQEBIXTFPW0NASF0oW0NAQEhdKE9DKD1PKVtDSDNdKVtDQEhdMU9DKD1PKVtDSDNdKW4yW2NIXWMoRiljKD1PKVtuSF1jMj1P

> <s_epik_cmdline>
J2VwaWtfcHl0aG9uJywgJy1waCcsICc3LjAnLCAnLXRuJywgJzgnLCAnLW1hJywgJzIwMCcsICctbWV0YWxfYmluZGluZycsICctaW1hZScsICc8aW5maWxlLm1hZT4nLCAnLW9tYWUnLCAnPG91dGZpbGUubWFlPic=

> <r_lp_tautomer_probability>
0.999537

> <r_epik_Ionization_Penalty>
0.058267

> <r_epik_Ionization_Penalty_Charging>
0.058267

> <r_epik_Ionization_Penalty_Neutral>
6.57791e-16

> <r_epik_State_Penalty>
0.0503774

> <r_epik_Charging_Adjusted_Penalty>
0.108644

> <i_epik_Tot_Q>
0

> <i_epik_Tot_abs_Q>
0

> <r_epik_Metal_State_Penalty>
2.6644

> <b_epik_Metal_Only>
0

> <s_epik_Chemistry_Notes>
This compound has an ester and may undergo hydrolysis at high or low pH. This compound contains an acetal/aminal-like group ( X-CH(R)-Y where X, Y are N, S, or O) that may be acid/base labile, releasing an aldehyde.

> <s_lp_Force_Field>
OPLS_2005

> <r_lp_Energy>
10.5548

> <b_lp_Chiralities_Consistent>
1

> <s_lp_Variant>
AV-unprocessed.smi:102-9

> <Gold.Version>
5.8.1

> <Gold.Id.Protein>
6NUR|6NUR_protein|mol2

> <Gold.PLP.Fitness>
43.5315

> <Gold.PLP.PLP>
-36.9335

> <Gold.PLP.part.hbond>
-6.9007

> <Gold.PLP.part.metal>
0.0000

> <Gold.PLP.part.buried>
-0.8950

> <Gold.PLP.part.nonpolar>
-29.2092

> <Gold.PLP.part.repulsive>
1.3220

> <Gold.PLP.ligand.clash>
0.0000

> <Gold.PLP.ligand.torsion>
1.2988

> <Gold.PLP.Chemscore.Hbond>
2.9991

> <Gold.PLP.Chemscore.CHOScore>
0.0000

> <Gold.PLP.Chemscore.Metal>
0.0000

> <Gold.Chemscore.Hbonds>
donor molecule, donor type, donor heavy atom, donor atom, acceptor molecule, acceptor atom, score
      P1  H  6931  6943       L1     3  0.53
      P1  H  6934  6947       L1     3  0.74
      P1  H  7989  7998       L1    22  1.00
      P1  H  8011  8017       L1    27  0.70

> <Gold.PLP.Chemscore.Internal.Correction>
0.1985

> <Gold.Rescore>
     Score         DG    S(hbond)    S(metal)    S(lipo)     H(rot)  DE(clash)    DE(int)     intcor
     -1.93     -10.36       2.84        0.00      49.19       4.05       3.68       8.61       ----

> <Gold.Chemscore.Fitness>
-1.9285

> <Gold.Chemscore.DG>
-10.3624

> <Gold.Chemscore.ZeroCoef>
-5.4800

> <Gold.Chemscore.Hbond>
2.8443

> <Gold.Chemscore.Metal>
0.0000

> <Gold.Chemscore.Lipo>
49.1934

> <Gold.Chemscore.Internal_Hbond>
0.0000

> <Gold.Chemscore.DEClash>
3.6811

> <Gold.Chemscore.DEInternal>
8.6098

> <Gold.Chemscore.Rot>
4.0520

> <Gold.Chemscore.Internal.Correction>
   9.000000E+99

> <Gold.Chemscore.Hbonds>
donor molecule, donor type, donor heavy atom, donor atom, acceptor molecule, acceptor atom, score
      P1  H  6931  6943       L1     3  0.51
      P1  H  6934  6947       L1     3  0.74
      P1  H  7989  7998       L1    22  0.30
      P1  H  8011  8017       L1    27  0.68

> <Gold.Chemscore.Hbond.Weighted>
-9.4999

> <Gold.Chemscore.Metal.Weighted>
-0.0000

> <Gold.Chemscore.Lipo.Weighted>
-5.7556

> <Gold.Chemscore.Internal_Hbond.Weighted>
0.0000

> <Gold.Chemscore.DEClash.Weighted>
3.6811

> <Gold.Chemscore.DEInternal.Weighted>
8.6098

> <Gold.Chemscore.Rot.Weighted>
10.3732

> <Gold.Chemscore.Internal.Correction.Weighted>
   9.000000E+99

> <Gold.Protein.RotatedTorsions>
[ 6907 6896 6895 6894 ] final   41.90 input  -60.11 | X-H torsion
[ 7974 7965 7964 7962 ] final  -34.91 input  175.53 | X-H torsion
[ 8008 7997 7996 7995 ] final -179.10 input   59.86 | X-H torsion
[ 10167 10162 10161 10158 ] final  -44.96 input  -65.29 | X-H torsion
[ 10718 10713 10712 10709 ] final   26.47 input   66.30 | X-H torsion
[ 10763 10752 10751 10750 ] final   10.17 input  -60.55 | X-H torsion
[ 11005 11000 10999 10996 ] final -121.33 input  -57.11 | X-H torsion

> <Gold.Protein.ActiveResidues>
 VAL166  LYS551  ARG553  GLY616  TRP617  ASP618  TYR619  PRO620  LYS621  CYS622 
 ASP623  PHE694  ASN695  SER759  ASP760  ASP761  ALA762  ILE779  LEU786  VAL792 
 PHE793  MET794  SER795  GLU796  ALA797  LYS798  CYS799  TRP800  GLU811  SER814 

> <Gold.Protein.RotatedAtoms>
  152.2011  134.8587  160.0507 H   0  0  0  0  0  0  0  0  0  0  0  0  # atno 6907 bound_to 6896
  151.9440  133.3641  159.3983 H   0  0  0  0  0  0  0  0  0  0  0  0  # atno 6908 bound_to 6896
  150.6955  134.4334  159.5303 H   0  0  0  0  0  0  0  0  0  0  0  0  # atno 6909 bound_to 6896
  146.0790  140.6096  142.8917 H   0  0  0  0  0  0  0  0  0  0  0  0  # atno 7974 bound_to 7965
  156.0265  140.1272  157.0303 H   0  0  0  0  0  0  0  0  0  0  0  0  # atno 8008 bound_to 7997
  154.4332  140.1058  156.6108 H   0  0  0  0  0  0  0  0  0  0  0  0  # atno 8009 bound_to 7997
  155.5869  140.3469  155.4558 H   0  0  0  0  0  0  0  0  0  0  0  0  # atno 8010 bound_to 7997
  140.6877  143.2904  151.3570 H   0  0  0  0  0  0  0  0  0  0  0  0  # atno 10167 bound_to 10162
  157.2073  130.6917  149.6213 H   0  0  0  0  0  0  0  0  0  0  0  0  # atno 10718 bound_to 10713
  153.2061  135.6862  153.8171 H   0  0  0  0  0  0  0  0  0  0  0  0  # atno 10763 bound_to 10752
  153.7420  135.3236  155.3307 H   0  0  0  0  0  0  0  0  0  0  0  0  # atno 10764 bound_to 10752
  154.8197  135.4660  154.0848 H   0  0  0  0  0  0  0  0  0  0  0  0  # atno 10765 bound_to 10752
  141.0078  134.0309  157.3454 H   0  0  0  0  0  0  0  0  0  0  0  0  # atno 11005 bound_to 11000
  144.7280  140.4586  143.6958 LP  0  0  0  0  0  0  0  0  0  0  0  0  # atno 17320 bound_to 7965
  145.6253  139.1529  143.2999 LP  0  0  0  0  0  0  0  0  0  0  0  0  # atno 17321 bound_to 7965
  139.6250  144.0832  152.2426 LP  0  0  0  0  0  0  0  0  0  0  0  0  # atno 17342 bound_to 10162
  140.0289  144.6096  150.7504 LP  0  0  0  0  0  0  0  0  0  0  0  0  # atno 17343 bound_to 10162
  155.9694  130.4563  150.5919 LP  0  0  0  0  0  0  0  0  0  0  0  0  # atno 17370 bound_to 10713
  157.3708  131.0765  151.1559 LP  0  0  0  0  0  0  0  0  0  0  0  0  # atno 17371 bound_to 10713
  139.9073  135.0182  156.7541 LP  0  0  0  0  0  0  0  0  0  0  0  0  # atno 17394 bound_to 11000
  140.6783  133.9497  155.7896 LP  0  0  0  0  0  0  0  0  0  0  0  0  # atno 17395 bound_to 11000

$$$$
