#       Name:                AV-unprocessed.smi:1840
#       Creating user name   scv26
#       Creation time:       Fri Mar 27 09:19:11 2020


#       File generated by GOLD software.
#

@<TRIPOS>MOLECULE
AV-unprocessed.smi:1840
    46    47     1
SMALL
NO_CHARGES


@<TRIPOS>ATOM
      1 ****        -4.0746  -1.2355  -1.1432 C.3            1 S1                 0.0000
      2 ****        -3.1867  -0.3636  -0.2451 C.3            1 S1                 0.0000
      3 ****        -3.3126  -0.7711   1.2395 C.3            1 S1                 0.0000
      4 ****        -2.5697   0.1062   2.1279 N.pl3          1 S1                 0.0000
      5 ****        -1.3475  -0.1170   2.7276 C.2            1 S1                 0.0000
      6 ****        -1.0377   1.0011   3.4471 C.2            1 S1                 0.0000
      7 ****        -2.1494   1.8617   3.2280 C.2            1 S1                 0.0000
      8 ****        -3.0664   1.3220   2.4411 N.2            1 S1                 0.0000
      9 ****        -1.7988  -0.4760  -0.6917 N.am           1 S1                 0.0000
     10 ****        -0.9233   0.5367  -0.7696 C.2            1 S1                 0.0000
     11 ****        -1.2063   1.7167  -0.5627 O.2            1 S1                 0.0000
     12 ****         0.3110   0.1005  -1.0530 N.am           1 S1                 0.0000
     13 ****         1.5138   0.9327  -1.0971 C.3            1 S1                 0.0000
     14 ****         1.9823   1.3089   0.3276 C.3            1 S1                 0.0000
     15 ****         2.5241   0.0933   1.0981 C.3            1 S1                 0.0000
     16 ****         3.6511  -0.5982   0.3168 C.3            1 S1                 0.0000
     17 ****         3.1957  -0.9885  -1.0989 C.3            1 S1                 0.0000
     18 ****         2.6497   0.2268  -1.8785 C.3            1 S1                 0.0000
     19 ****         2.2402  -0.1573  -3.3109 C.3            1 S1                 0.0000
     20 ****        -5.1228  -1.1542  -0.8544 H              1 S1                 0.0000
     21 ****        -3.7931  -2.2873  -1.0813 H              1 S1                 0.0000
     22 ****        -3.9972  -0.9296  -2.1872 H              1 S1                 0.0000
     23 ****        -3.5305   0.6666  -0.3550 H              1 S1                 0.0000
     24 ****        -4.3596  -0.7565   1.5462 H              1 S1                 0.0000
     25 ****        -2.9610  -1.7932   1.3864 H              1 S1                 0.0000
     26 ****        -0.8009  -1.0373   2.5841 H              1 S1                 0.0000
     27 ****        -0.1508   1.1787   4.0368 H              1 S1                 0.0000
     28 ****        -2.3157   2.8566   3.6141 H              1 S1                 0.0000
     29 ****        -1.4621  -1.4069  -0.8891 H              1 S1                 0.0000
     30 ****         0.4413  -0.8888  -1.2055 H              1 S1                 0.0000
     31 ****         1.2623   1.8528  -1.6281 H              1 S1                 0.0000
     32 ****         2.7671   2.0631   0.2566 H              1 S1                 0.0000
     33 ****         1.1730   1.7745   0.8914 H              1 S1                 0.0000
     34 ****         2.8890   0.4075   2.0763 H              1 S1                 0.0000
     35 ****         1.7167  -0.6158   1.2856 H              1 S1                 0.0000
     36 ****         4.5114   0.0692   0.2515 H              1 S1                 0.0000
     37 ****         3.9879  -1.4839   0.8563 H              1 S1                 0.0000
     38 ****         4.0338  -1.4299  -1.6391 H              1 S1                 0.0000
     39 ****         2.4319  -1.7645  -1.0342 H              1 S1                 0.0000
     40 ****         3.4672   0.9438  -1.9699 H              1 S1                 0.0000
     41 ****         1.4576  -0.9165  -3.3193 H              1 S1                 0.0000
     42 ****         3.0899  -0.5563  -3.8655 H              1 S1                 0.0000
     43 ****         1.8695   0.7100  -3.8578 H              1 S1                 0.0000
     44 ****        -3.9327   1.7243   2.1449 LP             1 S1                 0.0000
     45 ****        -2.1420   1.9710  -0.3183 LP             1 S1                 0.0000
     46 ****        -0.5005   2.4209  -0.6391 LP             1 S1                 0.0000
@<TRIPOS>BOND
    1    1    2 1     
    2    1   20 1     
    3    1   21 1     
    4    1   22 1     
    5    2    3 1     
    6    2    9 1     
    7    2   23 1     
    8    3    4 1     
    9    3   24 1     
   10    3   25 1     
   11    4    8 1     
   12    4    5 1     
   13    5    6 2     
   14    5   26 1     
   15    6    7 1     
   16    6   27 1     
   17    7    8 2     
   18    7   28 1     
   19    9   10 am    
   20    9   29 1     
   21   10   11 2     
   22   10   12 am    
   23   12   13 1     
   24   12   30 1     
   25   13   18 1     
   26   13   14 1     
   27   13   31 1     
   28   14   15 1     
   29   14   32 1     
   30   14   33 1     
   31   15   16 1     
   32   15   34 1     
   33   15   35 1     
   34   16   17 1     
   35   16   36 1     
   36   16   37 1     
   37   17   18 1     
   38   17   38 1     
   39   17   39 1     
   40   18   19 1     
   41   18   40 1     
   42   19   41 1     
   43   19   42 1     
   44   19   43 1     
   45    8   44 1     
   46   11   45 1     
   47   11   46 1     
@<TRIPOS>SUBSTRUCTURE
      1 S1             1
@<TRIPOS>SET
LONE_PAIRS      STATIC     ATOMS    <user>   **** ""
3 44 45 46
DONOR_HYDROGENS      STATIC     ATOMS    <user>   **** ""
2 29 30
ATOM$BLUE        STATIC     ATOMS    COLORGROUP SYSTEM
3 44 45 46
ATOM$RED        STATIC     ATOMS    COLORGROUP SYSTEM
2 29 30
