AV-unprocessed.smi:3029|AV-procd|sdf|11532|dock3
  -GOLD-   2272016473D 1   1.00000     0.00000
 Structure written by MMmdl.
 41 42  0  0  0  0  0  0  0  0  3 V2000
  148.2834  140.0661  154.1170 O   0  0  0  0  0  0  0  0  0  0  0  0
  149.3843  139.6165  154.4355 C   0  0  0  0  0  0  0  0  0  0  0  0
  149.8018  138.2592  154.0691 C   0  0  0  0  0  0  0  0  0  0  0  0
  151.0043  137.7670  154.4259 C   0  0  0  0  0  0  0  0  0  0  0  0
  151.9319  138.5760  155.1922 C   0  0  0  0  0  0  0  0  0  0  0  0
  153.2224  138.0560  155.5870 N   0  3  0  0  0  0  0  0  0  0  0  0
  153.2692  137.0797  156.3294 O   0  0  0  0  0  0  0  0  0  0  0  0
  154.2334  138.6088  155.1660 O   0  5  0  0  0  0  0  0  0  0  0  0
  151.5470  139.8235  155.5251 C   0  0  0  0  0  0  0  0  0  0  0  0
  150.2919  140.3443  155.1554 N   0  0  0  0  0  0  0  0  0  0  0  0
  149.9905  141.7130  155.6030 C   0  0  0  0  0  0  0  0  0  0  0  0
  149.9079  141.8127  157.1372 C   0  0  0  0  0  0  0  0  0  0  0  0
  150.8933  142.7607  157.6370 N   0  0  0  0  0  0  0  0  0  0  0  0
  151.4142  142.3943  158.9484 C   0  0  1  0  0  0  0  0  0  0  0  0
  152.2408  141.0970  158.7893 C   0  0  0  0  0  0  0  0  0  0  0  0
  152.9443  140.6976  160.0915 C   0  0  0  0  0  0  0  0  0  0  0  0
  153.8321  141.8390  160.5956 C   0  0  0  0  0  0  0  0  0  0  0  0
  153.0078  143.1169  160.7979 C   0  0  0  0  0  0  0  0  0  0  0  0
  152.2744  143.5637  159.5106 C   0  0  2  0  0  0  0  0  0  0  0  0
  151.4535  144.8502  159.7914 C   0  0  0  0  0  0  0  0  0  0  0  0
  150.9271  145.3266  158.6626 F   0  0  0  0  0  0  0  0  0  0  0  0
  150.4625  144.5785  160.6409 F   0  0  0  0  0  0  0  0  0  0  0  0
  152.2019  145.8024  160.3480 F   0  0  0  0  0  0  0  0  0  0  0  0
  149.1254  137.6390  153.4996 H   0  0  0  0  0  0  0  0  0  0  0  0
  151.2663  136.7607  154.1331 H   0  0  0  0  0  0  0  0  0  0  0  0
  152.1598  140.5049  156.0979 H   0  0  0  0  0  0  0  0  0  0  0  0
  150.7828  142.3745  155.2493 H   0  0  0  0  0  0  0  0  0  0  0  0
  149.0798  142.1065  155.1484 H   0  0  0  0  0  0  0  0  0  0  0  0
  148.9055  142.1166  157.4419 H   0  0  0  0  0  0  0  0  0  0  0  0
  150.0930  140.8316  157.5736 H   0  0  0  0  0  0  0  0  0  0  0  0
  151.6461  142.8837  156.9745 H   0  0  0  0  0  0  0  0  0  0  0  0
  150.5875  142.2174  159.6380 H   0  0  0  0  0  0  0  0  0  0  0  0
  151.6045  140.2730  158.4666 H   0  0  0  0  0  0  0  0  0  0  0  0
  152.9910  141.2290  158.0079 H   0  0  0  0  0  0  0  0  0  0  0  0
  152.2019  140.4435  160.8490 H   0  0  0  0  0  0  0  0  0  0  0  0
  153.5443  139.8015  159.9310 H   0  0  0  0  0  0  0  0  0  0  0  0
  154.3095  141.5522  161.5331 H   0  0  0  0  0  0  0  0  0  0  0  0
  154.6357  142.0268  159.8824 H   0  0  0  0  0  0  0  0  0  0  0  0
  152.2823  142.9511  161.5952 H   0  0  0  0  0  0  0  0  0  0  0  0
  153.6687  143.9100  161.1477 H   0  0  0  0  0  0  0  0  0  0  0  0
  153.0386  143.8105  158.7713 H   0  0  0  0  0  0  0  0  0  0  0  0
  1  2  2  0  0  0  0
  2 10  1  0  0  0  0
  2  3  1  0  0  0  0
  3  4  2  0  0  0  0
  3 24  1  0  0  0  0
  4  5  1  0  0  0  0
  4 25  1  0  0  0  0
  5  6  1  0  0  0  0
  5  9  2  0  0  0  0
  6  7  2  0  0  0  0
  6  8  1  0  0  0  0
  9 10  1  0  0  0  0
  9 26  1  0  0  0  0
 10 11  1  0  0  0  0
 11 12  1  0  0  0  0
 11 27  1  0  0  0  0
 11 28  1  0  0  0  0
 12 13  1  0  0  0  0
 12 29  1  0  0  0  0
 12 30  1  0  0  0  0
 13 14  1  0  0  0  0
 13 31  1  0  0  0  0
 14 19  1  0  0  0  0
 14 15  1  0  0  0  0
 14 32  1  0  0  0  0
 15 16  1  0  0  0  0
 15 33  1  0  0  0  0
 15 34  1  0  0  0  0
 16 17  1  0  0  0  0
 16 35  1  0  0  0  0
 16 36  1  0  0  0  0
 17 18  1  0  0  0  0
 17 37  1  0  0  0  0
 17 38  1  0  0  0  0
 18 19  1  0  0  0  0
 18 39  1  0  0  0  0
 18 40  1  0  0  0  0
 19 20  1  0  0  0  0
 19 41  1  0  0  0  0
 20 21  1  0  0  0  0
 20 22  1  0  0  0  0
 20 23  1  0  0  0  0
M  CHG  1   6   1
M  CHG  1   8  -1
M  END
> <s_m_source_file>
AV-unprocessed.smi

> <i_m_source_file_index>
3029

> <i_lp_mmshare_version>
43012

> <i_f3d_flags>
0

> <s_epik_input>
Tz1jMVtjSF1bY0hdYyhbTitdKD1PKVtPLV0pW2NIXW4xW0NIMl1bQ0gyXVtOSF1bQ0BASF0yW0NIMl1bQ0gyXVtDSDJdW0NIMl1bQ0BIXTJDKEYpKEYpRg==

> <s_epik_cmdline>
J2VwaWtfcHl0aG9uJywgJy1waCcsICc3LjAnLCAnLXRuJywgJzgnLCAnLW1hJywgJzIwMCcsICctbWV0YWxfYmluZGluZycsICctaW1hZScsICc8aW5maWxlLm1hZT4nLCAnLW9tYWUnLCAnPG91dGZpbGUubWFlPic=

> <r_lp_tautomer_probability>
1

> <r_epik_Ionization_Penalty>
1.65565

> <r_epik_Ionization_Penalty_Charging>
3.32684e-10

> <r_epik_Ionization_Penalty_Neutral>
1.65565

> <r_epik_State_Penalty>
1.75811

> <r_epik_Charging_Adjusted_Penalty>
1.75811

> <i_epik_Tot_Q>
0

> <i_epik_Tot_abs_Q>
2

> <r_epik_Metal_State_Penalty>
1.75811

> <b_epik_Metal_Only>
0

> <s_lp_Force_Field>
OPLS_2005

> <r_lp_Energy>
36.7279

> <b_lp_Chiralities_Consistent>
1

> <s_lp_Variant>
AV-unprocessed.smi:3029-8

> <Gold.Version>
5.8.1

> <Gold.Id.Protein>
6NUR|6NUR_protein|mol2

> <Gold.PLP.Fitness>
51.0404

> <Gold.PLP.PLP>
-51.2115

> <Gold.PLP.part.hbond>
-1.6727

> <Gold.PLP.part.metal>
0.0000

> <Gold.PLP.part.buried>
-1.6752

> <Gold.PLP.part.nonpolar>
-47.3150

> <Gold.PLP.part.repulsive>
0.1228

> <Gold.PLP.ligand.clash>
0.0000

> <Gold.PLP.ligand.torsion>
1.8697

> <Gold.PLP.Chemscore.Hbond>
1.1680

> <Gold.PLP.Chemscore.CHOScore>
0.0000

> <Gold.PLP.Chemscore.Metal>
0.0000

> <Gold.Chemscore.Hbonds>
donor molecule, donor type, donor heavy atom, donor atom, acceptor molecule, acceptor atom, score
      P1  H  7997  8009       L1     8  0.56
      P1  H 10752 10765       L1     7  0.66

> <Gold.PLP.Chemscore.Internal.Correction>
0.0643

> <Gold.Rescore>
     Score         DG    S(hbond)    S(metal)    S(lipo)     H(rot)  DE(clash)    DE(int)     intcor
     15.32     -18.54       1.36        0.00     113.62       1.86       0.31       2.92       ----

> <Gold.Chemscore.Fitness>
15.3174

> <Gold.Chemscore.DG>
-18.5430

> <Gold.Chemscore.ZeroCoef>
-5.4800

> <Gold.Chemscore.Hbond>
1.3554

> <Gold.Chemscore.Metal>
0.0000

> <Gold.Chemscore.Lipo>
113.6190

> <Gold.Chemscore.Internal_Hbond>
0.0000

> <Gold.Chemscore.DEClash>
0.3060

> <Gold.Chemscore.DEInternal>
2.9196

> <Gold.Chemscore.Rot>
1.8584

> <Gold.Chemscore.Internal.Correction>
   9.000000E+99

> <Gold.Chemscore.Hbonds>
donor molecule, donor type, donor heavy atom, donor atom, acceptor molecule, acceptor atom, score
      P1  H  7997  8009       L1     8  0.53
      P1  H 10752 10765       L1     7  0.42

> <Gold.Chemscore.Hbond.Weighted>
-4.5272

> <Gold.Chemscore.Metal.Weighted>
-0.0000

> <Gold.Chemscore.Lipo.Weighted>
-13.2934

> <Gold.Chemscore.Internal_Hbond.Weighted>
0.0000

> <Gold.Chemscore.DEClash.Weighted>
0.3060

> <Gold.Chemscore.DEInternal.Weighted>
2.9196

> <Gold.Chemscore.Rot.Weighted>
4.7576

> <Gold.Chemscore.Internal.Correction.Weighted>
   9.000000E+99

> <Gold.Protein.RotatedTorsions>
[ 6907 6896 6895 6894 ] final -147.14 input  -60.11 | X-H torsion
[ 7974 7965 7964 7962 ] final  136.48 input  175.53 | X-H torsion
[ 8008 7997 7996 7995 ] final -125.96 input   59.86 | X-H torsion
[ 10167 10162 10161 10158 ] final -147.61 input  -65.29 | X-H torsion
[ 10718 10713 10712 10709 ] final   28.37 input   66.30 | X-H torsion
[ 10763 10752 10751 10750 ] final -135.88 input  -60.55 | X-H torsion
[ 11005 11000 10999 10996 ] final  -96.97 input  -57.11 | X-H torsion

> <Gold.Protein.ActiveResidues>
 VAL166  LYS551  ARG553  GLY616  TRP617  ASP618  TYR619  PRO620  LYS621  CYS622 
 ASP623  PHE694  ASN695  SER759  ASP760  ASP761  ALA762  ILE779  LEU786  VAL792 
 PHE793  MET794  SER795  GLU796  ALA797  LYS798  CYS799  TRP800  GLU811  SER814 

> <Gold.Protein.RotatedAtoms>
  151.1514  133.4905  159.2595 H   0  0  0  0  0  0  0  0  0  0  0  0  # atno 6907 bound_to 6896
  151.1550  135.0245  159.8695 H   0  0  0  0  0  0  0  0  0  0  0  0  # atno 6908 bound_to 6896
  152.5463  134.1394  159.8526 H   0  0  0  0  0  0  0  0  0  0  0  0  # atno 6909 bound_to 6896
  144.9561  139.4763  143.5502 H   0  0  0  0  0  0  0  0  0  0  0  0  # atno 7974 bound_to 7965
  155.2218  140.0422  157.2949 H   0  0  0  0  0  0  0  0  0  0  0  0  # atno 8008 bound_to 7997
  154.5945  140.2435  155.7847 H   0  0  0  0  0  0  0  0  0  0  0  0  # atno 8009 bound_to 7997
  156.2281  140.2948  156.0126 H   0  0  0  0  0  0  0  0  0  0  0  0  # atno 8010 bound_to 7997
  139.7607  143.8381  152.2606 H   0  0  0  0  0  0  0  0  0  0  0  0  # atno 10167 bound_to 10162
  157.2326  130.7031  149.6320 H   0  0  0  0  0  0  0  0  0  0  0  0  # atno 10718 bound_to 10713
  154.8694  135.3689  154.4971 H   0  0  0  0  0  0  0  0  0  0  0  0  # atno 10763 bound_to 10752
  153.5614  135.7023  153.5550 H   0  0  0  0  0  0  0  0  0  0  0  0  # atno 10764 bound_to 10752
  153.3624  135.4043  155.1692 H   0  0  0  0  0  0  0  0  0  0  0  0  # atno 10765 bound_to 10752
  141.1394  133.8137  157.0643 H   0  0  0  0  0  0  0  0  0  0  0  0  # atno 11005 bound_to 11000
  146.3338  139.8679  142.8845 LP  0  0  0  0  0  0  0  0  0  0  0  0  # atno 17320 bound_to 7965
  145.2770  141.0127  143.3739 LP  0  0  0  0  0  0  0  0  0  0  0  0  # atno 17321 bound_to 7965
  139.8387  144.7220  150.9359 LP  0  0  0  0  0  0  0  0  0  0  0  0  # atno 17342 bound_to 10162
  140.7807  143.4003  151.1160 LP  0  0  0  0  0  0  0  0  0  0  0  0  # atno 17343 bound_to 10162
  155.9674  130.4484  150.5618 LP  0  0  0  0  0  0  0  0  0  0  0  0  # atno 17370 bound_to 10713
  157.3462  131.0725  151.1749 LP  0  0  0  0  0  0  0  0  0  0  0  0  # atno 17371 bound_to 10713
  140.0551  134.9785  157.1206 LP  0  0  0  0  0  0  0  0  0  0  0  0  # atno 17394 bound_to 11000
  140.3931  134.2163  155.7165 LP  0  0  0  0  0  0  0  0  0  0  0  0  # atno 17395 bound_to 11000

$$$$
