AV-unprocessed.smi:3056|AV-procd|sdf|11652|dock1
  -GOLD-   2272017 53D 1   1.00000     0.00000
 Structure written by MMmdl.
 48 49  0  0  0  0  0  0  0  0  2 V2000
  144.8489  132.1490  149.4844 C   0  0  0  0  0  0  0  0  0  0  0  0
  145.1136  133.3665  150.3225 C   0  0  0  0  0  0  0  0  0  0  0  0
  146.2222  133.6135  151.1806 C   0  0  0  0  0  0  0  0  0  0  0  0
  146.1531  134.7889  151.7842 N   0  0  0  0  0  0  0  0  0  0  0  0
  145.0036  135.3360  151.3339 N   0  0  0  0  0  0  0  0  0  0  0  0
  144.5935  136.6516  151.8091 C   0  0  1  0  0  0  0  0  0  0  0  0
  143.2852  136.5296  152.6115 C   0  0  0  0  0  0  0  0  0  0  0  0
  145.7291  137.3569  152.5978 C   0  0  1  0  0  0  0  0  0  0  0  0
  146.5834  138.2921  151.7226 C   0  0  0  0  0  0  0  0  0  0  0  0
  145.1720  138.1410  153.7228 N   0  3  0  0  0  0  0  0  0  0  0  0
  146.1360  138.4677  154.7966 C   0  0  0  0  0  0  0  0  0  0  0  0
  146.6831  139.8983  154.6806 C   0  0  0  0  0  0  0  0  0  0  0  0
  145.9523  140.8395  154.9948 O   0  0  0  0  0  0  0  0  0  0  0  0
  147.9492  140.0830  154.2359 N   0  0  0  0  0  0  0  0  0  0  0  0
  148.6411  141.3697  154.1082 C   0  0  0  0  0  0  0  0  0  0  0  0
  149.8502  141.3683  155.0601 C   0  0  0  0  0  0  0  0  0  0  0  0
  150.7024  140.2677  154.7533 O   0  0  0  0  0  0  0  0  0  0  0  0
  150.0514  139.0024  154.8532 C   0  0  2  0  0  0  0  0  0  0  0  0
  151.0752  137.9090  154.5294 C   0  0  0  0  0  0  0  0  0  0  0  0
  148.8479  138.9781  153.8894 C   0  0  0  0  0  0  0  0  0  0  0  0
  144.3559  134.4959  150.4503 C   0  0  0  0  0  0  0  0  0  0  0  0
  145.7638  131.5938  149.2764 H   0  0  0  0  0  0  0  0  0  0  0  0
  144.4066  132.4088  148.5225 H   0  0  0  0  0  0  0  0  0  0  0  0
  144.1622  131.4626  149.9797 H   0  0  0  0  0  0  0  0  0  0  0  0
  147.0697  132.9753  151.3832 H   0  0  0  0  0  0  0  0  0  0  0  0
  144.3753  137.2580  150.9276 H   0  0  0  0  0  0  0  0  0  0  0  0
  142.8714  137.5085  152.8529 H   0  0  0  0  0  0  0  0  0  0  0  0
  143.4372  135.9915  153.5477 H   0  0  0  0  0  0  0  0  0  0  0  0
  142.5261  135.9936  152.0407 H   0  0  0  0  0  0  0  0  0  0  0  0
  146.4010  136.5931  152.9935 H   0  0  0  0  0  0  0  0  0  0  0  0
  147.1134  137.7470  150.9413 H   0  0  0  0  0  0  0  0  0  0  0  0
  147.3384  138.8047  152.3198 H   0  0  0  0  0  0  0  0  0  0  0  0
  145.9691  139.0531  151.2399 H   0  0  0  0  0  0  0  0  0  0  0  0
  144.8170  139.0122  153.3550 H   0  0  0  0  0  0  0  0  0  0  0  0
  145.6456  138.3472  155.7628 H   0  0  0  0  0  0  0  0  0  0  0  0
  146.9674  137.7627  154.7487 H   0  0  0  0  0  0  0  0  0  0  0  0
  148.9779  141.4936  153.0780 H   0  0  0  0  0  0  0  0  0  0  0  0
  148.0141  142.2336  154.3218 H   0  0  0  0  0  0  0  0  0  0  0  0
  150.4172  142.2931  154.9522 H   0  0  0  0  0  0  0  0  0  0  0  0
  149.5259  141.3113  156.1003 H   0  0  0  0  0  0  0  0  0  0  0  0
  149.7043  138.8623  155.8786 H   0  0  0  0  0  0  0  0  0  0  0  0
  150.6296  136.9173  154.6105 H   0  0  0  0  0  0  0  0  0  0  0  0
  151.9199  137.9503  155.2174 H   0  0  0  0  0  0  0  0  0  0  0  0
  151.4644  138.0193  153.5170 H   0  0  0  0  0  0  0  0  0  0  0  0
  148.3585  138.0041  153.9348 H   0  0  0  0  0  0  0  0  0  0  0  0
  149.1843  139.0983  152.8584 H   0  0  0  0  0  0  0  0  0  0  0  0
  143.4165  134.7667  149.9911 H   0  0  0  0  0  0  0  0  0  0  0  0
  144.3981  137.6302  154.1233 H   0  0  0  0  0  0  0  0  0  0  0  0
  1  2  1  0  0  0  0
  1 22  1  0  0  0  0
  1 23  1  0  0  0  0
  1 24  1  0  0  0  0
  2 21  2  0  0  0  0
  2  3  1  0  0  0  0
  3  4  2  0  0  0  0
  3 25  1  0  0  0  0
  4  5  1  0  0  0  0
  5  6  1  0  0  0  0
  5 21  1  0  0  0  0
  6  7  1  0  0  0  0
  6  8  1  0  0  0  0
  6 26  1  0  0  0  0
  7 27  1  0  0  0  0
  7 28  1  0  0  0  0
  7 29  1  0  0  0  0
  8  9  1  0  0  0  0
  8 10  1  0  0  0  0
  8 30  1  0  0  0  0
  9 31  1  0  0  0  0
  9 32  1  0  0  0  0
  9 33  1  0  0  0  0
 10 11  1  0  0  0  0
 10 34  1  0  0  0  0
 10 48  1  0  0  0  0
 11 12  1  0  0  0  0
 11 35  1  0  0  0  0
 11 36  1  0  0  0  0
 12 13  2  0  0  0  0
 12 14  1  0  0  0  0
 14 20  1  0  0  0  0
 14 15  1  0  0  0  0
 15 16  1  0  0  0  0
 15 37  1  0  0  0  0
 15 38  1  0  0  0  0
 16 17  1  0  0  0  0
 16 39  1  0  0  0  0
 16 40  1  0  0  0  0
 17 18  1  0  0  0  0
 18 19  1  0  0  0  0
 18 20  1  0  0  0  0
 18 41  1  0  0  0  0
 19 42  1  0  0  0  0
 19 43  1  0  0  0  0
 19 44  1  0  0  0  0
 20 45  1  0  0  0  0
 20 46  1  0  0  0  0
 21 47  1  0  0  0  0
M  CHG  1  10   1
M  END
> <s_m_source_file>
AV-unprocessed.smi

> <i_m_source_file_index>
3056

> <i_lp_mmshare_version>
43012

> <i_f3d_flags>
0

> <s_epik_input>
W0NIM11jMVtjSF1ubihbY0hdMSlbQ0BIXShbQ0gzXSlbQ0BIXShbQ0gzXSlbTkhdW0NIMl1DKD1PKU4yW0NIMl1bQ0gyXU9bQ0BASF0oW0NIM10pW0NIMl0y

> <s_epik_cmdline>
J2VwaWtfcHl0aG9uJywgJy1waCcsICc3LjAnLCAnLXRuJywgJzgnLCAnLW1hJywgJzIwMCcsICctbWV0YWxfYmluZGluZycsICctaW1hZScsICc8aW5maWxlLm1hZT4nLCAnLW9tYWUnLCAnPG91dGZpbGUubWFlPic=

> <r_lp_tautomer_probability>
1

> <r_epik_Ionization_Penalty>
0.233715

> <r_epik_Ionization_Penalty_Charging>
0.233698

> <r_epik_Ionization_Penalty_Neutral>
1.68157e-05

> <r_epik_State_Penalty>
0.225221

> <r_epik_Charging_Adjusted_Penalty>
0.458919

> <i_epik_Tot_Q>
1

> <i_epik_Tot_abs_Q>
1

> <r_epik_Metal_State_Penalty>
0.225535

> <b_epik_Metal_Only>
0

> <s_lp_Force_Field>
OPLS_2005

> <r_lp_Energy>
28.8948

> <b_lp_Chiralities_Consistent>
1

> <s_lp_Variant>
AV-unprocessed.smi:3056-8

> <Gold.Version>
5.8.1

> <Gold.Id.Protein>
6NUR|6NUR_protein|mol2

> <Gold.PLP.Fitness>
44.9496

> <Gold.PLP.PLP>
-37.4154

> <Gold.PLP.part.hbond>
-2.0000

> <Gold.PLP.part.metal>
0.0000

> <Gold.PLP.part.buried>
0.0775

> <Gold.PLP.part.nonpolar>
-35.6875

> <Gold.PLP.part.repulsive>
0.7738

> <Gold.PLP.ligand.clash>
1.1286

> <Gold.PLP.ligand.torsion>
1.7607

> <Gold.PLP.Chemscore.Hbond>
3.0000

> <Gold.PLP.Chemscore.CHOScore>
1.0000

> <Gold.PLP.Chemscore.Metal>
0.0000

> <Gold.Chemscore.Hbonds>
donor molecule, donor type, donor heavy atom, donor atom, acceptor molecule, acceptor atom, score
      L1  H    10    34       P1 10175  1.92
      P1  H  7989  7998       L1    17  1.00
      L1  C    21    47       P1 10186  1.00

> <Gold.PLP.Chemscore.Internal.Correction>
0.1843

> <Gold.Rescore>
     Score         DG    S(hbond)    S(metal)    S(lipo)     H(rot)  DE(clash)    DE(int)     intcor
     14.92     -17.78       1.74        0.00      93.42       1.74       1.08       1.78       ----

> <Gold.Chemscore.Fitness>
14.9237

> <Gold.Chemscore.DG>
-17.7838

> <Gold.Chemscore.ZeroCoef>
-5.4800

> <Gold.Chemscore.Hbond>
1.7415

> <Gold.Chemscore.Metal>
0.0000

> <Gold.Chemscore.Lipo>
93.4178

> <Gold.Chemscore.Internal_Hbond>
0.0000

> <Gold.Chemscore.DEClash>
1.0841

> <Gold.Chemscore.DEInternal>
1.7760

> <Gold.Chemscore.Rot>
1.7354

> <Gold.Chemscore.Internal.Correction>
   9.000000E+99

> <Gold.Chemscore.Hbonds>
donor molecule, donor type, donor heavy atom, donor atom, acceptor molecule, acceptor atom, score
      L1  H    10    34       P1 10175  0.91
      P1  H  7989  7998       L1    17  0.35

> <Gold.Chemscore.Hbond.Weighted>
-5.8165

> <Gold.Chemscore.Metal.Weighted>
-0.0000

> <Gold.Chemscore.Lipo.Weighted>
-10.9299

> <Gold.Chemscore.Internal_Hbond.Weighted>
0.0000

> <Gold.Chemscore.DEClash.Weighted>
1.0841

> <Gold.Chemscore.DEInternal.Weighted>
1.7760

> <Gold.Chemscore.Rot.Weighted>
4.4426

> <Gold.Chemscore.Internal.Correction.Weighted>
   9.000000E+99

> <Gold.Protein.RotatedTorsions>
[ 6907 6896 6895 6894 ] final   38.18 input  -60.11 | X-H torsion
[ 7974 7965 7964 7962 ] final  -96.39 input  175.53 | X-H torsion
[ 8008 7997 7996 7995 ] final   29.34 input   59.86 | X-H torsion
[ 10167 10162 10161 10158 ] final -100.75 input  -65.29 | X-H torsion
[ 10718 10713 10712 10709 ] final  -45.84 input   66.30 | X-H torsion
[ 10763 10752 10751 10750 ] final -131.54 input  -60.55 | X-H torsion
[ 11005 11000 10999 10996 ] final   97.30 input  -57.11 | X-H torsion

> <Gold.Protein.ActiveResidues>
 VAL166  LYS551  ARG553  GLY616  TRP617  ASP618  TYR619  PRO620  LYS621  CYS622 
 ASP623  PHE694  ASN695  SER759  ASP760  ASP761  ALA762  ILE779  LEU786  VAL792 
 PHE793  MET794  SER795  GLU796  ALA797  LYS798  CYS799  TRP800  GLU811  SER814 

> <Gold.Protein.RotatedAtoms>
  152.1530  134.8973  160.0546 H   0  0  0  0  0  0  0  0  0  0  0  0  # atno 6907 bound_to 6896
  151.9998  133.3816  159.4185 H   0  0  0  0  0  0  0  0  0  0  0  0  # atno 6908 bound_to 6896
  150.6878  134.3769  159.5060 H   0  0  0  0  0  0  0  0  0  0  0  0  # atno 6909 bound_to 6896
  145.3475  140.9471  143.2573 H   0  0  0  0  0  0  0  0  0  0  0  0  # atno 7974 bound_to 7965
  155.0729  140.3202  155.4625 H   0  0  0  0  0  0  0  0  0  0  0  0  # atno 8008 bound_to 7997
  156.2786  140.2108  156.5802 H   0  0  0  0  0  0  0  0  0  0  0  0  # atno 8009 bound_to 7997
  154.7040  140.0504  157.0473 H   0  0  0  0  0  0  0  0  0  0  0  0  # atno 8010 bound_to 7997
  140.2486  143.3488  152.0736 H   0  0  0  0  0  0  0  0  0  0  0  0  # atno 10167 bound_to 10162
  156.2242  130.4168  149.8954 H   0  0  0  0  0  0  0  0  0  0  0  0  # atno 10718 bound_to 10713
  154.8750  135.3827  154.4263 H   0  0  0  0  0  0  0  0  0  0  0  0  # atno 10763 bound_to 10752
  153.4962  135.7030  153.5862 H   0  0  0  0  0  0  0  0  0  0  0  0  # atno 10764 bound_to 10752
  153.4214  135.3900  155.2080 H   0  0  0  0  0  0  0  0  0  0  0  0  # atno 10765 bound_to 10752
  139.8777  134.8994  156.4286 H   0  0  0  0  0  0  0  0  0  0  0  0  # atno 11005 bound_to 11000
  144.8743  139.4994  143.6753 LP  0  0  0  0  0  0  0  0  0  0  0  0  # atno 17320 bound_to 7965
  146.2982  139.7343  142.9111 LP  0  0  0  0  0  0  0  0  0  0  0  0  # atno 17321 bound_to 7965
  139.5053  144.6793  151.6049 LP  0  0  0  0  0  0  0  0  0  0  0  0  # atno 17342 bound_to 10162
  140.6058  143.9527  150.6418 LP  0  0  0  0  0  0  0  0  0  0  0  0  # atno 17343 bound_to 10162
  156.6590  130.8774  151.3544 LP  0  0  0  0  0  0  0  0  0  0  0  0  # atno 17370 bound_to 10713
  157.7102  130.9432  150.1065 LP  0  0  0  0  0  0  0  0  0  0  0  0  # atno 17371 bound_to 10713
  140.9083  133.7730  155.9761 LP  0  0  0  0  0  0  0  0  0  0  0  0  # atno 17394 bound_to 11000
  140.8575  134.2880  157.5249 LP  0  0  0  0  0  0  0  0  0  0  0  0  # atno 17395 bound_to 11000

$$$$
