AV-unprocessed.smi:1184|AV-procd|sdf|4969|dock1
  -GOLD-   22720 3563D 1   1.00000     0.00000
 Structure written by MMmdl.
 43 44  0  0  0  0  0  0  0  0  2 V2000
  145.5125  129.9976  152.2604 C   0  0  0  0  0  0  0  0  0  0  0  0
  146.5282  130.3597  153.3537 C   0  0  0  0  0  0  0  0  0  0  0  0
  147.3309  131.5527  152.9963 N   0  3  1  0  0  0  0  0  0  0  0  0
  146.5346  132.7513  152.6399 C   0  0  0  0  0  0  0  0  0  0  0  0
  147.2241  133.9581  153.2950 C   0  0  0  0  0  0  0  0  0  0  0  0
  148.6014  133.4384  153.7036 C   0  0  1  0  0  0  0  0  0  0  0  0
  149.2719  134.2232  154.8508 C   0  0  0  0  0  0  0  0  0  0  0  0
  149.6358  135.5709  154.4303 N   0  0  0  0  0  0  0  0  0  0  0  0
  150.0073  136.5646  155.2519 C   0  0  0  0  0  0  0  0  0  0  0  0
  150.2560  136.4036  156.4462 O   0  0  0  0  0  0  0  0  0  0  0  0
  150.0359  137.9651  154.6416 C   0  0  0  0  0  0  0  0  0  0  0  0
  150.9163  138.8450  155.4951 C   0  0  0  0  0  0  0  0  0  0  0  0
  152.3283  139.0189  155.4106 C   0  0  0  0  0  0  0  0  0  0  0  0
  153.2914  138.3883  154.4464 C   0  0  0  0  0  0  0  0  0  0  0  0
  152.7835  139.8308  156.3499 N   0  0  0  0  0  0  0  0  0  0  0  0
  151.6638  140.2319  157.0849 O   0  0  0  0  0  0  0  0  0  0  0  0
  150.5660  139.6331  156.5568 C   0  0  0  0  0  0  0  0  0  0  0  0
  149.2619  139.9192  157.2205 C   0  0  0  0  0  0  0  0  0  0  0  0
  148.3156  131.9687  154.0137 C   0  0  0  0  0  0  0  0  0  0  0  0
  144.8922  129.1577  152.5739 H   0  0  0  0  0  0  0  0  0  0  0  0
  146.0043  129.7099  151.3307 H   0  0  0  0  0  0  0  0  0  0  0  0
  144.8496  130.8359  152.0435 H   0  0  0  0  0  0  0  0  0  0  0  0
  145.9890  130.5681  154.2787 H   0  0  0  0  0  0  0  0  0  0  0  0
  147.1864  129.5137  153.5560 H   0  0  0  0  0  0  0  0  0  0  0  0
  146.5154  132.8498  151.5540 H   0  0  0  0  0  0  0  0  0  0  0  0
  145.5019  132.6714  152.9831 H   0  0  0  0  0  0  0  0  0  0  0  0
  147.2834  134.8197  152.6293 H   0  0  0  0  0  0  0  0  0  0  0  0
  146.6603  134.2612  154.1785 H   0  0  0  0  0  0  0  0  0  0  0  0
  149.2466  133.4753  152.8239 H   0  0  0  0  0  0  0  0  0  0  0  0
  148.6173  134.2645  155.7228 H   0  0  0  0  0  0  0  0  0  0  0  0
  150.1846  133.7182  155.1685 H   0  0  0  0  0  0  0  0  0  0  0  0
  149.4777  135.8009  153.4598 H   0  0  0  0  0  0  0  0  0  0  0  0
  150.4042  137.9071  153.6166 H   0  0  0  0  0  0  0  0  0  0  0  0
  149.0169  138.3487  154.5801 H   0  0  0  0  0  0  0  0  0  0  0  0
  153.5535  137.3792  154.7647 H   0  0  0  0  0  0  0  0  0  0  0  0
  154.2144  138.9633  154.3649 H   0  0  0  0  0  0  0  0  0  0  0  0
  152.8584  138.3187  153.4484 H   0  0  0  0  0  0  0  0  0  0  0  0
  148.5011  140.1769  156.4834 H   0  0  0  0  0  0  0  0  0  0  0  0
  149.3496  140.7522  157.9187 H   0  0  0  0  0  0  0  0  0  0  0  0
  148.9143  139.0475  157.7754 H   0  0  0  0  0  0  0  0  0  0  0  0
  147.8846  131.8723  155.0118 H   0  0  0  0  0  0  0  0  0  0  0  0
  149.2133  131.3521  153.9707 H   0  0  0  0  0  0  0  0  0  0  0  0
  147.8609  131.3194  152.1686 H   0  0  0  0  0  0  0  0  0  0  0  0
  1  2  1  0  0  0  0
  1 20  1  0  0  0  0
  1 21  1  0  0  0  0
  1 22  1  0  0  0  0
  2  3  1  0  0  0  0
  2 23  1  0  0  0  0
  2 24  1  0  0  0  0
  3 19  1  0  0  0  0
  3  4  1  0  0  0  0
  3 43  1  0  0  0  0
  4  5  1  0  0  0  0
  4 25  1  0  0  0  0
  4 26  1  0  0  0  0
  5  6  1  0  0  0  0
  5 27  1  0  0  0  0
  5 28  1  0  0  0  0
  6  7  1  0  0  0  0
  6 19  1  0  0  0  0
  6 29  1  0  0  0  0
  7  8  1  0  0  0  0
  7 30  1  0  0  0  0
  7 31  1  0  0  0  0
  8  9  1  0  0  0  0
  8 32  1  0  0  0  0
  9 10  2  0  0  0  0
  9 11  1  0  0  0  0
 11 12  1  0  0  0  0
 11 33  1  0  0  0  0
 11 34  1  0  0  0  0
 12 17  2  0  0  0  0
 12 13  1  0  0  0  0
 13 14  1  0  0  0  0
 13 15  2  0  0  0  0
 14 35  1  0  0  0  0
 14 36  1  0  0  0  0
 14 37  1  0  0  0  0
 15 16  1  0  0  0  0
 16 17  1  0  0  0  0
 17 18  1  0  0  0  0
 18 38  1  0  0  0  0
 18 39  1  0  0  0  0
 18 40  1  0  0  0  0
 19 41  1  0  0  0  0
 19 42  1  0  0  0  0
M  CHG  1   3   1
M  END
> <s_m_source_file>
AV-unprocessed.smi

> <i_m_source_file_index>
1184

> <i_lp_mmshare_version>
43012

> <i_f3d_flags>
0

> <s_epik_input>
W0NIM11bQ0gyXU4xW0NIMl1bQ0gyXVtDQEhdKFtDSDJdMSlbQ0gyXVtOSF1DKD1PKVtDSDJdYzJjKFtDSDNdKW5vYzJbQ0gzXQ==

> <s_epik_cmdline>
J2VwaWtfcHl0aG9uJywgJy1waCcsICc3LjAnLCAnLXRuJywgJzgnLCAnLW1hJywgJzIwMCcsICctbWV0YWxfYmluZGluZycsICctaW1hZScsICc8aW5maWxlLm1hZT4nLCAnLW9tYWUnLCAnPG91dGZpbGUubWFlPic=

> <r_epik_Ionization_Penalty>
0.000590726

> <r_epik_Ionization_Penalty_Charging>
0.000590692

> <r_epik_Ionization_Penalty_Neutral>
3.44741e-08

> <r_epik_State_Penalty>
0.000371644

> <r_epik_Charging_Adjusted_Penalty>
0.000962336

> <i_epik_Tot_Q>
1

> <i_epik_Tot_abs_Q>
1

> <r_epik_Metal_State_Penalty>
-0

> <b_epik_Metal_Only>
0

> <s_lp_Force_Field>
OPLS_2005

> <r_lp_Energy>
20.0287

> <b_lp_Chiralities_Consistent>
1

> <s_lp_Variant>
AV-unprocessed.smi:1184-1

> <Gold.Version>
5.8.1

> <Gold.Id.Protein>
6NUR|6NUR_protein|mol2

> <Gold.PLP.Fitness>
39.4357

> <Gold.PLP.PLP>
-32.2026

> <Gold.PLP.part.hbond>
-3.3452

> <Gold.PLP.part.metal>
0.0000

> <Gold.PLP.part.buried>
-3.6022

> <Gold.PLP.part.nonpolar>
-25.0027

> <Gold.PLP.part.repulsive>
0.0641

> <Gold.PLP.ligand.clash>
0.0000

> <Gold.PLP.ligand.torsion>
0.7789

> <Gold.PLP.Chemscore.Hbond>
2.9000

> <Gold.PLP.Chemscore.CHOScore>
0.0000

> <Gold.PLP.Chemscore.Metal>
0.0000

> <Gold.Chemscore.Hbonds>
donor molecule, donor type, donor heavy atom, donor atom, acceptor molecule, acceptor atom, score
      L1  H     3    43       P1 10747  0.47
      L1  H     8    32       P1  7948  1.00
      P1  H  7997  8009       L1    15  1.00

> <Gold.PLP.Chemscore.Internal.Correction>
0.0909

> <Gold.Rescore>
     Score         DG    S(hbond)    S(metal)    S(lipo)     H(rot)  DE(clash)    DE(int)     intcor
     16.38     -17.54       2.28        0.00      74.38       1.67       0.22       0.95       ----

> <Gold.Chemscore.Fitness>
16.3769

> <Gold.Chemscore.DG>
-17.5399

> <Gold.Chemscore.ZeroCoef>
-5.4800

> <Gold.Chemscore.Hbond>
2.2841

> <Gold.Chemscore.Metal>
0.0000

> <Gold.Chemscore.Lipo>
74.3780

> <Gold.Chemscore.Internal_Hbond>
0.0000

> <Gold.Chemscore.DEClash>
0.2156

> <Gold.Chemscore.DEInternal>
0.9474

> <Gold.Chemscore.Rot>
1.6684

> <Gold.Chemscore.Internal.Correction>
   9.000000E+99

> <Gold.Chemscore.Hbonds>
donor molecule, donor type, donor heavy atom, donor atom, acceptor molecule, acceptor atom, score
      L1  H     3    43       P1 10747  0.48
      L1  H     8    32       P1  7948  0.30
      P1  H  7997  8009       L1    15  0.96

> <Gold.Chemscore.Hbond.Weighted>
-7.6289

> <Gold.Chemscore.Metal.Weighted>
-0.0000

> <Gold.Chemscore.Lipo.Weighted>
-8.7022

> <Gold.Chemscore.Internal_Hbond.Weighted>
0.0000

> <Gold.Chemscore.DEClash.Weighted>
0.2156

> <Gold.Chemscore.DEInternal.Weighted>
0.9474

> <Gold.Chemscore.Rot.Weighted>
4.2712

> <Gold.Chemscore.Internal.Correction.Weighted>
   9.000000E+99

> <Gold.Protein.RotatedTorsions>
[ 6907 6896 6895 6894 ] final  145.64 input  -60.11 | X-H torsion
[ 7974 7965 7964 7962 ] final  -83.42 input  175.53 | X-H torsion
[ 8008 7997 7996 7995 ] final -179.52 input   59.86 | X-H torsion
[ 10167 10162 10161 10158 ] final  119.58 input  -65.29 | X-H torsion
[ 10718 10713 10712 10709 ] final  179.73 input   66.30 | X-H torsion
[ 10763 10752 10751 10750 ] final   37.60 input  -60.55 | X-H torsion
[ 11005 11000 10999 10996 ] final   65.72 input  -57.11 | X-H torsion

> <Gold.Protein.ActiveResidues>
 VAL166  LYS551  ARG553  GLY616  TRP617  ASP618  TYR619  PRO620  LYS621  CYS622 
 ASP623  PHE694  ASN695  SER759  ASP760  ASP761  ALA762  ILE779  LEU786  VAL792 
 PHE793  MET794  SER795  GLU796  ALA797  LYS798  CYS799  TRP800  GLU811  SER814 

> <Gold.Protein.RotatedAtoms>
  152.1783  133.4690  159.4944 H   0  0  0  0  0  0  0  0  0  0  0  0  # atno 6907 bound_to 6896
  150.6930  134.1866  159.4278 H   0  0  0  0  0  0  0  0  0  0  0  0  # atno 6908 bound_to 6896
  151.9776  135.0045  160.0606 H   0  0  0  0  0  0  0  0  0  0  0  0  # atno 6909 bound_to 6896
  145.5202  140.9532  143.1659 H   0  0  0  0  0  0  0  0  0  0  0  0  # atno 7974 bound_to 7965
  156.0315  140.1283  157.0253 H   0  0  0  0  0  0  0  0  0  0  0  0  # atno 8008 bound_to 7997
  154.4352  140.1048  156.6176 H   0  0  0  0  0  0  0  0  0  0  0  0  # atno 8009 bound_to 7997
  155.5800  140.3468  155.4540 H   0  0  0  0  0  0  0  0  0  0  0  0  # atno 8010 bound_to 7997
  139.6037  144.7064  151.3003 H   0  0  0  0  0  0  0  0  0  0  0  0  # atno 10167 bound_to 10162
  156.8714  130.9785  151.3073 H   0  0  0  0  0  0  0  0  0  0  0  0  # atno 10718 bound_to 10713
  153.0031  135.6273  154.2171 H   0  0  0  0  0  0  0  0  0  0  0  0  # atno 10763 bound_to 10752
  154.1914  135.2808  155.3022 H   0  0  0  0  0  0  0  0  0  0  0  0  # atno 10764 bound_to 10752
  154.5756  135.5663  153.7196 H   0  0  0  0  0  0  0  0  0  0  0  0  # atno 10765 bound_to 10752
  139.9877  134.6642  156.0147 H   0  0  0  0  0  0  0  0  0  0  0  0  # atno 11005 bound_to 11000
  144.7680  139.6800  143.7206 LP  0  0  0  0  0  0  0  0  0  0  0  0  # atno 17320 bound_to 7965
  146.2111  139.5468  142.9680 LP  0  0  0  0  0  0  0  0  0  0  0  0  # atno 17321 bound_to 7965
  140.7269  143.6978  150.7869 LP  0  0  0  0  0  0  0  0  0  0  0  0  # atno 17342 bound_to 10162
  140.0560  143.5202  152.2651 LP  0  0  0  0  0  0  0  0  0  0  0  0  # atno 17343 bound_to 10162
  157.6193  130.8643  149.9082 LP  0  0  0  0  0  0  0  0  0  0  0  0  # atno 17370 bound_to 10713
  156.0724  130.3683  150.0748 LP  0  0  0  0  0  0  0  0  0  0  0  0  # atno 17371 bound_to 10713
  141.1539  133.6545  156.4098 LP  0  0  0  0  0  0  0  0  0  0  0  0  # atno 17394 bound_to 11000
  140.4970  134.6521  157.5233 LP  0  0  0  0  0  0  0  0  0  0  0  0  # atno 17395 bound_to 11000

$$$$
