AV-unprocessed.smi:3150|AV-procd|sdf|12012|dock7
  -GOLD-   2272017423D 1   1.00000     0.00000
 Structure written by MMmdl.
 32 33  0  0  0  0  0  0  0  0  2 V2000
  151.5960  138.9158  155.2746 C   0  0  0  0  0  0  0  0  0  0  0  0
  151.2494  140.4101  155.3209 C   0  0  1  0  0  0  0  0  0  0  0  0
  150.0350  140.5989  154.5983 O   0  0  0  0  0  0  0  0  0  0  0  0
  148.9037  139.9272  155.1388 C   0  0  0  0  0  0  0  0  0  0  0  0
  147.6503  140.6451  154.6875 C   0  0  0  0  0  0  0  0  0  0  0  0
  147.3844  140.8694  153.2162 C   0  0  0  0  0  0  0  0  0  0  0  0
  147.7303  142.0375  154.1042 C   0  0  0  0  0  0  0  0  0  0  0  0
  151.0913  140.8862  156.7749 C   0  0  0  0  0  0  0  0  0  0  0  0
  150.0779  141.5208  157.0812 O   0  0  0  0  0  0  0  0  0  0  0  0
  152.1741  140.5100  157.5654 N   0  0  0  0  0  0  0  0  0  0  0  0
  152.5196  141.1324  158.6596 C   0  0  0  0  0  0  0  0  0  0  0  0
  151.8363  142.2550  159.1587 N   0  0  0  0  0  0  0  0  0  0  0  0
  152.2086  142.9107  160.3130 C   0  0  0  0  0  0  0  0  0  0  0  0
  153.2556  142.5101  161.0362 C   0  0  0  0  0  0  0  0  0  0  0  0
  154.0133  141.3586  160.5918 C   0  0  0  0  0  0  0  0  0  0  0  0
  153.6832  140.6541  159.4281 C   0  0  0  0  0  0  0  0  0  0  0  0
  154.3681  139.6640  159.0810 O   0  5  0  0  0  0  0  0  0  0  0  0
  152.5261  138.7090  155.8053 H   0  0  0  0  0  0  0  0  0  0  0  0
  151.7233  138.5802  154.2451 H   0  0  0  0  0  0  0  0  0  0  0  0
  150.8099  138.3089  155.7254 H   0  0  0  0  0  0  0  0  0  0  0  0
  152.0487  140.9644  154.8240 H   0  0  0  0  0  0  0  0  0  0  0  0
  148.8613  138.8860  154.8164 H   0  0  0  0  0  0  0  0  0  0  0  0
  148.9437  139.9377  156.2287 H   0  0  0  0  0  0  0  0  0  0  0  0
  146.7765  140.4315  155.3002 H   0  0  0  0  0  0  0  0  0  0  0  0
  148.1403  140.5372  152.5071 H   0  0  0  0  0  0  0  0  0  0  0  0
  146.3550  140.7849  152.8739 H   0  0  0  0  0  0  0  0  0  0  0  0
  146.9323  142.7330  154.3561 H   0  0  0  0  0  0  0  0  0  0  0  0
  148.7172  142.4818  153.9908 H   0  0  0  0  0  0  0  0  0  0  0  0
  151.5917  143.7582  160.5724 H   0  0  0  0  0  0  0  0  0  0  0  0
  153.5342  143.0355  161.9377 H   0  0  0  0  0  0  0  0  0  0  0  0
  154.8591  141.0431  161.1859 H   0  0  0  0  0  0  0  0  0  0  0  0
  151.0323  142.6261  158.6743 H   0  0  0  0  0  0  0  0  0  0  0  0
  1  2  1  0  0  0  0
  1 18  1  0  0  0  0
  1 19  1  0  0  0  0
  1 20  1  0  0  0  0
  2  3  1  0  0  0  0
  2  8  1  0  0  0  0
  2 21  1  0  0  0  0
  3  4  1  0  0  0  0
  4  5  1  0  0  0  0
  4 22  1  0  0  0  0
  4 23  1  0  0  0  0
  5  7  1  0  0  0  0
  5  6  1  0  0  0  0
  5 24  1  0  0  0  0
  6  7  1  0  0  0  0
  6 25  1  0  0  0  0
  6 26  1  0  0  0  0
  7 27  1  0  0  0  0
  7 28  1  0  0  0  0
  8  9  2  0  0  0  0
  8 10  1  0  0  0  0
 10 11  2  0  0  0  0
 11 16  1  0  0  0  0
 11 12  1  0  0  0  0
 12 32  1  0  0  0  0
 12 13  1  0  0  0  0
 13 29  1  0  0  0  0
 13 14  2  0  0  0  0
 14 30  1  0  0  0  0
 14 15  1  0  0  0  0
 15 16  2  0  0  0  0
 15 31  1  0  0  0  0
 16 17  1  0  0  0  0
M  CHG  1  17  -1
M  END
> <s_m_source_file>
AV-unprocessed.smi

> <i_m_source_file_index>
3150

> <i_lp_mmshare_version>
43012

> <i_f3d_flags>
0

> <s_epik_input>
W0NIMl0xW0NIMl1bQ0hdMVtDSDJdT1tDQEBIXShbQ0gzXSlDKD1PKVtOSF1jMm5bY0hdW2NIXVtjSF1jMltPSF0=

> <s_epik_cmdline>
J2VwaWtfcHl0aG9uJywgJy1waCcsICc3LjAnLCAnLXRuJywgJzgnLCAnLW1hJywgJzIwMCcsICctbWV0YWxfYmluZGluZycsICctaW1hZScsICc8aW5maWxlLm1hZT4nLCAnLW9tYWUnLCAnPG91dGZpbGUubWFlPic=

> <r_epik_Ionization_Penalty>
0.784632

> <r_epik_Ionization_Penalty_Charging>
0.784632

> <r_epik_Ionization_Penalty_Neutral>
7.02258e-13

> <r_epik_State_Penalty>
1.43154

> <r_epik_Charging_Adjusted_Penalty>
2.21617

> <i_epik_Tot_Q>
-1

> <i_epik_Tot_abs_Q>
1

> <r_epik_Metal_State_Penalty>
1.39244

> <b_epik_Metal_Only>
0

> <s_lp_Force_Field>
OPLS_2005

> <r_lp_Energy>
45.381

> <b_lp_Chiralities_Consistent>
1

> <s_lp_Variant>
AV-unprocessed.smi:3150-6

> <Gold.Version>
5.8.1

> <Gold.Id.Protein>
6NUR|6NUR_protein|mol2

> <Gold.PLP.Fitness>
37.5237

> <Gold.PLP.PLP>
-32.4985

> <Gold.PLP.part.hbond>
-2.1133

> <Gold.PLP.part.metal>
0.0000

> <Gold.PLP.part.buried>
-2.2576

> <Gold.PLP.part.nonpolar>
-28.1537

> <Gold.PLP.part.repulsive>
0.2646

> <Gold.PLP.ligand.clash>
0.0000

> <Gold.PLP.ligand.torsion>
0.7689

> <Gold.PLP.Chemscore.Hbond>
2.0000

> <Gold.PLP.Chemscore.CHOScore>
0.0000

> <Gold.PLP.Chemscore.Metal>
0.0000

> <Gold.Chemscore.Hbonds>
donor molecule, donor type, donor heavy atom, donor atom, acceptor molecule, acceptor atom, score
      P1  H  7997  8010       L1    17  2.00

> <Gold.PLP.Chemscore.Internal.Correction>
0.5631

> <Gold.Rescore>
     Score         DG    S(hbond)    S(metal)    S(lipo)     H(rot)  DE(clash)    DE(int)     intcor
     11.13     -13.22       0.85        0.00      77.72       1.64       0.03       2.07       ----

> <Gold.Chemscore.Fitness>
11.1255

> <Gold.Chemscore.DG>
-13.2245

> <Gold.Chemscore.ZeroCoef>
-5.4800

> <Gold.Chemscore.Hbond>
0.8522

> <Gold.Chemscore.Metal>
0.0000

> <Gold.Chemscore.Lipo>
77.7211

> <Gold.Chemscore.Internal_Hbond>
0.0000

> <Gold.Chemscore.DEClash>
0.0279

> <Gold.Chemscore.DEInternal>
2.0711

> <Gold.Chemscore.Rot>
1.6387

> <Gold.Chemscore.Internal.Correction>
   9.000000E+99

> <Gold.Chemscore.Hbonds>
donor molecule, donor type, donor heavy atom, donor atom, acceptor molecule, acceptor atom, score
      P1  H  7997  8010       L1    17  0.55

> <Gold.Chemscore.Hbond.Weighted>
-2.8462

> <Gold.Chemscore.Metal.Weighted>
-0.0000

> <Gold.Chemscore.Lipo.Weighted>
-9.0934

> <Gold.Chemscore.Internal_Hbond.Weighted>
0.0000

> <Gold.Chemscore.DEClash.Weighted>
0.0279

> <Gold.Chemscore.DEInternal.Weighted>
2.0711

> <Gold.Chemscore.Rot.Weighted>
4.1950

> <Gold.Chemscore.Internal.Correction.Weighted>
   9.000000E+99

> <Gold.Protein.RotatedTorsions>
[ 6907 6896 6895 6894 ] final   52.64 input  -60.11 | X-H torsion
[ 7974 7965 7964 7962 ] final   31.55 input  175.53 | X-H torsion
[ 8008 7997 7996 7995 ] final    7.78 input   59.86 | X-H torsion
[ 10167 10162 10161 10158 ] final  173.87 input  -65.29 | X-H torsion
[ 10718 10713 10712 10709 ] final  108.54 input   66.30 | X-H torsion
[ 10763 10752 10751 10750 ] final -105.77 input  -60.55 | X-H torsion
[ 11005 11000 10999 10996 ] final   -4.13 input  -57.11 | X-H torsion

> <Gold.Protein.ActiveResidues>
 VAL166  LYS551  ARG553  GLY616  TRP617  ASP618  TYR619  PRO620  LYS621  CYS622 
 ASP623  PHE694  ASN695  SER759  ASP760  ASP761  ALA762  ILE779  LEU786  VAL792 
 PHE793  MET794  SER795  GLU796  ALA797  LYS798  CYS799  TRP800  GLU811  SER814 

> <Gold.Protein.RotatedAtoms>
  152.3254  134.7327  160.0302 H   0  0  0  0  0  0  0  0  0  0  0  0  # atno 6907 bound_to 6896
  151.7762  133.3340  159.3466 H   0  0  0  0  0  0  0  0  0  0  0  0  # atno 6908 bound_to 6896
  150.7393  134.5905  159.6029 H   0  0  0  0  0  0  0  0  0  0  0  0  # atno 6909 bound_to 6896
  146.1543  139.6641  142.9077 H   0  0  0  0  0  0  0  0  0  0  0  0  # atno 7974 bound_to 7965
  154.7583  140.2780  155.6235 H   0  0  0  0  0  0  0  0  0  0  0  0  # atno 8008 bound_to 7997
  156.2910  140.2665  156.2281 H   0  0  0  0  0  0  0  0  0  0  0  0  # atno 8009 bound_to 7997
  155.0050  140.0372  157.2365 H   0  0  0  0  0  0  0  0  0  0  0  0  # atno 8010 bound_to 7997
  139.5122  144.3211  152.0201 H   0  0  0  0  0  0  0  0  0  0  0  0  # atno 10167 bound_to 10162
  157.6581  131.0896  150.6321 H   0  0  0  0  0  0  0  0  0  0  0  0  # atno 10718 bound_to 10713
  154.7968  135.4737  154.0180 H   0  0  0  0  0  0  0  0  0  0  0  0  # atno 10763 bound_to 10752
  153.1717  135.6826  153.8606 H   0  0  0  0  0  0  0  0  0  0  0  0  # atno 10764 bound_to 10752
  153.8186  135.3207  155.3386 H   0  0  0  0  0  0  0  0  0  0  0  0  # atno 10765 bound_to 10752
  140.6769  133.9188  155.8530 H   0  0  0  0  0  0  0  0  0  0  0  0  # atno 11005 bound_to 11000
  145.4748  141.0437  143.2679 LP  0  0  0  0  0  0  0  0  0  0  0  0  # atno 17320 bound_to 7965
  144.7943  139.6266  143.7099 LP  0  0  0  0  0  0  0  0  0  0  0  0  # atno 17321 bound_to 7965
  140.2653  144.4023  150.6170 LP  0  0  0  0  0  0  0  0  0  0  0  0  # atno 17342 bound_to 10162
  140.6127  143.2170  151.6853 LP  0  0  0  0  0  0  0  0  0  0  0  0  # atno 17343 bound_to 10162
  156.6625  130.4516  149.5683 LP  0  0  0  0  0  0  0  0  0  0  0  0  # atno 17370 bound_to 10713
  156.2056  130.6647  151.1215 LP  0  0  0  0  0  0  0  0  0  0  0  0  # atno 17371 bound_to 10713
  141.0348  134.0704  157.3972 LP  0  0  0  0  0  0  0  0  0  0  0  0  # atno 17394 bound_to 11000
  139.8964  135.0145  156.7049 LP  0  0  0  0  0  0  0  0  0  0  0  0  # atno 17395 bound_to 11000

$$$$
