AV-unprocessed.smi:3029|AV-procd|sdf|11528|dock6
  -GOLD-   2272016473D 1   1.00000     0.00000
 Structure written by MMmdl.
 42 43  0  0  0  0  0  0  0  0  4 V2000
  146.7105  140.3004  155.6326 O   0  0  0  0  0  0  0  0  0  0  0  0
  147.8581  139.9081  155.4210 C   0  0  0  0  0  0  0  0  0  0  0  0
  148.9516  140.1472  156.3684 C   0  0  0  0  0  0  0  0  0  0  0  0
  150.2089  139.7312  156.1183 C   0  0  0  0  0  0  0  0  0  0  0  0
  150.5203  139.0285  154.8883 C   0  0  0  0  0  0  0  0  0  0  0  0
  151.8690  138.5931  154.6005 N   0  3  0  0  0  0  0  0  0  0  0  0
  152.0441  137.4774  154.1198 O   0  0  0  0  0  0  0  0  0  0  0  0
  152.7981  139.3558  154.8448 O   0  5  0  0  0  0  0  0  0  0  0  0
  149.5116  138.8024  154.0236 C   0  0  0  0  0  0  0  0  0  0  0  0
  148.1941  139.2256  154.2848 N   0  0  0  0  0  0  0  0  0  0  0  0
  147.1810  138.9233  153.2649 C   0  0  0  0  0  0  0  0  0  0  0  0
  146.2140  137.8273  153.7409 C   0  0  0  0  0  0  0  0  0  0  0  0
  146.8455  136.4946  153.6496 N   0  3  0  0  0  0  0  0  0  0  0  0
  145.9795  135.4158  153.1193 C   0  0  1  0  0  0  0  0  0  0  0  0
  145.2759  135.8980  151.8298 C   0  0  0  0  0  0  0  0  0  0  0  0
  144.4057  134.8032  151.2009 C   0  0  0  0  0  0  0  0  0  0  0  0
  145.2364  133.5486  150.9149 C   0  0  0  0  0  0  0  0  0  0  0  0
  145.9128  133.0423  152.1953 C   0  0  0  0  0  0  0  0  0  0  0  0
  146.8021  134.1192  152.8611 C   0  0  2  0  0  0  0  0  0  0  0  0
  147.4604  133.5440  154.1416 C   0  0  0  0  0  0  0  0  0  0  0  0
  146.5307  133.1215  154.9985 F   0  0  0  0  0  0  0  0  0  0  0  0
  148.2493  132.5169  153.8256 F   0  0  0  0  0  0  0  0  0  0  0  0
  148.2177  134.4573  154.7489 F   0  0  0  0  0  0  0  0  0  0  0  0
  148.7422  140.6699  157.2905 H   0  0  0  0  0  0  0  0  0  0  0  0
  150.9810  139.9296  156.8471 H   0  0  0  0  0  0  0  0  0  0  0  0
  149.6408  138.2929  153.0792 H   0  0  0  0  0  0  0  0  0  0  0  0
  146.6195  139.8253  153.0162 H   0  0  0  0  0  0  0  0  0  0  0  0
  147.6593  138.6221  152.3307 H   0  0  0  0  0  0  0  0  0  0  0  0
  145.9191  138.0107  154.7750 H   0  0  0  0  0  0  0  0  0  0  0  0
  145.3067  137.8518  153.1374 H   0  0  0  0  0  0  0  0  0  0  0  0
  147.6793  136.5556  153.0830 H   0  0  0  0  0  0  0  0  0  0  0  0
  145.2192  135.1862  153.8675 H   0  0  0  0  0  0  0  0  0  0  0  0
  144.6485  136.7651  152.0350 H   0  0  0  0  0  0  0  0  0  0  0  0
  146.0218  136.2249  151.1037 H   0  0  0  0  0  0  0  0  0  0  0  0
  143.5818  134.5561  151.8718 H   0  0  0  0  0  0  0  0  0  0  0  0
  143.9550  135.1697  150.2781 H   0  0  0  0  0  0  0  0  0  0  0  0
  144.5995  132.7682  150.4969 H   0  0  0  0  0  0  0  0  0  0  0  0
  145.9923  133.7690  150.1600 H   0  0  0  0  0  0  0  0  0  0  0  0
  145.1472  132.7106  152.8978 H   0  0  0  0  0  0  0  0  0  0  0  0
  146.5067  132.1602  151.9538 H   0  0  0  0  0  0  0  0  0  0  0  0
  147.6017  134.3616  152.1590 H   0  0  0  0  0  0  0  0  0  0  0  0
  147.1161  136.2324  154.5871 H   0  0  0  0  0  0  0  0  0  0  0  0
  1  2  2  0  0  0  0
  2 10  1  0  0  0  0
  2  3  1  0  0  0  0
  3  4  2  0  0  0  0
  3 24  1  0  0  0  0
  4  5  1  0  0  0  0
  4 25  1  0  0  0  0
  5  6  1  0  0  0  0
  5  9  2  0  0  0  0
  6  7  2  0  0  0  0
  6  8  1  0  0  0  0
  9 10  1  0  0  0  0
  9 26  1  0  0  0  0
 10 11  1  0  0  0  0
 11 12  1  0  0  0  0
 11 27  1  0  0  0  0
 11 28  1  0  0  0  0
 12 13  1  0  0  0  0
 12 29  1  0  0  0  0
 12 30  1  0  0  0  0
 13 14  1  0  0  0  0
 13 31  1  0  0  0  0
 13 42  1  0  0  0  0
 14 19  1  0  0  0  0
 14 15  1  0  0  0  0
 14 32  1  0  0  0  0
 15 16  1  0  0  0  0
 15 33  1  0  0  0  0
 15 34  1  0  0  0  0
 16 17  1  0  0  0  0
 16 35  1  0  0  0  0
 16 36  1  0  0  0  0
 17 18  1  0  0  0  0
 17 37  1  0  0  0  0
 17 38  1  0  0  0  0
 18 19  1  0  0  0  0
 18 39  1  0  0  0  0
 18 40  1  0  0  0  0
 19 20  1  0  0  0  0
 19 41  1  0  0  0  0
 20 21  1  0  0  0  0
 20 22  1  0  0  0  0
 20 23  1  0  0  0  0
M  CHG  1   6   1
M  CHG  1   8  -1
M  CHG  1  13   1
M  END
> <s_m_source_file>
AV-unprocessed.smi

> <i_m_source_file_index>
3029

> <i_lp_mmshare_version>
43012

> <i_f3d_flags>
0

> <s_epik_input>
Tz1jMVtjSF1bY0hdYyhbTitdKD1PKVtPLV0pW2NIXW4xW0NIMl1bQ0gyXVtOSF1bQ0BASF0yW0NIMl1bQ0gyXVtDSDJdW0NIMl1bQ0BIXTJDKEYpKEYpRg==

> <s_epik_cmdline>
J2VwaWtfcHl0aG9uJywgJy1waCcsICc3LjAnLCAnLXRuJywgJzgnLCAnLW1hJywgJzIwMCcsICctbWV0YWxfYmluZGluZycsICctaW1hZScsICc8aW5maWxlLm1hZT4nLCAnLW9tYWUnLCAnPG91dGZpbGUubWFlPic=

> <r_lp_tautomer_probability>
1

> <r_epik_Ionization_Penalty>
0.037386

> <r_epik_Ionization_Penalty_Charging>
0.037386

> <r_epik_Ionization_Penalty_Neutral>
0

> <r_epik_State_Penalty>
0.0312892

> <r_epik_Charging_Adjusted_Penalty>
0.0686752

> <i_epik_Tot_Q>
1

> <i_epik_Tot_abs_Q>
3

> <r_epik_Metal_State_Penalty>
0.0312892

> <b_epik_Metal_Only>
0

> <s_lp_Force_Field>
OPLS_2005

> <r_lp_Energy>
31.4453

> <b_lp_Chiralities_Consistent>
1

> <s_lp_Variant>
AV-unprocessed.smi:3029-4

> <Gold.Version>
5.8.1

> <Gold.Id.Protein>
6NUR|6NUR_protein|mol2

> <Gold.PLP.Fitness>
46.6490

> <Gold.PLP.PLP>
-32.6052

> <Gold.PLP.part.hbond>
-3.7780

> <Gold.PLP.part.metal>
0.0000

> <Gold.PLP.part.buried>
-0.3405

> <Gold.PLP.part.nonpolar>
-28.8058

> <Gold.PLP.part.repulsive>
0.2071

> <Gold.PLP.ligand.clash>
0.0000

> <Gold.PLP.ligand.torsion>
1.2651

> <Gold.PLP.Chemscore.Hbond>
3.8702

> <Gold.PLP.Chemscore.CHOScore>
1.6345

> <Gold.PLP.Chemscore.Metal>
0.0000

> <Gold.Chemscore.Hbonds>
donor molecule, donor type, donor heavy atom, donor atom, acceptor molecule, acceptor atom, score
      L1  H    13    31       P1  7948  2.00
      P1  H  7989  7998       L1     8  0.05
      P1  H  7997  8009       L1     8  0.76
      P1  H 10752 10765       L1     7  0.91
      L1  C     9    26       P1  7948  1.00
      L1  C     9    26       P1  7957  0.53

> <Gold.PLP.Chemscore.Internal.Correction>
0.0598

> <Gold.Rescore>
     Score         DG    S(hbond)    S(metal)    S(lipo)     H(rot)  DE(clash)    DE(int)     intcor
     14.89     -17.37       2.84        0.00      62.17       1.90       0.08       2.40       ----

> <Gold.Chemscore.Fitness>
14.8897

> <Gold.Chemscore.DG>
-17.3714

> <Gold.Chemscore.ZeroCoef>
-5.4800

> <Gold.Chemscore.Hbond>
2.8416

> <Gold.Chemscore.Metal>
0.0000

> <Gold.Chemscore.Lipo>
62.1710

> <Gold.Chemscore.Internal_Hbond>
0.0000

> <Gold.Chemscore.DEClash>
0.0786

> <Gold.Chemscore.DEInternal>
2.4032

> <Gold.Chemscore.Rot>
1.9037

> <Gold.Chemscore.Internal.Correction>
   9.000000E+99

> <Gold.Chemscore.Hbonds>
donor molecule, donor type, donor heavy atom, donor atom, acceptor molecule, acceptor atom, score
      L1  H    13    31       P1  7948  1.00
      P1  H  7997  8009       L1     8  0.75
      P1  H 10752 10765       L1     7  0.85

> <Gold.Chemscore.Hbond.Weighted>
-9.4910

> <Gold.Chemscore.Metal.Weighted>
-0.0000

> <Gold.Chemscore.Lipo.Weighted>
-7.2740

> <Gold.Chemscore.Internal_Hbond.Weighted>
0.0000

> <Gold.Chemscore.DEClash.Weighted>
0.0786

> <Gold.Chemscore.DEInternal.Weighted>
2.4032

> <Gold.Chemscore.Rot.Weighted>
4.8736

> <Gold.Chemscore.Internal.Correction.Weighted>
   9.000000E+99

> <Gold.Protein.RotatedTorsions>
[ 6907 6896 6895 6894 ] final   40.77 input  -60.11 | X-H torsion
[ 7974 7965 7964 7962 ] final   87.39 input  175.53 | X-H torsion
[ 8008 7997 7996 7995 ] final -135.77 input   59.86 | X-H torsion
[ 10167 10162 10161 10158 ] final  119.95 input  -65.29 | X-H torsion
[ 10718 10713 10712 10709 ] final -109.61 input   66.30 | X-H torsion
[ 10763 10752 10751 10750 ] final  154.67 input  -60.55 | X-H torsion
[ 11005 11000 10999 10996 ] final  -29.00 input  -57.11 | X-H torsion

> <Gold.Protein.ActiveResidues>
 VAL166  LYS551  ARG553  GLY616  TRP617  ASP618  TYR619  PRO620  LYS621  CYS622 
 ASP623  PHE694  ASN695  SER759  ASP760  ASP761  ALA762  ILE779  LEU786  VAL792 
 PHE793  MET794  SER795  GLU796  ALA797  LYS798  CYS799  TRP800  GLU811  SER814 

> <Gold.Protein.RotatedAtoms>
  152.1868  134.8707  160.0521 H   0  0  0  0  0  0  0  0  0  0  0  0  # atno 6907 bound_to 6896
  151.9610  133.3690  159.4043 H   0  0  0  0  0  0  0  0  0  0  0  0  # atno 6908 bound_to 6896
  150.6927  134.4164  159.5229 H   0  0  0  0  0  0  0  0  0  0  0  0  # atno 6909 bound_to 6896
  145.5596  139.2302  143.2467 H   0  0  0  0  0  0  0  0  0  0  0  0  # atno 7974 bound_to 7965
  155.3842  140.0496  157.3043 H   0  0  0  0  0  0  0  0  0  0  0  0  # atno 8008 bound_to 7997
  154.5068  140.2177  155.9198 H   0  0  0  0  0  0  0  0  0  0  0  0  # atno 8009 bound_to 7997
  156.1534  140.3131  155.8692 H   0  0  0  0  0  0  0  0  0  0  0  0  # atno 8010 bound_to 7997
  139.6013  144.7057  151.3056 H   0  0  0  0  0  0  0  0  0  0  0  0  # atno 10167 bound_to 10162
  156.0546  130.5772  150.8123 H   0  0  0  0  0  0  0  0  0  0  0  0  # atno 10718 bound_to 10713
  154.1560  135.2812  155.3122 H   0  0  0  0  0  0  0  0  0  0  0  0  # atno 10763 bound_to 10752
  154.6182  135.5476  153.7550 H   0  0  0  0  0  0  0  0  0  0  0  0  # atno 10764 bound_to 10752
  153.0206  135.6432  154.1703 H   0  0  0  0  0  0  0  0  0  0  0  0  # atno 10765 bound_to 10752
  140.9258  133.7369  156.0866 H   0  0  0  0  0  0  0  0  0  0  0  0  # atno 11005 bound_to 11000
  146.1860  140.6421  142.9167 LP  0  0  0  0  0  0  0  0  0  0  0  0  # atno 17320 bound_to 7965
  144.7489  140.5141  143.6816 LP  0  0  0  0  0  0  0  0  0  0  0  0  # atno 17321 bound_to 7965
  140.7251  143.7025  150.7833 LP  0  0  0  0  0  0  0  0  0  0  0  0  # atno 17342 bound_to 10162
  140.0602  143.5162  152.2631 LP  0  0  0  0  0  0  0  0  0  0  0  0  # atno 17343 bound_to 10162
  157.5504  131.0943  150.9703 LP  0  0  0  0  0  0  0  0  0  0  0  0  # atno 17370 bound_to 10713
  156.9964  130.5583  149.5307 LP  0  0  0  0  0  0  0  0  0  0  0  0  # atno 17371 bound_to 10713
  140.7928  134.3598  157.5460 LP  0  0  0  0  0  0  0  0  0  0  0  0  # atno 17394 bound_to 11000
  139.8785  134.9150  156.3121 LP  0  0  0  0  0  0  0  0  0  0  0  0  # atno 17395 bound_to 11000

$$$$
