AV-unprocessed.smi:1207|AV-procd|sdf|5051|dock3
  -GOLD-   22720 4 83D 1   1.00000     0.00000
 Structure written by MMmdl.
 52 54  0  0  0  0  0  0  0  0  2 V2000
  153.1781  142.9590  161.3763 C   0  0  0  0  0  0  0  0  0  0  0  0
  152.5492  142.5091  160.0693 C   0  0  0  0  0  0  0  0  0  0  0  0
  153.0007  141.3140  159.4654 C   0  0  0  0  0  0  0  0  0  0  0  0
  152.4410  140.8600  158.2513 C   0  0  0  0  0  0  0  0  0  0  0  0
  152.7288  139.7380  157.4938 N   0  0  0  0  0  0  0  0  0  0  0  0
  151.8751  139.8702  156.4834 C   0  0  0  0  0  0  0  0  0  0  0  0
  151.0750  140.9542  156.4897 N   0  0  0  0  0  0  0  0  0  0  0  0
  150.0806  141.3113  155.4937 C   0  0  0  0  0  0  0  0  0  0  0  0
  150.0086  140.3049  154.3259 C   0  0  2  0  0  0  0  0  0  0  0  0
  149.3041  140.9313  153.2723 O   0  0  0  0  0  0  0  0  0  0  0  0
  149.3066  138.9795  154.7045 C   0  0  0  0  0  0  0  0  0  0  0  0
  150.0329  137.7565  154.2616 N   0  3  1  0  0  0  0  0  0  0  0  0
  151.4906  137.9731  154.0955 C   0  0  0  0  0  0  0  0  0  0  0  0
  149.7619  136.5766  155.1243 C   0  0  0  0  0  0  0  0  0  0  0  0
  149.9906  136.8694  156.5862 C   0  0  0  0  0  0  0  0  0  0  0  0
  149.1114  137.5295  157.4922 C   0  0  0  0  0  0  0  0  0  0  0  0
  147.7455  138.0949  157.2279 C   0  0  0  0  0  0  0  0  0  0  0  0
  149.6290  137.6211  158.7046 N   0  0  0  0  0  0  0  0  0  0  0  0
  150.8840  137.0095  158.6331 O   0  0  0  0  0  0  0  0  0  0  0  0
  151.0755  136.5673  157.3648 C   0  0  0  0  0  0  0  0  0  0  0  0
  152.3736  135.8842  157.0914 C   0  0  0  0  0  0  0  0  0  0  0  0
  151.4082  141.6400  157.6530 C   0  0  0  0  0  0  0  0  0  0  0  0
  150.9492  142.8297  158.2455 C   0  0  0  0  0  0  0  0  0  0  0  0
  151.5216  143.2707  159.4568 C   0  0  0  0  0  0  0  0  0  0  0  0
  151.0239  144.5602  160.0857 C   0  0  0  0  0  0  0  0  0  0  0  0
  153.9384  142.2550  161.7155 H   0  0  0  0  0  0  0  0  0  0  0  0
  152.4220  143.0350  162.1580 H   0  0  0  0  0  0  0  0  0  0  0  0
  153.6531  143.9329  161.2571 H   0  0  0  0  0  0  0  0  0  0  0  0
  153.7832  140.7334  159.9319 H   0  0  0  0  0  0  0  0  0  0  0  0
  151.8357  139.1416  155.6865 H   0  0  0  0  0  0  0  0  0  0  0  0
  149.1116  141.3781  155.9914 H   0  0  0  0  0  0  0  0  0  0  0  0
  150.3090  142.3112  155.1225 H   0  0  0  0  0  0  0  0  0  0  0  0
  151.0252  140.1109  153.9873 H   0  0  0  0  0  0  0  0  0  0  0  0
  149.1253  140.2925  152.5996 H   0  0  0  0  0  0  0  0  0  0  0  0
  149.1639  138.9151  155.7841 H   0  0  0  0  0  0  0  0  0  0  0  0
  148.3094  139.0025  154.2668 H   0  0  0  0  0  0  0  0  0  0  0  0
  151.9427  138.3189  155.0261 H   0  0  0  0  0  0  0  0  0  0  0  0
  151.7025  138.7042  153.3163 H   0  0  0  0  0  0  0  0  0  0  0  0
  151.9910  137.0505  153.7992 H   0  0  0  0  0  0  0  0  0  0  0  0
  148.7278  136.2622  154.9791 H   0  0  0  0  0  0  0  0  0  0  0  0
  150.3729  135.7398  154.7834 H   0  0  0  0  0  0  0  0  0  0  0  0
  147.6678  138.4799  156.2111 H   0  0  0  0  0  0  0  0  0  0  0  0
  147.5128  138.9152  157.9080 H   0  0  0  0  0  0  0  0  0  0  0  0
  146.9779  137.3309  157.3538 H   0  0  0  0  0  0  0  0  0  0  0  0
  152.3762  135.4166  156.1071 H   0  0  0  0  0  0  0  0  0  0  0  0
  152.5652  135.1077  157.8322 H   0  0  0  0  0  0  0  0  0  0  0  0
  153.1980  136.5966  157.1270 H   0  0  0  0  0  0  0  0  0  0  0  0
  150.1624  143.3985  157.7727 H   0  0  0  0  0  0  0  0  0  0  0  0
  150.2320  145.0146  159.4895 H   0  0  0  0  0  0  0  0  0  0  0  0
  151.8361  145.2828  160.1688 H   0  0  0  0  0  0  0  0  0  0  0  0
  150.6252  144.3707  161.0824 H   0  0  0  0  0  0  0  0  0  0  0  0
  149.6716  137.5215  153.3483 H   0  0  0  0  0  0  0  0  0  0  0  0
  1  2  1  0  0  0  0
  1 26  1  0  0  0  0
  1 27  1  0  0  0  0
  1 28  1  0  0  0  0
  2 24  1  0  0  0  0
  2  3  2  0  0  0  0
  3  4  1  0  0  0  0
  3 29  1  0  0  0  0
  4 22  2  0  0  0  0
  4  5  1  0  0  0  0
  5  6  2  0  0  0  0
  6  7  1  0  0  0  0
  6 30  1  0  0  0  0
  7  8  1  0  0  0  0
  7 22  1  0  0  0  0
  8  9  1  0  0  0  0
  8 31  1  0  0  0  0
  8 32  1  0  0  0  0
  9 10  1  0  0  0  0
  9 11  1  0  0  0  0
  9 33  1  0  0  0  0
 10 34  1  0  0  0  0
 11 12  1  0  0  0  0
 11 35  1  0  0  0  0
 11 36  1  0  0  0  0
 12 13  1  0  0  0  0
 12 14  1  0  0  0  0
 12 52  1  0  0  0  0
 13 37  1  0  0  0  0
 13 38  1  0  0  0  0
 13 39  1  0  0  0  0
 14 15  1  0  0  0  0
 14 40  1  0  0  0  0
 14 41  1  0  0  0  0
 15 20  2  0  0  0  0
 15 16  1  0  0  0  0
 16 17  1  0  0  0  0
 16 18  2  0  0  0  0
 17 42  1  0  0  0  0
 17 43  1  0  0  0  0
 17 44  1  0  0  0  0
 18 19  1  0  0  0  0
 19 20  1  0  0  0  0
 20 21  1  0  0  0  0
 21 45  1  0  0  0  0
 21 46  1  0  0  0  0
 21 47  1  0  0  0  0
 22 23  1  0  0  0  0
 23 24  2  0  0  0  0
 23 48  1  0  0  0  0
 24 25  1  0  0  0  0
 25 49  1  0  0  0  0
 25 50  1  0  0  0  0
 25 51  1  0  0  0  0
M  CHG  1  12   1
M  END
> <s_m_source_file>
AV-unprocessed.smi

> <i_m_source_file_index>
1207

> <i_lp_mmshare_version>
43012

> <i_f3d_flags>
0

> <s_epik_input>
W0NIM11jKFtjSF0xKWMoW0NIM10pW2NIXWMoYzEyKW4oW2NIXW4yKVtDSDJdW0NASF0oW09IXSlbQ0gyXU4oW0NIM10pW0NIMl1jM2MoW0NIM10pbm9jM1tDSDNd

> <s_epik_cmdline>
J2VwaWtfcHl0aG9uJywgJy1waCcsICc3LjAnLCAnLXRuJywgJzgnLCAnLW1hJywgJzIwMCcsICctbWV0YWxfYmluZGluZycsICctaW1hZScsICc8aW5maWxlLm1hZT4nLCAnLW9tYWUnLCAnPG91dGZpbGUubWFlPic=

> <r_epik_Ionization_Penalty>
0.646518

> <r_epik_Ionization_Penalty_Charging>
0.559419

> <r_epik_Ionization_Penalty_Neutral>
0.0870981

> <r_epik_State_Penalty>
0.661677

> <r_epik_Charging_Adjusted_Penalty>
1.2211

> <i_epik_Tot_Q>
1

> <i_epik_Tot_abs_Q>
1

> <r_epik_Metal_State_Penalty>
0.649158

> <b_epik_Metal_Only>
0

> <s_lp_Force_Field>
OPLS_2005

> <r_lp_Energy>
10.0626

> <b_lp_Chiralities_Consistent>
1

> <s_lp_Variant>
AV-unprocessed.smi:1207-3

> <Gold.Version>
5.8.1

> <Gold.Id.Protein>
6NUR|6NUR_protein|mol2

> <Gold.PLP.Fitness>
54.4027

> <Gold.PLP.PLP>
-43.1907

> <Gold.PLP.part.hbond>
-4.7327

> <Gold.PLP.part.metal>
0.0000

> <Gold.PLP.part.buried>
-3.3610

> <Gold.PLP.part.nonpolar>
-34.4962

> <Gold.PLP.part.repulsive>
0.0419

> <Gold.PLP.ligand.clash>
0.0000

> <Gold.PLP.ligand.torsion>
1.5417

> <Gold.PLP.Chemscore.Hbond>
4.6860

> <Gold.PLP.Chemscore.CHOScore>
0.0000

> <Gold.PLP.Chemscore.Metal>
0.0000

> <Gold.Chemscore.Hbonds>
donor molecule, donor type, donor heavy atom, donor atom, acceptor molecule, acceptor atom, score
      L1  H    10    34       P1  7957  0.72
      L1  H    12    52       P1  7948  1.85
      P1  H  7997  8009       L1     5  1.00
      P1  H  8011  8017       L1    10  1.00

> <Gold.PLP.Chemscore.Internal.Correction>
0.2373

> <Gold.Rescore>
     Score         DG    S(hbond)    S(metal)    S(lipo)     H(rot)  DE(clash)    DE(int)     intcor
     19.92     -22.17       2.80        0.00     116.33       2.46       0.54       1.70       ----

> <Gold.Chemscore.Fitness>
19.9244

> <Gold.Chemscore.DG>
-22.1656

> <Gold.Chemscore.ZeroCoef>
-5.4800

> <Gold.Chemscore.Hbond>
2.8036

> <Gold.Chemscore.Metal>
0.0000

> <Gold.Chemscore.Lipo>
116.3260

> <Gold.Chemscore.Internal_Hbond>
0.0000

> <Gold.Chemscore.DEClash>
0.5413

> <Gold.Chemscore.DEInternal>
1.6999

> <Gold.Chemscore.Rot>
2.4565

> <Gold.Chemscore.Internal.Correction>
   9.000000E+99

> <Gold.Chemscore.Hbonds>
donor molecule, donor type, donor heavy atom, donor atom, acceptor molecule, acceptor atom, score
      L1  H    10    34       P1  7957  0.67
      L1  H    12    52       P1  7948  0.68
      P1  H  7997  8009       L1     5  0.25
      P1  H  8011  8017       L1    10  0.40

> <Gold.Chemscore.Hbond.Weighted>
-9.3641

> <Gold.Chemscore.Metal.Weighted>
-0.0000

> <Gold.Chemscore.Lipo.Weighted>
-13.6101

> <Gold.Chemscore.Internal_Hbond.Weighted>
0.0000

> <Gold.Chemscore.DEClash.Weighted>
0.5413

> <Gold.Chemscore.DEInternal.Weighted>
1.6999

> <Gold.Chemscore.Rot.Weighted>
6.2887

> <Gold.Chemscore.Internal.Correction.Weighted>
   9.000000E+99

> <Gold.Protein.RotatedTorsions>
[ 6907 6896 6895 6894 ] final  -79.98 input  -60.11 | X-H torsion
[ 7974 7965 7964 7962 ] final -178.12 input  175.53 | X-H torsion
[ 8008 7997 7996 7995 ] final  174.38 input   59.86 | X-H torsion
[ 10167 10162 10161 10158 ] final   24.95 input  -65.29 | X-H torsion
[ 10718 10713 10712 10709 ] final  160.93 input   66.30 | X-H torsion
[ 10763 10752 10751 10750 ] final -151.42 input  -60.55 | X-H torsion
[ 11005 11000 10999 10996 ] final -123.67 input  -57.11 | X-H torsion

> <Gold.Protein.ActiveResidues>
 VAL166  LYS551  ARG553  GLY616  TRP617  ASP618  TYR619  PRO620  LYS621  CYS622 
 ASP623  PHE694  ASN695  SER759  ASP760  ASP761  ALA762  ILE779  LEU786  VAL792 
 PHE793  MET794  SER795  GLU796  ALA797  LYS798  CYS799  TRP800  GLU811  SER814 

> <Gold.Protein.RotatedAtoms>
  150.6938  134.4039  159.5130 H   0  0  0  0  0  0  0  0  0  0  0  0  # atno 6907 bound_to 6896
  152.1808  134.8753  160.0535 H   0  0  0  0  0  0  0  0  0  0  0  0  # atno 6908 bound_to 6896
  151.9744  133.3702  159.4120 H   0  0  0  0  0  0  0  0  0  0  0  0  # atno 6909 bound_to 6896
  144.7130  140.0917  143.6421 H   0  0  0  0  0  0  0  0  0  0  0  0  # atno 7974 bound_to 7965
  156.0980  140.1436  156.9505 H   0  0  0  0  0  0  0  0  0  0  0  0  # atno 8008 bound_to 7997
  154.4684  140.0918  156.7126 H   0  0  0  0  0  0  0  0  0  0  0  0  # atno 8009 bound_to 7997
  155.4808  140.3445  155.4341 H   0  0  0  0  0  0  0  0  0  0  0  0  # atno 8010 bound_to 7997
  140.5146  144.0103  150.6388 H   0  0  0  0  0  0  0  0  0  0  0  0  # atno 10167 bound_to 10162
  157.1436  131.0546  151.2314 H   0  0  0  0  0  0  0  0  0  0  0  0  # atno 10718 bound_to 10713
  154.8058  135.3260  154.7433 H   0  0  0  0  0  0  0  0  0  0  0  0  # atno 10763 bound_to 10752
  153.8092  135.6897  153.4848 H   0  0  0  0  0  0  0  0  0  0  0  0  # atno 10764 bound_to 10752
  153.1803  135.4589  154.9964 H   0  0  0  0  0  0  0  0  0  0  0  0  # atno 10765 bound_to 10752
  140.9901  134.0551  157.3665 H   0  0  0  0  0  0  0  0  0  0  0  0  # atno 11005 bound_to 11000
  145.9614  139.2803  143.1153 LP  0  0  0  0  0  0  0  0  0  0  0  0  # atno 17320 bound_to 7965
  145.9216  140.9111  143.0402 LP  0  0  0  0  0  0  0  0  0  0  0  0  # atno 17321 bound_to 7965
  140.3435  143.3005  152.0563 LP  0  0  0  0  0  0  0  0  0  0  0  0  # atno 17342 bound_to 10162
  139.4906  144.6425  151.6847 LP  0  0  0  0  0  0  0  0  0  0  0  0  # atno 17343 bound_to 10162
  157.4285  130.7477  149.6970 LP  0  0  0  0  0  0  0  0  0  0  0  0  # atno 17370 bound_to 10713
  155.9784  130.4052  150.3653 LP  0  0  0  0  0  0  0  0  0  0  0  0  # atno 17371 bound_to 10713
  139.8988  135.0156  156.7166 LP  0  0  0  0  0  0  0  0  0  0  0  0  # atno 17394 bound_to 11000
  140.7054  133.9270  155.8050 LP  0  0  0  0  0  0  0  0  0  0  0  0  # atno 17395 bound_to 11000

$$$$
