AV-unprocessed.smi:826|AV-procd|sdf|3855|dock1
  -GOLD-   22720 1303D 1   1.00000     0.00000
 Structure written by MMmdl.
 38 39  0  0  0  0  0  0  0  0  2 V2000
  145.9770  135.9734  162.2031 C   0  0  0  0  0  0  0  0  0  0  0  0
  147.0318  136.2681  161.1925 C   0  0  0  0  0  0  0  0  0  0  0  0
  147.2964  137.5032  160.7595 N   0  0  0  0  0  0  0  0  0  0  0  0
  148.3223  137.5212  159.8256 N   0  0  0  0  0  0  0  0  0  0  0  0
  148.8262  136.3044  159.5747 C   0  0  0  0  0  0  0  0  0  0  0  0
  149.8283  136.1055  158.7027 N   0  5  0  0  0  0  0  0  0  0  0  0
  150.8675  136.9702  158.6612 C   0  0  0  0  0  0  0  0  0  0  0  0
  151.8532  136.9628  159.4029 O   0  0  0  0  0  0  0  0  0  0  0  0
  150.7633  137.8978  157.6973 N   0  0  0  0  0  0  0  0  0  0  0  0
  151.7399  138.9476  157.4093 C   0  0  1  0  0  0  0  0  0  0  0  0
  152.2535  138.7397  155.9743 C   0  0  0  0  0  0  0  0  0  0  0  0
  151.0766  140.3315  157.4883 C   0  0  0  0  0  0  0  0  0  0  0  0
  150.1406  140.6237  156.7422 O   0  0  0  0  0  0  0  0  0  0  0  0
  151.5915  141.1816  158.3892 N   0  0  0  0  0  0  0  0  0  0  0  0
  151.1280  142.5469  158.6176 C   0  0  0  0  0  0  0  0  0  0  0  0
  151.3706  143.4409  157.3832 C   0  0  0  0  0  0  0  0  0  0  0  0
  152.1123  144.6795  157.8911 C   0  0  0  0  0  0  0  0  0  0  0  0
  152.8667  144.1933  159.1248 C   0  0  0  0  0  0  0  0  0  0  0  0
  151.9093  143.1945  159.7746 C   0  0  0  0  0  0  0  0  0  0  0  0
  148.0323  135.0151  160.4792 S   0  0  0  0  0  0  0  0  0  0  0  0
  146.4186  135.9323  163.1988 H   0  0  0  0  0  0  0  0  0  0  0  0
  145.5082  135.0134  161.9871 H   0  0  0  0  0  0  0  0  0  0  0  0
  145.2085  136.7471  162.1906 H   0  0  0  0  0  0  0  0  0  0  0  0
  149.9361  137.8747  157.1196 H   0  0  0  0  0  0  0  0  0  0  0  0
  152.5780  138.8831  158.1063 H   0  0  0  0  0  0  0  0  0  0  0  0
  152.9876  139.4992  155.7028 H   0  0  0  0  0  0  0  0  0  0  0  0
  151.4464  138.7782  155.2412 H   0  0  0  0  0  0  0  0  0  0  0  0
  152.7401  137.7691  155.8743 H   0  0  0  0  0  0  0  0  0  0  0  0
  152.3554  140.8555  158.9628 H   0  0  0  0  0  0  0  0  0  0  0  0
  150.0670  142.5331  158.8744 H   0  0  0  0  0  0  0  0  0  0  0  0
  151.9955  142.9264  156.6512 H   0  0  0  0  0  0  0  0  0  0  0  0
  150.4399  143.7045  156.8799 H   0  0  0  0  0  0  0  0  0  0  0  0
  152.7719  145.1116  157.1382 H   0  0  0  0  0  0  0  0  0  0  0  0
  151.3921  145.4455  158.1816 H   0  0  0  0  0  0  0  0  0  0  0  0
  153.7809  143.6823  158.8203 H   0  0  0  0  0  0  0  0  0  0  0  0
  153.1446  145.0062  159.7963 H   0  0  0  0  0  0  0  0  0  0  0  0
  151.2133  143.7348  160.4177 H   0  0  0  0  0  0  0  0  0  0  0  0
  152.4306  142.4726  160.4048 H   0  0  0  0  0  0  0  0  0  0  0  0
  1  2  1  0  0  0  0
  1 21  1  0  0  0  0
  1 22  1  0  0  0  0
  1 23  1  0  0  0  0
  2 20  1  0  0  0  0
  2  3  2  0  0  0  0
  3  4  1  0  0  0  0
  4  5  2  0  0  0  0
  5  6  1  0  0  0  0
  5 20  1  0  0  0  0
  6  7  1  0  0  0  0
  7  8  2  0  0  0  0
  7  9  1  0  0  0  0
  9 10  1  0  0  0  0
  9 24  1  0  0  0  0
 10 11  1  0  0  0  0
 10 12  1  0  0  0  0
 10 25  1  0  0  0  0
 11 26  1  0  0  0  0
 11 27  1  0  0  0  0
 11 28  1  0  0  0  0
 12 13  2  0  0  0  0
 12 14  1  0  0  0  0
 14 15  1  0  0  0  0
 14 29  1  0  0  0  0
 15 19  1  0  0  0  0
 15 16  1  0  0  0  0
 15 30  1  0  0  0  0
 16 17  1  0  0  0  0
 16 31  1  0  0  0  0
 16 32  1  0  0  0  0
 17 18  1  0  0  0  0
 17 33  1  0  0  0  0
 17 34  1  0  0  0  0
 18 19  1  0  0  0  0
 18 35  1  0  0  0  0
 18 36  1  0  0  0  0
 19 37  1  0  0  0  0
 19 38  1  0  0  0  0
M  CHG  1   6  -1
M  END
> <s_m_source_file>
AV-unprocessed.smi

> <i_m_source_file_index>
826

> <i_lp_mmshare_version>
43012

> <i_f3d_flags>
0

> <s_epik_input>
W0NIM11jMW5uYyhzMSlbTkhdQyg9TylbTkhdW0NASF0oW0NIM10pQyg9TylbTkhdW0NIXTJbQ0gyXVtDSDJdW0NIMl1bQ0gyXTI=

> <s_epik_cmdline>
J2VwaWtfcHl0aG9uJywgJy1waCcsICc3LjAnLCAnLXRuJywgJzgnLCAnLW1hJywgJzIwMCcsICctbWV0YWxfYmluZGluZycsICctaW1hZScsICc8aW5maWxlLm1hZT4nLCAnLW9tYWUnLCAnPG91dGZpbGUubWFlPic=

> <r_lp_tautomer_probability>
1

> <r_epik_Ionization_Penalty>
3.15008

> <r_epik_Ionization_Penalty_Charging>
3.01509

> <r_epik_Ionization_Penalty_Neutral>
0.134987

> <r_epik_State_Penalty>
3.01143

> <r_epik_Charging_Adjusted_Penalty>
6.02652

> <i_epik_Tot_Q>
-1

> <i_epik_Tot_abs_Q>
1

> <r_epik_Metal_State_Penalty>
0.454645

> <b_epik_Metal_Only>
1

> <s_lp_Force_Field>
OPLS_2005

> <r_lp_Energy>
16.5176

> <b_lp_Chiralities_Consistent>
1

> <s_lp_Variant>
AV-unprocessed.smi:826-4

> <Gold.Version>
5.8.1

> <Gold.Id.Protein>
6NUR|6NUR_protein|mol2

> <Gold.PLP.Fitness>
41.2385

> <Gold.PLP.PLP>
-34.5436

> <Gold.PLP.part.hbond>
-5.9837

> <Gold.PLP.part.metal>
0.0000

> <Gold.PLP.part.buried>
-2.8409

> <Gold.PLP.part.nonpolar>
-26.2806

> <Gold.PLP.part.repulsive>
0.1802

> <Gold.PLP.ligand.clash>
0.0000

> <Gold.PLP.ligand.torsion>
1.0829

> <Gold.PLP.Chemscore.Hbond>
2.9256

> <Gold.PLP.Chemscore.CHOScore>
0.0000

> <Gold.PLP.Chemscore.Metal>
0.0000

> <Gold.Chemscore.Hbonds>
donor molecule, donor type, donor heavy atom, donor atom, acceptor molecule, acceptor atom, score
      P1  H  6896  6907       L1     6  1.79
      P1  H  6896  6908       L1     8  0.30
      P1  H  6934  6947       L1     3  0.85

> <Gold.PLP.Chemscore.Internal.Correction>
0.0839

> <Gold.Rescore>
     Score         DG    S(hbond)    S(metal)    S(lipo)     H(rot)  DE(clash)    DE(int)     intcor
     13.64     -14.81       0.87        0.00      90.29       1.62       0.07       1.10       ----

> <Gold.Chemscore.Fitness>
13.6360

> <Gold.Chemscore.DG>
-14.8054

> <Gold.Chemscore.ZeroCoef>
-5.4800

> <Gold.Chemscore.Hbond>
0.8710

> <Gold.Chemscore.Metal>
0.0000

> <Gold.Chemscore.Lipo>
90.2878

> <Gold.Chemscore.Internal_Hbond>
0.0000

> <Gold.Chemscore.DEClash>
0.0664

> <Gold.Chemscore.DEInternal>
1.1029

> <Gold.Chemscore.Rot>
1.6201

> <Gold.Chemscore.Internal.Correction>
   9.000000E+99

> <Gold.Chemscore.Hbonds>
donor molecule, donor type, donor heavy atom, donor atom, acceptor molecule, acceptor atom, score
      P1  H  6896  6907       L1     6  0.07
      P1  H  6896  6908       L1     8  0.19
      P1  H  6934  6947       L1     3  0.14

> <Gold.Chemscore.Hbond.Weighted>
-2.9091

> <Gold.Chemscore.Metal.Weighted>
-0.0000

> <Gold.Chemscore.Lipo.Weighted>
-10.5637

> <Gold.Chemscore.Internal_Hbond.Weighted>
0.0000

> <Gold.Chemscore.DEClash.Weighted>
0.0664

> <Gold.Chemscore.DEInternal.Weighted>
1.1029

> <Gold.Chemscore.Rot.Weighted>
4.1475

> <Gold.Chemscore.Internal.Correction.Weighted>
   9.000000E+99

> <Gold.Protein.RotatedTorsions>
[ 6907 6896 6895 6894 ] final  -76.32 input  -60.11 | X-H torsion
[ 7974 7965 7964 7962 ] final  102.46 input  175.53 | X-H torsion
[ 8008 7997 7996 7995 ] final  -39.65 input   59.86 | X-H torsion
[ 10167 10162 10161 10158 ] final   48.52 input  -65.29 | X-H torsion
[ 10718 10713 10712 10709 ] final  103.08 input   66.30 | X-H torsion
[ 10763 10752 10751 10750 ] final  -40.51 input  -60.55 | X-H torsion
[ 11005 11000 10999 10996 ] final   43.28 input  -57.11 | X-H torsion

> <Gold.Protein.ActiveResidues>
 VAL166  LYS551  ARG553  GLY616  TRP617  ASP618  TYR619  PRO620  LYS621  CYS622 
 ASP623  PHE694  ASN695  SER759  ASP760  ASP761  ALA762  ILE779  LEU786  VAL792 
 PHE793  MET794  SER795  GLU796  ALA797  LYS798  CYS799  TRP800  GLU811  SER814 

> <Gold.Protein.RotatedAtoms>
  150.7031  134.4589  159.5371 H   0  0  0  0  0  0  0  0  0  0  0  0  # atno 6907 bound_to 6896
  152.2268  134.8358  160.0488 H   0  0  0  0  0  0  0  0  0  0  0  0  # atno 6908 bound_to 6896
  151.9188  133.3545  159.3926 H   0  0  0  0  0  0  0  0  0  0  0  0  # atno 6909 bound_to 6896
  145.3589  139.2422  143.3518 H   0  0  0  0  0  0  0  0  0  0  0  0  # atno 7974 bound_to 7965
  154.4020  140.1546  156.2899 H   0  0  0  0  0  0  0  0  0  0  0  0  # atno 8008 bound_to 7997
  155.8795  140.3444  155.5856 H   0  0  0  0  0  0  0  0  0  0  0  0  # atno 8009 bound_to 7997
  155.7683  140.0827  157.2111 H   0  0  0  0  0  0  0  0  0  0  0  0  # atno 8010 bound_to 7997
  140.2924  144.3030  150.6237 H   0  0  0  0  0  0  0  0  0  0  0  0  # atno 10167 bound_to 10162
  157.6783  131.0770  150.5502 H   0  0  0  0  0  0  0  0  0  0  0  0  # atno 10718 bound_to 10713
  153.9471  135.6755  153.4744 H   0  0  0  0  0  0  0  0  0  0  0  0  # atno 10763 bound_to 10752
  153.0902  135.4878  154.8672 H   0  0  0  0  0  0  0  0  0  0  0  0  # atno 10764 bound_to 10752
  154.7345  135.3146  154.8793 H   0  0  0  0  0  0  0  0  0  0  0  0  # atno 10765 bound_to 10752
  140.1660  134.4282  155.8287 H   0  0  0  0  0  0  0  0  0  0  0  0  # atno 11005 bound_to 11000
  146.2936  140.4219  142.8730 LP  0  0  0  0  0  0  0  0  0  0  0  0  # atno 17320 bound_to 7965
  144.8661  140.7208  143.6076 LP  0  0  0  0  0  0  0  0  0  0  0  0  # atno 17321 bound_to 7965
  140.5721  143.2180  151.7581 LP  0  0  0  0  0  0  0  0  0  0  0  0  # atno 17342 bound_to 10162
  139.4934  144.4202  151.9986 LP  0  0  0  0  0  0  0  0  0  0  0  0  # atno 17343 bound_to 10162
  156.5807  130.4303  149.5979 LP  0  0  0  0  0  0  0  0  0  0  0  0  # atno 17370 bound_to 10713
  156.2664  130.6992  151.1776 LP  0  0  0  0  0  0  0  0  0  0  0  0  # atno 17371 bound_to 10713
  141.2213  133.6934  156.7679 LP  0  0  0  0  0  0  0  0  0  0  0  0  # atno 17394 bound_to 11000
  140.2433  134.8596  157.3595 LP  0  0  0  0  0  0  0  0  0  0  0  0  # atno 17395 bound_to 11000

$$$$
