AV-unprocessed.smi:2356|AV-procd|sdf|9396|dock9
  -GOLD-   2272013 33D 1   1.00000     0.00000
 Structure written by MMmdl.
 53 56  0  0  0  0  0  0  0  0  1 V2000
  149.8447  140.3387  154.4271 C   0  0  0  0  0  0  0  0  0  0  0  0
  150.5088  139.9986  155.7504 C   0  0  0  0  0  0  0  0  0  0  0  0
  151.0146  141.0501  156.4306 N   0  0  0  0  0  0  0  0  0  0  0  0
  151.6187  140.8374  157.6227 C   0  0  0  0  0  0  0  0  0  0  0  0
  152.1291  141.9625  158.2998 N   0  0  0  0  0  0  0  0  0  0  0  0
  152.5328  141.8973  159.6959 C   0  0  0  0  0  0  0  0  0  0  0  0
  152.8801  143.3384  160.0652 C   0  0  0  0  0  0  0  0  0  0  0  0
  151.9192  144.1574  159.2033 C   0  0  0  0  0  0  0  0  0  0  0  0
  151.7485  143.3192  157.9310 C   0  0  0  0  0  0  0  0  0  0  0  0
  151.7206  139.5427  158.1813 C   0  0  0  0  0  0  0  0  0  0  0  0
  151.1941  138.4460  157.4736 C   0  0  0  0  0  0  0  0  0  0  0  0
  150.5779  138.6653  156.2189 C   0  0  0  0  0  0  0  0  0  0  0  0
  150.0022  137.6377  155.4200 N   0  0  0  0  0  0  0  0  0  0  0  0
  149.5892  136.4013  155.7606 C   0  0  0  0  0  0  0  0  0  0  0  0
  149.6525  135.9209  156.8895 O   0  0  0  0  0  0  0  0  0  0  0  0
  149.0829  135.6952  154.7326 N   0  0  0  0  0  0  0  0  0  0  0  0
  148.5476  134.3314  154.7477 C   0  0  1  0  0  0  0  0  0  0  0  0
  147.0506  134.3562  154.4114 C   0  0  0  0  0  0  0  0  0  0  0  0
  146.4918  132.9276  154.3213 C   0  0  0  0  0  0  0  0  0  0  0  0
  147.2220  132.1658  153.3620 O   0  0  0  0  0  0  0  0  0  0  0  0
  148.6227  132.0444  153.6159 C   0  0  2  0  0  0  0  0  0  0  0  0
  148.9083  131.1486  154.8141 C   0  0  0  0  0  0  0  0  0  0  0  0
  150.3028  130.6299  155.0767 C   0  0  0  0  0  0  0  0  0  0  0  0
  149.2188  129.6836  154.6183 C   0  0  0  0  0  0  0  0  0  0  0  0
  149.2739  133.4368  153.7259 C   0  0  0  0  0  0  0  0  0  0  0  0
  148.7961  140.0409  154.4444 H   0  0  0  0  0  0  0  0  0  0  0  0
  150.3377  139.8156  153.6076 H   0  0  0  0  0  0  0  0  0  0  0  0
  149.8874  141.4085  154.2185 H   0  0  0  0  0  0  0  0  0  0  0  0
  151.6993  141.5355  160.2995 H   0  0  0  0  0  0  0  0  0  0  0  0
  153.3815  141.2280  159.8402 H   0  0  0  0  0  0  0  0  0  0  0  0
  152.7770  143.5401  161.1317 H   0  0  0  0  0  0  0  0  0  0  0  0
  153.9098  143.5556  159.7777 H   0  0  0  0  0  0  0  0  0  0  0  0
  150.9591  144.2447  159.7135 H   0  0  0  0  0  0  0  0  0  0  0  0
  152.2827  145.1651  159.0002 H   0  0  0  0  0  0  0  0  0  0  0  0
  152.4164  143.6707  157.1439 H   0  0  0  0  0  0  0  0  0  0  0  0
  150.7233  143.3759  157.5630 H   0  0  0  0  0  0  0  0  0  0  0  0
  152.1836  139.3762  159.1425 H   0  0  0  0  0  0  0  0  0  0  0  0
  151.2666  137.4675  157.9203 H   0  0  0  0  0  0  0  0  0  0  0  0
  149.9190  137.8622  154.4393 H   0  0  0  0  0  0  0  0  0  0  0  0
  149.0453  136.1686  153.8414 H   0  0  0  0  0  0  0  0  0  0  0  0
  148.6584  133.9131  155.7495 H   0  0  0  0  0  0  0  0  0  0  0  0
  146.5016  134.9234  155.1641 H   0  0  0  0  0  0  0  0  0  0  0  0
  146.8912  134.8646  153.4592 H   0  0  0  0  0  0  0  0  0  0  0  0
  146.5113  132.4394  155.2958 H   0  0  0  0  0  0  0  0  0  0  0  0
  145.4466  132.9578  154.0132 H   0  0  0  0  0  0  0  0  0  0  0  0
  149.0458  131.5518  152.7396 H   0  0  0  0  0  0  0  0  0  0  0  0
  148.3304  131.3882  155.7038 H   0  0  0  0  0  0  0  0  0  0  0  0
  151.0825  130.8873  154.3625 H   0  0  0  0  0  0  0  0  0  0  0  0
  150.6258  130.5584  156.1133 H   0  0  0  0  0  0  0  0  0  0  0  0
  148.8175  128.9845  155.3491 H   0  0  0  0  0  0  0  0  0  0  0  0
  149.2771  129.3096  153.5980 H   0  0  0  0  0  0  0  0  0  0  0  0
  149.2414  133.9156  152.7461 H   0  0  0  0  0  0  0  0  0  0  0  0
  150.3298  133.3326  153.9777 H   0  0  0  0  0  0  0  0  0  0  0  0
  1  2  1  0  0  0  0
  1 26  1  0  0  0  0
  1 27  1  0  0  0  0
  1 28  1  0  0  0  0
  2 12  1  0  0  0  0
  2  3  2  0  0  0  0
  3  4  1  0  0  0  0
  4  5  1  0  0  0  0
  4 10  2  0  0  0  0
  5  9  1  0  0  0  0
  5  6  1  0  0  0  0
  6  7  1  0  0  0  0
  6 29  1  0  0  0  0
  6 30  1  0  0  0  0
  7  8  1  0  0  0  0
  7 31  1  0  0  0  0
  7 32  1  0  0  0  0
  8  9  1  0  0  0  0
  8 33  1  0  0  0  0
  8 34  1  0  0  0  0
  9 35  1  0  0  0  0
  9 36  1  0  0  0  0
 10 11  1  0  0  0  0
 10 37  1  0  0  0  0
 11 12  2  0  0  0  0
 11 38  1  0  0  0  0
 12 13  1  0  0  0  0
 13 14  1  0  0  0  0
 13 39  1  0  0  0  0
 14 15  2  0  0  0  0
 14 16  1  0  0  0  0
 16 17  1  0  0  0  0
 16 40  1  0  0  0  0
 17 25  1  0  0  0  0
 17 18  1  0  0  0  0
 17 41  1  0  0  0  0
 18 19  1  0  0  0  0
 18 42  1  0  0  0  0
 18 43  1  0  0  0  0
 19 20  1  0  0  0  0
 19 44  1  0  0  0  0
 19 45  1  0  0  0  0
 20 21  1  0  0  0  0
 21 22  1  0  0  0  0
 21 25  1  0  0  0  0
 21 46  1  0  0  0  0
 22 24  1  0  0  0  0
 22 23  1  0  0  0  0
 22 47  1  0  0  0  0
 23 24  1  0  0  0  0
 23 48  1  0  0  0  0
 23 49  1  0  0  0  0
 24 50  1  0  0  0  0
 24 51  1  0  0  0  0
 25 52  1  0  0  0  0
 25 53  1  0  0  0  0
M  END
> <s_m_source_file>
AV-unprocessed.smi

> <i_m_source_file_index>
2356

> <i_lp_mmshare_version>
43012

> <i_f3d_flags>
0

> <s_epik_input>
W0NIMl0xW0NIMl1bQ0gyXVtDSDJdTjFjKG5jMltDSDNdKVtjSF1bY0hdYzJbTkhdQyg9TylbTkhdW0NAQEhdM1tDSDJdW0NIMl1PW0NASF0oW0NIMl0zKVtDSF00W0NIMl1bQ0gyXTQ=

> <s_epik_cmdline>
J2VwaWtfcHl0aG9uJywgJy1waCcsICc3LjAnLCAnLXRuJywgJzgnLCAnLW1hJywgJzIwMCcsICctbWV0YWxfYmluZGluZycsICctaW1hZScsICc8aW5maWxlLm1hZT4nLCAnLW9tYWUnLCAnPG91dGZpbGUubWFlPic=

> <r_lp_tautomer_probability>
1

> <r_epik_Ionization_Penalty>
0.308781

> <r_epik_Ionization_Penalty_Charging>
0

> <r_epik_Ionization_Penalty_Neutral>
0.308781

> <r_epik_State_Penalty>
0.302092

> <r_epik_Charging_Adjusted_Penalty>
0.302092

> <i_epik_Tot_Q>
0

> <i_epik_Tot_abs_Q>
0

> <r_epik_Metal_State_Penalty>
0.197467

> <b_epik_Metal_Only>
0

> <s_lp_Force_Field>
OPLS_2005

> <r_lp_Energy>
54.1465

> <b_lp_Chiralities_Consistent>
1

> <s_lp_Variant>
AV-unprocessed.smi:2356-4

> <Gold.Version>
5.8.1

> <Gold.Id.Protein>
6NUR|6NUR_protein|mol2

> <Gold.PLP.Fitness>
44.2622

> <Gold.PLP.PLP>
-41.5824

> <Gold.PLP.part.hbond>
-1.0000

> <Gold.PLP.part.metal>
0.0000

> <Gold.PLP.part.buried>
-4.9418

> <Gold.PLP.part.nonpolar>
-35.6787

> <Gold.PLP.part.repulsive>
0.1662

> <Gold.PLP.ligand.clash>
0.0000

> <Gold.PLP.ligand.torsion>
0.7931

> <Gold.PLP.Chemscore.Hbond>
1.0000

> <Gold.PLP.Chemscore.CHOScore>
0.0000

> <Gold.PLP.Chemscore.Metal>
0.0000

> <Gold.Chemscore.Hbonds>
donor molecule, donor type, donor heavy atom, donor atom, acceptor molecule, acceptor atom, score
      L1  H    16    40       P1  7948  1.00

> <Gold.PLP.Chemscore.Internal.Correction>
1.2659

> <Gold.Rescore>
     Score         DG    S(hbond)    S(metal)    S(lipo)     H(rot)  DE(clash)    DE(int)     intcor
     17.18     -18.85       0.96        0.00     111.80       1.14       0.07       1.59       ----

> <Gold.Chemscore.Fitness>
17.1849

> <Gold.Chemscore.DG>
-18.8495

> <Gold.Chemscore.ZeroCoef>
-5.4800

> <Gold.Chemscore.Hbond>
0.9600

> <Gold.Chemscore.Metal>
0.0000

> <Gold.Chemscore.Lipo>
111.7980

> <Gold.Chemscore.Internal_Hbond>
0.0000

> <Gold.Chemscore.DEClash>
0.0706

> <Gold.Chemscore.DEInternal>
1.5940

> <Gold.Chemscore.Rot>
1.1395

> <Gold.Chemscore.Internal.Correction>
   9.000000E+99

> <Gold.Chemscore.Hbonds>
donor molecule, donor type, donor heavy atom, donor atom, acceptor molecule, acceptor atom, score
      L1  H    16    40       P1  7948  0.92

> <Gold.Chemscore.Hbond.Weighted>
-3.2063

> <Gold.Chemscore.Metal.Weighted>
-0.0000

> <Gold.Chemscore.Lipo.Weighted>
-13.0804

> <Gold.Chemscore.Internal_Hbond.Weighted>
0.0000

> <Gold.Chemscore.DEClash.Weighted>
0.0706

> <Gold.Chemscore.DEInternal.Weighted>
1.5940

> <Gold.Chemscore.Rot.Weighted>
2.9171

> <Gold.Chemscore.Internal.Correction.Weighted>
   9.000000E+99

> <Gold.Protein.RotatedTorsions>
[ 6907 6896 6895 6894 ] final    5.36 input  -60.11 | X-H torsion
[ 7974 7965 7964 7962 ] final  178.14 input  175.53 | X-H torsion
[ 8008 7997 7996 7995 ] final -129.24 input   59.86 | X-H torsion
[ 10167 10162 10161 10158 ] final   76.04 input  -65.29 | X-H torsion
[ 10718 10713 10712 10709 ] final  -73.37 input   66.30 | X-H torsion
[ 10763 10752 10751 10750 ] final -173.33 input  -60.55 | X-H torsion
[ 11005 11000 10999 10996 ] final -158.01 input  -57.11 | X-H torsion

> <Gold.Protein.ActiveResidues>
 VAL166  LYS551  ARG553  GLY616  TRP617  ASP618  TYR619  PRO620  LYS621  CYS622 
 ASP623  PHE694  ASN695  SER759  ASP760  ASP761  ALA762  ILE779  LEU786  VAL792 
 PHE793  MET794  SER795  GLU796  ALA797  LYS798  CYS799  TRP800  GLU811  SER814 

> <Gold.Protein.RotatedAtoms>
  151.6563  135.0995  160.0170 H   0  0  0  0  0  0  0  0  0  0  0  0  # atno 6907 bound_to 6896
  152.3972  133.6760  159.6295 H   0  0  0  0  0  0  0  0  0  0  0  0  # atno 6908 bound_to 6896
  150.7877  133.8770  159.3316 H   0  0  0  0  0  0  0  0  0  0  0  0  # atno 6909 bound_to 6896
  144.7160  140.0352  143.6438 H   0  0  0  0  0  0  0  0  0  0  0  0  # atno 7974 bound_to 7965
  155.2759  140.0442  157.3011 H   0  0  0  0  0  0  0  0  0  0  0  0  # atno 8008 bound_to 7997
  154.5625  140.2350  155.8282 H   0  0  0  0  0  0  0  0  0  0  0  0  # atno 8009 bound_to 7997
  156.2059  140.3013  155.9633 H   0  0  0  0  0  0  0  0  0  0  0  0  # atno 8010 bound_to 7997
  139.9965  144.5718  150.7773 H   0  0  0  0  0  0  0  0  0  0  0  0  # atno 10167 bound_to 10162
  156.0283  130.4392  150.2732 H   0  0  0  0  0  0  0  0  0  0  0  0  # atno 10718 bound_to 10713
  154.6090  135.2862  155.0452 H   0  0  0  0  0  0  0  0  0  0  0  0  # atno 10763 bound_to 10752
  154.1689  135.6476  153.5008 H   0  0  0  0  0  0  0  0  0  0  0  0  # atno 10764 bound_to 10752
  153.0187  135.5396  154.6837 H   0  0  0  0  0  0  0  0  0  0  0  0  # atno 10765 bound_to 10752
  140.6584  134.4376  157.5234 H   0  0  0  0  0  0  0  0  0  0  0  0  # atno 11005 bound_to 11000
  146.0069  139.3137  143.0894 LP  0  0  0  0  0  0  0  0  0  0  0  0  # atno 17320 bound_to 7965
  145.8728  140.9410  143.0642 LP  0  0  0  0  0  0  0  0  0  0  0  0  # atno 17321 bound_to 7965
  140.7435  143.2847  151.3497 LP  0  0  0  0  0  0  0  0  0  0  0  0  # atno 17342 bound_to 10162
  139.6302  144.0735  152.2470 LP  0  0  0  0  0  0  0  0  0  0  0  0  # atno 17343 bound_to 10162
  157.0835  131.0150  151.3148 LP  0  0  0  0  0  0  0  0  0  0  0  0  # atno 17370 bound_to 10713
  157.4909  130.7821  149.7506 LP  0  0  0  0  0  0  0  0  0  0  0  0  # atno 17371 bound_to 10713
  139.9021  134.8531  156.1851 LP  0  0  0  0  0  0  0  0  0  0  0  0  # atno 17394 bound_to 11000
  141.0484  133.6901  156.1726 LP  0  0  0  0  0  0  0  0  0  0  0  0  # atno 17395 bound_to 11000

$$$$
