AV-unprocessed.smi:2100|AV-procd|sdf|8578|dock10
  -GOLD-   2272011313D 1   1.00000     0.00000
 Structure written by MMmdl.
 40 41  0  0  0  0  0  0  0  0  2 V2000
  149.2031  140.4203  154.5468 C   0  0  0  0  0  0  0  0  0  0  0  0
  149.5241  139.0060  154.0308 C   0  0  1  0  0  0  0  0  0  0  0  0
  150.9927  138.6017  154.2497 C   0  0  0  0  0  0  0  0  0  0  0  0
  151.2542  138.2664  155.6627 N   0  0  0  0  0  0  0  0  0  0  0  0
  152.9094  138.1405  156.1706 S   0  0  0  0  0  0  0  0  0  0  0  0
  153.0176  136.9060  156.9651 O   0  0  0  0  0  0  0  0  0  0  0  0
  153.7133  138.2411  154.9414 O   0  0  0  0  0  0  0  0  0  0  0  0
  152.9317  139.4746  157.0883 N   0  5  0  0  0  0  0  0  0  0  0  0
  152.1502  139.5185  158.3119 C   0  0  0  0  0  0  0  0  0  0  0  0
  152.6698  140.6484  159.2310 C   0  0  0  0  0  0  0  0  0  0  0  0
  152.3032  142.0638  158.7881 C   0  0  0  0  0  0  0  0  0  0  0  0
  152.7350  143.1854  159.5332 C   0  0  0  0  0  0  0  0  0  0  0  0
  152.3736  144.4714  159.0902 C   0  0  0  0  0  0  0  0  0  0  0  0
  151.6057  144.5932  157.9165 C   0  0  0  0  0  0  0  0  0  0  0  0
  151.2317  143.4174  157.2362 C   0  0  0  0  0  0  0  0  0  0  0  0
  151.5716  142.1787  157.6525 N   0  0  0  0  0  0  0  0  0  0  0  0
  150.2999  137.2850  156.1979 C   0  0  0  0  0  0  0  0  0  0  0  0
  148.8504  137.7407  155.9516 C   0  0  2  0  0  0  0  0  0  0  0  0
  147.8373  136.6692  156.3689 C   0  0  0  0  0  0  0  0  0  0  0  0
  148.6488  138.0182  154.5701 O   0  0  0  0  0  0  0  0  0  0  0  0
  149.7907  141.1674  154.0125 H   0  0  0  0  0  0  0  0  0  0  0  0
  149.4295  140.5342  155.6066 H   0  0  0  0  0  0  0  0  0  0  0  0
  148.1501  140.6600  154.3992 H   0  0  0  0  0  0  0  0  0  0  0  0
  149.3407  139.0154  152.9559 H   0  0  0  0  0  0  0  0  0  0  0  0
  151.2293  137.7293  153.6397 H   0  0  0  0  0  0  0  0  0  0  0  0
  151.6509  139.4017  153.9118 H   0  0  0  0  0  0  0  0  0  0  0  0
  151.0963  139.6958  158.0960 H   0  0  0  0  0  0  0  0  0  0  0  0
  152.1865  138.5745  158.8566 H   0  0  0  0  0  0  0  0  0  0  0  0
  152.3103  140.4917  160.2491 H   0  0  0  0  0  0  0  0  0  0  0  0
  153.7568  140.5818  159.2914 H   0  0  0  0  0  0  0  0  0  0  0  0
  153.3166  143.0587  160.4347 H   0  0  0  0  0  0  0  0  0  0  0  0
  152.6791  145.3482  159.6416 H   0  0  0  0  0  0  0  0  0  0  0  0
  151.3098  145.5639  157.5473 H   0  0  0  0  0  0  0  0  0  0  0  0
  150.6441  143.4733  156.3320 H   0  0  0  0  0  0  0  0  0  0  0  0
  150.4870  136.3196  155.7258 H   0  0  0  0  0  0  0  0  0  0  0  0
  150.4607  137.1559  157.2681 H   0  0  0  0  0  0  0  0  0  0  0  0
  148.6479  138.6371  156.5378 H   0  0  0  0  0  0  0  0  0  0  0  0
  147.9324  136.4316  157.4287 H   0  0  0  0  0  0  0  0  0  0  0  0
  147.9826  135.7479  155.8043 H   0  0  0  0  0  0  0  0  0  0  0  0
  146.8164  137.0095  156.1951 H   0  0  0  0  0  0  0  0  0  0  0  0
  1  2  1  0  0  0  0
  1 21  1  0  0  0  0
  1 22  1  0  0  0  0
  1 23  1  0  0  0  0
  2 20  1  0  0  0  0
  2  3  1  0  0  0  0
  2 24  1  0  0  0  0
  3  4  1  0  0  0  0
  3 25  1  0  0  0  0
  3 26  1  0  0  0  0
  4  5  1  0  0  0  0
  4 17  1  0  0  0  0
  5  6  2  0  0  0  0
  5  7  2  0  0  0  0
  5  8  1  0  0  0  0
  8  9  1  0  0  0  0
  9 10  1  0  0  0  0
  9 27  1  0  0  0  0
  9 28  1  0  0  0  0
 10 11  1  0  0  0  0
 10 29  1  0  0  0  0
 10 30  1  0  0  0  0
 11 16  1  0  0  0  0
 11 12  2  0  0  0  0
 12 13  1  0  0  0  0
 12 31  1  0  0  0  0
 13 14  2  0  0  0  0
 13 32  1  0  0  0  0
 14 15  1  0  0  0  0
 14 33  1  0  0  0  0
 15 16  2  0  0  0  0
 15 34  1  0  0  0  0
 17 18  1  0  0  0  0
 17 35  1  0  0  0  0
 17 36  1  0  0  0  0
 18 19  1  0  0  0  0
 18 20  1  0  0  0  0
 18 37  1  0  0  0  0
 19 38  1  0  0  0  0
 19 39  1  0  0  0  0
 19 40  1  0  0  0  0
M  CHG  1   8  -1
M  END
> <s_m_source_file>
AV-unprocessed.smi

> <i_m_source_file_index>
2100

> <i_lp_mmshare_version>
43012

> <i_f3d_flags>
0

> <s_epik_input>
W0NIM11bQ0BASF0xW0NIMl1OKFtDSDJdW0NASF0oTzEpW0NIM10pUyg9TykoPU8pW05IXVtDSDJdW0NIMl1jMltjSF1bY0hdW2NIXVtjSF1uMg==

> <s_epik_cmdline>
J2VwaWtfcHl0aG9uJywgJy1waCcsICc3LjAnLCAnLXRuJywgJzgnLCAnLW1hJywgJzIwMCcsICctbWV0YWxfYmluZGluZycsICctaW1hZScsICc8aW5maWxlLm1hZT4nLCAnLW9tYWUnLCAnPG91dGZpbGUubWFlPic=

> <r_epik_Ionization_Penalty>
1.27779

> <r_epik_Ionization_Penalty_Charging>
1.20871

> <r_epik_Ionization_Penalty_Neutral>
0.0690773

> <r_epik_State_Penalty>
1.64557

> <r_epik_Charging_Adjusted_Penalty>
2.85428

> <i_epik_Tot_Q>
-1

> <i_epik_Tot_abs_Q>
1

> <r_epik_Metal_State_Penalty>
0.643506

> <b_epik_Metal_Only>
0

> <s_lp_Force_Field>
OPLS_2005

> <r_lp_Energy>
10.0642

> <b_lp_Chiralities_Consistent>
1

> <s_lp_Variant>
AV-unprocessed.smi:2100-6

> <Gold.Version>
5.8.1

> <Gold.Id.Protein>
6NUR|6NUR_protein|mol2

> <Gold.PLP.Fitness>
47.0981

> <Gold.PLP.PLP>
-35.6403

> <Gold.PLP.part.hbond>
-3.6490

> <Gold.PLP.part.metal>
0.0000

> <Gold.PLP.part.buried>
-3.9983

> <Gold.PLP.part.nonpolar>
-28.4792

> <Gold.PLP.part.repulsive>
0.2158

> <Gold.PLP.ligand.clash>
0.0000

> <Gold.PLP.ligand.torsion>
0.9725

> <Gold.PLP.Chemscore.Hbond>
2.9516

> <Gold.PLP.Chemscore.CHOScore>
1.0000

> <Gold.PLP.Chemscore.Metal>
0.0000

> <Gold.Chemscore.Hbonds>
donor molecule, donor type, donor heavy atom, donor atom, acceptor molecule, acceptor atom, score
      P1  H  7997  8009       L1     8  1.90
      P1  H 10752 10765       L1     6  0.37
      L1  C    15    34       P1  8028  1.00

> <Gold.PLP.Chemscore.Internal.Correction>
1.5480

> <Gold.Rescore>
     Score         DG    S(hbond)    S(metal)    S(lipo)     H(rot)  DE(clash)    DE(int)     intcor
     17.56     -18.73       1.76        0.00      95.31       1.47       0.16       1.00       ----

> <Gold.Chemscore.Fitness>
17.5606

> <Gold.Chemscore.DG>
-18.7274

> <Gold.Chemscore.ZeroCoef>
-5.4800

> <Gold.Chemscore.Hbond>
1.7567

> <Gold.Chemscore.Metal>
0.0000

> <Gold.Chemscore.Lipo>
95.3086

> <Gold.Chemscore.Internal_Hbond>
0.0000

> <Gold.Chemscore.DEClash>
0.1644

> <Gold.Chemscore.DEInternal>
1.0025

> <Gold.Chemscore.Rot>
1.4731

> <Gold.Chemscore.Internal.Correction>
   9.000000E+99

> <Gold.Chemscore.Hbonds>
donor molecule, donor type, donor heavy atom, donor atom, acceptor molecule, acceptor atom, score
      P1  H  7997  8009       L1     8  0.21
      P1  H 10752 10765       L1     6  0.09

> <Gold.Chemscore.Hbond.Weighted>
-5.8675

> <Gold.Chemscore.Metal.Weighted>
-0.0000

> <Gold.Chemscore.Lipo.Weighted>
-11.1511

> <Gold.Chemscore.Internal_Hbond.Weighted>
0.0000

> <Gold.Chemscore.DEClash.Weighted>
0.1644

> <Gold.Chemscore.DEInternal.Weighted>
1.0025

> <Gold.Chemscore.Rot.Weighted>
3.7712

> <Gold.Chemscore.Internal.Correction.Weighted>
   9.000000E+99

> <Gold.Protein.RotatedTorsions>
[ 6907 6896 6895 6894 ] final  -19.71 input  -60.11 | X-H torsion
[ 7974 7965 7964 7962 ] final  -47.23 input  175.53 | X-H torsion
[ 8008 7997 7996 7995 ] final -178.04 input   59.86 | X-H torsion
[ 10167 10162 10161 10158 ] final   55.42 input  -65.29 | X-H torsion
[ 10718 10713 10712 10709 ] final  114.18 input   66.30 | X-H torsion
[ 10763 10752 10751 10750 ] final -122.01 input  -60.55 | X-H torsion
[ 11005 11000 10999 10996 ] final   79.51 input  -57.11 | X-H torsion

> <Gold.Protein.ActiveResidues>
 VAL166  LYS551  ARG553  GLY616  TRP617  ASP618  TYR619  PRO620  LYS621  CYS622 
 ASP623  PHE694  ASN695  SER759  ASP760  ASP761  ALA762  ILE779  LEU786  VAL792 
 PHE793  MET794  SER795  GLU796  ALA797  LYS798  CYS799  TRP800  GLU811  SER814 

> <Gold.Protein.RotatedAtoms>
  151.2591  135.0648  159.9090 H   0  0  0  0  0  0  0  0  0  0  0  0  # atno 6907 bound_to 6896
  152.5369  134.0251  159.8009 H   0  0  0  0  0  0  0  0  0  0  0  0  # atno 6908 bound_to 6896
  151.0471  133.5606  159.2677 H   0  0  0  0  0  0  0  0  0  0  0  0  # atno 6909 bound_to 6896
  145.9638  140.7452  142.9444 H   0  0  0  0  0  0  0  0  0  0  0  0  # atno 7974 bound_to 7965
  156.0141  140.1247  157.0424 H   0  0  0  0  0  0  0  0  0  0  0  0  # atno 8008 bound_to 7997
  154.4286  140.1082  156.5940 H   0  0  0  0  0  0  0  0  0  0  0  0  # atno 8009 bound_to 7997
  155.6038  140.3471  155.4604 H   0  0  0  0  0  0  0  0  0  0  0  0  # atno 8010 bound_to 7997
  140.2196  144.3803  150.6456 H   0  0  0  0  0  0  0  0  0  0  0  0  # atno 10167 bound_to 10162
  157.6296  131.0995  150.7148 H   0  0  0  0  0  0  0  0  0  0  0  0  # atno 10718 bound_to 10713
  154.8680  135.4148  154.2712 H   0  0  0  0  0  0  0  0  0  0  0  0  # atno 10763 bound_to 10752
  153.3622  135.7004  153.6709 H   0  0  0  0  0  0  0  0  0  0  0  0  # atno 10764 bound_to 10752
  153.5605  135.3611  155.2769 H   0  0  0  0  0  0  0  0  0  0  0  0  # atno 10765 bound_to 10752
  139.9170  134.7848  156.1788 H   0  0  0  0  0  0  0  0  0  0  0  0  # atno 11005 bound_to 11000
  144.6821  140.2635  143.7316 LP  0  0  0  0  0  0  0  0  0  0  0  0  # atno 17320 bound_to 7965
  145.8003  139.1961  143.2052 LP  0  0  0  0  0  0  0  0  0  0  0  0  # atno 17321 bound_to 7965
  140.6265  143.2182  151.6587 LP  0  0  0  0  0  0  0  0  0  0  0  0  # atno 17342 bound_to 10162
  139.5149  144.3396  152.0753 LP  0  0  0  0  0  0  0  0  0  0  0  0  # atno 17343 bound_to 10162
  156.7490  130.4762  149.5461 LP  0  0  0  0  0  0  0  0  0  0  0  0  # atno 17370 bound_to 10713
  156.1491  130.6297  151.0571 LP  0  0  0  0  0  0  0  0  0  0  0  0  # atno 17371 bound_to 10713
  141.0655  133.6821  156.2036 LP  0  0  0  0  0  0  0  0  0  0  0  0  # atno 17394 bound_to 11000
  140.6592  134.4985  157.5582 LP  0  0  0  0  0  0  0  0  0  0  0  0  # atno 17395 bound_to 11000

$$$$
