#       Name:                AV-unprocessed.smi:1554
#       Creating user name   scv26
#       Creation time:       Fri Mar 27 06:43:34 2020


#       File generated by GOLD software.
#

@<TRIPOS>MOLECULE
AV-unprocessed.smi:1554
    53    55     1
SMALL
NO_CHARGES


@<TRIPOS>ATOM
      1 ****        -2.5560   5.6883  -1.9497 C.3            1 S1                 0.0000
      2 ****        -2.4836   4.3305  -1.2736 C.ar           1 S1                 0.0000
      3 ****        -3.0297   4.1773   0.0208 C.ar           1 S1                 0.0000
      4 ****        -2.9806   2.9321   0.6849 C.ar           1 S1                 0.0000
      5 ****        -3.4450   2.5600   1.9350 N.2            1 S1                 0.0000
      6 ****        -3.0979   1.2770   1.9792 C.2            1 S1                 0.0000
      7 ****        -2.4600   0.7737   0.9047 N.pl3          1 S1                 0.0000
      8 ****        -1.9783  -0.5836   0.7212 C.3            1 S1                 0.0000
      9 ****        -0.4545  -0.6931   0.9204 C.3            1 S1                 0.0000
     10 ****        -0.1304  -0.3280   2.2487 O.3            1 S1                 0.0000
     11 ****         0.0629  -2.1204   0.6549 C.3            1 S1                 0.0000
     12 ****         1.5452  -2.2070   0.7058 N.4            1 S1                 1.0000
     13 ****         2.2166  -1.6745  -0.5058 C.3            1 S1                 0.0000
     14 ****         3.7438  -1.7556  -0.3499 C.3            1 S1                 0.0000
     15 ****         4.1272  -3.1004  -0.0907 O.3            1 S1                 0.0000
     16 ****         3.5620  -3.6012   1.1159 C.3            1 S1                 0.0000
     17 ****         4.1043  -5.0162   1.3466 C.3            1 S1                 0.0000
     18 ****         2.0252  -3.5783   1.0000 C.3            1 S1                 0.0000
     19 ****        -2.3633   1.8366   0.0137 C.ar           1 S1                 0.0000
     20 ****        -1.8183   1.9756  -1.2750 C.ar           1 S1                 0.0000
     21 ****        -1.8776   3.2260  -1.9249 C.ar           1 S1                 0.0000
     22 ****        -1.2876   3.3658  -3.3172 C.3            1 S1                 0.0000
     23 ****        -3.0781   6.4160  -1.3276 H              1 S1                 0.0000
     24 ****        -3.0893   5.6166  -2.8977 H              1 S1                 0.0000
     25 ****        -1.5537   6.0711  -2.1440 H              1 S1                 0.0000
     26 ****        -3.4926   5.0181   0.5163 H              1 S1                 0.0000
     27 ****        -3.3157   0.6685   2.8450 H              1 S1                 0.0000
     28 ****        -2.5065  -1.2419   1.4126 H              1 S1                 0.0000
     29 ****        -2.2509  -0.9038  -0.2853 H              1 S1                 0.0000
     30 ****         0.0313   0.0126   0.2477 H              1 S1                 0.0000
     31 ****        -0.6229  -0.8744   2.8424 H              1 S1                 0.0000
     32 ****        -0.3715  -2.7909   1.3984 H              1 S1                 0.0000
     33 ****        -0.2828  -2.4793  -0.3158 H              1 S1                 0.0000
     34 ****         1.9018  -2.2455  -1.3808 H              1 S1                 0.0000
     35 ****         1.9308  -0.6383  -0.6826 H              1 S1                 0.0000
     36 ****         4.2318  -1.4205  -1.2653 H              1 S1                 0.0000
     37 ****         4.0897  -1.1027   0.4533 H              1 S1                 0.0000
     38 ****         3.8770  -2.9694   1.9487 H              1 S1                 0.0000
     39 ****         3.7051  -5.4453   2.2659 H              1 S1                 0.0000
     40 ****         5.1914  -5.0078   1.4296 H              1 S1                 0.0000
     41 ****         3.8393  -5.6809   0.5239 H              1 S1                 0.0000
     42 ****         1.5833  -3.9297   1.9334 H              1 S1                 0.0000
     43 ****         1.6937  -4.2567   0.2118 H              1 S1                 0.0000
     44 ****        -1.3588   1.1265  -1.7589 H              1 S1                 0.0000
     45 ****        -0.8917   2.4163  -3.6788 H              1 S1                 0.0000
     46 ****        -0.4731   4.0902  -3.3158 H              1 S1                 0.0000
     47 ****        -2.0478   3.6999  -4.0236 H              1 S1                 0.0000
     48 ****         1.8370  -1.6322   1.4842 H              1 S1                 0.0000
     49 ****        -3.9171   3.1108   2.6233 LP             1 S1                 0.0000
     50 ****        -0.3662   0.6318   2.4008 LP             1 S1                 0.0000
     51 ****         0.8486  -0.4594   2.4043 LP             1 S1                 0.0000
     52 ****         5.1238  -3.1427  -0.0206 LP             1 S1                 0.0000
     53 ****         3.8219  -3.6739  -0.8510 LP             1 S1                 0.0000
@<TRIPOS>BOND
    1    1    2 1     
    2    1   23 1     
    3    1   24 1     
    4    1   25 1     
    5    2   21 ar    
    6    2    3 ar    
    7    3    4 ar    
    8    3   26 1     
    9    4   19 ar    
   10    4    5 1     
   11    5    6 2     
   12    6    7 1     
   13    6   27 1     
   14    7    8 1     
   15    7   19 1     
   16    8    9 1     
   17    8   28 1     
   18    8   29 1     
   19    9   10 1     
   20    9   11 1     
   21    9   30 1     
   22   10   31 1     
   23   11   12 1     
   24   11   32 1     
   25   11   33 1     
   26   12   18 1     
   27   12   13 1     
   28   12   48 1     
   29   13   14 1     
   30   13   34 1     
   31   13   35 1     
   32   14   15 1     
   33   14   36 1     
   34   14   37 1     
   35   15   16 1     
   36   16   17 1     
   37   16   18 1     
   38   16   38 1     
   39   17   39 1     
   40   17   40 1     
   41   17   41 1     
   42   18   42 1     
   43   18   43 1     
   44   19   20 ar    
   45   20   21 ar    
   46   20   44 1     
   47   21   22 1     
   48   22   45 1     
   49   22   46 1     
   50   22   47 1     
   51    5   49 1     
   52   10   50 1     
   53   10   51 1     
   54   15   52 1     
   55   15   53 1     
@<TRIPOS>SUBSTRUCTURE
      1 S1             1
@<TRIPOS>SET
LONE_PAIRS      STATIC     ATOMS    <user>   **** ""
5 49 50 51 52 53
DONOR_HYDROGENS      STATIC     ATOMS    <user>   **** ""
2 31 48
ATOM$BLUE        STATIC     ATOMS    COLORGROUP SYSTEM
5 49 50 51 52 53
ATOM$RED        STATIC     ATOMS    COLORGROUP SYSTEM
2 31 48
