#       Name:                AV-unprocessed.smi:1336
#       Creating user name   scv26
#       Creation time:       Fri Mar 27 05:07:54 2020


#       File generated by GOLD software.
#

@<TRIPOS>MOLECULE
AV-unprocessed.smi:1336
    48    48     1
SMALL
NO_CHARGES


@<TRIPOS>ATOM
      1 ****        -5.6629   4.2891  -0.9680 C.3            1 S1                 0.0000
      2 ****        -4.9822   2.9451  -1.2477 C.3            1 S1                 0.0000
      3 ****        -3.9308   2.5875  -0.1847 C.3            1 S1                 0.0000
      4 ****        -3.3169   1.2919  -0.4500 N.am           1 S1                 0.0000
      5 ****        -2.3234   1.0733  -1.3249 C.2            1 S1                 0.0000
      6 ****        -1.8265   1.9629  -2.0181 O.2            1 S1                 0.0000
      7 ****        -1.8313  -0.3787  -1.4439 C.3            1 S1                 0.0000
      8 ****        -2.4630  -0.9967  -2.7023 C.3            1 S1                 0.0000
      9 ****        -0.3778  -0.4227  -1.5986 N.am           1 S1                 0.0000
     10 ****         0.5117  -0.3095  -0.5987 C.2            1 S1                 0.0000
     11 ****         0.1861  -0.1624   0.5799 O.2            1 S1                 0.0000
     12 ****         1.9910  -0.3653  -0.9897 C.3            1 S1                 0.0000
     13 ****         2.6922  -1.4651  -0.2463 C.2            1 S1                 0.0000
     14 ****         2.7486  -2.7919  -0.5957 C.2            1 S1                 0.0000
     15 ****         3.6673  -3.7279   0.5512 S.3            1 S1                 0.0000
     16 ****         3.9536  -2.2586   1.4775 C.2            1 S1                 0.0000
     17 ****         4.7463  -2.2290   2.7465 C.3            1 S1                 0.0000
     18 ****         3.8855  -1.8317   3.9546 C.3            1 S1                 0.0000
     19 ****         6.0206  -1.3830   2.6120 C.3            1 S1                 0.0000
     20 ****         3.3888  -1.1775   0.9318 N.2            1 S1                 0.0000
     21 ****        -6.4052   4.5156  -1.7335 H              1 S1                 0.0000
     22 ****        -4.9370   5.1027  -0.9572 H              1 S1                 0.0000
     23 ****        -6.1712   4.2801  -0.0035 H              1 S1                 0.0000
     24 ****        -5.7394   2.1615  -1.2929 H              1 S1                 0.0000
     25 ****        -4.5166   2.9811  -2.2332 H              1 S1                 0.0000
     26 ****        -3.1633   3.3613  -0.1287 H              1 S1                 0.0000
     27 ****        -4.3980   2.5432   0.7995 H              1 S1                 0.0000
     28 ****        -3.6667   0.5047   0.0769 H              1 S1                 0.0000
     29 ****        -2.1292  -0.9538  -0.5647 H              1 S1                 0.0000
     30 ****        -3.5518  -1.0013  -2.6373 H              1 S1                 0.0000
     31 ****        -2.1425  -2.0311  -2.8308 H              1 S1                 0.0000
     32 ****        -2.1862  -0.4518  -3.6063 H              1 S1                 0.0000
     33 ****        -0.0243  -0.5303  -2.5381 H              1 S1                 0.0000
     34 ****         2.0905  -0.5127  -2.0661 H              1 S1                 0.0000
     35 ****         2.4438   0.6022  -0.7698 H              1 S1                 0.0000
     36 ****         2.3036  -3.2743  -1.4532 H              1 S1                 0.0000
     37 ****         5.0750  -3.2532   2.9268 H              1 S1                 0.0000
     38 ****         3.0342  -2.5037   4.0675 H              1 S1                 0.0000
     39 ****         3.4980  -0.8179   3.8487 H              1 S1                 0.0000
     40 ****         4.4629  -1.8719   4.8784 H              1 S1                 0.0000
     41 ****         6.6491  -1.7467   1.7986 H              1 S1                 0.0000
     42 ****         6.6125  -1.4163   3.5271 H              1 S1                 0.0000
     43 ****         5.7832  -0.3383   2.4088 H              1 S1                 0.0000
     44 ****        -2.1627   2.9017  -1.9433 LP             1 S1                 0.0000
     45 ****        -1.0870   1.7460  -2.6554 LP             1 S1                 0.0000
     46 ****        -0.7812  -0.1222   0.8301 LP             1 S1                 0.0000
     47 ****         0.8891  -0.0831   1.2866 LP             1 S1                 0.0000
     48 ****         3.4570  -0.2602   1.3241 LP             1 S1                 0.0000
@<TRIPOS>BOND
    1    1    2 1     
    2    1   21 1     
    3    1   22 1     
    4    1   23 1     
    5    2    3 1     
    6    2   24 1     
    7    2   25 1     
    8    3    4 1     
    9    3   26 1     
   10    3   27 1     
   11    4    5 am    
   12    4   28 1     
   13    5    6 2     
   14    5    7 1     
   15    7    8 1     
   16    7    9 1     
   17    7   29 1     
   18    8   30 1     
   19    8   31 1     
   20    8   32 1     
   21    9   10 am    
   22    9   33 1     
   23   10   11 2     
   24   10   12 1     
   25   12   13 1     
   26   12   34 1     
   27   12   35 1     
   28   13   20 1     
   29   13   14 2     
   30   14   15 1     
   31   14   36 1     
   32   15   16 1     
   33   16   17 1     
   34   16   20 2     
   35   17   18 1     
   36   17   19 1     
   37   17   37 1     
   38   18   38 1     
   39   18   39 1     
   40   18   40 1     
   41   19   41 1     
   42   19   42 1     
   43   19   43 1     
   44    6   44 1     
   45    6   45 1     
   46   11   46 1     
   47   11   47 1     
   48   20   48 1     
@<TRIPOS>SUBSTRUCTURE
      1 S1             1
@<TRIPOS>SET
LONE_PAIRS      STATIC     ATOMS    <user>   **** ""
5 44 45 46 47 48
DONOR_HYDROGENS      STATIC     ATOMS    <user>   **** ""
2 28 33
ATOM$BLUE        STATIC     ATOMS    COLORGROUP SYSTEM
5 44 45 46 47 48
ATOM$RED        STATIC     ATOMS    COLORGROUP SYSTEM
2 28 33
