AV-unprocessed.smi:1395|AV-procd|sdf|5671|dock2
  -GOLD-   22720 5293D 1   1.00000     0.00000
 Structure written by MMmdl.
 43 44  0  0  0  0  0  0  0  0  2 V2000
  153.8061  138.9911  160.0314 C   0  0  0  0  0  0  0  0  0  0  0  0
  153.2534  140.3872  159.7945 C   0  0  0  0  0  0  0  0  0  0  0  0
  153.7567  141.4662  160.5520 C   0  0  0  0  0  0  0  0  0  0  0  0
  153.2445  142.7565  160.3327 C   0  0  0  0  0  0  0  0  0  0  0  0
  152.2440  142.9139  159.3584 C   0  0  0  0  0  0  0  0  0  0  0  0
  151.7574  141.8885  158.6300 N   0  0  0  0  0  0  0  0  0  0  0  0
  152.2416  140.6369  158.8289 C   0  0  0  0  0  0  0  0  0  0  0  0
  151.7737  139.5079  158.0986 N   0  0  0  0  0  0  0  0  0  0  0  0
  151.9039  139.2488  156.7853 C   0  0  0  0  0  0  0  0  0  0  0  0
  152.4877  139.9633  155.9701 O   0  0  0  0  0  0  0  0  0  0  0  0
  151.3078  138.0926  156.4573 N   0  0  0  0  0  0  0  0  0  0  0  0
  151.2715  137.5124  155.1148 C   0  0  2  0  0  0  0  0  0  0  0  0
  150.7394  138.5130  154.0690 C   0  0  0  0  0  0  0  0  0  0  0  0
  149.2331  138.7782  154.2381 C   0  0  0  0  0  0  0  0  0  0  0  0
  148.4583  137.5122  154.1893 N   0  3  2  0  0  0  0  0  0  0  0  0
  146.9903  137.7467  154.2085 C   0  0  0  0  0  0  0  0  0  0  0  0
  146.4395  138.4883  152.9809 C   0  0  0  0  0  0  0  0  0  0  0  0
  145.5171  137.8908  152.2179 N   0  0  0  0  0  0  0  0  0  0  0  0
  146.8523  139.6157  152.7234 O   0  0  0  0  0  0  0  0  0  0  0  0
  148.9068  136.5593  155.2402 C   0  0  0  0  0  0  0  0  0  0  0  0
  150.4065  136.2400  155.1005 C   0  0  0  0  0  0  0  0  0  0  0  0
  154.5777  138.9952  160.8020 H   0  0  0  0  0  0  0  0  0  0  0  0
  154.2484  138.5947  159.1170 H   0  0  0  0  0  0  0  0  0  0  0  0
  153.0129  138.3166  160.3553 H   0  0  0  0  0  0  0  0  0  0  0  0
  154.5263  141.3107  161.2938 H   0  0  0  0  0  0  0  0  0  0  0  0
  153.6086  143.6026  160.8962 H   0  0  0  0  0  0  0  0  0  0  0  0
  151.8225  143.8878  159.1583 H   0  0  0  0  0  0  0  0  0  0  0  0
  151.2769  138.8197  158.6441 H   0  0  0  0  0  0  0  0  0  0  0  0
  150.8592  137.5679  157.1938 H   0  0  0  0  0  0  0  0  0  0  0  0
  152.2912  137.2308  154.8459 H   0  0  0  0  0  0  0  0  0  0  0  0
  151.2918  139.4520  154.1157 H   0  0  0  0  0  0  0  0  0  0  0  0
  150.9178  138.1123  153.0702 H   0  0  0  0  0  0  0  0  0  0  0  0
  149.0393  139.2914  155.1813 H   0  0  0  0  0  0  0  0  0  0  0  0
  148.8999  139.4446  153.4416 H   0  0  0  0  0  0  0  0  0  0  0  0
  146.4625  136.8003  154.3380 H   0  0  0  0  0  0  0  0  0  0  0  0
  146.7324  138.3609  155.0724 H   0  0  0  0  0  0  0  0  0  0  0  0
  145.1300  138.3568  151.4111 H   0  0  0  0  0  0  0  0  0  0  0  0
  145.1999  136.9631  152.4632 H   0  0  0  0  0  0  0  0  0  0  0  0
  148.7008  136.9801  156.2256 H   0  0  0  0  0  0  0  0  0  0  0  0
  148.3377  135.6319  155.1739 H   0  0  0  0  0  0  0  0  0  0  0  0
  150.5697  135.7073  154.1625 H   0  0  0  0  0  0  0  0  0  0  0  0
  150.7208  135.5591  155.8926 H   0  0  0  0  0  0  0  0  0  0  0  0
  148.6676  137.0922  153.2953 H   0  0  0  0  0  0  0  0  0  0  0  0
  1  2  1  0  0  0  0
  1 22  1  0  0  0  0
  1 23  1  0  0  0  0
  1 24  1  0  0  0  0
  2  7  1  0  0  0  0
  2  3  2  0  0  0  0
  3  4  1  0  0  0  0
  3 25  1  0  0  0  0
  4  5  2  0  0  0  0
  4 26  1  0  0  0  0
  5  6  1  0  0  0  0
  5 27  1  0  0  0  0
  6  7  2  0  0  0  0
  7  8  1  0  0  0  0
  8  9  1  0  0  0  0
  8 28  1  0  0  0  0
  9 10  2  0  0  0  0
  9 11  1  0  0  0  0
 11 12  1  0  0  0  0
 11 29  1  0  0  0  0
 12 21  1  0  0  0  0
 12 13  1  0  0  0  0
 12 30  1  0  0  0  0
 13 14  1  0  0  0  0
 13 31  1  0  0  0  0
 13 32  1  0  0  0  0
 14 15  1  0  0  0  0
 14 33  1  0  0  0  0
 14 34  1  0  0  0  0
 15 16  1  0  0  0  0
 15 20  1  0  0  0  0
 15 43  1  0  0  0  0
 16 17  1  0  0  0  0
 16 35  1  0  0  0  0
 16 36  1  0  0  0  0
 17 18  1  0  0  0  0
 17 19  2  0  0  0  0
 18 37  1  0  0  0  0
 18 38  1  0  0  0  0
 20 21  1  0  0  0  0
 20 39  1  0  0  0  0
 20 40  1  0  0  0  0
 21 41  1  0  0  0  0
 21 42  1  0  0  0  0
M  CHG  1  15   1
M  END
> <s_m_source_file>
AV-unprocessed.smi

> <i_m_source_file_index>
1395

> <i_lp_mmshare_version>
43012

> <i_f3d_flags>
0

> <s_epik_input>
W0NIM11jMVtjSF1bY0hdW2NIXW5jMVtOSF1DKD1PKVtOSF1bQ0hdMltDSDJdW0NIMl1OKFtDSDJdW0NIMl0yKVtDSDJdQyg9TylbTkgyXQ==

> <s_epik_cmdline>
J2VwaWtfcHl0aG9uJywgJy1waCcsICc3LjAnLCAnLXRuJywgJzgnLCAnLW1hJywgJzIwMCcsICctbWV0YWxfYmluZGluZycsICctaW1hZScsICc8aW5maWxlLm1hZT4nLCAnLW9tYWUnLCAnPG91dGZpbGUubWFlPic=

> <r_epik_Ionization_Penalty>
0.83893

> <r_epik_Ionization_Penalty_Charging>
0.838844

> <r_epik_Ionization_Penalty_Neutral>
8.62421e-05

> <r_epik_State_Penalty>
0.8734

> <r_epik_Charging_Adjusted_Penalty>
1.71224

> <i_epik_Tot_Q>
1

> <i_epik_Tot_abs_Q>
1

> <r_epik_Metal_State_Penalty>
0.890705

> <b_epik_Metal_Only>
0

> <s_lp_Force_Field>
OPLS_2005

> <r_lp_Energy>
18.2774

> <b_lp_Chiralities_Consistent>
1

> <s_lp_Variant>
AV-unprocessed.smi:1395-3

> <Gold.Version>
5.8.1

> <Gold.Id.Protein>
6NUR|6NUR_protein|mol2

> <Gold.PLP.Fitness>
45.6366

> <Gold.PLP.PLP>
-35.0846

> <Gold.PLP.part.hbond>
-3.8302

> <Gold.PLP.part.metal>
0.0000

> <Gold.PLP.part.buried>
-6.0332

> <Gold.PLP.part.nonpolar>
-26.3076

> <Gold.PLP.part.repulsive>
1.2575

> <Gold.PLP.ligand.clash>
0.0000

> <Gold.PLP.ligand.torsion>
0.7023

> <Gold.PLP.Chemscore.Hbond>
3.9760

> <Gold.PLP.Chemscore.CHOScore>
0.0000

> <Gold.PLP.Chemscore.Metal>
0.0000

> <Gold.Chemscore.Hbonds>
donor molecule, donor type, donor heavy atom, donor atom, acceptor molecule, acceptor atom, score
      L1  H    15    43       P1  7948  2.00
      L1  H    18    37       P1 10171  0.98
      P1  H  7997  8008       L1    10  1.00

> <Gold.PLP.Chemscore.Internal.Correction>
0.0286

> <Gold.Rescore>
     Score         DG    S(hbond)    S(metal)    S(lipo)     H(rot)  DE(clash)    DE(int)     intcor
     18.50     -19.50       2.99        0.00      77.53       1.96       0.15       0.85       ----

> <Gold.Chemscore.Fitness>
18.4973

> <Gold.Chemscore.DG>
-19.4996

> <Gold.Chemscore.ZeroCoef>
-5.4800

> <Gold.Chemscore.Hbond>
2.9854

> <Gold.Chemscore.Metal>
0.0000

> <Gold.Chemscore.Lipo>
77.5348

> <Gold.Chemscore.Internal_Hbond>
0.0000

> <Gold.Chemscore.DEClash>
0.1476

> <Gold.Chemscore.DEInternal>
0.8548

> <Gold.Chemscore.Rot>
1.9622

> <Gold.Chemscore.Internal.Correction>
   9.000000E+99

> <Gold.Chemscore.Hbonds>
donor molecule, donor type, donor heavy atom, donor atom, acceptor molecule, acceptor atom, score
      L1  H    15    43       P1  7948  1.00
      L1  H    18    37       P1 10171  0.90
      P1  H  7997  8008       L1    10  0.94

> <Gold.Chemscore.Hbond.Weighted>
-9.9713

> <Gold.Chemscore.Metal.Weighted>
-0.0000

> <Gold.Chemscore.Lipo.Weighted>
-9.0716

> <Gold.Chemscore.Internal_Hbond.Weighted>
0.0000

> <Gold.Chemscore.DEClash.Weighted>
0.1476

> <Gold.Chemscore.DEInternal.Weighted>
0.8548

> <Gold.Chemscore.Rot.Weighted>
5.0232

> <Gold.Chemscore.Internal.Correction.Weighted>
   9.000000E+99

> <Gold.Protein.RotatedTorsions>
[ 6907 6896 6895 6894 ] final  -23.47 input  -60.11 | X-H torsion
[ 7974 7965 7964 7962 ] final   17.10 input  175.53 | X-H torsion
[ 8008 7997 7996 7995 ] final  -34.10 input   59.86 | X-H torsion
[ 10167 10162 10161 10158 ] final  -65.40 input  -65.29 | X-H torsion
[ 10718 10713 10712 10709 ] final  -81.45 input   66.30 | X-H torsion
[ 10763 10752 10751 10750 ] final  141.52 input  -60.55 | X-H torsion
[ 11005 11000 10999 10996 ] final   64.79 input  -57.11 | X-H torsion

> <Gold.Protein.ActiveResidues>
 VAL166  LYS551  ARG553  GLY616  TRP617  ASP618  TYR619  PRO620  LYS621  CYS622 
 ASP623  PHE694  ASN695  SER759  ASP760  ASP761  ALA762  ILE779  LEU786  VAL792 
 PHE793  MET794  SER795  GLU796  ALA797  LYS798  CYS799  TRP800  GLU811  SER814 

> <Gold.Protein.RotatedAtoms>
  151.2036  135.0452  159.8882 H   0  0  0  0  0  0  0  0  0  0  0  0  # atno 6907 bound_to 6896
  152.5430  134.0823  159.8251 H   0  0  0  0  0  0  0  0  0  0  0  0  # atno 6908 bound_to 6896
  151.0967  133.5227  159.2644 H   0  0  0  0  0  0  0  0  0  0  0  0  # atno 6909 bound_to 6896
  146.2229  139.8652  142.8597 H   0  0  0  0  0  0  0  0  0  0  0  0  # atno 7974 bound_to 7965
  154.4130  140.1693  156.1995 H   0  0  0  0  0  0  0  0  0  0  0  0  # atno 8008 bound_to 7997
  155.9536  140.3399  155.6405 H   0  0  0  0  0  0  0  0  0  0  0  0  # atno 8009 bound_to 7997
  155.6838  140.0726  157.2465 H   0  0  0  0  0  0  0  0  0  0  0  0  # atno 8010 bound_to 7997
  140.5732  143.2319  151.6495 H   0  0  0  0  0  0  0  0  0  0  0  0  # atno 10167 bound_to 10162
  156.0050  130.4604  150.3954 H   0  0  0  0  0  0  0  0  0  0  0  0  # atno 10718 bound_to 10713
  153.9406  135.2980  155.3443 H   0  0  0  0  0  0  0  0  0  0  0  0  # atno 10763 bound_to 10752
  154.7479  135.4994  153.9239 H   0  0  0  0  0  0  0  0  0  0  0  0  # atno 10764 bound_to 10752
  153.1044  135.6743  153.9719 H   0  0  0  0  0  0  0  0  0  0  0  0  # atno 10765 bound_to 10752
  139.9936  134.6553  156.0049 H   0  0  0  0  0  0  0  0  0  0  0  0  # atno 11005 bound_to 11000
  145.2664  141.0094  143.3797 LP  0  0  0  0  0  0  0  0  0  0  0  0  # atno 17320 bound_to 7965
  144.9258  139.4357  143.6519 LP  0  0  0  0  0  0  0  0  0  0  0  0  # atno 17321 bound_to 7965
  139.5129  144.3461  152.0695 LP  0  0  0  0  0  0  0  0  0  0  0  0  # atno 17342 bound_to 10162
  140.2602  144.4076  150.6188 LP  0  0  0  0  0  0  0  0  0  0  0  0  # atno 17343 bound_to 10162
  157.2026  131.0441  151.2642 LP  0  0  0  0  0  0  0  0  0  0  0  0  # atno 17370 bound_to 10713
  157.3961  130.7308  149.6733 LP  0  0  0  0  0  0  0  0  0  0  0  0  # atno 17371 bound_to 10713
  141.1586  133.6540  156.4243 LP  0  0  0  0  0  0  0  0  0  0  0  0  # atno 17394 bound_to 11000
  140.4861  134.6619  157.5191 LP  0  0  0  0  0  0  0  0  0  0  0  0  # atno 17395 bound_to 11000

$$$$
