#       Name:                AV-unprocessed.smi:500
#       Creating user name   scv26
#       Creation time:       Thu Mar 26 23:18:44 2020


#       File generated by GOLD software.
#

@<TRIPOS>MOLECULE
AV-unprocessed.smi:500
    52    54     1
SMALL
NO_CHARGES


@<TRIPOS>ATOM
      1 ****        -3.2254   4.2046   0.3546 C.3            1 S1                 0.0000
      2 ****        -3.0790   3.8714  -1.1366 C.3            1 S1                 0.0000
      3 ****        -2.7495   2.5049  -1.3441 O.3            1 S1                 0.0000
      4 ****        -1.3863   2.1909  -1.1051 C.3            1 S1                 0.0000
      5 ****        -1.1643   0.7045  -1.4108 C.3            1 S1                 0.0000
      6 ****         0.2194   0.3095  -1.1924 N.pl3          1 S1                 0.0000
      7 ****         0.8445   0.0191  -0.0209 C.2            1 S1                 0.0000
      8 ****         0.1436   0.0678   1.3145 C.3            1 S1                 0.0000
      9 ****         0.7089   1.1653   2.2266 C.3            1 S1                 0.0000
     10 ****         0.2760  -1.2401   1.9515 N.am           1 S1                 0.0000
     11 ****        -0.4813  -2.3144   1.6766 C.2            1 S1                 0.0000
     12 ****        -1.4053  -2.3026   0.8632 O.2            1 S1                 0.0000
     13 ****        -0.1474  -3.5427   2.4215 C.2            1 S1                 0.0000
     14 ****         0.8792  -3.8294   3.2827 C.2            1 S1                 0.0000
     15 ****         0.7045  -5.1814   3.6881 C.2            1 S1                 0.0000
     16 ****        -0.4140  -5.6253   3.0435 C.2            1 S1                 0.0000
     17 ****        -0.9423  -4.6413   2.2665 O.3            1 S1                 0.0000
     18 ****         2.1299  -0.3289  -0.1267 N.2            1 S1                 0.0000
     19 ****         2.3610  -0.2473  -1.4846 C.ar           1 S1                 0.0000
     20 ****         3.5359  -0.4917  -2.2311 C.ar           1 S1                 0.0000
     21 ****         3.5355  -0.3382  -3.6328 C.ar           1 S1                 0.0000
     22 ****         2.3629   0.0608  -4.3061 C.ar           1 S1                 0.0000
     23 ****         1.1814   0.3084  -3.5809 C.ar           1 S1                 0.0000
     24 ****         1.1865   0.1527  -2.1813 C.ar           1 S1                 0.0000
     25 ****        -3.5712   5.2301   0.4868 H              1 S1                 0.0000
     26 ****        -2.2803   4.1091   0.8883 H              1 S1                 0.0000
     27 ****        -3.9504   3.5456   0.8325 H              1 S1                 0.0000
     28 ****        -4.0325   4.0562  -1.6316 H              1 S1                 0.0000
     29 ****        -2.3501   4.5265  -1.6158 H              1 S1                 0.0000
     30 ****        -0.7442   2.8008  -1.7425 H              1 S1                 0.0000
     31 ****        -1.1201   2.4045  -0.0705 H              1 S1                 0.0000
     32 ****        -1.8198   0.0759  -0.8084 H              1 S1                 0.0000
     33 ****        -1.4289   0.4984  -2.4481 H              1 S1                 0.0000
     34 ****        -0.9167   0.2780   1.1825 H              1 S1                 0.0000
     35 ****         0.6095   2.1472   1.7631 H              1 S1                 0.0000
     36 ****         1.7664   1.0044   2.4392 H              1 S1                 0.0000
     37 ****         0.1791   1.1951   3.1791 H              1 S1                 0.0000
     38 ****         1.0144  -1.3426   2.6323 H              1 S1                 0.0000
     39 ****         1.6634  -3.1504   3.5844 H              1 S1                 0.0000
     40 ****         1.3202  -5.7566   4.3637 H              1 S1                 0.0000
     41 ****        -0.9457  -6.5651   3.0229 H              1 S1                 0.0000
     42 ****         4.4391  -0.7974  -1.7241 H              1 S1                 0.0000
     43 ****         4.4391  -0.5268  -4.1937 H              1 S1                 0.0000
     44 ****         2.3706   0.1766  -5.3800 H              1 S1                 0.0000
     45 ****         0.2833   0.6147  -4.0964 H              1 S1                 0.0000
     46 ****        -2.9631   2.2716  -2.2928 LP             1 S1                 0.0000
     47 ****        -3.3111   1.9504  -0.7300 LP             1 S1                 0.0000
     48 ****        -1.6244  -1.4622   0.3676 LP             1 S1                 0.0000
     49 ****        -1.9367  -3.1335   0.6981 LP             1 S1                 0.0000
     50 ****        -0.9506  -4.9272   1.3083 LP             1 S1                 0.0000
     51 ****        -1.8754  -4.4347   2.5608 LP             1 S1                 0.0000
     52 ****         2.7677  -0.5854   0.5995 LP             1 S1                 0.0000
@<TRIPOS>BOND
    1    1    2 1     
    2    1   25 1     
    3    1   26 1     
    4    1   27 1     
    5    2    3 1     
    6    2   28 1     
    7    2   29 1     
    8    3    4 1     
    9    4    5 1     
   10    4   30 1     
   11    4   31 1     
   12    5    6 1     
   13    5   32 1     
   14    5   33 1     
   15    6   24 1     
   16    6    7 1     
   17    7    8 1     
   18    7   18 2     
   19    8    9 1     
   20    8   10 1     
   21    8   34 1     
   22    9   35 1     
   23    9   36 1     
   24    9   37 1     
   25   10   11 am    
   26   10   38 1     
   27   11   12 2     
   28   11   13 1     
   29   13   17 1     
   30   13   14 2     
   31   14   15 1     
   32   14   39 1     
   33   15   16 2     
   34   15   40 1     
   35   16   17 1     
   36   16   41 1     
   37   18   19 1     
   38   19   24 ar    
   39   19   20 ar    
   40   20   21 ar    
   41   20   42 1     
   42   21   22 ar    
   43   21   43 1     
   44   22   23 ar    
   45   22   44 1     
   46   23   24 ar    
   47   23   45 1     
   48    3   46 1     
   49    3   47 1     
   50   12   48 1     
   51   12   49 1     
   52   17   50 1     
   53   17   51 1     
   54   18   52 1     
@<TRIPOS>SUBSTRUCTURE
      1 S1             1
@<TRIPOS>SET
LONE_PAIRS      STATIC     ATOMS    <user>   **** ""
7 46 47 48 49 50 51 52
DONOR_HYDROGENS      STATIC     ATOMS    <user>   **** ""
1 38
ATOM$BLUE        STATIC     ATOMS    COLORGROUP SYSTEM
7 46 47 48 49 50 51 52
ATOM$RED        STATIC     ATOMS    COLORGROUP SYSTEM
1 38
