#       Name:                AV-unprocessed.smi:3263
#       Creating user name   scv26
#       Creation time:       Fri Mar 27 18:38:59 2020


#       File generated by GOLD software.
#

@<TRIPOS>MOLECULE
AV-unprocessed.smi:3263
    44    46     1
SMALL
NO_CHARGES


@<TRIPOS>ATOM
      1 ****         0.0869   1.9413   1.0070 O.2            1 S1                 0.0000
      2 ****        -0.2964   0.8011   1.2691 C.2            1 S1                 0.0000
      3 ****        -1.7937   0.4774   1.3008 C.3            1 S1                 0.0000
      4 ****        -2.5391   0.9702   0.0399 C.3            1 S1                 0.0000
      5 ****        -2.1384   0.2701  -1.2783 C.3            1 S1                 0.0000
      6 ****        -3.4985  -0.1277  -1.8817 C.3            1 S1                 0.0000
      7 ****        -4.0680  -1.3206  -1.0925 C.3            1 S1                 0.0000
      8 ****        -4.4959  -0.6722   0.2366 C.3            1 S1                 0.0000
      9 ****        -4.0770   0.8012   0.0514 C.3            1 S1                 0.0000
     10 ****        -4.4022   1.0126  -1.4246 C.3            1 S1                 0.0000
     11 ****         0.5401  -0.2140   1.5341 N.am           1 S1                 0.0000
     12 ****         1.9956  -0.1253   1.5184 C.3            1 S1                 0.0000
     13 ****         2.5493  -0.2182   0.0865 C.3            1 S1                 0.0000
     14 ****         4.0653  -0.1733   0.0514 C.ar           1 S1                 0.0000
     15 ****         4.8181  -1.3564  -0.1091 C.ar           1 S1                 0.0000
     16 ****         6.2231  -1.2599  -0.1312 C.ar           1 S1                 0.0000
     17 ****         6.8180   0.0087   0.0086 C.ar           1 S1                 0.0000
     18 ****         5.9780   1.1292   0.1655 C.ar           1 S1                 0.0000
     19 ****         4.6300   1.0477   0.1873 N.ar           1 S1                 0.0000
     20 ****        -1.9208  -0.5980   1.4259 H              1 S1                 0.0000
     21 ****        -2.2220   0.9468   2.1869 H              1 S1                 0.0000
     22 ****        -2.3419   2.0383  -0.0720 H              1 S1                 0.0000
     23 ****        -1.6063   0.9629  -1.9315 H              1 S1                 0.0000
     24 ****        -1.4956  -0.5977  -1.1241 H              1 S1                 0.0000
     25 ****        -3.4682  -0.2910  -2.9593 H              1 S1                 0.0000
     26 ****        -4.9299  -1.7513  -1.6035 H              1 S1                 0.0000
     27 ****        -3.3319  -2.1129  -0.9511 H              1 S1                 0.0000
     28 ****        -5.5778  -0.7443   0.3569 H              1 S1                 0.0000
     29 ****        -4.0454  -1.1489   1.1059 H              1 S1                 0.0000
     30 ****        -4.5844   1.4870   0.7305 H              1 S1                 0.0000
     31 ****        -4.0934   1.9882  -1.8041 H              1 S1                 0.0000
     32 ****        -5.4549   0.8535  -1.6651 H              1 S1                 0.0000
     33 ****         0.1398  -1.1171   1.7437 H              1 S1                 0.0000
     34 ****         2.3206   0.7996   1.9979 H              1 S1                 0.0000
     35 ****         2.3902  -0.9431   2.1217 H              1 S1                 0.0000
     36 ****         2.2069  -1.1406  -0.3848 H              1 S1                 0.0000
     37 ****         2.1606   0.5983  -0.5238 H              1 S1                 0.0000
     38 ****         4.3328  -2.3157  -0.2123 H              1 S1                 0.0000
     39 ****         6.8334  -2.1427  -0.2526 H              1 S1                 0.0000
     40 ****         7.8919   0.1208  -0.0031 H              1 S1                 0.0000
     41 ****         6.4001   2.1169   0.2770 H              1 S1                 0.0000
     42 ****        -0.5800   2.6609   0.8137 LP             1 S1                 0.0000
     43 ****         1.0652   2.1478   0.9875 LP             1 S1                 0.0000
     44 ****         4.0664   1.8659   0.3006 LP             1 S1                 0.0000
@<TRIPOS>BOND
    1    1    2 2     
    2    2    3 1     
    3    2   11 am    
    4    3    4 1     
    5    3   20 1     
    6    3   21 1     
    7    4    9 1     
    8    4    5 1     
    9    4   22 1     
   10    5    6 1     
   11    5   23 1     
   12    5   24 1     
   13    6   10 1     
   14    6    7 1     
   15    6   25 1     
   16    7    8 1     
   17    7   26 1     
   18    7   27 1     
   19    8    9 1     
   20    8   28 1     
   21    8   29 1     
   22    9   10 1     
   23    9   30 1     
   24   10   31 1     
   25   10   32 1     
   26   11   12 1     
   27   11   33 1     
   28   12   13 1     
   29   12   34 1     
   30   12   35 1     
   31   13   14 1     
   32   13   36 1     
   33   13   37 1     
   34   14   19 ar    
   35   14   15 ar    
   36   15   16 ar    
   37   15   38 1     
   38   16   17 ar    
   39   16   39 1     
   40   17   18 ar    
   41   17   40 1     
   42   18   19 ar    
   43   18   41 1     
   44    1   42 1     
   45    1   43 1     
   46   19   44 1     
@<TRIPOS>SUBSTRUCTURE
      1 S1             1
@<TRIPOS>SET
LONE_PAIRS      STATIC     ATOMS    <user>   **** ""
3 42 43 44
DONOR_HYDROGENS      STATIC     ATOMS    <user>   **** ""
1 33
ATOM$BLUE        STATIC     ATOMS    COLORGROUP SYSTEM
3 42 43 44
ATOM$RED        STATIC     ATOMS    COLORGROUP SYSTEM
1 33
