#       Name:                AV-unprocessed.smi:679
#       Creating user name   scv26
#       Creation time:       Fri Mar 27 00:28:39 2020


#       File generated by GOLD software.
#

@<TRIPOS>MOLECULE
AV-unprocessed.smi:679
    48    50     1
SMALL
NO_CHARGES


@<TRIPOS>ATOM
      1 ****        -4.5873   1.6738   0.2176 C.3            1 S1                 0.0000
      2 ****        -3.0589   1.7465   0.2010 C.3            1 S1                 0.0000
      3 ****        -2.5404   0.4327   0.0834 O.3            1 S1                 0.0000
      4 ****        -1.1223   0.3987   0.0437 C.3            1 S1                 0.0000
      5 ****        -0.5105   0.7799  -1.3080 C.3            1 S1                 0.0000
      6 ****         0.4826  -0.3704  -1.1064 C.3            1 S1                 0.0000
      7 ****         1.6981   0.0934  -0.4376 N.am           1 S1                 0.0000
      8 ****         2.8720  -0.5569  -0.4459 C.2            1 S1                 0.0000
      9 ****         3.0451  -1.6317  -1.0192 O.2            1 S1                 0.0000
     10 ****         4.0235   0.0902   0.3266 C.3            1 S1                 0.0000
     11 ****         4.3490   1.4046  -0.1964 N.pl3          1 S1                 0.0000
     12 ****         3.9456   2.6208   0.1765 C.2            1 S1                 0.0000
     13 ****         4.4788   3.5666  -0.5812 N.2            1 S1                 0.0000
     14 ****         5.2615   2.8517  -1.4724 N.2            1 S1                 0.0000
     15 ****         5.1885   1.5683  -1.2490 N.2            1 S1                 0.0000
     16 ****        -0.5409  -1.0242  -0.1409 C.3            1 S1                 0.0000
     17 ****        -1.4689  -2.0798  -0.7481 C.3            1 S1                 0.0000
     18 ****        -2.1213  -2.8358   0.4144 C.3            1 S1                 0.0000
     19 ****        -1.2367  -2.5671   1.6358 C.3            1 S1                 0.0000
     20 ****        -0.0557  -1.7460   1.1148 C.3            1 S1                 0.0000
     21 ****        -5.0237   2.6682   0.3129 H              1 S1                 0.0000
     22 ****        -4.9420   1.0707   1.0538 H              1 S1                 0.0000
     23 ****        -4.9676   1.2286  -0.7019 H              1 S1                 0.0000
     24 ****        -2.7265   2.3633  -0.6352 H              1 S1                 0.0000
     25 ****        -2.6975   2.2111   1.1195 H              1 S1                 0.0000
     26 ****        -0.6586   0.9279   0.8793 H              1 S1                 0.0000
     27 ****        -1.1893   0.6086  -2.1451 H              1 S1                 0.0000
     28 ****        -0.0716   1.7777  -1.3463 H              1 S1                 0.0000
     29 ****         0.6609  -0.9397  -2.0205 H              1 S1                 0.0000
     30 ****         1.6391   0.9676   0.0638 H              1 S1                 0.0000
     31 ****         3.7506   0.1852   1.3782 H              1 S1                 0.0000
     32 ****         4.9121  -0.5413   0.2794 H              1 S1                 0.0000
     33 ****         3.2641   2.8106   0.9926 H              1 S1                 0.0000
     34 ****        -2.2180  -1.6540  -1.4167 H              1 S1                 0.0000
     35 ****        -0.8857  -2.7812  -1.3463 H              1 S1                 0.0000
     36 ****        -3.1299  -2.4625   0.5953 H              1 S1                 0.0000
     37 ****        -2.1992  -3.9013   0.1960 H              1 S1                 0.0000
     38 ****        -1.7952  -1.9889   2.3730 H              1 S1                 0.0000
     39 ****        -0.9079  -3.4872   2.1197 H              1 S1                 0.0000
     40 ****         0.7657  -2.4186   0.8638 H              1 S1                 0.0000
     41 ****         0.3178  -1.0606   1.8763 H              1 S1                 0.0000
     42 ****        -2.8928   0.0251  -0.7590 LP             1 S1                 0.0000
     43 ****        -2.8503  -0.1038   0.8683 LP             1 S1                 0.0000
     44 ****         2.2890  -2.0635  -1.5110 LP             1 S1                 0.0000
     45 ****         3.9419  -2.0734  -0.9934 LP             1 S1                 0.0000
     46 ****         4.3482   4.5564  -0.5239 LP             1 S1                 0.0000
     47 ****         5.8131   3.2668  -2.1959 LP             1 S1                 0.0000
     48 ****         5.6597   0.8461  -1.7553 LP             1 S1                 0.0000
@<TRIPOS>BOND
    1    1    2 1     
    2    1   21 1     
    3    1   22 1     
    4    1   23 1     
    5    2    3 1     
    6    2   24 1     
    7    2   25 1     
    8    3    4 1     
    9    4   16 1     
   10    4    5 1     
   11    4   26 1     
   12    5    6 1     
   13    5   27 1     
   14    5   28 1     
   15    6    7 1     
   16    6   16 1     
   17    6   29 1     
   18    7    8 am    
   19    7   30 1     
   20    8    9 2     
   21    8   10 1     
   22   10   11 1     
   23   10   31 1     
   24   10   32 1     
   25   11   15 1     
   26   11   12 1     
   27   12   13 2     
   28   12   33 1     
   29   13   14 1     
   30   14   15 2     
   31   16   20 1     
   32   16   17 1     
   33   17   18 1     
   34   17   34 1     
   35   17   35 1     
   36   18   19 1     
   37   18   36 1     
   38   18   37 1     
   39   19   20 1     
   40   19   38 1     
   41   19   39 1     
   42   20   40 1     
   43   20   41 1     
   44    3   42 1     
   45    3   43 1     
   46    9   44 1     
   47    9   45 1     
   48   13   46 1     
   49   14   47 1     
   50   15   48 1     
@<TRIPOS>SUBSTRUCTURE
      1 S1             1
@<TRIPOS>SET
LONE_PAIRS      STATIC     ATOMS    <user>   **** ""
7 42 43 44 45 46 47 48
DONOR_HYDROGENS      STATIC     ATOMS    <user>   **** ""
1 30
ATOM$BLUE        STATIC     ATOMS    COLORGROUP SYSTEM
7 42 43 44 45 46 47 48
ATOM$RED        STATIC     ATOMS    COLORGROUP SYSTEM
1 30
