#       Name:                AV-unprocessed.smi:2735
#       Creating user name   scv26
#       Creation time:       Fri Mar 27 14:59:25 2020


#       File generated by GOLD software.
#

@<TRIPOS>MOLECULE
AV-unprocessed.smi:2735
    49    49     1
SMALL
NO_CHARGES


@<TRIPOS>ATOM
      1 ****        -3.4741   3.3812   2.8464 C.3            1 S1                 0.0000
      2 ****        -2.9339   2.0488   2.4188 C.2            1 S1                 0.0000
      3 ****        -2.6906   0.8979   3.2170 C.2            1 S1                 0.0000
      4 ****        -2.1953  -0.0244   2.3386 C.2            1 S1                 0.0000
      5 ****        -1.7367  -1.4247   2.5876 C.3            1 S1                 0.0000
      6 ****        -2.1774   0.5729   1.0872 N.pl3          1 S1                 0.0000
      7 ****        -1.6948   0.0286  -0.1825 C.3            1 S1                 0.0000
      8 ****        -2.5209   0.5084  -1.3945 C.3            1 S1                 0.0000
      9 ****        -0.1981   0.3296  -0.3503 C.2            1 S1                 0.0000
     10 ****         0.1753   1.3894  -0.8543 O.2            1 S1                 0.0000
     11 ****         0.6444  -0.6204   0.0844 N.am           1 S1                 0.0000
     12 ****         2.1048  -0.5626   0.0860 C.3            1 S1                 0.0000
     13 ****         2.7001  -1.3521  -1.1044 C.3            1 S1                 0.0000
     14 ****         2.3994  -0.7909  -2.5131 C.3            1 S1                 0.0000
     15 ****         2.8180  -1.7989  -3.5943 C.3            1 S1                 0.0000
     16 ****         3.0774   0.5673  -2.7616 C.3            1 S1                 0.0000
     17 ****         2.6229  -1.0640   1.4389 C.2            1 S1                 0.0000
     18 ****         2.2396  -2.1936   1.8186 O.co2          1 S1                 0.0000
     19 ****         3.3949  -0.3117   2.0728 O.co2          1 S1                -1.0000
     20 ****        -2.6169   1.8522   1.1509 N.2            1 S1                 0.0000
     21 ****         2.4221   0.4783   0.0099 H              1 S1                 0.0000
     22 ****        -3.6998   3.3909   3.9129 H              1 S1                 0.0000
     23 ****        -4.3923   3.6229   2.3106 H              1 S1                 0.0000
     24 ****        -2.7544   4.1769   2.6523 H              1 S1                 0.0000
     25 ****        -2.8470   0.7710   4.2780 H              1 S1                 0.0000
     26 ****        -1.9114  -1.7117   3.6248 H              1 S1                 0.0000
     27 ****        -0.6695  -1.5275   2.3920 H              1 S1                 0.0000
     28 ****        -2.2713  -2.1313   1.9530 H              1 S1                 0.0000
     29 ****        -1.8140  -1.0545  -0.1378 H              1 S1                 0.0000
     30 ****        -2.1752   0.0344  -2.3137 H              1 S1                 0.0000
     31 ****        -2.4565   1.5878  -1.5390 H              1 S1                 0.0000
     32 ****        -3.5736   0.2529  -1.2721 H              1 S1                 0.0000
     33 ****         0.2418  -1.4519   0.4920 H              1 S1                 0.0000
     34 ****         3.7825  -1.4212  -0.9835 H              1 S1                 0.0000
     35 ****         2.3358  -2.3793  -1.0490 H              1 S1                 0.0000
     36 ****         1.3231  -0.6538  -2.6138 H              1 S1                 0.0000
     37 ****         3.8909  -1.9920  -3.5625 H              1 S1                 0.0000
     38 ****         2.5755  -1.4305  -4.5914 H              1 S1                 0.0000
     39 ****         2.3044  -2.7519  -3.4647 H              1 S1                 0.0000
     40 ****         4.1600   0.4960  -2.6524 H              1 S1                 0.0000
     41 ****         2.7226   1.3300  -2.0693 H              1 S1                 0.0000
     42 ****         2.8692   0.9296  -3.7687 H              1 S1                 0.0000
     43 ****        -0.4983   2.0631  -1.1585 LP             1 S1                 0.0000
     44 ****         1.1520   1.5764  -0.9593 LP             1 S1                 0.0000
     45 ****         2.5538  -2.5599   2.6944 LP             1 S1                 0.0000
     46 ****         1.6191  -2.7296   1.2461 LP             1 S1                 0.0000
     47 ****         3.7574  -0.5995   2.9592 LP             1 S1                 0.0000
     48 ****         3.6497   0.5777   1.6933 LP             1 S1                 0.0000
     49 ****        -2.6867   2.5081   0.3992 LP             1 S1                 0.0000
@<TRIPOS>BOND
    1    1    2 1     
    2    1   22 1     
    3    1   23 1     
    4    1   24 1     
    5    2   20 2     
    6    2    3 1     
    7    3    4 2     
    8    3   25 1     
    9    4    5 1     
   10    4    6 1     
   11    5   26 1     
   12    5   27 1     
   13    5   28 1     
   14    6    7 1     
   15    6   20 1     
   16    7    8 1     
   17    7    9 1     
   18    7   29 1     
   19    8   30 1     
   20    8   31 1     
   21    8   32 1     
   22    9   10 2     
   23    9   11 am    
   24   11   12 1     
   25   11   33 1     
   26   12   21 1     
   27   12   13 1     
   28   12   17 1     
   29   13   14 1     
   30   13   34 1     
   31   13   35 1     
   32   14   15 1     
   33   14   16 1     
   34   14   36 1     
   35   15   37 1     
   36   15   38 1     
   37   15   39 1     
   38   16   40 1     
   39   16   41 1     
   40   16   42 1     
   41   17   18 ar    
   42   17   19 ar    
   43   10   43 1     
   44   10   44 1     
   45   18   45 1     
   46   18   46 1     
   47   19   47 1     
   48   19   48 1     
   49   20   49 1     
@<TRIPOS>SUBSTRUCTURE
      1 S1             1
@<TRIPOS>SET
LONE_PAIRS      STATIC     ATOMS    <user>   **** ""
7 43 44 45 46 47 48 49
DONOR_HYDROGENS      STATIC     ATOMS    <user>   **** ""
1 33
ATOM$BLUE        STATIC     ATOMS    COLORGROUP SYSTEM
7 43 44 45 46 47 48 49
ATOM$RED        STATIC     ATOMS    COLORGROUP SYSTEM
1 33
