AV-unprocessed.smi:3028|AV-procd|sdf|11519|dock5
  -GOLD-   2272016453D 1   1.00000     0.00000
 Structure written by MMmdl.
 48 49  0  0  0  0  0  0  0  0  2 V2000
  151.4346  142.6184  157.8273 C   0  0  0  0  0  0  0  0  0  0  0  0
  150.9954  141.7739  156.6664 C   0  0  0  0  0  0  0  0  0  0  0  0
  151.7451  140.7836  155.9709 C   0  0  0  0  0  0  0  0  0  0  0  0
  151.0629  140.2216  154.9869 N   0  0  0  0  0  0  0  0  0  0  0  0
  149.8560  140.8292  155.0173 N   0  0  0  0  0  0  0  0  0  0  0  0
  148.8256  140.4705  154.0489 C   0  0  2  0  0  0  0  0  0  0  0  0
  147.4692  141.0521  154.4907 C   0  0  0  0  0  0  0  0  0  0  0  0
  148.7869  138.9375  153.8057 C   0  0  1  0  0  0  0  0  0  0  0  0
  148.1494  138.1617  154.9702 C   0  0  0  0  0  0  0  0  0  0  0  0
  148.0340  138.6339  152.5667 N   0  3  0  0  0  0  0  0  0  0  0  0
  146.5628  138.6846  152.7007 C   0  0  0  0  0  0  0  0  0  0  0  0
  145.9189  137.2983  152.5724 C   0  0  0  0  0  0  0  0  0  0  0  0
  146.2384  136.3983  153.3476 O   0  0  0  0  0  0  0  0  0  0  0  0
  145.0068  137.0823  151.6096 N   0  0  0  0  0  0  0  0  0  0  0  0
  144.2782  135.8489  151.3146 C   0  0  0  0  0  0  0  0  0  0  0  0
  143.5278  135.3740  152.5682 C   0  0  0  0  0  0  0  0  0  0  0  0
  142.9030  133.9885  152.3362 C   0  0  0  0  0  0  0  0  0  0  0  0
  143.9086  133.0591  151.9469 O   0  0  0  0  0  0  0  0  0  0  0  0
  144.5394  133.4058  150.7188 C   0  0  0  0  0  0  0  0  0  0  0  0
  145.2588  134.7574  150.8599 C   0  0  0  0  0  0  0  0  0  0  0  0
  149.7885  141.7669  156.0268 C   0  0  0  0  0  0  0  0  0  0  0  0
  152.4790  142.4427  158.0858 H   0  0  0  0  0  0  0  0  0  0  0  0
  150.8441  142.4120  158.7201 H   0  0  0  0  0  0  0  0  0  0  0  0
  151.3320  143.6821  157.6122 H   0  0  0  0  0  0  0  0  0  0  0  0
  152.7600  140.4600  156.1493 H   0  0  0  0  0  0  0  0  0  0  0  0
  149.0953  140.9541  153.1086 H   0  0  0  0  0  0  0  0  0  0  0  0
  146.7144  140.9531  153.7110 H   0  0  0  0  0  0  0  0  0  0  0  0
  147.5560  142.1160  154.7143 H   0  0  0  0  0  0  0  0  0  0  0  0
  147.0927  140.5556  155.3855 H   0  0  0  0  0  0  0  0  0  0  0  0
  149.8118  138.5775  153.6976 H   0  0  0  0  0  0  0  0  0  0  0  0
  148.7321  138.2566  155.8859 H   0  0  0  0  0  0  0  0  0  0  0  0
  148.0906  137.0968  154.7422 H   0  0  0  0  0  0  0  0  0  0  0  0
  147.1380  138.5130  155.1777 H   0  0  0  0  0  0  0  0  0  0  0  0
  148.3109  139.2876  151.8483 H   0  0  0  0  0  0  0  0  0  0  0  0
  146.3089  139.1025  153.6752 H   0  0  0  0  0  0  0  0  0  0  0  0
  146.1576  139.3464  151.9341 H   0  0  0  0  0  0  0  0  0  0  0  0
  144.7942  137.8661  151.0088 H   0  0  0  0  0  0  0  0  0  0  0  0
  143.5461  135.9910  150.5203 H   0  0  0  0  0  0  0  0  0  0  0  0
  144.2141  135.3178  153.4146 H   0  0  0  0  0  0  0  0  0  0  0  0
  142.7535  136.0921  152.8412 H   0  0  0  0  0  0  0  0  0  0  0  0
  142.4316  133.6325  153.2523 H   0  0  0  0  0  0  0  0  0  0  0  0
  142.1228  134.0363  151.5750 H   0  0  0  0  0  0  0  0  0  0  0  0
  145.2556  132.6264  150.4588 H   0  0  0  0  0  0  0  0  0  0  0  0
  143.8015  133.4401  149.9158 H   0  0  0  0  0  0  0  0  0  0  0  0
  145.7216  135.0352  149.9121 H   0  0  0  0  0  0  0  0  0  0  0  0
  146.0674  134.6568  151.5855 H   0  0  0  0  0  0  0  0  0  0  0  0
  148.8971  142.3509  156.2035 H   0  0  0  0  0  0  0  0  0  0  0  0
  148.2863  137.7043  152.2627 H   0  0  0  0  0  0  0  0  0  0  0  0
  1  2  1  0  0  0  0
  1 22  1  0  0  0  0
  1 23  1  0  0  0  0
  1 24  1  0  0  0  0
  2 21  2  0  0  0  0
  2  3  1  0  0  0  0
  3  4  2  0  0  0  0
  3 25  1  0  0  0  0
  4  5  1  0  0  0  0
  5  6  1  0  0  0  0
  5 21  1  0  0  0  0
  6  7  1  0  0  0  0
  6  8  1  0  0  0  0
  6 26  1  0  0  0  0
  7 27  1  0  0  0  0
  7 28  1  0  0  0  0
  7 29  1  0  0  0  0
  8  9  1  0  0  0  0
  8 10  1  0  0  0  0
  8 30  1  0  0  0  0
  9 31  1  0  0  0  0
  9 32  1  0  0  0  0
  9 33  1  0  0  0  0
 10 11  1  0  0  0  0
 10 34  1  0  0  0  0
 10 48  1  0  0  0  0
 11 12  1  0  0  0  0
 11 35  1  0  0  0  0
 11 36  1  0  0  0  0
 12 13  2  0  0  0  0
 12 14  1  0  0  0  0
 14 15  1  0  0  0  0
 14 37  1  0  0  0  0
 15 20  1  0  0  0  0
 15 16  1  0  0  0  0
 15 38  1  0  0  0  0
 16 17  1  0  0  0  0
 16 39  1  0  0  0  0
 16 40  1  0  0  0  0
 17 18  1  0  0  0  0
 17 41  1  0  0  0  0
 17 42  1  0  0  0  0
 18 19  1  0  0  0  0
 19 20  1  0  0  0  0
 19 43  1  0  0  0  0
 19 44  1  0  0  0  0
 20 45  1  0  0  0  0
 20 46  1  0  0  0  0
 21 47  1  0  0  0  0
M  CHG  1  10   1
M  END
> <s_m_source_file>
AV-unprocessed.smi

> <i_m_source_file_index>
3028

> <i_lp_mmshare_version>
43012

> <i_f3d_flags>
0

> <s_epik_input>
W0NIM11jMVtjSF1ubihbY0hdMSlbQ0BIXShbQ0gzXSlbQ0BIXShbQ0gzXSlbTkhdW0NIMl1DKD1PKVtOSF1bQ0hdMltDSDJdW0NIMl1PW0NIMl1bQ0gyXTI=

> <s_epik_cmdline>
J2VwaWtfcHl0aG9uJywgJy1waCcsICc3LjAnLCAnLXRuJywgJzgnLCAnLW1hJywgJzIwMCcsICctbWV0YWxfYmluZGluZycsICctaW1hZScsICc8aW5maWxlLm1hZT4nLCAnLW9tYWUnLCAnPG91dGZpbGUubWFlPic=

> <r_lp_tautomer_probability>
1

> <r_epik_Ionization_Penalty>
0.151514

> <r_epik_Ionization_Penalty_Charging>
0.151494

> <r_epik_Ionization_Penalty_Neutral>
1.95502e-05

> <r_epik_State_Penalty>
0.141395

> <r_epik_Charging_Adjusted_Penalty>
0.292889

> <i_epik_Tot_Q>
1

> <i_epik_Tot_abs_Q>
1

> <r_epik_Metal_State_Penalty>
0.141632

> <b_epik_Metal_Only>
0

> <s_lp_Force_Field>
OPLS_2005

> <r_lp_Energy>
16.7547

> <b_lp_Chiralities_Consistent>
1

> <s_lp_Variant>
AV-unprocessed.smi:3028-3

> <Gold.Version>
5.8.1

> <Gold.Id.Protein>
6NUR|6NUR_protein|mol2

> <Gold.PLP.Fitness>
51.4886

> <Gold.PLP.PLP>
-36.4928

> <Gold.PLP.part.hbond>
-4.0000

> <Gold.PLP.part.metal>
0.0000

> <Gold.PLP.part.buried>
-1.7780

> <Gold.PLP.part.nonpolar>
-30.8037

> <Gold.PLP.part.repulsive>
0.4779

> <Gold.PLP.ligand.clash>
0.0000

> <Gold.PLP.ligand.torsion>
1.1093

> <Gold.PLP.Chemscore.Hbond>
4.8960

> <Gold.PLP.Chemscore.CHOScore>
0.7660

> <Gold.PLP.Chemscore.Metal>
0.0000

> <Gold.Chemscore.Hbonds>
donor molecule, donor type, donor heavy atom, donor atom, acceptor molecule, acceptor atom, score
      L1  H    10    34       P1  7957  0.90
      L1  H    10    48       P1  7948  2.00
      L1  H    14    37       P1 10171  1.00
      P1  H  7989  7998       L1     4  0.95
      L1  C    21    47       P1  8028  0.80

> <Gold.PLP.Chemscore.Internal.Correction>
0.2283

> <Gold.Rescore>
     Score         DG    S(hbond)    S(metal)    S(lipo)     H(rot)  DE(clash)    DE(int)     intcor
     17.57     -19.96       2.88        0.00      85.08       1.99       0.12       2.28       ----

> <Gold.Chemscore.Fitness>
17.5696

> <Gold.Chemscore.DG>
-19.9633

> <Gold.Chemscore.ZeroCoef>
-5.4800

> <Gold.Chemscore.Hbond>
2.8810

> <Gold.Chemscore.Metal>
0.0000

> <Gold.Chemscore.Lipo>
85.0813

> <Gold.Chemscore.Internal_Hbond>
0.0000

> <Gold.Chemscore.DEClash>
0.1153

> <Gold.Chemscore.DEInternal>
2.2784

> <Gold.Chemscore.Rot>
1.9897

> <Gold.Chemscore.Internal.Correction>
   9.000000E+99

> <Gold.Chemscore.Hbonds>
donor molecule, donor type, donor heavy atom, donor atom, acceptor molecule, acceptor atom, score
      L1  H    10    34       P1  7957  0.87
      L1  H    10    48       P1  7948  1.00
      L1  H    14    37       P1 10171  0.95
      P1  H  7989  7998       L1     4  0.14

> <Gold.Chemscore.Hbond.Weighted>
-9.6224

> <Gold.Chemscore.Metal.Weighted>
-0.0000

> <Gold.Chemscore.Lipo.Weighted>
-9.9545

> <Gold.Chemscore.Internal_Hbond.Weighted>
0.0000

> <Gold.Chemscore.DEClash.Weighted>
0.1153

> <Gold.Chemscore.DEInternal.Weighted>
2.2784

> <Gold.Chemscore.Rot.Weighted>
5.0936

> <Gold.Chemscore.Internal.Correction.Weighted>
   9.000000E+99

> <Gold.Protein.RotatedTorsions>
[ 6907 6896 6895 6894 ] final  -92.92 input  -60.11 | X-H torsion
[ 7974 7965 7964 7962 ] final -109.41 input  175.53 | X-H torsion
[ 8008 7997 7996 7995 ] final   95.48 input   59.86 | X-H torsion
[ 10167 10162 10161 10158 ] final -157.15 input  -65.29 | X-H torsion
[ 10718 10713 10712 10709 ] final  165.40 input   66.30 | X-H torsion
[ 10763 10752 10751 10750 ] final  -47.25 input  -60.55 | X-H torsion
[ 11005 11000 10999 10996 ] final    3.94 input  -57.11 | X-H torsion

> <Gold.Protein.ActiveResidues>
 VAL166  LYS551  ARG553  GLY616  TRP617  ASP618  TYR619  PRO620  LYS621  CYS622 
 ASP623  PHE694  ASN695  SER759  ASP760  ASP761  ALA762  ILE779  LEU786  VAL792 
 PHE793  MET794  SER795  GLU796  ALA797  LYS798  CYS799  TRP800  GLU811  SER814 

> <Gold.Protein.RotatedAtoms>
  150.6914  134.2048  159.4335 H   0  0  0  0  0  0  0  0  0  0  0  0  # atno 6907 bound_to 6896
  152.0012  134.9925  160.0574 H   0  0  0  0  0  0  0  0  0  0  0  0  # atno 6908 bound_to 6896
  152.1576  133.4526  159.4882 H   0  0  0  0  0  0  0  0  0  0  0  0  # atno 6909 bound_to 6896
  145.1808  140.8970  143.3481 H   0  0  0  0  0  0  0  0  0  0  0  0  # atno 7974 bound_to 7965
  156.0694  140.3286  155.7557 H   0  0  0  0  0  0  0  0  0  0  0  0  # atno 8008 bound_to 7997
  155.5330  140.0595  157.2902 H   0  0  0  0  0  0  0  0  0  0  0  0  # atno 8009 bound_to 7997
  154.4522  140.1924  156.0503 H   0  0  0  0  0  0  0  0  0  0  0  0  # atno 8010 bound_to 7997
  139.6793  143.9608  152.2328 H   0  0  0  0  0  0  0  0  0  0  0  0  # atno 10167 bound_to 10162
  157.0807  131.0391  151.2576 H   0  0  0  0  0  0  0  0  0  0  0  0  # atno 10718 bound_to 10713
  154.0583  135.6621  153.4808 H   0  0  0  0  0  0  0  0  0  0  0  0  # atno 10763 bound_to 10752
  153.0436  135.5128  154.7684 H   0  0  0  0  0  0  0  0  0  0  0  0  # atno 10764 bound_to 10752
  154.6712  135.3030  154.9706 H   0  0  0  0  0  0  0  0  0  0  0  0  # atno 10765 bound_to 10752
  140.5875  133.9955  155.8074 H   0  0  0  0  0  0  0  0  0  0  0  0  # atno 11005 bound_to 11000
  145.0138  139.3486  143.6107 LP  0  0  0  0  0  0  0  0  0  0  0  0  # atno 17320 bound_to 7965
  146.3453  139.9411  142.8741 LP  0  0  0  0  0  0  0  0  0  0  0  0  # atno 17321 bound_to 7965
  139.9394  144.6691  150.8282 LP  0  0  0  0  0  0  0  0  0  0  0  0  # atno 17342 bound_to 10162
  140.7647  143.3255  151.2526 LP  0  0  0  0  0  0  0  0  0  0  0  0  # atno 17343 bound_to 10162
  157.4803  130.7761  149.7407 LP  0  0  0  0  0  0  0  0  0  0  0  0  # atno 17370 bound_to 10713
  155.9924  130.3931  150.2942 LP  0  0  0  0  0  0  0  0  0  0  0  0  # atno 17371 bound_to 10713
  141.0957  133.9848  157.3165 LP  0  0  0  0  0  0  0  0  0  0  0  0  # atno 17394 bound_to 11000
  139.9289  135.0200  156.8332 LP  0  0  0  0  0  0  0  0  0  0  0  0  # atno 17395 bound_to 11000

$$$$
