AV-unprocessed.smi:2353|AV-procd|sdf|9383|dock8
  -GOLD-   2272013 13D 1   1.00000     0.00000
 Structure written by MMmdl.
 46 48  0  0  0  0  0  0  0  0  2 V2000
  153.4820  142.7057  163.5957 C   0  0  0  0  0  0  0  0  0  0  0  0
  152.9493  142.7163  162.1774 C   0  0  0  0  0  0  0  0  0  0  0  0
  152.1361  143.7765  161.7332 C   0  0  0  0  0  0  0  0  0  0  0  0
  151.6429  143.7789  160.4162 C   0  0  0  0  0  0  0  0  0  0  0  0
  151.9585  142.7231  159.5362 C   0  0  0  0  0  0  0  0  0  0  0  0
  151.4185  142.7437  158.1184 C   0  0  0  0  0  0  0  0  0  0  0  0
  152.7739  141.6517  159.9691 C   0  0  0  0  0  0  0  0  0  0  0  0
  153.0445  140.6516  159.0578 O   0  0  0  0  0  0  0  0  0  0  0  0
  153.9018  139.5872  159.4487 C   0  0  0  0  0  0  0  0  0  0  0  0
  153.2548  138.2561  159.0276 C   0  0  1  0  0  0  0  0  0  0  0  0
  153.3970  137.3672  160.1184 O   0  0  0  0  0  0  0  0  0  0  0  0
  151.7468  138.4112  158.7276 C   0  0  0  0  0  0  0  0  0  0  0  0
  151.4482  138.1890  157.3072 N   0  0  0  0  0  0  0  0  0  0  0  0
  150.6504  139.1669  156.7386 N   0  0  0  0  0  0  0  0  0  0  0  0
  150.3165  139.1140  155.4903 C   0  0  0  0  0  0  0  0  0  0  0  0
  149.4798  140.1476  154.9004 N   0  0  0  0  0  0  0  0  0  0  0  0
  148.5773  139.9995  153.8760 C   0  0  0  0  0  0  0  0  0  0  0  0
  148.0290  141.2376  153.6614 C   0  0  0  0  0  0  0  0  0  0  0  0
  148.6184  142.0862  154.5606 N   0  3  0  0  0  0  0  0  0  0  0  0
  149.5024  141.4253  155.3169 C   0  0  0  0  0  0  0  0  0  0  0  0
  150.7858  138.0057  154.6656 C   0  0  0  0  0  0  0  0  0  0  0  0
  151.5663  137.0591  155.2300 C   0  0  0  0  0  0  0  0  0  0  0  0
  151.9543  137.1127  156.6379 C   0  0  0  0  0  0  0  0  0  0  0  0
  152.6753  136.2698  157.1696 O   0  0  0  0  0  0  0  0  0  0  0  0
  153.2646  141.6591  161.3000 C   0  0  0  0  0  0  0  0  0  0  0  0
  153.4307  143.6983  164.0441 H   0  0  0  0  0  0  0  0  0  0  0  0
  154.5230  142.3818  163.6115 H   0  0  0  0  0  0  0  0  0  0  0  0
  152.8988  142.0203  164.2110 H   0  0  0  0  0  0  0  0  0  0  0  0
  151.8874  144.5900  162.3990 H   0  0  0  0  0  0  0  0  0  0  0  0
  151.0204  144.5968  160.0845 H   0  0  0  0  0  0  0  0  0  0  0  0
  152.2372  142.8394  157.4052 H   0  0  0  0  0  0  0  0  0  0  0  0
  150.7338  143.5778  157.9640 H   0  0  0  0  0  0  0  0  0  0  0  0
  150.8800  141.8207  157.9025 H   0  0  0  0  0  0  0  0  0  0  0  0
  154.8995  139.6899  159.0178 H   0  0  0  0  0  0  0  0  0  0  0  0
  154.0018  139.6183  160.5348 H   0  0  0  0  0  0  0  0  0  0  0  0
  153.7738  137.8619  158.1525 H   0  0  0  0  0  0  0  0  0  0  0  0
  154.3047  137.1118  160.1837 H   0  0  0  0  0  0  0  0  0  0  0  0
  151.1454  137.7735  159.3788 H   0  0  0  0  0  0  0  0  0  0  0  0
  151.4302  139.4269  158.9717 H   0  0  0  0  0  0  0  0  0  0  0  0
  148.3937  139.0531  153.3872 H   0  0  0  0  0  0  0  0  0  0  0  0
  147.2826  141.5699  152.9545 H   0  0  0  0  0  0  0  0  0  0  0  0
  150.0944  141.8697  156.0950 H   0  0  0  0  0  0  0  0  0  0  0  0
  150.5350  137.9121  153.6220 H   0  0  0  0  0  0  0  0  0  0  0  0
  151.9174  136.2364  154.6244 H   0  0  0  0  0  0  0  0  0  0  0  0
  153.8882  140.8607  161.6726 H   0  0  0  0  0  0  0  0  0  0  0  0
  148.4155  143.0747  154.6435 H   0  0  0  0  0  0  0  0  0  0  0  0
  1  2  1  0  0  0  0
  1 26  1  0  0  0  0
  1 27  1  0  0  0  0
  1 28  1  0  0  0  0
  2 25  1  0  0  0  0
  2  3  2  0  0  0  0
  3  4  1  0  0  0  0
  3 29  1  0  0  0  0
  4  5  2  0  0  0  0
  4 30  1  0  0  0  0
  5  6  1  0  0  0  0
  5  7  1  0  0  0  0
  6 31  1  0  0  0  0
  6 32  1  0  0  0  0
  6 33  1  0  0  0  0
  7  8  1  0  0  0  0
  7 25  2  0  0  0  0
  8  9  1  0  0  0  0
  9 10  1  0  0  0  0
  9 34  1  0  0  0  0
  9 35  1  0  0  0  0
 10 11  1  0  0  0  0
 10 12  1  0  0  0  0
 10 36  1  0  0  0  0
 11 37  1  0  0  0  0
 12 13  1  0  0  0  0
 12 38  1  0  0  0  0
 12 39  1  0  0  0  0
 13 23  1  0  0  0  0
 13 14  1  0  0  0  0
 14 15  2  0  0  0  0
 15 16  1  0  0  0  0
 15 21  1  0  0  0  0
 16 20  1  0  0  0  0
 16 17  1  0  0  0  0
 17 18  2  0  0  0  0
 17 40  1  0  0  0  0
 18 19  1  0  0  0  0
 18 41  1  0  0  0  0
 19 20  2  0  0  0  0
 19 46  1  0  0  0  0
 20 42  1  0  0  0  0
 21 22  2  0  0  0  0
 21 43  1  0  0  0  0
 22 23  1  0  0  0  0
 22 44  1  0  0  0  0
 23 24  2  0  0  0  0
 25 45  1  0  0  0  0
M  CHG  1  19   1
M  END
> <s_m_source_file>
AV-unprocessed.smi

> <i_m_source_file_index>
2353

> <i_lp_mmshare_version>
43012

> <i_f3d_flags>
0

> <s_epik_input>
W0NIM11jMVtjSF1bY0hdYyhbQ0gzXSljKFtjSF0xKU9bQ0gyXVtDQEhdKFtPSF0pW0NIMl1uMm5jKFtjSF1bY0hdYzI9TyktbjNbY0hdW2NIXW5bY0hdMw==

> <s_epik_cmdline>
J2VwaWtfcHl0aG9uJywgJy1waCcsICc3LjAnLCAnLXRuJywgJzgnLCAnLW1hJywgJzIwMCcsICctbWV0YWxfYmluZGluZycsICctaW1hZScsICc8aW5maWxlLm1hZT4nLCAnLW9tYWUnLCAnPG91dGZpbGUubWFlPic=

> <r_lp_tautomer_probability>
1

> <r_epik_Ionization_Penalty>
1.66053

> <r_epik_Ionization_Penalty_Charging>
2.43903e-09

> <r_epik_Ionization_Penalty_Neutral>
1.66053

> <r_epik_State_Penalty>
1.76336

> <r_epik_Charging_Adjusted_Penalty>
1.76336

> <i_epik_Tot_Q>
1

> <i_epik_Tot_abs_Q>
1

> <r_epik_Metal_State_Penalty>
1.79856

> <b_epik_Metal_Only>
0

> <s_lp_Force_Field>
OPLS_2005

> <r_lp_Energy>
39.4345

> <b_lp_Chiralities_Consistent>
1

> <s_lp_Variant>
AV-unprocessed.smi:2353-4

> <Gold.Version>
5.8.1

> <Gold.Id.Protein>
6NUR|6NUR_protein|mol2

> <Gold.PLP.Fitness>
56.1320

> <Gold.PLP.PLP>
-50.3994

> <Gold.PLP.part.hbond>
-2.2067

> <Gold.PLP.part.metal>
0.0000

> <Gold.PLP.part.buried>
0.7898

> <Gold.PLP.part.nonpolar>
-47.2276

> <Gold.PLP.part.repulsive>
0.2329

> <Gold.PLP.ligand.clash>
0.0000

> <Gold.PLP.ligand.torsion>
2.2045

> <Gold.PLP.Chemscore.Hbond>
2.9840

> <Gold.PLP.Chemscore.CHOScore>
0.3782

> <Gold.PLP.Chemscore.Metal>
0.0000

> <Gold.Chemscore.Hbonds>
donor molecule, donor type, donor heavy atom, donor atom, acceptor molecule, acceptor atom, score
      L1  H    19    46       P1  8028  1.79
      P1  H 10752 10765       L1    24  0.35
      L1  C    17    40       P1  7957  0.10

> <Gold.PLP.Chemscore.Internal.Correction>
0.0548

> <Gold.Rescore>
     Score         DG    S(hbond)    S(metal)    S(lipo)     H(rot)  DE(clash)    DE(int)     intcor
     13.85     -19.15       1.59        0.00     129.64       2.65       1.51       3.79       ----

> <Gold.Chemscore.Fitness>
13.8521

> <Gold.Chemscore.DG>
-19.1501

> <Gold.Chemscore.ZeroCoef>
-5.4800

> <Gold.Chemscore.Hbond>
1.5856

> <Gold.Chemscore.Metal>
0.0000

> <Gold.Chemscore.Lipo>
129.6382

> <Gold.Chemscore.Internal_Hbond>
0.0000

> <Gold.Chemscore.DEClash>
1.5110

> <Gold.Chemscore.DEInternal>
3.7871

> <Gold.Chemscore.Rot>
2.6537

> <Gold.Chemscore.Internal.Correction>
   9.000000E+99

> <Gold.Chemscore.Hbonds>
donor molecule, donor type, donor heavy atom, donor atom, acceptor molecule, acceptor atom, score
      L1  H    19    46       P1  8028  0.87
      P1  H 10752 10765       L1    24  0.03

> <Gold.Chemscore.Hbond.Weighted>
-5.2960

> <Gold.Chemscore.Metal.Weighted>
-0.0000

> <Gold.Chemscore.Lipo.Weighted>
-15.1677

> <Gold.Chemscore.Internal_Hbond.Weighted>
0.0000

> <Gold.Chemscore.DEClash.Weighted>
1.5110

> <Gold.Chemscore.DEInternal.Weighted>
3.7871

> <Gold.Chemscore.Rot.Weighted>
6.7935

> <Gold.Chemscore.Internal.Correction.Weighted>
   9.000000E+99

> <Gold.Protein.RotatedTorsions>
[ 6907 6896 6895 6894 ] final  -21.80 input  -60.11 | X-H torsion
[ 7974 7965 7964 7962 ] final  -39.39 input  175.53 | X-H torsion
[ 8008 7997 7996 7995 ] final -172.19 input   59.86 | X-H torsion
[ 10167 10162 10161 10158 ] final  165.79 input  -65.29 | X-H torsion
[ 10718 10713 10712 10709 ] final -152.45 input   66.30 | X-H torsion
[ 10763 10752 10751 10750 ] final -136.40 input  -60.55 | X-H torsion
[ 11005 11000 10999 10996 ] final  124.64 input  -57.11 | X-H torsion

> <Gold.Protein.ActiveResidues>
 VAL166  LYS551  ARG553  GLY616  TRP617  ASP618  TYR619  PRO620  LYS621  CYS622 
 ASP623  PHE694  ASN695  SER759  ASP760  ASP761  ALA762  ILE779  LEU786  VAL792 
 PHE793  MET794  SER795  GLU796  ALA797  LYS798  CYS799  TRP800  GLU811  SER814 

> <Gold.Protein.RotatedAtoms>
  151.2279  135.0543  159.8975 H   0  0  0  0  0  0  0  0  0  0  0  0  # atno 6907 bound_to 6896
  152.5408  134.0568  159.8145 H   0  0  0  0  0  0  0  0  0  0  0  0  # atno 6908 bound_to 6896
  151.0744  133.5391  159.2656 H   0  0  0  0  0  0  0  0  0  0  0  0  # atno 6909 bound_to 6896
  146.0401  140.6620  142.9091 H   0  0  0  0  0  0  0  0  0  0  0  0  # atno 7974 bound_to 7965
  155.9414  140.1109  157.1052 H   0  0  0  0  0  0  0  0  0  0  0  0  # atno 8008 bound_to 7997
  154.4090  140.1218  156.4998 H   0  0  0  0  0  0  0  0  0  0  0  0  # atno 8009 bound_to 7997
  155.6957  140.3472  155.4914 H   0  0  0  0  0  0  0  0  0  0  0  0  # atno 8010 bound_to 7997
  139.4912  144.4095  151.9316 H   0  0  0  0  0  0  0  0  0  0  0  0  # atno 10167 bound_to 10162
  156.4726  130.8265  151.2494 H   0  0  0  0  0  0  0  0  0  0  0  0  # atno 10718 bound_to 10713
  154.8684  135.3674  154.5054 H   0  0  0  0  0  0  0  0  0  0  0  0  # atno 10763 bound_to 10752
  153.5692  135.7021  153.5517 H   0  0  0  0  0  0  0  0  0  0  0  0  # atno 10764 bound_to 10752
  153.3557  135.4060  155.1643 H   0  0  0  0  0  0  0  0  0  0  0  0  # atno 10765 bound_to 10752
  139.9368  134.9639  156.8440 H   0  0  0  0  0  0  0  0  0  0  0  0  # atno 11005 bound_to 11000
  144.7070  140.3892  143.7110 LP  0  0  0  0  0  0  0  0  0  0  0  0  # atno 17320 bound_to 7965
  145.6899  139.1637  143.2653 LP  0  0  0  0  0  0  0  0  0  0  0  0  # atno 17321 bound_to 7965
  140.3536  144.3059  150.5945 LP  0  0  0  0  0  0  0  0  0  0  0  0  # atno 17342 bound_to 10162
  140.5464  143.2214  151.8001 LP  0  0  0  0  0  0  0  0  0  0  0  0  # atno 17343 bound_to 10162
  157.7490  131.0071  150.3178 LP  0  0  0  0  0  0  0  0  0  0  0  0  # atno 17370 bound_to 10713
  156.3603  130.3846  149.7257 LP  0  0  0  0  0  0  0  0  0  0  0  0  # atno 17371 bound_to 10713
  140.6054  134.0132  155.7554 LP  0  0  0  0  0  0  0  0  0  0  0  0  # atno 17394 bound_to 11000
  141.0986  133.9804  157.3118 LP  0  0  0  0  0  0  0  0  0  0  0  0  # atno 17395 bound_to 11000

$$$$
