AV-unprocessed.smi:2148|AV-procd|sdf|8746|dock10
  -GOLD-   2272011523D 1   1.00000     0.00000
 Structure written by MMmdl.
 44 45  0  0  0  0  0  0  0  0  1 V2000
  156.4551  144.2286  168.3434 C   0  0  0  0  0  0  0  0  0  0  0  0
  155.8707  142.5926  168.8646 S   0  0  0  0  0  0  0  0  0  0  0  0
  156.3118  141.5870  167.4151 C   0  0  2  0  0  0  0  0  0  0  0  0
  157.8327  141.6132  167.1938 C   0  0  0  0  0  0  0  0  0  0  0  0
  155.5596  142.0356  166.1550 C   0  0  0  0  0  0  0  0  0  0  0  0
  154.9089  143.0806  166.1715 O   0  0  0  0  0  0  0  0  0  0  0  0
  155.6472  141.2080  165.0968 N   0  0  0  0  0  0  0  0  0  0  0  0
  155.0661  141.3489  163.8076 C   0  0  0  0  0  0  0  0  0  0  0  0
  155.2184  140.4158  162.7563 C   0  0  0  0  0  0  0  0  0  0  0  0
  154.5729  140.6599  161.5290 C   0  0  0  0  0  0  0  0  0  0  0  0
  153.7823  141.8237  161.3804 C   0  0  0  0  0  0  0  0  0  0  0  0
  153.1257  142.0842  160.1581 N   0  0  0  0  0  0  0  0  0  0  0  0
  152.2356  141.0286  159.6825 C   0  0  0  0  0  0  0  0  0  0  0  0
  151.8331  141.2824  158.2170 C   0  0  1  0  0  0  0  0  0  0  0  0
  150.7997  140.2660  157.7206 C   0  0  0  0  0  0  0  0  0  0  0  0
  151.2680  142.5857  158.1033 O   0  0  0  0  0  0  0  0  0  0  0  0
  152.1892  143.6113  158.4639 C   0  0  1  0  0  0  0  0  0  0  0  0
  151.5218  144.9680  158.2147 C   0  0  0  0  0  0  0  0  0  0  0  0
  152.5954  143.4281  159.9379 C   0  0  0  0  0  0  0  0  0  0  0  0
  153.6340  142.7126  162.3932 N   0  0  0  0  0  0  0  0  0  0  0  0
  154.2528  142.4741  163.5682 C   0  0  0  0  0  0  0  0  0  0  0  0
  156.2071  144.9718  169.1009 H   0  0  0  0  0  0  0  0  0  0  0  0
  155.9842  144.5220  167.4052 H   0  0  0  0  0  0  0  0  0  0  0  0
  157.5364  144.2280  168.2073 H   0  0  0  0  0  0  0  0  0  0  0  0
  156.0327  140.5567  167.6415 H   0  0  0  0  0  0  0  0  0  0  0  0
  158.1182  141.0256  166.3202 H   0  0  0  0  0  0  0  0  0  0  0  0
  158.3569  141.1950  168.0536 H   0  0  0  0  0  0  0  0  0  0  0  0
  158.2006  142.6298  167.0479 H   0  0  0  0  0  0  0  0  0  0  0  0
  156.1434  140.3429  165.2550 H   0  0  0  0  0  0  0  0  0  0  0  0
  155.8035  139.5162  162.8667 H   0  0  0  0  0  0  0  0  0  0  0  0
  154.6997  139.9592  160.7174 H   0  0  0  0  0  0  0  0  0  0  0  0
  152.7008  140.0467  159.7577 H   0  0  0  0  0  0  0  0  0  0  0  0
  151.3489  141.0079  160.3175 H   0  0  0  0  0  0  0  0  0  0  0  0
  152.7159  141.2185  157.5782 H   0  0  0  0  0  0  0  0  0  0  0  0
  151.1913  139.2501  157.7745 H   0  0  0  0  0  0  0  0  0  0  0  0
  150.5268  140.4627  156.6836 H   0  0  0  0  0  0  0  0  0  0  0  0
  149.8885  140.3061  158.3181 H   0  0  0  0  0  0  0  0  0  0  0  0
  153.0728  143.5382  157.8273 H   0  0  0  0  0  0  0  0  0  0  0  0
  152.1959  145.7879  158.4636 H   0  0  0  0  0  0  0  0  0  0  0  0
  150.6201  145.0808  158.8172 H   0  0  0  0  0  0  0  0  0  0  0  0
  151.2393  145.0761  157.1674 H   0  0  0  0  0  0  0  0  0  0  0  0
  151.7338  143.5857  160.5885 H   0  0  0  0  0  0  0  0  0  0  0  0
  153.3455  144.1749  160.2017 H   0  0  0  0  0  0  0  0  0  0  0  0
  154.0954  143.2115  164.3418 H   0  0  0  0  0  0  0  0  0  0  0  0
  1  2  1  0  0  0  0
  1 22  1  0  0  0  0
  1 23  1  0  0  0  0
  1 24  1  0  0  0  0
  2  3  1  0  0  0  0
  3  4  1  0  0  0  0
  3  5  1  0  0  0  0
  3 25  1  0  0  0  0
  4 26  1  0  0  0  0
  4 27  1  0  0  0  0
  4 28  1  0  0  0  0
  5  6  2  0  0  0  0
  5  7  1  0  0  0  0
  7  8  1  0  0  0  0
  7 29  1  0  0  0  0
  8 21  1  0  0  0  0
  8  9  2  0  0  0  0
  9 10  1  0  0  0  0
  9 30  1  0  0  0  0
 10 11  2  0  0  0  0
 10 31  1  0  0  0  0
 11 12  1  0  0  0  0
 11 20  1  0  0  0  0
 12 19  1  0  0  0  0
 12 13  1  0  0  0  0
 13 14  1  0  0  0  0
 13 32  1  0  0  0  0
 13 33  1  0  0  0  0
 14 15  1  0  0  0  0
 14 16  1  0  0  0  0
 14 34  1  0  0  0  0
 15 35  1  0  0  0  0
 15 36  1  0  0  0  0
 15 37  1  0  0  0  0
 16 17  1  0  0  0  0
 17 18  1  0  0  0  0
 17 19  1  0  0  0  0
 17 38  1  0  0  0  0
 18 39  1  0  0  0  0
 18 40  1  0  0  0  0
 18 41  1  0  0  0  0
 19 42  1  0  0  0  0
 19 43  1  0  0  0  0
 20 21  2  0  0  0  0
 21 44  1  0  0  0  0
M  END
> <s_m_source_file>
AV-unprocessed.smi

> <i_m_source_file_index>
2148

> <i_lp_mmshare_version>
43012

> <i_f3d_flags>
0

> <s_epik_input>
W0NIM11TW0NASF0oW0NIM10pQyg9TylbTkhdYzFbY0hdW2NIXWMobltjSF0xKU4yW0NIMl1bQ0BASF0oW0NIM10pT1tDQEBIXShbQ0gzXSlbQ0gyXTI=

> <s_epik_cmdline>
J2VwaWtfcHl0aG9uJywgJy1waCcsICc3LjAnLCAnLXRuJywgJzgnLCAnLW1hJywgJzIwMCcsICctbWV0YWxfYmluZGluZycsICctaW1hZScsICc8aW5maWxlLm1hZT4nLCAnLW9tYWUnLCAnPG91dGZpbGUubWFlPic=

> <r_lp_tautomer_probability>
1

> <r_epik_Ionization_Penalty>
0.000646494

> <r_epik_Ionization_Penalty_Charging>
0

> <r_epik_Ionization_Penalty_Neutral>
0.000646494

> <r_epik_State_Penalty>
0.000408447

> <r_epik_Charging_Adjusted_Penalty>
0.000408447

> <i_epik_Tot_Q>
0

> <i_epik_Tot_abs_Q>
0

> <r_epik_Metal_State_Penalty>
-0

> <b_epik_Metal_Only>
0

> <s_lp_Force_Field>
OPLS_2005

> <r_lp_Energy>
22.6119

> <b_lp_Chiralities_Consistent>
1

> <s_lp_Variant>
AV-unprocessed.smi:2148-1

> <Gold.Version>
5.8.1

> <Gold.Id.Protein>
6NUR|6NUR_protein|mol2

> <Gold.PLP.Fitness>
40.1230

> <Gold.PLP.PLP>
-40.4497

> <Gold.PLP.part.hbond>
-1.0000

> <Gold.PLP.part.metal>
0.0000

> <Gold.PLP.part.buried>
-2.9890

> <Gold.PLP.part.nonpolar>
-35.1958

> <Gold.PLP.part.repulsive>
0.1972

> <Gold.PLP.ligand.clash>
0.0000

> <Gold.PLP.ligand.torsion>
0.3394

> <Gold.PLP.Chemscore.Hbond>
0.0000

> <Gold.PLP.Chemscore.CHOScore>
0.0000

> <Gold.PLP.Chemscore.Metal>
0.0000

> <Gold.PLP.Chemscore.Internal.Correction>
0.3520

> <Gold.Rescore>
     Score         DG    S(hbond)    S(metal)    S(lipo)     H(rot)  DE(clash)    DE(int)     intcor
     12.80     -15.01       0.00        0.00     109.15       1.27       0.09       2.12       ----

> <Gold.Chemscore.Fitness>
12.8001

> <Gold.Chemscore.DG>
-15.0095

> <Gold.Chemscore.ZeroCoef>
-5.4800

> <Gold.Chemscore.Hbond>
0.0000

> <Gold.Chemscore.Metal>
0.0000

> <Gold.Chemscore.Lipo>
109.1456

> <Gold.Chemscore.Internal_Hbond>
0.0000

> <Gold.Chemscore.DEClash>
0.0920

> <Gold.Chemscore.DEInternal>
2.1173

> <Gold.Chemscore.Rot>
1.2659

> <Gold.Chemscore.Internal.Correction>
   9.000000E+99

> <Gold.Chemscore.Hbond.Weighted>
-0.0000

> <Gold.Chemscore.Metal.Weighted>
-0.0000

> <Gold.Chemscore.Lipo.Weighted>
-12.7700

> <Gold.Chemscore.Internal_Hbond.Weighted>
0.0000

> <Gold.Chemscore.DEClash.Weighted>
0.0920

> <Gold.Chemscore.DEInternal.Weighted>
2.1173

> <Gold.Chemscore.Rot.Weighted>
3.2406

> <Gold.Chemscore.Internal.Correction.Weighted>
   9.000000E+99

> <Gold.Protein.RotatedTorsions>
[ 6907 6896 6895 6894 ] final  -57.89 input  -60.11 | X-H torsion
[ 7974 7965 7964 7962 ] final  105.43 input  175.53 | X-H torsion
[ 8008 7997 7996 7995 ] final   -5.17 input   59.86 | X-H torsion
[ 10167 10162 10161 10158 ] final   60.41 input  -65.29 | X-H torsion
[ 10718 10713 10712 10709 ] final  -16.08 input   66.30 | X-H torsion
[ 10763 10752 10751 10750 ] final   55.27 input  -60.55 | X-H torsion
[ 11005 11000 10999 10996 ] final  116.27 input  -57.11 | X-H torsion

> <Gold.Protein.ActiveResidues>
 VAL166  LYS551  ARG553  GLY616  TRP617  ASP618  TYR619  PRO620  LYS621  CYS622 
 ASP623  PHE694  ASN695  SER759  ASP760  ASP761  ALA762  ILE779  LEU786  VAL792 
 PHE793  MET794  SER795  GLU796  ALA797  LYS798  CYS799  TRP800  GLU811  SER814 

> <Gold.Protein.RotatedAtoms>
  150.8050  134.7169  159.6635 H   0  0  0  0  0  0  0  0  0  0  0  0  # atno 6907 bound_to 6896
  152.4169  134.6022  160.0013 H   0  0  0  0  0  0  0  0  0  0  0  0  # atno 6908 bound_to 6896
  151.6249  133.3299  159.3132 H   0  0  0  0  0  0  0  0  0  0  0  0  # atno 6909 bound_to 6896
  145.3198  139.2516  143.3718 H   0  0  0  0  0  0  0  0  0  0  0  0  # atno 7974 bound_to 7965
  154.6067  140.2465  155.7722 H   0  0  0  0  0  0  0  0  0  0  0  0  # atno 8008 bound_to 7997
  156.2345  140.2955  156.0227 H   0  0  0  0  0  0  0  0  0  0  0  0  # atno 8009 bound_to 7997
  155.2121  140.0397  157.2925 H   0  0  0  0  0  0  0  0  0  0  0  0  # atno 8010 bound_to 7997
  140.1659  144.4325  150.6686 H   0  0  0  0  0  0  0  0  0  0  0  0  # atno 10167 bound_to 10162
  156.5927  130.4803  149.6273 H   0  0  0  0  0  0  0  0  0  0  0  0  # atno 10718 bound_to 10713
  152.9815  135.5716  154.5040 H   0  0  0  0  0  0  0  0  0  0  0  0  # atno 10763 bound_to 10752
  154.4555  135.2780  155.1753 H   0  0  0  0  0  0  0  0  0  0  0  0  # atno 10764 bound_to 10752
  154.3362  135.6239  153.5628 H   0  0  0  0  0  0  0  0  0  0  0  0  # atno 10765 bound_to 10752
  139.9036  134.9595  156.7172 H   0  0  0  0  0  0  0  0  0  0  0  0  # atno 11005 bound_to 11000
  146.3087  140.3752  142.8678 LP  0  0  0  0  0  0  0  0  0  0  0  0  # atno 17320 bound_to 7965
  144.8949  140.7570  143.5903 LP  0  0  0  0  0  0  0  0  0  0  0  0  # atno 17321 bound_to 7965
  140.6613  143.2253  151.5848 LP  0  0  0  0  0  0  0  0  0  0  0  0  # atno 17342 bound_to 10162
  139.5360  144.2780  152.1252 LP  0  0  0  0  0  0  0  0  0  0  0  0  # atno 17343 bound_to 10162
  156.2536  130.6921  151.1667 LP  0  0  0  0  0  0  0  0  0  0  0  0  # atno 17370 bound_to 10713
  157.7300  131.0620  150.5749 LP  0  0  0  0  0  0  0  0  0  0  0  0  # atno 17371 bound_to 10713
  140.7029  133.9290  155.8035 LP  0  0  0  0  0  0  0  0  0  0  0  0  # atno 17394 bound_to 11000
  141.0358  134.0691  157.3961 LP  0  0  0  0  0  0  0  0  0  0  0  0  # atno 17395 bound_to 11000

$$$$
