AV-unprocessed.smi:48|AV-procd|sdf|455|dock5
  -GOLD-   2262016323D 1   1.00000     0.00000
 Structure written by MMmdl.
 30 32  0  0  0  0  0  0  0  0  1 V2000
  146.4671  139.6194  151.7019 O   0  0  0  0  0  0  0  0  0  0  0  0
  147.1467  139.0245  152.7866 C   0  0  0  0  0  0  0  0  0  0  0  0
  147.1106  139.9583  154.0095 C   0  0  1  0  0  0  0  0  0  0  0  0
  147.5793  139.2929  155.1732 O   0  0  0  0  0  0  0  0  0  0  0  0
  147.9264  140.2439  156.1285 C   0  0  1  0  0  0  0  0  0  0  0  0
  149.1015  139.7291  156.8930 N   0  0  0  0  0  0  0  0  0  0  0  0
  150.3336  140.2731  156.9568 C   0  0  0  0  0  0  0  0  0  0  0  0
  151.2452  139.6440  157.6973 N   0  0  0  0  0  0  0  0  0  0  0  0
  150.5180  138.5648  158.1719 C   0  0  0  0  0  0  0  0  0  0  0  0
  150.8531  137.4806  159.0191 C   0  0  0  0  0  0  0  0  0  0  0  0
  152.4414  137.3241  159.6753 Cl  0  0  0  0  0  0  0  0  0  0  0  0
  149.8970  136.5648  159.3043 N   0  0  0  0  0  0  0  0  0  0  0  0
  148.6732  136.7109  158.7822 C   0  0  0  0  0  0  0  0  0  0  0  0
  148.2137  137.6733  157.9748 N   0  0  0  0  0  0  0  0  0  0  0  0
  149.1793  138.5955  157.6865 C   0  0  0  0  0  0  0  0  0  0  0  0
  148.2770  141.5481  155.3911 C   0  0  2  0  0  0  0  0  0  0  0  0
  147.4189  142.5993  155.7863 O   0  0  0  0  0  0  0  0  0  0  0  0
  148.0139  141.1987  153.9279 C   0  0  1  0  0  0  0  0  0  0  0  0
  149.2307  140.9174  153.2619 O   0  0  0  0  0  0  0  0  0  0  0  0
  146.0892  140.2963  154.1951 H   0  0  0  0  0  0  0  0  0  0  0  0
  147.1304  140.3547  156.8671 H   0  0  0  0  0  0  0  0  0  0  0  0
  149.3119  141.8438  155.5721 H   0  0  0  0  0  0  0  0  0  0  0  0
  147.5254  142.0085  153.3838 H   0  0  0  0  0  0  0  0  0  0  0  0
  145.6735  140.0173  152.0260 H   0  0  0  0  0  0  0  0  0  0  0  0
  146.7124  138.0509  153.0167 H   0  0  0  0  0  0  0  0  0  0  0  0
  148.1769  138.8570  152.4712 H   0  0  0  0  0  0  0  0  0  0  0  0
  150.5765  141.1819  156.4255 H   0  0  0  0  0  0  0  0  0  0  0  0
  147.9585  135.9465  159.0490 H   0  0  0  0  0  0  0  0  0  0  0  0
  147.8853  143.4163  155.6946 H   0  0  0  0  0  0  0  0  0  0  0  0
  149.0968  140.1781  152.6892 H   0  0  0  0  0  0  0  0  0  0  0  0
  1  2  1  0  0  0  0
  1 24  1  0  0  0  0
  2  3  1  0  0  0  0
  2 25  1  0  0  0  0
  2 26  1  0  0  0  0
  3 20  1  0  0  0  0
  3 18  1  0  0  0  0
  3  4  1  0  0  0  0
  4  5  1  0  0  0  0
  5 21  1  0  0  0  0
  5  6  1  0  0  0  0
  5 16  1  0  0  0  0
  6 15  1  0  0  0  0
  6  7  1  0  0  0  0
  7  8  2  0  0  0  0
  7 27  1  0  0  0  0
  8  9  1  0  0  0  0
  9 15  2  0  0  0  0
  9 10  1  0  0  0  0
 10 11  1  0  0  0  0
 10 12  2  0  0  0  0
 12 13  1  0  0  0  0
 13 14  2  0  0  0  0
 13 28  1  0  0  0  0
 14 15  1  0  0  0  0
 16 22  1  0  0  0  0
 16 17  1  0  0  0  0
 16 18  1  0  0  0  0
 17 29  1  0  0  0  0
 18 23  1  0  0  0  0
 18 19  1  0  0  0  0
 19 30  1  0  0  0  0
M  END
> <s_m_source_file>
AV-unprocessed.smi

> <i_m_source_file_index>
48

> <i_lp_mmshare_version>
43012

> <i_f3d_flags>
0

> <s_epik_input>
W09IXVtDSDJdW0NASF0xT1tDQEhdKFtDQEhdKFtPSF0pW0NAQEhdMVtPSF0pbihbY0hdbjIpYyhjMjMpbltjSF1uYzNDbA==

> <s_epik_cmdline>
J2VwaWtfcHl0aG9uJywgJy1waCcsICc3LjAnLCAnLXRuJywgJzgnLCAnLW1hJywgJzIwMCcsICctbWV0YWxfYmluZGluZycsICctaW1hZScsICc8aW5maWxlLm1hZT4nLCAnLW9tYWUnLCAnPG91dGZpbGUubWFlPic=

> <r_lp_tautomer_probability>
1

> <r_epik_Ionization_Penalty>
3.45505e-06

> <r_epik_Ionization_Penalty_Charging>
0

> <r_epik_Ionization_Penalty_Neutral>
3.45505e-06

> <r_epik_State_Penalty>
-0

> <r_epik_Charging_Adjusted_Penalty>
0

> <i_epik_Tot_Q>
0

> <i_epik_Tot_abs_Q>
0

> <r_epik_Metal_State_Penalty>
-0

> <b_epik_Metal_Only>
0

> <s_epik_Chemistry_Notes>
This compound contains an acetal/aminal-like group ( X-CH(R)-Y where X, Y are N, S, or O) that may be acid/base labile, releasing an aldehyde.

> <s_lp_Force_Field>
OPLS_2005

> <r_lp_Energy>
33.2991

> <b_lp_Chiralities_Consistent>
1

> <s_lp_Variant>
AV-unprocessed.smi:48-9

> <Gold.Version>
5.8.1

> <Gold.Id.Protein>
6NUR|6NUR_protein|mol2

> <Gold.PLP.Fitness>
37.8813

> <Gold.PLP.PLP>
-24.6864

> <Gold.PLP.part.hbond>
-5.5961

> <Gold.PLP.part.metal>
0.0000

> <Gold.PLP.part.buried>
-4.0532

> <Gold.PLP.part.nonpolar>
-15.1784

> <Gold.PLP.part.repulsive>
0.0314

> <Gold.PLP.ligand.clash>
0.0000

> <Gold.PLP.ligand.torsion>
0.0744

> <Gold.PLP.Chemscore.Hbond>
4.4460

> <Gold.PLP.Chemscore.CHOScore>
0.0000

> <Gold.PLP.Chemscore.Metal>
0.0000

> <Gold.Chemscore.Hbonds>
donor molecule, donor type, donor heavy atom, donor atom, acceptor molecule, acceptor atom, score
      L1  H     1    24       P1 10175  0.89
      L1  H    17    29       P1  8028  1.00
      L1  H    19    30       P1  7957  0.53
      P1  H  6896  6909       L1    12  1.00
      P1  H  7989  7998       L1    19  0.03
      P1  H  8011  8017       L1    19  1.00

> <Gold.PLP.Chemscore.Internal.Correction>
0.0057

> <Gold.Rescore>
     Score         DG    S(hbond)    S(metal)    S(lipo)     H(rot)  DE(clash)    DE(int)     intcor
     11.32     -11.61       3.39        0.00      38.66       3.80       0.10       0.19       ----

> <Gold.Chemscore.Fitness>
11.3157

> <Gold.Chemscore.DG>
-11.6095

> <Gold.Chemscore.ZeroCoef>
-5.4800

> <Gold.Chemscore.Hbond>
3.3947

> <Gold.Chemscore.Metal>
0.0000

> <Gold.Chemscore.Lipo>
38.6620

> <Gold.Chemscore.Internal_Hbond>
0.0000

> <Gold.Chemscore.DEClash>
0.1019

> <Gold.Chemscore.DEInternal>
0.1918

> <Gold.Chemscore.Rot>
3.8017

> <Gold.Chemscore.Internal.Correction>
   9.000000E+99

> <Gold.Chemscore.Hbonds>
donor molecule, donor type, donor heavy atom, donor atom, acceptor molecule, acceptor atom, score
      L1  H     1    24       P1 10175  0.52
      L1  H    17    29       P1  8028  0.30
      L1  H    19    30       P1  7957  0.52
      P1  H  6896  6909       L1    12  0.59
      P1  H  7989  7998       L1    19  0.01
      P1  H  8011  8017       L1    19  0.58

> <Gold.Chemscore.Hbond.Weighted>
-11.3384

> <Gold.Chemscore.Metal.Weighted>
-0.0000

> <Gold.Chemscore.Lipo.Weighted>
-4.5234

> <Gold.Chemscore.Internal_Hbond.Weighted>
0.0000

> <Gold.Chemscore.DEClash.Weighted>
0.1019

> <Gold.Chemscore.DEInternal.Weighted>
0.1918

> <Gold.Chemscore.Rot.Weighted>
9.7324

> <Gold.Chemscore.Internal.Correction.Weighted>
   9.000000E+99

> <Gold.Protein.RotatedTorsions>
[ 6907 6896 6895 6894 ] final   69.89 input  -60.11 | X-H torsion
[ 7974 7965 7964 7962 ] final  -32.21 input  175.53 | X-H torsion
[ 8008 7997 7996 7995 ] final  150.62 input   59.86 | X-H torsion
[ 10167 10162 10161 10158 ] final -128.35 input  -65.29 | X-H torsion
[ 10718 10713 10712 10709 ] final  122.18 input   66.30 | X-H torsion
[ 10763 10752 10751 10750 ] final  100.53 input  -60.55 | X-H torsion
[ 11005 11000 10999 10996 ] final -148.97 input  -57.11 | X-H torsion

> <Gold.Protein.ActiveResidues>
 VAL166  LYS551  ARG553  GLY616  TRP617  ASP618  TYR619  PRO620  LYS621  CYS622 
 ASP623  PHE694  ASN695  SER759  ASP760  ASP761  ALA762  ILE779  LEU786  VAL792 
 PHE793  MET794  SER795  GLU796  ALA797  LYS798  CYS799  TRP800  GLU811  SER814 

> <Gold.Protein.RotatedAtoms>
  152.4715  134.4950  159.9706 H   0  0  0  0  0  0  0  0  0  0  0  0  # atno 6907 bound_to 6896
  151.4975  133.3505  159.2871 H   0  0  0  0  0  0  0  0  0  0  0  0  # atno 6908 bound_to 6896
  150.8727  134.8132  159.7228 H   0  0  0  0  0  0  0  0  0  0  0  0  # atno 6909 bound_to 6896
  146.1008  140.5764  142.8822 H   0  0  0  0  0  0  0  0  0  0  0  0  # atno 7974 bound_to 7965
  156.2708  140.2070  156.6046 H   0  0  0  0  0  0  0  0  0  0  0  0  # atno 8008 bound_to 7997
  154.6879  140.0533  157.0357 H   0  0  0  0  0  0  0  0  0  0  0  0  # atno 8009 bound_to 7997
  155.0907  140.3196  155.4577 H   0  0  0  0  0  0  0  0  0  0  0  0  # atno 8010 bound_to 7997
  139.9512  143.6054  152.2475 H   0  0  0  0  0  0  0  0  0  0  0  0  # atno 10167 bound_to 10162
  157.5762  131.1079  150.8275 H   0  0  0  0  0  0  0  0  0  0  0  0  # atno 10718 bound_to 10713
  153.3151  135.4075  155.1369 H   0  0  0  0  0  0  0  0  0  0  0  0  # atno 10763 bound_to 10752
  154.8586  135.3574  154.5671 H   0  0  0  0  0  0  0  0  0  0  0  0  # atno 10764 bound_to 10752
  153.6101  135.7068  153.5409 H   0  0  0  0  0  0  0  0  0  0  0  0  # atno 10765 bound_to 10752
  140.7557  134.3356  157.5115 H   0  0  0  0  0  0  0  0  0  0  0  0  # atno 11005 bound_to 11000
  144.7431  140.4995  143.6855 LP  0  0  0  0  0  0  0  0  0  0  0  0  # atno 17320 bound_to 7965
  145.5859  139.1492  143.3209 LP  0  0  0  0  0  0  0  0  0  0  0  0  # atno 17321 bound_to 7965
  139.6627  144.7662  151.1932 LP  0  0  0  0  0  0  0  0  0  0  0  0  # atno 17342 bound_to 10162
  140.7582  143.5985  150.8724 LP  0  0  0  0  0  0  0  0  0  0  0  0  # atno 17343 bound_to 10162
  156.8733  130.5154  149.5295 LP  0  0  0  0  0  0  0  0  0  0  0  0  # atno 17370 bound_to 10713
  156.0807  130.5818  150.9557 LP  0  0  0  0  0  0  0  0  0  0  0  0  # atno 17371 bound_to 10713
  139.8779  134.9170  156.3168 LP  0  0  0  0  0  0  0  0  0  0  0  0  # atno 17394 bound_to 11000
  140.9710  133.7327  156.0534 LP  0  0  0  0  0  0  0  0  0  0  0  0  # atno 17395 bound_to 11000

$$$$
