#       Name:                AV-unprocessed.smi:1388
#       Creating user name   scv26
#       Creation time:       Fri Mar 27 05:26:04 2020


#       File generated by GOLD software.
#

@<TRIPOS>MOLECULE
AV-unprocessed.smi:1388
    51    52     1
SMALL
NO_CHARGES


@<TRIPOS>ATOM
      1 ****        -4.4973   3.6458  -3.9374 C.3            1 S1                 0.0000
      2 ****        -3.9015   2.4307  -3.4025 N.am           1 S1                 0.0000
      3 ****        -2.5993   2.1269  -3.4932 C.2            1 S1                 0.0000
      4 ****        -1.7744   2.8524  -4.0499 O.2            1 S1                 0.0000
      5 ****        -2.1711   0.7917  -2.8755 C.3            1 S1                 0.0000
      6 ****        -0.7132   0.7186  -2.5980 N.4            1 S1                 1.0000
      7 ****        -0.2134  -0.6795  -2.5654 C.3            1 S1                 0.0000
      8 ****         1.3190  -0.7221  -2.4211 C.3            1 S1                 0.0000
      9 ****         1.8073   0.0619  -1.1909 C.3            1 S1                 0.0000
     10 ****         1.4612  -0.6483   0.0400 N.am           1 S1                 0.0000
     11 ****         2.0696  -0.4860   1.2243 C.2            1 S1                 0.0000
     12 ****         3.0004   0.2993   1.4048 O.2            1 S1                 0.0000
     13 ****         1.5224  -1.2775   2.1638 N.am           1 S1                 0.0000
     14 ****         1.8913  -1.4121   3.5321 C.ar           1 S1                 0.0000
     15 ****         2.9551  -0.7642   4.0699 N.ar           1 S1                 0.0000
     16 ****         3.2527  -0.9414   5.3733 C.ar           1 S1                 0.0000
     17 ****         2.5078  -1.7759   6.2239 C.ar           1 S1                 0.0000
     18 ****         1.4021  -2.4541   5.6831 C.ar           1 S1                 0.0000
     19 ****         1.0836  -2.2756   4.3200 C.ar           1 S1                 0.0000
     20 ****        -0.1124  -3.0083   3.7339 C.3            1 S1                 0.0000
     21 ****         1.2174   1.4859  -1.2147 C.3            1 S1                 0.0000
     22 ****        -0.3124   1.4723  -1.3798 C.3            1 S1                 0.0000
     23 ****        -5.5633   3.6679  -3.7116 H              1 S1                 0.0000
     24 ****        -4.3773   3.6930  -5.0206 H              1 S1                 0.0000
     25 ****        -4.0380   4.5315  -3.4969 H              1 S1                 0.0000
     26 ****        -4.5200   1.7809  -2.9384 H              1 S1                 0.0000
     27 ****        -2.7362   0.5919  -1.9636 H              1 S1                 0.0000
     28 ****        -2.4480   0.0170  -3.5916 H              1 S1                 0.0000
     29 ****        -0.6892  -1.2182  -1.7444 H              1 S1                 0.0000
     30 ****        -0.4965  -1.1926  -3.4853 H              1 S1                 0.0000
     31 ****         1.6627  -1.7562  -2.3723 H              1 S1                 0.0000
     32 ****         1.7709  -0.2956  -3.3177 H              1 S1                 0.0000
     33 ****         2.8954   0.1305  -1.2459 H              1 S1                 0.0000
     34 ****         0.7102  -1.3204  -0.0168 H              1 S1                 0.0000
     35 ****         0.7488  -1.8543   1.8690 H              1 S1                 0.0000
     36 ****         4.1097  -0.4017   5.7482 H              1 S1                 0.0000
     37 ****         2.7777  -1.8923   7.2629 H              1 S1                 0.0000
     38 ****         0.8081  -3.1030   6.3098 H              1 S1                 0.0000
     39 ****        -0.6242  -3.6024   4.4914 H              1 S1                 0.0000
     40 ****         0.2057  -3.6818   2.9380 H              1 S1                 0.0000
     41 ****        -0.8314  -2.2994   3.3231 H              1 S1                 0.0000
     42 ****         1.4917   2.0319  -0.3113 H              1 S1                 0.0000
     43 ****         1.6581   2.0403  -2.0444 H              1 S1                 0.0000
     44 ****        -0.6713   2.5001  -1.4388 H              1 S1                 0.0000
     45 ****        -0.7830   1.0276  -0.5016 H              1 S1                 0.0000
     46 ****        -0.2575   1.1646  -3.3819 H              1 S1                 0.0000
     47 ****        -2.0654   3.7157  -4.4622 LP             1 S1                 0.0000
     48 ****        -0.8135   2.5782  -4.0896 LP             1 S1                 0.0000
     49 ****         3.3390   0.8562   0.6464 LP             1 S1                 0.0000
     50 ****         3.4179   0.3803   2.3099 LP             1 S1                 0.0000
     51 ****         3.5149  -0.1592   3.5036 LP             1 S1                 0.0000
@<TRIPOS>BOND
    1    1    2 1     
    2    1   23 1     
    3    1   24 1     
    4    1   25 1     
    5    2    3 am    
    6    2   26 1     
    7    3    4 2     
    8    3    5 1     
    9    5    6 1     
   10    5   27 1     
   11    5   28 1     
   12    6   22 1     
   13    6    7 1     
   14    6   46 1     
   15    7    8 1     
   16    7   29 1     
   17    7   30 1     
   18    8    9 1     
   19    8   31 1     
   20    8   32 1     
   21    9   10 1     
   22    9   21 1     
   23    9   33 1     
   24   10   11 am    
   25   10   34 1     
   26   11   12 2     
   27   11   13 am    
   28   13   14 1     
   29   13   35 1     
   30   14   19 ar    
   31   14   15 ar    
   32   15   16 ar    
   33   16   17 ar    
   34   16   36 1     
   35   17   18 ar    
   36   17   37 1     
   37   18   19 ar    
   38   18   38 1     
   39   19   20 1     
   40   20   39 1     
   41   20   40 1     
   42   20   41 1     
   43   21   22 1     
   44   21   42 1     
   45   21   43 1     
   46   22   44 1     
   47   22   45 1     
   48    4   47 1     
   49    4   48 1     
   50   12   49 1     
   51   12   50 1     
   52   15   51 1     
@<TRIPOS>SUBSTRUCTURE
      1 S1             1
@<TRIPOS>SET
LONE_PAIRS      STATIC     ATOMS    <user>   **** ""
5 47 48 49 50 51
DONOR_HYDROGENS      STATIC     ATOMS    <user>   **** ""
4 26 46 34 35
ATOM$BLUE        STATIC     ATOMS    COLORGROUP SYSTEM
5 47 48 49 50 51
ATOM$RED        STATIC     ATOMS    COLORGROUP SYSTEM
4 26 46 34 35
