AV-unprocessed.smi:283|AV-procd|sdf|2150|dock8
  -GOLD-   2262021493D 1   1.00000     0.00000
 Structure written by MMmdl.
 48 51  0  0  0  0  0  0  0  0  1 V2000
  152.8502  143.7785  157.6768 C   0  0  0  0  0  0  0  0  0  0  0  0
  152.5672  142.5692  158.5785 C   0  0  1  0  0  0  0  0  0  0  0  0
  152.8755  141.3366  157.8570 N   0  0  0  0  0  0  0  0  0  0  0  0
  151.9480  140.7065  157.1018 C   0  0  0  0  0  0  0  0  0  0  0  0
  152.3685  139.5714  156.4951 N   0  0  0  0  0  0  0  0  0  0  0  0
  151.5248  138.8617  155.7427 C   0  0  0  0  0  0  0  0  0  0  0  0
  150.2430  139.1074  155.4713 N   0  0  0  0  0  0  0  0  0  0  0  0
  149.8099  140.2584  156.0633 C   0  0  0  0  0  0  0  0  0  0  0  0
  150.5974  141.1147  156.8876 C   0  0  0  0  0  0  0  0  0  0  0  0
  149.8232  142.1928  157.2993 N   0  0  0  0  0  0  0  0  0  0  0  0
  148.6524  141.9740  156.7686 C   0  0  0  0  0  0  0  0  0  0  0  0
  148.5527  140.8324  156.0071 N   0  0  0  0  0  0  0  0  0  0  0  0
  147.3350  140.3400  155.2804 C   0  0  2  0  0  0  0  0  0  0  0  0
  147.0654  139.0324  155.6871 O   0  0  0  0  0  0  0  0  0  0  0  0
  146.8009  138.2083  154.5558 C   0  0  2  0  0  0  0  0  0  0  0  0
  147.1068  136.7305  154.8598 C   0  0  0  0  0  0  0  0  0  0  0  0
  148.4875  136.5559  155.0969 O   0  0  0  0  0  0  0  0  0  0  0  0
  147.6326  138.8399  153.4298 C   0  0  2  0  0  0  0  0  0  0  0  0
  148.9723  138.3771  153.4452 O   0  0  0  0  0  0  0  0  0  0  0  0
  147.5200  140.3260  153.7489 C   0  0  2  0  0  0  0  0  0  0  0  0
  148.5988  141.0981  153.2479 O   0  0  0  0  0  0  0  0  0  0  0  0
  153.2881  142.7270  159.9210 C   0  0  0  0  0  0  0  0  0  0  0  0
  153.0419  143.8635  160.7267 C   0  0  0  0  0  0  0  0  0  0  0  0
  153.7021  144.0278  161.9587 C   0  0  0  0  0  0  0  0  0  0  0  0
  154.6102  143.0512  162.4049 C   0  0  0  0  0  0  0  0  0  0  0  0
  154.8511  141.9086  161.6202 C   0  0  0  0  0  0  0  0  0  0  0  0
  154.1927  141.7389  160.3857 C   0  0  0  0  0  0  0  0  0  0  0  0
  154.5172  140.3073  159.4718 Cl  0  0  0  0  0  0  0  0  0  0  0  0
  146.5412  141.0142  155.6044 H   0  0  0  0  0  0  0  0  0  0  0  0
  145.7470  138.3250  154.2957 H   0  0  0  0  0  0  0  0  0  0  0  0
  147.2139  138.6089  152.4498 H   0  0  0  0  0  0  0  0  0  0  0  0
  146.5950  140.7066  153.3139 H   0  0  0  0  0  0  0  0  0  0  0  0
  152.5418  144.7079  158.1569 H   0  0  0  0  0  0  0  0  0  0  0  0
  152.3080  143.7013  156.7340 H   0  0  0  0  0  0  0  0  0  0  0  0
  153.9128  143.8607  157.4449 H   0  0  0  0  0  0  0  0  0  0  0  0
  151.4927  142.5514  158.7533 H   0  0  0  0  0  0  0  0  0  0  0  0
  153.7182  140.8708  158.1606 H   0  0  0  0  0  0  0  0  0  0  0  0
  151.9335  137.9674  155.2960 H   0  0  0  0  0  0  0  0  0  0  0  0
  147.8226  142.6502  156.9130 H   0  0  0  0  0  0  0  0  0  0  0  0
  146.5816  136.4158  155.7622 H   0  0  0  0  0  0  0  0  0  0  0  0
  146.7785  136.0804  154.0482 H   0  0  0  0  0  0  0  0  0  0  0  0
  148.8923  136.2392  154.3040 H   0  0  0  0  0  0  0  0  0  0  0  0
  148.9855  137.4771  153.1583 H   0  0  0  0  0  0  0  0  0  0  0  0
  148.9692  140.6489  152.5038 H   0  0  0  0  0  0  0  0  0  0  0  0
  152.3458  144.6227  160.4016 H   0  0  0  0  0  0  0  0  0  0  0  0
  153.5120  144.9041  162.5606 H   0  0  0  0  0  0  0  0  0  0  0  0
  155.1184  143.1759  163.3497 H   0  0  0  0  0  0  0  0  0  0  0  0
  155.5443  141.1575  161.9692 H   0  0  0  0  0  0  0  0  0  0  0  0
  1  2  1  0  0  0  0
  1 33  1  0  0  0  0
  1 34  1  0  0  0  0
  1 35  1  0  0  0  0
  2  3  1  0  0  0  0
  2 22  1  0  0  0  0
  2 36  1  0  0  0  0
  3  4  1  0  0  0  0
  3 37  1  0  0  0  0
  4  9  1  0  0  0  0
  4  5  2  0  0  0  0
  5  6  1  0  0  0  0
  6  7  2  0  0  0  0
  6 38  1  0  0  0  0
  7  8  1  0  0  0  0
  8 12  1  0  0  0  0
  8  9  2  0  0  0  0
  9 10  1  0  0  0  0
 10 11  2  0  0  0  0
 11 12  1  0  0  0  0
 11 39  1  0  0  0  0
 12 13  1  0  0  0  0
 13 29  1  0  0  0  0
 13 20  1  0  0  0  0
 13 14  1  0  0  0  0
 14 15  1  0  0  0  0
 15 30  1  0  0  0  0
 15 16  1  0  0  0  0
 15 18  1  0  0  0  0
 16 17  1  0  0  0  0
 16 40  1  0  0  0  0
 16 41  1  0  0  0  0
 17 42  1  0  0  0  0
 18 31  1  0  0  0  0
 18 19  1  0  0  0  0
 18 20  1  0  0  0  0
 19 43  1  0  0  0  0
 20 32  1  0  0  0  0
 20 21  1  0  0  0  0
 21 44  1  0  0  0  0
 22 27  1  0  0  0  0
 22 23  2  0  0  0  0
 23 24  1  0  0  0  0
 23 45  1  0  0  0  0
 24 25  2  0  0  0  0
 24 46  1  0  0  0  0
 25 26  1  0  0  0  0
 25 47  1  0  0  0  0
 26 27  2  0  0  0  0
 26 48  1  0  0  0  0
 27 28  1  0  0  0  0
M  END
> <s_m_source_file>
AV-unprocessed.smi

> <i_m_source_file_index>
283

> <i_lp_mmshare_version>
43012

> <i_f3d_flags>
0

> <s_epik_input>
Q2xjMVtjSF1bY0hdW2NIXVtjSF1jMVtDQEhdKFtDSDNdKVtOSF1jKG5bY0hdbjIpYyhjMjMpbltjSF1uM1tDQEBIXTRPW0NASF0oW0NIMl1bT0hdKVtDQEBIXShbT0hdKVtDQEhdNFtPSF0=

> <s_epik_cmdline>
J2VwaWtfcHl0aG9uJywgJy1waCcsICc3LjAnLCAnLXRuJywgJzgnLCAnLW1hJywgJzIwMCcsICctbWV0YWxfYmluZGluZycsICctaW1hZScsICc8aW5maWxlLm1hZT4nLCAnLW9tYWUnLCAnPG91dGZpbGUubWFlPic=

> <r_lp_tautomer_probability>
1

> <r_epik_Ionization_Penalty>
0.000266407

> <r_epik_Ionization_Penalty_Charging>
0

> <r_epik_Ionization_Penalty_Neutral>
0.000266407

> <r_epik_State_Penalty>
-0

> <r_epik_Charging_Adjusted_Penalty>
0

> <i_epik_Tot_Q>
0

> <i_epik_Tot_abs_Q>
0

> <r_epik_Metal_State_Penalty>
-0

> <b_epik_Metal_Only>
0

> <s_epik_Chemistry_Notes>
This compound contains an acetal/aminal-like group ( X-CH(R)-Y where X, Y are N, S, or O) that may be acid/base labile, releasing an aldehyde.

> <s_lp_Force_Field>
OPLS_2005

> <r_lp_Energy>
56.8802

> <b_lp_Chiralities_Consistent>
1

> <s_lp_Variant>
AV-unprocessed.smi:283-26

> <Gold.Version>
5.8.1

> <Gold.Id.Protein>
6NUR|6NUR_protein|mol2

> <Gold.PLP.Fitness>
55.1279

> <Gold.PLP.PLP>
-46.9205

> <Gold.PLP.part.hbond>
-5.0000

> <Gold.PLP.part.metal>
0.0000

> <Gold.PLP.part.buried>
-2.2173

> <Gold.PLP.part.nonpolar>
-38.7526

> <Gold.PLP.part.repulsive>
0.3080

> <Gold.PLP.ligand.clash>
0.0000

> <Gold.PLP.ligand.torsion>
0.4454

> <Gold.PLP.Chemscore.Hbond>
3.0000

> <Gold.PLP.Chemscore.CHOScore>
0.0000

> <Gold.PLP.Chemscore.Metal>
0.0000

> <Gold.Chemscore.Hbonds>
donor molecule, donor type, donor heavy atom, donor atom, acceptor molecule, acceptor atom, score
      L1  H    19    43       P1  7948  1.00
      L1  H    21    44       P1  7957  1.00
      P1  H  7997  8009       L1     5  0.34
      L1  C    11    39       P1  8028  0.26

> <Gold.PLP.Chemscore.Internal.Correction>
0.0982

> <Gold.Rescore>
     Score         DG    S(hbond)    S(metal)    S(lipo)     H(rot)  DE(clash)    DE(int)     intcor
     13.60     -17.47       2.88        0.00     109.92       4.10       0.18       3.70       ----

> <Gold.Chemscore.Fitness>
13.6005

> <Gold.Chemscore.DG>
-17.4736

> <Gold.Chemscore.ZeroCoef>
-5.4800

> <Gold.Chemscore.Hbond>
2.8806

> <Gold.Chemscore.Metal>
0.0000

> <Gold.Chemscore.Lipo>
109.9167

> <Gold.Chemscore.Internal_Hbond>
0.0000

> <Gold.Chemscore.DEClash>
0.1762

> <Gold.Chemscore.DEInternal>
3.6969

> <Gold.Chemscore.Rot>
4.0968

> <Gold.Chemscore.Internal.Correction>
   9.000000E+99

> <Gold.Chemscore.Hbonds>
donor molecule, donor type, donor heavy atom, donor atom, acceptor molecule, acceptor atom, score
      L1  H    17    42       P1  7948  0.07
      L1  H    19    43       P1  7948  0.95
      L1  H    21    44       P1  7957  0.99
      P1  H  7997  8009       L1     5  0.02

> <Gold.Chemscore.Hbond.Weighted>
-9.6213

> <Gold.Chemscore.Metal.Weighted>
-0.0000

> <Gold.Chemscore.Lipo.Weighted>
-12.8603

> <Gold.Chemscore.Internal_Hbond.Weighted>
0.0000

> <Gold.Chemscore.DEClash.Weighted>
0.1762

> <Gold.Chemscore.DEInternal.Weighted>
3.6969

> <Gold.Chemscore.Rot.Weighted>
10.4879

> <Gold.Chemscore.Internal.Correction.Weighted>
   9.000000E+99

> <Gold.Protein.RotatedTorsions>
[ 6907 6896 6895 6894 ] final   50.81 input  -60.11 | X-H torsion
[ 7974 7965 7964 7962 ] final   10.60 input  175.53 | X-H torsion
[ 8008 7997 7996 7995 ] final  166.78 input   59.86 | X-H torsion
[ 10167 10162 10161 10158 ] final  -95.78 input  -65.29 | X-H torsion
[ 10718 10713 10712 10709 ] final  -97.81 input   66.30 | X-H torsion
[ 10763 10752 10751 10750 ] final -148.90 input  -60.55 | X-H torsion
[ 11005 11000 10999 10996 ] final  -26.41 input  -57.11 | X-H torsion

> <Gold.Protein.ActiveResidues>
 VAL166  LYS551  ARG553  GLY616  TRP617  ASP618  TYR619  PRO620  LYS621  CYS622 
 ASP623  PHE694  ASN695  SER759  ASP760  ASP761  ALA762  ILE779  LEU786  VAL792 
 PHE793  MET794  SER795  GLU796  ALA797  LYS798  CYS799  TRP800  GLU811  SER814 

> <Gold.Protein.RotatedAtoms>
  152.3058  134.7556  160.0347 H   0  0  0  0  0  0  0  0  0  0  0  0  # atno 6907 bound_to 6896
  151.8054  133.3370  159.3547 H   0  0  0  0  0  0  0  0  0  0  0  0  # atno 6908 bound_to 6896
  150.7296  134.5644  159.5903 H   0  0  0  0  0  0  0  0  0  0  0  0  # atno 6909 bound_to 6896
  146.2386  139.9610  142.8458 H   0  0  0  0  0  0  0  0  0  0  0  0  # atno 7974 bound_to 7965
  156.1690  140.1634  156.8481 H   0  0  0  0  0  0  0  0  0  0  0  0  # atno 8008 bound_to 7997
  154.5237  140.0772  156.8253 H   0  0  0  0  0  0  0  0  0  0  0  0  # atno 8009 bound_to 7997
  155.3552  140.3392  155.4242 H   0  0  0  0  0  0  0  0  0  0  0  0  # atno 8010 bound_to 7997
  140.3006  143.3165  152.0252 H   0  0  0  0  0  0  0  0  0  0  0  0  # atno 10167 bound_to 10162
  156.0092  130.5211  150.6430 H   0  0  0  0  0  0  0  0  0  0  0  0  # atno 10718 bound_to 10713
  154.8208  135.3323  154.7045 H   0  0  0  0  0  0  0  0  0  0  0  0  # atno 10763 bound_to 10752
  153.7678  135.6928  153.4917 H   0  0  0  0  0  0  0  0  0  0  0  0  # atno 10764 bound_to 10752
  153.2065  135.4497  155.0278 H   0  0  0  0  0  0  0  0  0  0  0  0  # atno 10765 bound_to 10752
  140.9026  133.7514  156.0564 H   0  0  0  0  0  0  0  0  0  0  0  0  # atno 11005 bound_to 11000
  145.1770  140.9749  143.4288 LP  0  0  0  0  0  0  0  0  0  0  0  0  # atno 17320 bound_to 7965
  144.9976  139.3629  143.6183 LP  0  0  0  0  0  0  0  0  0  0  0  0  # atno 17321 bound_to 7965
  139.4916  144.6458  151.6780 LP  0  0  0  0  0  0  0  0  0  0  0  0  # atno 17342 bound_to 10162
  140.5654  144.0198  150.6190 LP  0  0  0  0  0  0  0  0  0  0  0  0  # atno 17343 bound_to 10162
  157.4206  131.0836  151.1134 LP  0  0  0  0  0  0  0  0  0  0  0  0  # atno 17370 bound_to 10713
  157.1737  130.6279  149.5649 LP  0  0  0  0  0  0  0  0  0  0  0  0  # atno 17371 bound_to 10713
  140.8210  134.3289  157.5381 LP  0  0  0  0  0  0  0  0  0  0  0  0  # atno 17394 bound_to 11000
  139.8744  134.9309  156.3515 LP  0  0  0  0  0  0  0  0  0  0  0  0  # atno 17395 bound_to 11000

$$$$
