AV-unprocessed.smi:72|AV-procd|sdf|745|dock4
  -GOLD-   2262017 73D 1   1.00000     0.00000
 Structure written by MMmdl.
 29 30  0  0  0  0  0  0  0  0  1 V2000
  152.7391  141.2311  159.2644 N   0  0  0  0  0  0  0  0  0  0  0  0
  152.0834  141.1021  158.0582 C   0  0  0  0  0  0  0  0  0  0  0  0
  151.0079  141.9725  157.8377 N   0  0  0  0  0  0  0  0  0  0  0  0
  150.3820  141.8487  156.7104 C   0  0  0  0  0  0  0  0  0  0  0  0
  150.7693  140.8401  155.7355 N   0  0  0  0  0  0  0  0  0  0  0  0
  150.0678  140.6729  154.3962 C   0  0  2  0  0  0  0  0  0  0  0  0
  149.1299  141.6953  154.2182 O   0  0  0  0  0  0  0  0  0  0  0  0
  147.8314  141.2273  154.5714 C   0  0  1  0  0  0  0  0  0  0  0  0
  146.7334  142.1447  154.0063 C   0  0  0  0  0  0  0  0  0  0  0  0
  145.4648  141.7020  154.4398 O   0  0  0  0  0  0  0  0  0  0  0  0
  147.8535  139.7970  154.0249 C   0  0  1  0  0  0  0  0  0  0  0  0
  147.5801  139.7927  152.6326 O   0  0  0  0  0  0  0  0  0  0  0  0
  149.2784  139.3453  154.3475 C   0  0  1  0  0  0  0  0  0  0  0  0
  149.7819  138.4244  153.3974 O   0  0  0  0  0  0  0  0  0  0  0  0
  151.8955  140.0159  156.0137 C   0  0  0  0  0  0  0  0  0  0  0  0
  152.2757  139.1890  155.1847 O   0  0  0  0  0  0  0  0  0  0  0  0
  152.5323  140.1874  157.2482 N   0  0  0  0  0  0  0  0  0  0  0  0
  150.8547  140.7639  153.6452 H   0  0  0  0  0  0  0  0  0  0  0  0
  147.7456  141.1716  155.6582 H   0  0  0  0  0  0  0  0  0  0  0  0
  147.1131  139.1657  154.5171 H   0  0  0  0  0  0  0  0  0  0  0  0
  149.2895  138.8815  155.3352 H   0  0  0  0  0  0  0  0  0  0  0  0
  153.5279  140.6604  159.5318 H   0  0  0  0  0  0  0  0  0  0  0  0
  152.4786  141.9048  159.9700 H   0  0  0  0  0  0  0  0  0  0  0  0
  149.5426  142.4867  156.4341 H   0  0  0  0  0  0  0  0  0  0  0  0
  146.8912  143.1832  154.2990 H   0  0  0  0  0  0  0  0  0  0  0  0
  146.7373  142.1077  152.9165 H   0  0  0  0  0  0  0  0  0  0  0  0
  145.1254  141.0938  153.8010 H   0  0  0  0  0  0  0  0  0  0  0  0
  148.3631  140.0645  152.1780 H   0  0  0  0  0  0  0  0  0  0  0  0
  149.8618  138.8670  152.5660 H   0  0  0  0  0  0  0  0  0  0  0  0
  1  2  1  0  0  0  0
  1 22  1  0  0  0  0
  1 23  1  0  0  0  0
  2 17  2  0  0  0  0
  2  3  1  0  0  0  0
  3  4  2  0  0  0  0
  4  5  1  0  0  0  0
  4 24  1  0  0  0  0
  5  6  1  0  0  0  0
  5 15  1  0  0  0  0
  6 18  1  0  0  0  0
  6 13  1  0  0  0  0
  6  7  1  0  0  0  0
  7  8  1  0  0  0  0
  8 19  1  0  0  0  0
  8  9  1  0  0  0  0
  8 11  1  0  0  0  0
  9 10  1  0  0  0  0
  9 25  1  0  0  0  0
  9 26  1  0  0  0  0
 10 27  1  0  0  0  0
 11 20  1  0  0  0  0
 11 12  1  0  0  0  0
 11 13  1  0  0  0  0
 12 28  1  0  0  0  0
 13 21  1  0  0  0  0
 13 14  1  0  0  0  0
 14 29  1  0  0  0  0
 15 16  2  0  0  0  0
 15 17  1  0  0  0  0
M  END
> <s_m_source_file>
AV-unprocessed.smi

> <i_m_source_file_index>
72

> <i_lp_mmshare_version>
43012

> <i_f3d_flags>
0

> <s_epik_input>
W05IMl1jMW5bY0hdbihjKD1PKW4xKVtDQEBIXTJPW0NASF0oW0NIMl1bT0hdKVtDQEBIXShbT0hdKVtDQEhdMltPSF0=

> <s_epik_cmdline>
J2VwaWtfcHl0aG9uJywgJy1waCcsICc3LjAnLCAnLXRuJywgJzgnLCAnLW1hJywgJzIwMCcsICctbWV0YWxfYmluZGluZycsICctaW1hZScsICc8aW5maWxlLm1hZT4nLCAnLW9tYWUnLCAnPG91dGZpbGUubWFlPic=

> <r_lp_tautomer_probability>
4.77166e-05

> <r_epik_Ionization_Penalty>
1.3546

> <r_epik_Ionization_Penalty_Charging>
1.46833e-10

> <r_epik_Ionization_Penalty_Neutral>
1.3546

> <r_epik_State_Penalty>
3.51908

> <r_epik_Charging_Adjusted_Penalty>
3.51908

> <i_epik_Tot_Q>
0

> <i_epik_Tot_abs_Q>
0

> <r_epik_Metal_State_Penalty>
3.44088

> <b_epik_Metal_Only>
1

> <s_epik_Chemistry_Notes>
This compound contains an acetal/aminal-like group ( X-CH(R)-Y where X, Y are N, S, or O) that may be acid/base labile, releasing an aldehyde.

> <s_lp_Force_Field>
OPLS_2005

> <r_lp_Energy>
31.2985

> <b_lp_Chiralities_Consistent>
1

> <s_lp_Variant>
AV-unprocessed.smi:72-83

> <Gold.Version>
5.8.1

> <Gold.Id.Protein>
6NUR|6NUR_protein|mol2

> <Gold.PLP.Fitness>
45.3302

> <Gold.PLP.PLP>
-29.5531

> <Gold.PLP.part.hbond>
-6.5456

> <Gold.PLP.part.metal>
0.0000

> <Gold.PLP.part.buried>
-2.9750

> <Gold.PLP.part.nonpolar>
-20.4273

> <Gold.PLP.part.repulsive>
0.3465

> <Gold.PLP.ligand.clash>
0.0000

> <Gold.PLP.ligand.torsion>
0.1760

> <Gold.PLP.Chemscore.Hbond>
4.3688

> <Gold.PLP.Chemscore.CHOScore>
1.0000

> <Gold.PLP.Chemscore.Metal>
0.0000

> <Gold.Chemscore.Hbonds>
donor molecule, donor type, donor heavy atom, donor atom, acceptor molecule, acceptor atom, score
      L1  H    10    27       P1 10175  0.98
      L1  H    12    28       P1  7957  1.00
      L1  H    14    29       P1  7957  1.00
      P1  H  7997  8010       L1    17  0.91
      P1  H  8011  8017       L1     7  0.40
      L1  C     4    24       P1  8028  1.00

> <Gold.PLP.Chemscore.Internal.Correction>
0.0227

> <Gold.Rescore>
     Score         DG    S(hbond)    S(metal)    S(lipo)     H(rot)  DE(clash)    DE(int)     intcor
      7.07      -8.59       3.22        0.00      23.52       4.06       1.21       0.31       ----

> <Gold.Chemscore.Fitness>
7.0665

> <Gold.Chemscore.DG>
-8.5872

> <Gold.Chemscore.ZeroCoef>
-5.4800

> <Gold.Chemscore.Hbond>
3.2181

> <Gold.Chemscore.Metal>
0.0000

> <Gold.Chemscore.Lipo>
23.5241

> <Gold.Chemscore.Internal_Hbond>
0.0000

> <Gold.Chemscore.DEClash>
1.2129

> <Gold.Chemscore.DEInternal>
0.3077

> <Gold.Chemscore.Rot>
4.0600

> <Gold.Chemscore.Internal.Correction>
   9.000000E+99

> <Gold.Chemscore.Hbonds>
donor molecule, donor type, donor heavy atom, donor atom, acceptor molecule, acceptor atom, score
      L1  H    10    27       P1 10175  0.61
      L1  H    12    28       P1  7957  0.98
      L1  H    14    29       P1  7957  0.60
      P1  H  7997  8010       L1    17  0.46
      P1  H  8011  8017       L1     7  0.09

> <Gold.Chemscore.Hbond.Weighted>
-10.7485

> <Gold.Chemscore.Metal.Weighted>
-0.0000

> <Gold.Chemscore.Lipo.Weighted>
-2.7523

> <Gold.Chemscore.Internal_Hbond.Weighted>
0.0000

> <Gold.Chemscore.DEClash.Weighted>
1.2129

> <Gold.Chemscore.DEInternal.Weighted>
0.3077

> <Gold.Chemscore.Rot.Weighted>
10.3936

> <Gold.Chemscore.Internal.Correction.Weighted>
   9.000000E+99

> <Gold.Protein.RotatedTorsions>
[ 6907 6896 6895 6894 ] final -170.85 input  -60.11 | X-H torsion
[ 7974 7965 7964 7962 ] final  -63.06 input  175.53 | X-H torsion
[ 8008 7997 7996 7995 ] final   44.54 input   59.86 | X-H torsion
[ 10167 10162 10161 10158 ] final   37.26 input  -65.29 | X-H torsion
[ 10718 10713 10712 10709 ] final   11.84 input   66.30 | X-H torsion
[ 10763 10752 10751 10750 ] final  -99.98 input  -60.55 | X-H torsion
[ 11005 11000 10999 10996 ] final -119.27 input  -57.11 | X-H torsion

> <Gold.Protein.ActiveResidues>
 VAL166  LYS551  ARG553  GLY616  TRP617  ASP618  TYR619  PRO620  LYS621  CYS622 
 ASP623  PHE694  ASN695  SER759  ASP760  ASP761  ALA762  ILE779  LEU786  VAL792 
 PHE793  MET794  SER795  GLU796  ALA797  LYS798  CYS799  TRP800  GLU811  SER814 

> <Gold.Protein.RotatedAtoms>
  151.5143  133.3479  159.2890 H   0  0  0  0  0  0  0  0  0  0  0  0  # atno 6907 bound_to 6896
  150.8692  134.8065  159.7153 H   0  0  0  0  0  0  0  0  0  0  0  0  # atno 6908 bound_to 6896
  152.4686  134.5024  159.9780 H   0  0  0  0  0  0  0  0  0  0  0  0  # atno 6909 bound_to 6896
  145.7836  140.8748  143.0317 H   0  0  0  0  0  0  0  0  0  0  0  0  # atno 7974 bound_to 7965
  155.3211  140.3397  155.4241 H   0  0  0  0  0  0  0  0  0  0  0  0  # atno 8008 bound_to 7997
  156.1909  140.1697  156.8132 H   0  0  0  0  0  0  0  0  0  0  0  0  # atno 8009 bound_to 7997
  154.5440  140.0719  156.8542 H   0  0  0  0  0  0  0  0  0  0  0  0  # atno 8010 bound_to 7997
  140.4049  144.1672  150.6135 H   0  0  0  0  0  0  0  0  0  0  0  0  # atno 10167 bound_to 10162
  157.0014  130.6081  149.5697 H   0  0  0  0  0  0  0  0  0  0  0  0  # atno 10718 bound_to 10713
  154.7542  135.4952  153.9344 H   0  0  0  0  0  0  0  0  0  0  0  0  # atno 10763 bound_to 10752
  153.1177  135.6724  153.9397 H   0  0  0  0  0  0  0  0  0  0  0  0  # atno 10764 bound_to 10752
  153.9138  135.3096  155.3427 H   0  0  0  0  0  0  0  0  0  0  0  0  # atno 10765 bound_to 10752
  141.0227  134.0100  157.3259 H   0  0  0  0  0  0  0  0  0  0  0  0  # atno 11005 bound_to 11000
  144.6792  140.0024  143.7484 LP  0  0  0  0  0  0  0  0  0  0  0  0  # atno 17320 bound_to 7965
  146.0048  139.3121  143.0906 LP  0  0  0  0  0  0  0  0  0  0  0  0  # atno 17321 bound_to 7965
  140.4700  143.2416  151.9102 LP  0  0  0  0  0  0  0  0  0  0  0  0  # atno 17342 bound_to 10162
  139.4783  144.5380  151.8570 LP  0  0  0  0  0  0  0  0  0  0  0  0  # atno 17343 bound_to 10162
  156.0169  130.5264  150.8163 LP  0  0  0  0  0  0  0  0  0  0  0  0  # atno 17370 bound_to 10713
  157.5387  131.0940  150.9857 LP  0  0  0  0  0  0  0  0  0  0  0  0  # atno 17371 bound_to 10713
  139.9156  135.0196  156.7868 LP  0  0  0  0  0  0  0  0  0  0  0  0  # atno 17394 bound_to 11000
  140.6545  133.9701  155.7772 LP  0  0  0  0  0  0  0  0  0  0  0  0  # atno 17395 bound_to 11000

$$$$
