AV-unprocessed.smi:2454|AV-procd|sdf|9696|dock5
  -GOLD-   2272013333D 1   1.00000     0.00000
 Structure written by MMmdl.
 42 43  0  0  0  0  0  0  0  0  1 V2000
  151.3935  140.1718  155.7566 C   0  0  0  0  0  0  0  0  0  0  0  0
  152.5313  139.4905  156.2551 O   0  0  0  0  0  0  0  0  0  0  0  0
  152.6949  138.2079  155.6737 C   0  0  0  0  0  0  0  0  0  0  0  0
  151.5188  137.3066  155.9875 C   0  0  0  0  0  0  0  0  0  0  0  0
  150.7445  136.7288  154.9593 C   0  0  0  0  0  0  0  0  0  0  0  0
  149.6600  135.9087  155.3448 C   0  0  0  0  0  0  0  0  0  0  0  0
  148.9129  135.3474  154.2677 N   0  0  0  0  0  0  0  0  0  0  0  0
  147.9541  134.3968  154.2433 C   0  0  0  0  0  0  0  0  0  0  0  0
  147.5827  133.8486  155.2798 O   0  0  0  0  0  0  0  0  0  0  0  0
  147.4474  134.0969  153.0360 N   0  0  0  0  0  0  0  0  0  0  0  0
  146.4135  133.1068  152.7510 C   0  0  1  0  0  0  0  0  0  0  0  0
  145.8878  133.3054  151.3184 C   0  0  0  0  0  0  0  0  0  0  0  0
  144.8623  132.2244  150.9468 C   0  0  0  0  0  0  0  0  0  0  0  0
  145.4457  130.8147  151.1317 C   0  0  0  0  0  0  0  0  0  0  0  0
  145.9642  130.5969  152.5692 C   0  0  1  0  0  0  0  0  0  0  0  0
  146.5368  129.1784  152.7693 C   0  0  0  0  0  0  0  0  0  0  0  0
  147.5990  128.9805  151.9881 F   0  0  0  0  0  0  0  0  0  0  0  0
  146.8987  129.0067  154.0408 F   0  0  0  0  0  0  0  0  0  0  0  0
  145.6101  128.2663  152.4750 F   0  0  0  0  0  0  0  0  0  0  0  0
  146.9907  131.6906  152.9344 C   0  0  0  0  0  0  0  0  0  0  0  0
  149.4054  135.7090  156.6636 N   0  0  0  0  0  0  0  0  0  0  0  0
  150.1997  136.3051  157.5558 C   0  0  0  0  0  0  0  0  0  0  0  0
  151.2423  137.0928  157.2913 N   0  0  0  0  0  0  0  0  0  0  0  0
  151.3175  141.1518  156.2275 H   0  0  0  0  0  0  0  0  0  0  0  0
  150.4774  139.6218  155.9752 H   0  0  0  0  0  0  0  0  0  0  0  0
  151.4638  140.3214  154.6783 H   0  0  0  0  0  0  0  0  0  0  0  0
  152.7932  138.2997  154.5908 H   0  0  0  0  0  0  0  0  0  0  0  0
  153.6134  137.7451  156.0398 H   0  0  0  0  0  0  0  0  0  0  0  0
  150.9742  136.9121  153.9196 H   0  0  0  0  0  0  0  0  0  0  0  0
  149.1446  135.7261  153.3610 H   0  0  0  0  0  0  0  0  0  0  0  0
  147.8162  134.6027  152.2426 H   0  0  0  0  0  0  0  0  0  0  0  0
  145.5750  133.2229  153.4403 H   0  0  0  0  0  0  0  0  0  0  0  0
  145.4348  134.2926  151.2188 H   0  0  0  0  0  0  0  0  0  0  0  0
  146.7181  133.2735  150.6111 H   0  0  0  0  0  0  0  0  0  0  0  0
  143.9722  132.3362  151.5673 H   0  0  0  0  0  0  0  0  0  0  0  0
  144.5384  132.3601  149.9146 H   0  0  0  0  0  0  0  0  0  0  0  0
  144.6824  130.0743  150.8913 H   0  0  0  0  0  0  0  0  0  0  0  0
  146.2571  130.6624  150.4189 H   0  0  0  0  0  0  0  0  0  0  0  0
  145.1151  130.7024  153.2463 H   0  0  0  0  0  0  0  0  0  0  0  0
  147.8824  131.5753  152.3161 H   0  0  0  0  0  0  0  0  0  0  0  0
  147.3158  131.5632  153.9677 H   0  0  0  0  0  0  0  0  0  0  0  0
  149.9751  136.1305  158.5976 H   0  0  0  0  0  0  0  0  0  0  0  0
  1  2  1  0  0  0  0
  1 24  1  0  0  0  0
  1 25  1  0  0  0  0
  1 26  1  0  0  0  0
  2  3  1  0  0  0  0
  3  4  1  0  0  0  0
  3 27  1  0  0  0  0
  3 28  1  0  0  0  0
  4 23  1  0  0  0  0
  4  5  2  0  0  0  0
  5  6  1  0  0  0  0
  5 29  1  0  0  0  0
  6  7  1  0  0  0  0
  6 21  2  0  0  0  0
  7  8  1  0  0  0  0
  7 30  1  0  0  0  0
  8  9  2  0  0  0  0
  8 10  1  0  0  0  0
 10 11  1  0  0  0  0
 10 31  1  0  0  0  0
 11 20  1  0  0  0  0
 11 12  1  0  0  0  0
 11 32  1  0  0  0  0
 12 13  1  0  0  0  0
 12 33  1  0  0  0  0
 12 34  1  0  0  0  0
 13 14  1  0  0  0  0
 13 35  1  0  0  0  0
 13 36  1  0  0  0  0
 14 15  1  0  0  0  0
 14 37  1  0  0  0  0
 14 38  1  0  0  0  0
 15 16  1  0  0  0  0
 15 20  1  0  0  0  0
 15 39  1  0  0  0  0
 16 17  1  0  0  0  0
 16 18  1  0  0  0  0
 16 19  1  0  0  0  0
 20 40  1  0  0  0  0
 20 41  1  0  0  0  0
 21 22  1  0  0  0  0
 22 23  2  0  0  0  0
 22 42  1  0  0  0  0
M  END
> <s_m_source_file>
AV-unprocessed.smi

> <i_m_source_file_index>
2454

> <i_lp_mmshare_version>
43012

> <i_f3d_flags>
0

> <s_epik_input>
W0NIM11PW0NIMl1jMVtjSF1jKG5bY0hdbjEpW05IXUMoPU8pW05IXVtDQEBIXTJbQ0gyXVtDSDJdW0NIMl1bQ0BASF0oQyhGKShGKUYpW0NIMl0y

> <s_epik_cmdline>
J2VwaWtfcHl0aG9uJywgJy1waCcsICc3LjAnLCAnLXRuJywgJzgnLCAnLW1hJywgJzIwMCcsICctbWV0YWxfYmluZGluZycsICctaW1hZScsICc8aW5maWxlLm1hZT4nLCAnLW9tYWUnLCAnPG91dGZpbGUubWFlPic=

> <r_lp_tautomer_probability>
1

> <r_epik_Ionization_Penalty>
3.01554e-05

> <r_epik_Ionization_Penalty_Charging>
0

> <r_epik_Ionization_Penalty_Neutral>
3.01554e-05

> <r_epik_State_Penalty>
-0

> <r_epik_Charging_Adjusted_Penalty>
0

> <i_epik_Tot_Q>
0

> <i_epik_Tot_abs_Q>
0

> <r_epik_Metal_State_Penalty>
-0

> <b_epik_Metal_Only>
0

> <s_lp_Force_Field>
OPLS_2005

> <r_lp_Energy>
13.6068

> <b_lp_Chiralities_Consistent>
1

> <s_lp_Variant>
AV-unprocessed.smi:2454-2

> <Gold.Version>
5.8.1

> <Gold.Id.Protein>
6NUR|6NUR_protein|mol2

> <Gold.PLP.Fitness>
40.5676

> <Gold.PLP.PLP>
-32.5221

> <Gold.PLP.part.hbond>
-2.9185

> <Gold.PLP.part.metal>
0.0000

> <Gold.PLP.part.buried>
-1.6412

> <Gold.PLP.part.nonpolar>
-27.7738

> <Gold.PLP.part.repulsive>
0.0407

> <Gold.PLP.ligand.clash>
0.0000

> <Gold.PLP.ligand.torsion>
0.1739

> <Gold.PLP.Chemscore.Hbond>
2.7840

> <Gold.PLP.Chemscore.CHOScore>
0.0000

> <Gold.PLP.Chemscore.Metal>
0.0000

> <Gold.Chemscore.Hbonds>
donor molecule, donor type, donor heavy atom, donor atom, acceptor molecule, acceptor atom, score
      L1  H     7    30       P1  7948  1.00
      L1  H    10    31       P1  7948  0.82
      P1  H  7997  8010       L1     2  1.00

> <Gold.PLP.Chemscore.Internal.Correction>
0.0413

> <Gold.Rescore>
     Score         DG    S(hbond)    S(metal)    S(lipo)     H(rot)  DE(clash)    DE(int)     intcor
     16.55     -17.96       2.49        0.00      70.58       1.60       0.14       1.28       ----

> <Gold.Chemscore.Fitness>
16.5469

> <Gold.Chemscore.DG>
-17.9625

> <Gold.Chemscore.ZeroCoef>
-5.4800

> <Gold.Chemscore.Hbond>
2.4939

> <Gold.Chemscore.Metal>
0.0000

> <Gold.Chemscore.Lipo>
70.5805

> <Gold.Chemscore.Internal_Hbond>
0.0000

> <Gold.Chemscore.DEClash>
0.1376

> <Gold.Chemscore.DEInternal>
1.2780

> <Gold.Chemscore.Rot>
1.6035

> <Gold.Chemscore.Internal.Correction>
   9.000000E+99

> <Gold.Chemscore.Hbonds>
donor molecule, donor type, donor heavy atom, donor atom, acceptor molecule, acceptor atom, score
      L1  H     7    30       P1  7948  0.63
      L1  H    10    31       P1  7948  0.44
      P1  H  7997  8010       L1     2  0.35

> <Gold.Chemscore.Hbond.Weighted>
-8.3297

> <Gold.Chemscore.Metal.Weighted>
-0.0000

> <Gold.Chemscore.Lipo.Weighted>
-8.2579

> <Gold.Chemscore.Internal_Hbond.Weighted>
0.0000

> <Gold.Chemscore.DEClash.Weighted>
0.1376

> <Gold.Chemscore.DEInternal.Weighted>
1.2780

> <Gold.Chemscore.Rot.Weighted>
4.1050

> <Gold.Chemscore.Internal.Correction.Weighted>
   9.000000E+99

> <Gold.Protein.RotatedTorsions>
[ 6907 6896 6895 6894 ] final -148.53 input  -60.11 | X-H torsion
[ 7974 7965 7964 7962 ] final  -83.75 input  175.53 | X-H torsion
[ 8008 7997 7996 7995 ] final   73.44 input   59.86 | X-H torsion
[ 10167 10162 10161 10158 ] final -156.67 input  -65.29 | X-H torsion
[ 10718 10713 10712 10709 ] final  146.54 input   66.30 | X-H torsion
[ 10763 10752 10751 10750 ] final -178.37 input  -60.55 | X-H torsion
[ 11005 11000 10999 10996 ] final   78.20 input  -57.11 | X-H torsion

> <Gold.Protein.ActiveResidues>
 VAL166  LYS551  ARG553  GLY616  TRP617  ASP618  TYR619  PRO620  LYS621  CYS622 
 ASP623  PHE694  ASN695  SER759  ASP760  ASP761  ALA762  ILE779  LEU786  VAL792 
 PHE793  MET794  SER795  GLU796  ALA797  LYS798  CYS799  TRP800  GLU811  SER814 

> <Gold.Protein.RotatedAtoms>
  151.1712  133.4783  159.2593 H   0  0  0  0  0  0  0  0  0  0  0  0  # atno 6907 bound_to 6896
  151.1354  135.0152  159.8611 H   0  0  0  0  0  0  0  0  0  0  0  0  # atno 6908 bound_to 6896
  152.5461  134.1611  159.8611 H   0  0  0  0  0  0  0  0  0  0  0  0  # atno 6909 bound_to 6896
  145.5158  140.9536  143.1682 H   0  0  0  0  0  0  0  0  0  0  0  0  # atno 7974 bound_to 7965
  155.7836  140.3481  155.5311 H   0  0  0  0  0  0  0  0  0  0  0  0  # atno 8008 bound_to 7997
  155.8704  140.0985  157.1575 H   0  0  0  0  0  0  0  0  0  0  0  0  # atno 8009 bound_to 7997
  154.4017  140.1341  156.4058 H   0  0  0  0  0  0  0  0  0  0  0  0  # atno 8010 bound_to 7997
  139.6831  143.9546  152.2347 H   0  0  0  0  0  0  0  0  0  0  0  0  # atno 10167 bound_to 10162
  157.3320  131.0922  151.1154 H   0  0  0  0  0  0  0  0  0  0  0  0  # atno 10718 bound_to 10713
  154.5485  135.2811  155.1031 H   0  0  0  0  0  0  0  0  0  0  0  0  # atno 10763 bound_to 10752
  154.2486  135.6343  153.5236 H   0  0  0  0  0  0  0  0  0  0  0  0  # atno 10764 bound_to 10752
  152.9997  135.5577  154.6044 H   0  0  0  0  0  0  0  0  0  0  0  0  # atno 10765 bound_to 10752
  139.9222  134.7745  156.1620 H   0  0  0  0  0  0  0  0  0  0  0  0  # atno 11005 bound_to 11000
  144.7702  139.6751  143.7198 LP  0  0  0  0  0  0  0  0  0  0  0  0  # atno 17320 bound_to 7965
  146.2137  139.5512  142.9664 LP  0  0  0  0  0  0  0  0  0  0  0  0  # atno 17321 bound_to 7965
  139.9342  144.6722  150.8332 LP  0  0  0  0  0  0  0  0  0  0  0  0  # atno 17342 bound_to 10162
  140.7659  143.3288  151.2456 LP  0  0  0  0  0  0  0  0  0  0  0  0  # atno 17343 bound_to 10162
  157.2399  130.6564  149.5885 LP  0  0  0  0  0  0  0  0  0  0  0  0  # atno 17370 bound_to 10713
  155.9697  130.4572  150.5952 LP  0  0  0  0  0  0  0  0  0  0  0  0  # atno 17371 bound_to 10713
  141.0752  133.6778  156.2222 LP  0  0  0  0  0  0  0  0  0  0  0  0  # atno 17394 bound_to 11000
  140.6440  134.5136  157.5572 LP  0  0  0  0  0  0  0  0  0  0  0  0  # atno 17395 bound_to 11000

$$$$
