AV-unprocessed.smi:2948|AV-procd|sdf|11283|dock1
  -GOLD-   2272016173D 1   1.00000     0.00000
 Structure written by MMmdl.
 32 33  0  0  0  0  0  0  0  0  1 V2000
  146.8316  141.6799  154.5583 C   0  0  0  0  0  0  0  0  0  0  0  0
  147.9187  140.8553  153.8657 C   0  0  0  0  0  0  0  0  0  0  0  0
  149.1846  141.3602  154.2509 O   0  0  0  0  0  0  0  0  0  0  0  0
  149.5419  141.0122  155.5783 C   0  0  0  0  0  0  0  0  0  0  0  0
  150.6524  141.9467  156.0807 C   0  0  0  0  0  0  0  0  0  0  0  0
  151.5491  141.2783  157.0141 N   0  0  0  0  0  0  0  0  0  0  0  0
  152.2060  140.0967  156.8707 C   0  0  0  0  0  0  0  0  0  0  0  0
  152.0964  139.2439  155.6383 C   0  0  0  0  0  0  0  0  0  0  0  0
  153.1966  139.3919  154.7651 O   0  0  0  0  0  0  0  0  0  0  0  0
  152.9581  139.7273  157.9096 N   0  0  0  0  0  0  0  0  0  0  0  0
  152.7892  140.7693  158.7987 C   0  0  0  0  0  0  0  0  0  0  0  0
  153.3341  140.9752  160.0864 C   0  0  0  0  0  0  0  0  0  0  0  0
  153.0140  142.1367  160.8193 C   0  0  0  0  0  0  0  0  0  0  0  0
  152.1463  143.1063  160.2764 C   0  0  0  0  0  0  0  0  0  0  0  0
  151.5923  142.9200  158.9952 C   0  0  0  0  0  0  0  0  0  0  0  0
  151.9145  141.7582  158.2681 C   0  0  0  0  0  0  0  0  0  0  0  0
  145.8383  141.3203  154.2893 H   0  0  0  0  0  0  0  0  0  0  0  0
  146.8964  142.7305  154.2739 H   0  0  0  0  0  0  0  0  0  0  0  0
  146.9276  141.6202  155.6428 H   0  0  0  0  0  0  0  0  0  0  0  0
  147.8274  139.8060  154.1504 H   0  0  0  0  0  0  0  0  0  0  0  0
  147.8024  140.9175  152.7828 H   0  0  0  0  0  0  0  0  0  0  0  0
  148.6702  141.0905  156.2301 H   0  0  0  0  0  0  0  0  0  0  0  0
  149.8845  139.9773  155.6150 H   0  0  0  0  0  0  0  0  0  0  0  0
  151.2391  142.3075  155.2352 H   0  0  0  0  0  0  0  0  0  0  0  0
  150.2316  142.8362  156.5479 H   0  0  0  0  0  0  0  0  0  0  0  0
  152.0220  138.1994  155.9416 H   0  0  0  0  0  0  0  0  0  0  0  0
  151.1981  139.4775  155.0710 H   0  0  0  0  0  0  0  0  0  0  0  0
  153.4251  138.5410  154.4239 H   0  0  0  0  0  0  0  0  0  0  0  0
  154.0007  140.2388  160.5102 H   0  0  0  0  0  0  0  0  0  0  0  0
  153.4371  142.2844  161.8020 H   0  0  0  0  0  0  0  0  0  0  0  0
  151.9069  143.9936  160.8440 H   0  0  0  0  0  0  0  0  0  0  0  0
  150.9289  143.6618  158.5763 H   0  0  0  0  0  0  0  0  0  0  0  0
  1  2  1  0  0  0  0
  1 17  1  0  0  0  0
  1 18  1  0  0  0  0
  1 19  1  0  0  0  0
  2  3  1  0  0  0  0
  2 20  1  0  0  0  0
  2 21  1  0  0  0  0
  3  4  1  0  0  0  0
  4  5  1  0  0  0  0
  4 22  1  0  0  0  0
  4 23  1  0  0  0  0
  5  6  1  0  0  0  0
  5 24  1  0  0  0  0
  5 25  1  0  0  0  0
  6 16  1  0  0  0  0
  6  7  1  0  0  0  0
  7  8  1  0  0  0  0
  7 10  2  0  0  0  0
  8  9  1  0  0  0  0
  8 26  1  0  0  0  0
  8 27  1  0  0  0  0
  9 28  1  0  0  0  0
 10 11  1  0  0  0  0
 11 16  2  0  0  0  0
 11 12  1  0  0  0  0
 12 13  2  0  0  0  0
 12 29  1  0  0  0  0
 13 14  1  0  0  0  0
 13 30  1  0  0  0  0
 14 15  2  0  0  0  0
 14 31  1  0  0  0  0
 15 16  1  0  0  0  0
 15 32  1  0  0  0  0
M  END
> <s_m_source_file>
AV-unprocessed.smi

> <i_m_source_file_index>
2948

> <i_lp_mmshare_version>
43012

> <i_f3d_flags>
0

> <s_epik_input>
W0NIM11bQ0gyXU9bQ0gyXVtDSDJdbihjKG4xKVtDSDJdW09IXSljKGMxMilbY0hdW2NIXVtjSF1bY0hdMg==

> <s_epik_cmdline>
J2VwaWtfcHl0aG9uJywgJy1waCcsICc3LjAnLCAnLXRuJywgJzgnLCAnLW1hJywgJzIwMCcsICctbWV0YWxfYmluZGluZycsICctaW1hZScsICc8aW5maWxlLm1hZT4nLCAnLW9tYWUnLCAnPG91dGZpbGUubWFlPic=

> <r_epik_Ionization_Penalty>
0.0599051

> <r_epik_Ionization_Penalty_Charging>
0

> <r_epik_Ionization_Penalty_Neutral>
0.0599051

> <r_epik_State_Penalty>
0.0518308

> <r_epik_Charging_Adjusted_Penalty>
0.0518308

> <i_epik_Tot_Q>
0

> <i_epik_Tot_abs_Q>
0

> <r_epik_Metal_State_Penalty>
5.4163e-05

> <b_epik_Metal_Only>
0

> <s_lp_Force_Field>
OPLS_2005

> <r_lp_Energy>
7.3767

> <b_lp_Chiralities_Consistent>
1

> <s_lp_Variant>
AV-unprocessed.smi:2948-1

> <Gold.Version>
5.8.1

> <Gold.Id.Protein>
6NUR|6NUR_protein|mol2

> <Gold.PLP.Fitness>
42.7041

> <Gold.PLP.PLP>
-37.9497

> <Gold.PLP.part.hbond>
-4.7979

> <Gold.PLP.part.metal>
0.0000

> <Gold.PLP.part.buried>
-3.2891

> <Gold.PLP.part.nonpolar>
-28.9057

> <Gold.PLP.part.repulsive>
0.1929

> <Gold.PLP.ligand.clash>
0.0000

> <Gold.PLP.ligand.torsion>
0.6961

> <Gold.PLP.Chemscore.Hbond>
2.0243

> <Gold.PLP.Chemscore.CHOScore>
0.0000

> <Gold.PLP.Chemscore.Metal>
0.0000

> <Gold.Chemscore.Hbonds>
donor molecule, donor type, donor heavy atom, donor atom, acceptor molecule, acceptor atom, score
      P1  H  7997  8008       L1     9  0.82
      P1  H  7997  8010       L1    10  0.82
      P1  H  8011  8017       L1     3  0.28

> <Gold.PLP.Chemscore.Internal.Correction>
0.0737

> <Gold.Rescore>
     Score         DG    S(hbond)    S(metal)    S(lipo)     H(rot)  DE(clash)    DE(int)     intcor
     13.33     -14.40       1.02        0.00      95.82       2.22       0.79       0.28       ----

> <Gold.Chemscore.Fitness>
13.3329

> <Gold.Chemscore.DG>
-14.4038

> <Gold.Chemscore.ZeroCoef>
-5.4800

> <Gold.Chemscore.Hbond>
1.0186

> <Gold.Chemscore.Metal>
0.0000

> <Gold.Chemscore.Lipo>
95.8152

> <Gold.Chemscore.Internal_Hbond>
0.0000

> <Gold.Chemscore.DEClash>
0.7905

> <Gold.Chemscore.DEInternal>
0.2803

> <Gold.Chemscore.Rot>
2.2221

> <Gold.Chemscore.Internal.Correction>
   9.000000E+99

> <Gold.Chemscore.Hbonds>
donor molecule, donor type, donor heavy atom, donor atom, acceptor molecule, acceptor atom, score
      P1  H  7997  8008       L1     9  0.51
      P1  H  7997  8010       L1    10  0.09
      P1  H  8011  8017       L1     3  0.07

> <Gold.Chemscore.Hbond.Weighted>
-3.4020

> <Gold.Chemscore.Metal.Weighted>
-0.0000

> <Gold.Chemscore.Lipo.Weighted>
-11.2104

> <Gold.Chemscore.Internal_Hbond.Weighted>
0.0000

> <Gold.Chemscore.DEClash.Weighted>
0.7905

> <Gold.Chemscore.DEInternal.Weighted>
0.2803

> <Gold.Chemscore.Rot.Weighted>
5.6886

> <Gold.Chemscore.Internal.Correction.Weighted>
   9.000000E+99

> <Gold.Protein.RotatedTorsions>
[ 6907 6896 6895 6894 ] final   76.54 input  -60.11 | X-H torsion
[ 7974 7965 7964 7962 ] final   48.94 input  175.53 | X-H torsion
[ 8008 7997 7996 7995 ] final   17.88 input   59.86 | X-H torsion
[ 10167 10162 10161 10158 ] final  113.93 input  -65.29 | X-H torsion
[ 10718 10713 10712 10709 ] final  150.67 input   66.30 | X-H torsion
[ 10763 10752 10751 10750 ] final  116.07 input  -60.55 | X-H torsion
[ 11005 11000 10999 10996 ] final  104.87 input  -57.11 | X-H torsion

> <Gold.Protein.ActiveResidues>
 VAL166  LYS551  ARG553  GLY616  TRP617  ASP618  TYR619  PRO620  LYS621  CYS622 
 ASP623  PHE694  ASN695  SER759  ASP760  ASP761  ALA762  ILE779  LEU786  VAL792 
 PHE793  MET794  SER795  GLU796  ALA797  LYS798  CYS799  TRP800  GLU811  SER814 

> <Gold.Protein.RotatedAtoms>
  152.5077  134.3953  159.9397 H   0  0  0  0  0  0  0  0  0  0  0  0  # atno 6907 bound_to 6896
  151.3915  133.3781  159.2729 H   0  0  0  0  0  0  0  0  0  0  0  0  # atno 6908 bound_to 6896
  150.9429  134.8857  159.7682 H   0  0  0  0  0  0  0  0  0  0  0  0  # atno 6909 bound_to 6896
  146.0156  139.4592  142.9929 H   0  0  0  0  0  0  0  0  0  0  0  0  # atno 7974 bound_to 7965
  154.8979  140.2996  155.5334 H   0  0  0  0  0  0  0  0  0  0  0  0  # atno 8008 bound_to 7997
  156.3019  140.2412  156.3937 H   0  0  0  0  0  0  0  0  0  0  0  0  # atno 8009 bound_to 7997
  154.8552  140.0407  157.1618 H   0  0  0  0  0  0  0  0  0  0  0  0  # atno 8010 bound_to 7997
  139.6425  144.7125  151.2207 H   0  0  0  0  0  0  0  0  0  0  0  0  # atno 10167 bound_to 10162
  157.2805  131.0834  151.1535 H   0  0  0  0  0  0  0  0  0  0  0  0  # atno 10718 bound_to 10713
  153.5317  135.3577  155.2679 H   0  0  0  0  0  0  0  0  0  0  0  0  # atno 10763 bound_to 10752
  154.8726  135.4070  154.3144 H   0  0  0  0  0  0  0  0  0  0  0  0  # atno 10764 bound_to 10752
  153.3834  135.7069  153.6616 H   0  0  0  0  0  0  0  0  0  0  0  0  # atno 10765 bound_to 10752
  139.8796  134.9316  156.5427 H   0  0  0  0  0  0  0  0  0  0  0  0  # atno 11005 bound_to 11000
  145.7274  141.0054  143.1370 LP  0  0  0  0  0  0  0  0  0  0  0  0  # atno 17320 bound_to 7965
  144.6969  139.8943  143.7455 LP  0  0  0  0  0  0  0  0  0  0  0  0  # atno 17321 bound_to 7965
  140.7498  143.6287  150.8444 LP  0  0  0  0  0  0  0  0  0  0  0  0  # atno 17342 bound_to 10162
  139.9926  143.5831  152.2905 LP  0  0  0  0  0  0  0  0  0  0  0  0  # atno 17343 bound_to 10162
  157.2971  130.6824  149.6144 LP  0  0  0  0  0  0  0  0  0  0  0  0  # atno 17370 bound_to 10713
  155.9664  130.4403  150.5295 LP  0  0  0  0  0  0  0  0  0  0  0  0  # atno 17371 bound_to 10713
  140.8299  133.8287  155.8974 LP  0  0  0  0  0  0  0  0  0  0  0  0  # atno 17394 bound_to 11000
  140.9339  134.1987  157.4845 LP  0  0  0  0  0  0  0  0  0  0  0  0  # atno 17395 bound_to 11000

$$$$
