#       Name:                AV-unprocessed.smi:2602
#       Creating user name   scv26
#       Creation time:       Fri Mar 27 14:19:49 2020


#       File generated by GOLD software.
#

@<TRIPOS>MOLECULE
AV-unprocessed.smi:2602
    54    55     1
SMALL
NO_CHARGES


@<TRIPOS>ATOM
      1 ****        -2.2134   3.3483  -3.8541 C.3            1 S1                 0.0000
      2 ****        -3.5276   3.4165  -3.3077 O.3            1 S1                 0.0000
      3 ****        -3.8710   2.5403  -2.3346 C.ar           1 S1                 0.0000
      4 ****        -5.1168   2.6811  -1.8792 N.ar           1 S1                 0.0000
      5 ****        -5.5058   1.8331  -0.9047 C.ar           1 S1                 0.0000
      6 ****        -4.6426   0.8447  -0.3901 C.ar           1 S1                 0.0000
      7 ****        -3.3427   0.7729  -0.9383 C.ar           1 S1                 0.0000
      8 ****        -2.4956  -0.2308  -0.3991 N.am           1 S1                 0.0000
      9 ****        -1.2279  -0.5149  -0.7447 C.2            1 S1                 0.0000
     10 ****        -0.5905   0.0498  -1.6339 O.2            1 S1                 0.0000
     11 ****        -0.7281  -1.5014   0.0143 N.am           1 S1                 0.0000
     12 ****         0.6339  -2.0323  -0.0574 C.3            1 S1                 0.0000
     13 ****         1.5315  -1.5591   1.1280 C.3            1 S1                 0.0000
     14 ****         1.6684   0.0003   1.1865 C.2            1 S1                 0.0000
     15 ****         1.2599   0.5794   2.1965 O.2            1 S1                 0.0000
     16 ****         2.1931   0.7242   0.1603 N.am           1 S1                 0.0000
     17 ****         2.2044   2.1884   0.2440 C.3            1 S1                 0.0000
     18 ****         2.7649   0.2287  -1.0959 C.3            1 S1                 0.0000
     19 ****         0.9201  -2.1196   2.4434 C.3            1 S1                 0.0000
     20 ****         2.0507  -2.1988   3.4740 C.3            1 S1                 0.0000
     21 ****         3.3393  -2.3074   2.6567 C.3            1 S1                 0.0000
     22 ****         2.9186  -2.2479   1.1815 C.3            1 S1                 0.0000
     23 ****        -2.9742   1.6362  -1.9163 N.ar           1 S1                 0.0000
     24 ****        -2.0995   4.1186  -4.6167 H              1 S1                 0.0000
     25 ****        -2.0271   2.3832  -4.3282 H              1 S1                 0.0000
     26 ****        -1.4534   3.5242  -3.0912 H              1 S1                 0.0000
     27 ****        -6.5131   1.9430  -0.5312 H              1 S1                 0.0000
     28 ****        -4.9694   0.1743   0.3912 H              1 S1                 0.0000
     29 ****        -2.8950  -0.7846   0.3440 H              1 S1                 0.0000
     30 ****        -1.3293  -1.9044   0.7181 H              1 S1                 0.0000
     31 ****         0.5452  -3.1187  -0.0333 H              1 S1                 0.0000
     32 ****         1.0714  -1.8253  -1.0309 H              1 S1                 0.0000
     33 ****         1.1970   2.5741   0.4094 H              1 S1                 0.0000
     34 ****         2.5782   2.6557  -0.6682 H              1 S1                 0.0000
     35 ****         2.8386   2.5213   1.0669 H              1 S1                 0.0000
     36 ****         2.9552  -0.8380  -1.1389 H              1 S1                 0.0000
     37 ****         3.7230   0.7137  -1.2863 H              1 S1                 0.0000
     38 ****         2.1020   0.4745  -1.9258 H              1 S1                 0.0000
     39 ****         0.0671  -1.5497   2.8146 H              1 S1                 0.0000
     40 ****         0.5488  -3.1317   2.2748 H              1 S1                 0.0000
     41 ****         2.0731  -1.2958   4.0852 H              1 S1                 0.0000
     42 ****         1.9191  -3.0457   4.1482 H              1 S1                 0.0000
     43 ****         3.9983  -1.4719   2.8962 H              1 S1                 0.0000
     44 ****         3.8849  -3.2257   2.8758 H              1 S1                 0.0000
     45 ****         2.8371  -3.2639   0.7928 H              1 S1                 0.0000
     46 ****         3.6983  -1.7567   0.6036 H              1 S1                 0.0000
     47 ****        -4.1684   3.2834  -4.0637 LP             1 S1                 0.0000
     48 ****        -3.6428   4.3355  -2.9309 LP             1 S1                 0.0000
     49 ****        -5.7321   3.3807  -2.2422 LP             1 S1                 0.0000
     50 ****        -1.0148   0.7837  -2.1642 LP             1 S1                 0.0000
     51 ****         0.3515  -0.2256  -1.8258 LP             1 S1                 0.0000
     52 ****         0.8565   0.0538   2.9455 LP             1 S1                 0.0000
     53 ****         1.3323   1.5743   2.2661 LP             1 S1                 0.0000
     54 ****        -2.0578   1.5995  -2.3150 LP             1 S1                 0.0000
@<TRIPOS>BOND
    1    1    2 1     
    2    1   24 1     
    3    1   25 1     
    4    1   26 1     
    5    2    3 1     
    6    3   23 ar    
    7    3    4 ar    
    8    4    5 ar    
    9    5    6 ar    
   10    5   27 1     
   11    6    7 ar    
   12    6   28 1     
   13    7    8 1     
   14    7   23 ar    
   15    8    9 am    
   16    8   29 1     
   17    9   10 2     
   18    9   11 am    
   19   11   12 1     
   20   11   30 1     
   21   12   13 1     
   22   12   31 1     
   23   12   32 1     
   24   13   22 1     
   25   13   14 1     
   26   13   19 1     
   27   14   15 2     
   28   14   16 am    
   29   16   17 1     
   30   16   18 1     
   31   17   33 1     
   32   17   34 1     
   33   17   35 1     
   34   18   36 1     
   35   18   37 1     
   36   18   38 1     
   37   19   20 1     
   38   19   39 1     
   39   19   40 1     
   40   20   21 1     
   41   20   41 1     
   42   20   42 1     
   43   21   22 1     
   44   21   43 1     
   45   21   44 1     
   46   22   45 1     
   47   22   46 1     
   48    2   47 1     
   49    2   48 1     
   50    4   49 1     
   51   10   50 1     
   52   10   51 1     
   53   15   52 1     
   54   15   53 1     
   55   23   54 1     
@<TRIPOS>SUBSTRUCTURE
      1 S1             1
@<TRIPOS>SET
LONE_PAIRS      STATIC     ATOMS    <user>   **** ""
8 47 48 49 50 51 52 53 54
DONOR_HYDROGENS      STATIC     ATOMS    <user>   **** ""
2 29 30
ATOM$BLUE        STATIC     ATOMS    COLORGROUP SYSTEM
8 47 48 49 50 51 52 53 54
ATOM$RED        STATIC     ATOMS    COLORGROUP SYSTEM
2 29 30
