AV-unprocessed.smi:625|AV-procd|sdf|3101|dock5
  -GOLD-   22720 0 23D 1   1.00000     0.00000
 Structure written by MMmdl.
 49 51  0  0  0  0  0  0  0  0  1 V2000
  146.4779  141.7994  155.2863 C   0  0  0  0  0  0  0  0  0  0  0  0
  147.5292  140.8045  155.4374 N   0  0  0  0  0  0  0  0  0  0  0  0
  148.6838  140.8073  154.7512 C   0  0  0  0  0  0  0  0  0  0  0  0
  148.9403  141.6799  153.9197 O   0  0  0  0  0  0  0  0  0  0  0  0
  149.5772  139.6973  155.0916 C   0  0  0  0  0  0  0  0  0  0  0  0
  150.4440  139.0451  154.1214 C   0  0  0  0  0  0  0  0  0  0  0  0
  151.2174  138.0030  154.4848 C   0  0  0  0  0  0  0  0  0  0  0  0
  151.2217  137.4851  155.8560 C   0  0  0  0  0  0  0  0  0  0  0  0
  151.9030  136.5141  156.1849 O   0  0  0  0  0  0  0  0  0  0  0  0
  150.4133  138.1429  156.7411 N   0  0  0  0  0  0  0  0  0  0  0  0
  150.3040  137.7028  158.1442 C   0  0  0  0  0  0  0  0  0  0  0  0
  149.5804  136.3580  158.3342 C   0  0  0  0  0  0  0  0  0  0  0  0
  150.1257  135.3234  157.9525 O   0  0  0  0  0  0  0  0  0  0  0  0
  148.3769  136.3715  158.9317 N   0  0  0  0  0  0  0  0  0  0  0  0
  147.5733  135.2077  159.2892 C   0  0  2  0  0  0  0  0  0  0  0  0
  146.0907  135.4828  158.9861 C   0  0  0  0  0  0  0  0  0  0  0  0
  147.8202  134.8793  160.7806 C   0  0  2  0  0  0  0  0  0  0  0  0
  146.8886  133.7944  161.3709 C   0  0  0  0  0  0  0  0  0  0  0  0
  146.3911  134.4399  162.6772 C   0  0  2  0  0  0  0  0  0  0  0  0
  145.3630  135.5340  162.3358 C   0  0  0  0  0  0  0  0  0  0  0  0
  146.2432  136.6529  161.7494 C   0  0  0  0  0  0  0  0  0  0  0  0
  147.6574  136.0378  161.7956 C   0  0  1  0  0  0  0  0  0  0  0  0
  147.5973  135.2659  163.1106 C   0  0  0  0  0  0  0  0  0  0  0  0
  149.6024  139.2281  156.3541 C   0  0  0  0  0  0  0  0  0  0  0  0
  145.6550  141.5764  155.9651 H   0  0  0  0  0  0  0  0  0  0  0  0
  146.0889  141.8013  154.2673 H   0  0  0  0  0  0  0  0  0  0  0  0
  146.8508  142.7978  155.5192 H   0  0  0  0  0  0  0  0  0  0  0  0
  147.3718  140.0652  156.1068 H   0  0  0  0  0  0  0  0  0  0  0  0
  150.4892  139.3778  153.0949 H   0  0  0  0  0  0  0  0  0  0  0  0
  151.8524  137.5351  153.7471 H   0  0  0  0  0  0  0  0  0  0  0  0
  151.2862  137.6371  158.6151 H   0  0  0  0  0  0  0  0  0  0  0  0
  149.7684  138.4587  158.7203 H   0  0  0  0  0  0  0  0  0  0  0  0
  148.0055  137.2697  159.2051 H   0  0  0  0  0  0  0  0  0  0  0  0
  147.9072  134.3692  158.6775 H   0  0  0  0  0  0  0  0  0  0  0  0
  145.4745  134.6105  159.2036 H   0  0  0  0  0  0  0  0  0  0  0  0
  145.9411  135.7289  157.9344 H   0  0  0  0  0  0  0  0  0  0  0  0
  145.7121  136.3156  159.5798 H   0  0  0  0  0  0  0  0  0  0  0  0
  148.8464  134.5166  160.8686 H   0  0  0  0  0  0  0  0  0  0  0  0
  146.0596  133.5353  160.7106 H   0  0  0  0  0  0  0  0  0  0  0  0
  147.4470  132.8788  161.5710 H   0  0  0  0  0  0  0  0  0  0  0  0
  146.0342  133.7189  163.4133 H   0  0  0  0  0  0  0  0  0  0  0  0
  144.6064  135.1867  161.6314 H   0  0  0  0  0  0  0  0  0  0  0  0
  144.8502  135.8808  163.2337 H   0  0  0  0  0  0  0  0  0  0  0  0
  145.9321  136.9583  160.7515 H   0  0  0  0  0  0  0  0  0  0  0  0
  146.1956  137.5385  162.3845 H   0  0  0  0  0  0  0  0  0  0  0  0
  148.4567  136.7777  161.7462 H   0  0  0  0  0  0  0  0  0  0  0  0
  147.3994  135.8990  163.9774 H   0  0  0  0  0  0  0  0  0  0  0  0
  148.4869  134.6637  163.3047 H   0  0  0  0  0  0  0  0  0  0  0  0
  148.9918  139.6298  157.1513 H   0  0  0  0  0  0  0  0  0  0  0  0
  1  2  1  0  0  0  0
  1 25  1  0  0  0  0
  1 26  1  0  0  0  0
  1 27  1  0  0  0  0
  2  3  1  0  0  0  0
  2 28  1  0  0  0  0
  3  4  2  0  0  0  0
  3  5  1  0  0  0  0
  5 24  2  0  0  0  0
  5  6  1  0  0  0  0
  6  7  2  0  0  0  0
  6 29  1  0  0  0  0
  7  8  1  0  0  0  0
  7 30  1  0  0  0  0
  8  9  2  0  0  0  0
  8 10  1  0  0  0  0
 10 11  1  0  0  0  0
 10 24  1  0  0  0  0
 11 12  1  0  0  0  0
 11 31  1  0  0  0  0
 11 32  1  0  0  0  0
 12 13  2  0  0  0  0
 12 14  1  0  0  0  0
 14 15  1  0  0  0  0
 14 33  1  0  0  0  0
 15 16  1  0  0  0  0
 15 17  1  0  0  0  0
 15 34  1  0  0  0  0
 16 35  1  0  0  0  0
 16 36  1  0  0  0  0
 16 37  1  0  0  0  0
 17 22  1  0  0  0  0
 17 18  1  0  0  0  0
 17 38  1  0  0  0  0
 18 19  1  0  0  0  0
 18 39  1  0  0  0  0
 18 40  1  0  0  0  0
 19 23  1  0  0  0  0
 19 20  1  0  0  0  0
 19 41  1  0  0  0  0
 20 21  1  0  0  0  0
 20 42  1  0  0  0  0
 20 43  1  0  0  0  0
 21 22  1  0  0  0  0
 21 44  1  0  0  0  0
 21 45  1  0  0  0  0
 22 23  1  0  0  0  0
 22 46  1  0  0  0  0
 23 47  1  0  0  0  0
 23 48  1  0  0  0  0
 24 49  1  0  0  0  0
M  END
> <s_m_source_file>
AV-unprocessed.smi

> <i_m_source_file_index>
625

> <i_lp_mmshare_version>
43012

> <i_f3d_flags>
0

> <s_epik_input>
W0NIM11bTkhdQyg9TyljMVtjSF1bY0hdYyg9TyluKFtjSF0xKVtDSDJdQyg9TylbTkhdW0NASF0oW0NIM10pW0NASF0oW0NIMl1bQ0BIXTIzKVtDQEhdKFtDSDJdMylbQ0gyXVtDSDJdMg==

> <s_epik_cmdline>
J2VwaWtfcHl0aG9uJywgJy1waCcsICc3LjAnLCAnLXRuJywgJzgnLCAnLW1hJywgJzIwMCcsICctbWV0YWxfYmluZGluZycsICctaW1hZScsICc8aW5maWxlLm1hZT4nLCAnLW9tYWUnLCAnPG91dGZpbGUubWFlPic=

> <r_lp_tautomer_probability>
1

> <r_epik_Ionization_Penalty>
3.7129e-07

> <r_epik_Ionization_Penalty_Charging>
5.04114e-08

> <r_epik_Ionization_Penalty_Neutral>
3.20879e-07

> <r_epik_State_Penalty>
-0

> <r_epik_Charging_Adjusted_Penalty>
5.04114e-08

> <i_epik_Tot_Q>
0

> <i_epik_Tot_abs_Q>
0

> <r_epik_Metal_State_Penalty>
-0

> <b_epik_Metal_Only>
0

> <s_lp_Force_Field>
OPLS_2005

> <r_lp_Energy>
63.5822

> <b_lp_Chiralities_Consistent>
1

> <s_lp_Variant>
AV-unprocessed.smi:625-1

> <Gold.Version>
5.8.1

> <Gold.Id.Protein>
6NUR|6NUR_protein|mol2

> <Gold.PLP.Fitness>
44.5755

> <Gold.PLP.PLP>
-38.8646

> <Gold.PLP.part.hbond>
-4.0000

> <Gold.PLP.part.metal>
0.0000

> <Gold.PLP.part.buried>
-4.9353

> <Gold.PLP.part.nonpolar>
-30.6285

> <Gold.PLP.part.repulsive>
0.5854

> <Gold.PLP.ligand.clash>
0.0000

> <Gold.PLP.ligand.torsion>
1.0429

> <Gold.PLP.Chemscore.Hbond>
2.5680

> <Gold.PLP.Chemscore.CHOScore>
0.0000

> <Gold.PLP.Chemscore.Metal>
0.0000

> <Gold.Chemscore.Hbonds>
donor molecule, donor type, donor heavy atom, donor atom, acceptor molecule, acceptor atom, score
      P1  H  6896  6907       L1    13  0.80
      P1  H  8011  8017       L1     4  0.61
      P1  H 10752 10765       L1     9  1.00

> <Gold.PLP.Chemscore.Internal.Correction>
0.0928

> <Gold.Rescore>
     Score         DG    S(hbond)    S(metal)    S(lipo)     H(rot)  DE(clash)    DE(int)     intcor
     16.78     -20.73       2.59        0.00      93.07       1.67       0.29       3.66       ----

> <Gold.Chemscore.Fitness>
16.7792

> <Gold.Chemscore.DG>
-20.7279

> <Gold.Chemscore.ZeroCoef>
-5.4800

> <Gold.Chemscore.Hbond>
2.5856

> <Gold.Chemscore.Metal>
0.0000

> <Gold.Chemscore.Lipo>
93.0728

> <Gold.Chemscore.Internal_Hbond>
0.0000

> <Gold.Chemscore.DEClash>
0.2916

> <Gold.Chemscore.DEInternal>
3.6571

> <Gold.Chemscore.Rot>
1.6709

> <Gold.Chemscore.Internal.Correction>
   9.000000E+99

> <Gold.Chemscore.Hbonds>
donor molecule, donor type, donor heavy atom, donor atom, acceptor molecule, acceptor atom, score
      P1  H  6896  6907       L1    13  0.44
      P1  H  8011  8017       L1     4  0.61
      P1  H 10752 10765       L1     9  0.97

> <Gold.Chemscore.Hbond.Weighted>
-8.6358

> <Gold.Chemscore.Metal.Weighted>
-0.0000

> <Gold.Chemscore.Lipo.Weighted>
-10.8895

> <Gold.Chemscore.Internal_Hbond.Weighted>
0.0000

> <Gold.Chemscore.DEClash.Weighted>
0.2916

> <Gold.Chemscore.DEInternal.Weighted>
3.6571

> <Gold.Chemscore.Rot.Weighted>
4.2774

> <Gold.Chemscore.Internal.Correction.Weighted>
   9.000000E+99

> <Gold.Protein.RotatedTorsions>
[ 6907 6896 6895 6894 ] final  -79.74 input  -60.11 | X-H torsion
[ 7974 7965 7964 7962 ] final   64.38 input  175.53 | X-H torsion
[ 8008 7997 7996 7995 ] final   52.97 input   59.86 | X-H torsion
[ 10167 10162 10161 10158 ] final  -85.22 input  -65.29 | X-H torsion
[ 10718 10713 10712 10709 ] final  -52.28 input   66.30 | X-H torsion
[ 10763 10752 10751 10750 ] final -157.83 input  -60.55 | X-H torsion
[ 11005 11000 10999 10996 ] final  158.71 input  -57.11 | X-H torsion

> <Gold.Protein.ActiveResidues>
 VAL166  LYS551  ARG553  GLY616  TRP617  ASP618  TYR619  PRO620  LYS621  CYS622 
 ASP623  PHE694  ASN695  SER759  ASP760  ASP761  ALA762  ILE779  LEU786  VAL792 
 PHE793  MET794  SER795  GLU796  ALA797  LYS798  CYS799  TRP800  GLU811  SER814 

> <Gold.Protein.RotatedAtoms>
  150.6943  134.4075  159.5146 H   0  0  0  0  0  0  0  0  0  0  0  0  # atno 6907 bound_to 6896
  152.1839  134.8728  160.0533 H   0  0  0  0  0  0  0  0  0  0  0  0  # atno 6908 bound_to 6896
  151.9708  133.3690  159.4107 H   0  0  0  0  0  0  0  0  0  0  0  0  # atno 6909 bound_to 6896
  145.8509  139.3253  143.0876 H   0  0  0  0  0  0  0  0  0  0  0  0  # atno 7974 bound_to 7965
  155.4605  140.3461  155.4312 H   0  0  0  0  0  0  0  0  0  0  0  0  # atno 8008 bound_to 7997
  156.1163  140.1475  156.9297 H   0  0  0  0  0  0  0  0  0  0  0  0  # atno 8009 bound_to 7997
  154.4791  140.0875  156.7314 H   0  0  0  0  0  0  0  0  0  0  0  0  # atno 8010 bound_to 7997
  140.4058  143.2643  151.9083 H   0  0  0  0  0  0  0  0  0  0  0  0  # atno 10167 bound_to 10162
  156.1635  130.4149  149.9756 H   0  0  0  0  0  0  0  0  0  0  0  0  # atno 10718 bound_to 10713
  154.7605  135.3116  154.8387 H   0  0  0  0  0  0  0  0  0  0  0  0  # atno 10763 bound_to 10752
  153.9149  135.6802  153.4754 H   0  0  0  0  0  0  0  0  0  0  0  0  # atno 10764 bound_to 10752
  153.1206  135.4824  154.9119 H   0  0  0  0  0  0  0  0  0  0  0  0  # atno 10765 bound_to 10752
  140.1891  134.8420  157.2891 H   0  0  0  0  0  0  0  0  0  0  0  0  # atno 11005 bound_to 11000
  145.9358  140.9015  143.0333 LP  0  0  0  0  0  0  0  0  0  0  0  0  # atno 17320 bound_to 7965
  144.6729  140.1481  143.7432 LP  0  0  0  0  0  0  0  0  0  0  0  0  # atno 17321 bound_to 7965
  139.4783  144.5587  151.8273 LP  0  0  0  0  0  0  0  0  0  0  0  0  # atno 17342 bound_to 10162
  140.4691  144.1613  150.5915 LP  0  0  0  0  0  0  0  0  0  0  0  0  # atno 17343 bound_to 10162
  156.7578  130.9139  151.3640 LP  0  0  0  0  0  0  0  0  0  0  0  0  # atno 17370 bound_to 10713
  157.6750  130.9086  150.0130 LP  0  0  0  0  0  0  0  0  0  0  0  0  # atno 17371 bound_to 10713
  140.2180  134.4058  155.7579 LP  0  0  0  0  0  0  0  0  0  0  0  0  # atno 17394 bound_to 11000
  141.2226  133.7151  156.8445 LP  0  0  0  0  0  0  0  0  0  0  0  0  # atno 17395 bound_to 11000

$$$$
