#       Name:                AV-unprocessed.smi:102
#       Creating user name   scv26
#       Creation time:       Thu Mar 26 17:52:31 2020


#       File generated by GOLD software.
#

@<TRIPOS>MOLECULE
AV-unprocessed.smi:102
    56    57     1
SMALL
NO_CHARGES


@<TRIPOS>ATOM
      1 ****        -3.8802   3.1789   2.1255 C.3            1 S1                 0.0000
      2 ****        -3.4575   1.7750   1.7145 C.2            1 S1                 0.0000
      3 ****        -3.4106   0.8541   2.5301 O.2            1 S1                 0.0000
      4 ****        -3.1615   1.6924   0.4045 O.3            1 S1                 0.0000
      5 ****        -2.7078   0.4676  -0.1562 C.3            1 S1                 0.0000
      6 ****        -1.1760   0.3778  -0.0925 C.3            1 S1                 0.0000
      7 ****        -0.7467   0.0330   1.2170 O.3            1 S1                 0.0000
      8 ****         0.5476  -0.4694   1.1423 C.3            1 S1                 0.0000
      9 ****         1.5187   0.6943   1.2886 N.am           1 S1                 0.0000
     10 ****         1.9940   1.4006   0.1920 C.2            1 S1                 0.0000
     11 ****         2.7957   2.4747   0.3378 C.2            1 S1                 0.0000
     12 ****         3.2352   3.1338  -0.7480 F              1 S1                 0.0000
     13 ****         3.1628   2.9256   1.6770 C.2            1 S1                 0.0000
     14 ****         3.9189   3.8874   1.8043 O.2            1 S1                 0.0000
     15 ****         2.6351   2.2541   2.7399 N.pl3          1 S1                -1.0000
     16 ****         1.8089   1.1765   2.5968 C.2            1 S1                 0.0000
     17 ****         1.2988   0.5983   3.5564 O.2            1 S1                 0.0000
     18 ****         0.6566  -1.2061  -0.2054 C.3            1 S1                 0.0000
     19 ****         0.6091  -2.6140  -0.0116 O.3            1 S1                 0.0000
     20 ****         1.7420  -3.3107   0.1836 C.2            1 S1                 0.0000
     21 ****         1.4825  -4.8012   0.3562 C.3            1 S1                 0.0000
     22 ****         2.8814  -2.8467   0.2290 O.2            1 S1                 0.0000
     23 ****        -0.5986  -0.7525  -0.9541 C.3            1 S1                 0.0000
     24 ****        -0.2651  -0.2674  -2.2482 O.3            1 S1                 0.0000
     25 ****        -0.0978  -1.1244  -3.2701 C.2            1 S1                 0.0000
     26 ****         0.2637  -0.4150  -4.5682 C.3            1 S1                 0.0000
     27 ****        -0.2050  -2.3496  -3.2147 O.2            1 S1                 0.0000
     28 ****        -4.7297   3.5096   1.5280 H              1 S1                 0.0000
     29 ****        -3.0577   3.8788   1.9778 H              1 S1                 0.0000
     30 ****        -4.1672   3.2001   3.1771 H              1 S1                 0.0000
     31 ****        -3.1765  -0.3975   0.3153 H              1 S1                 0.0000
     32 ****        -3.0216   0.4593  -1.2001 H              1 S1                 0.0000
     33 ****        -0.7317   1.3328  -0.3773 H              1 S1                 0.0000
     34 ****         0.7591  -1.1345   1.9806 H              1 S1                 0.0000
     35 ****         1.7167   1.1172  -0.8108 H              1 S1                 0.0000
     36 ****         1.5712  -0.9361  -0.7323 H              1 S1                 0.0000
     37 ****         0.9169  -5.1874  -0.4918 H              1 S1                 0.0000
     38 ****         0.9110  -4.9822   1.2667 H              1 S1                 0.0000
     39 ****         2.4226  -5.3492   0.4230 H              1 S1                 0.0000
     40 ****        -1.3227  -1.5675  -1.0092 H              1 S1                 0.0000
     41 ****        -0.4271   0.4065  -4.7579 H              1 S1                 0.0000
     42 ****         0.2171  -1.1071  -5.4092 H              1 S1                 0.0000
     43 ****         1.2745  -0.0116  -4.5074 H              1 S1                 0.0000
     44 ****        -3.6531   1.0200   3.4860 LP             1 S1                 0.0000
     45 ****        -3.1299  -0.0598   2.2368 LP             1 S1                 0.0000
     46 ****        -1.3561  -0.6616   1.5992 LP             1 S1                 0.0000
     47 ****        -0.7596   0.8451   1.8004 LP             1 S1                 0.0000
     48 ****         4.2763   4.3530   0.9947 LP             1 S1                 0.0000
     49 ****         4.1762   4.2038   2.7174 LP             1 S1                 0.0000
     50 ****         2.8628   2.5639   3.6631 LP             1 S1                 0.0000
     51 ****         0.6989  -0.1874   3.4055 LP             1 S1                 0.0000
     52 ****         1.4843   0.9144   4.4869 LP             1 S1                 0.0000
     53 ****         3.0259  -1.8637   0.1150 LP             1 S1                 0.0000
     54 ****         3.6624  -3.4527   0.3799 LP             1 S1                 0.0000
     55 ****        -0.4370  -2.7925  -2.3487 LP             1 S1                 0.0000
     56 ****        -0.0601  -2.9018  -4.0357 LP             1 S1                 0.0000
@<TRIPOS>BOND
    1    1    2 1     
    2    1   28 1     
    3    1   29 1     
    4    1   30 1     
    5    2    3 2     
    6    2    4 1     
    7    4    5 1     
    8    5    6 1     
    9    5   31 1     
   10    5   32 1     
   11    6   23 1     
   12    6    7 1     
   13    6   33 1     
   14    7    8 1     
   15    8    9 1     
   16    8   18 1     
   17    8   34 1     
   18    9   16 am    
   19    9   10 1     
   20   10   11 2     
   21   10   35 1     
   22   11   12 1     
   23   11   13 1     
   24   13   14 2     
   25   13   15 1     
   26   15   16 1     
   27   16   17 2     
   28   18   19 1     
   29   18   23 1     
   30   18   36 1     
   31   19   20 1     
   32   20   21 1     
   33   20   22 2     
   34   21   37 1     
   35   21   38 1     
   36   21   39 1     
   37   23   24 1     
   38   23   40 1     
   39   24   25 1     
   40   25   26 1     
   41   25   27 2     
   42   26   41 1     
   43   26   42 1     
   44   26   43 1     
   45    3   44 1     
   46    3   45 1     
   47    7   46 1     
   48    7   47 1     
   49   14   48 1     
   50   14   49 1     
   51   15   50 1     
   52   17   51 1     
   53   17   52 1     
   54   22   53 1     
   55   22   54 1     
   56   27   55 1     
   57   27   56 1     
@<TRIPOS>SUBSTRUCTURE
      1 S1             1
@<TRIPOS>SET
LONE_PAIRS      STATIC     ATOMS    <user>   **** ""
13 44 45 46 47 48 49 50 51 52 53 54 55 56
ATOM$BLUE        STATIC     ATOMS    COLORGROUP SYSTEM
13 44 45 46 47 48 49 50 51 52 53 54 55 56
