AV-unprocessed.smi:1470|AV-procd|sdf|5960|dock9
  -GOLD-   22720 6 43D 1   1.00000     0.00000
 Structure written by MMmdl.
 42 43  0  0  0  0  0  0  0  0  1 V2000
  144.9410  134.8578  150.8662 C   0  0  0  0  0  0  0  0  0  0  0  0
  145.6085  136.1025  150.7615 O   0  0  0  0  0  0  0  0  0  0  0  0
  145.6273  136.8177  151.9859 C   0  0  0  0  0  0  0  0  0  0  0  0
  146.1521  138.2420  151.7498 C   0  0  0  0  0  0  0  0  0  0  0  0
  147.4498  138.4522  152.3828 N   0  0  0  0  0  0  0  0  0  0  0  0
  147.6860  139.2952  153.3981 C   0  0  0  0  0  0  0  0  0  0  0  0
  146.8137  139.9813  153.9304 O   0  0  0  0  0  0  0  0  0  0  0  0
  148.9795  139.2681  153.7617 N   0  0  0  0  0  0  0  0  0  0  0  0
  149.6297  140.0584  154.7469 C   0  0  0  0  0  0  0  0  0  0  0  0
  150.9531  139.7307  155.0988 C   0  0  0  0  0  0  0  0  0  0  0  0
  151.6249  140.5153  156.0553 C   0  0  0  0  0  0  0  0  0  0  0  0
  150.9574  141.6209  156.6328 C   0  0  0  0  0  0  0  0  0  0  0  0
  151.6119  142.4223  157.5937 N   0  0  0  0  0  0  0  0  0  0  0  0
  151.4382  143.8745  157.5002 C   0  0  0  0  0  0  0  0  0  0  0  0
  152.4896  144.6167  158.3424 C   0  0  0  0  0  0  0  0  0  0  0  0
  152.4891  144.1143  159.7934 C   0  0  0  0  0  0  0  0  0  0  0  0
  152.6840  142.5912  159.8207 C   0  0  0  0  0  0  0  0  0  0  0  0
  151.6285  141.8822  158.9548 C   0  0  0  0  0  0  0  0  0  0  0  0
  149.6902  141.9473  156.2785 N   0  0  0  0  0  0  0  0  0  0  0  0
  149.0479  141.1907  155.3638 C   0  0  0  0  0  0  0  0  0  0  0  0
  144.9575  134.3522  149.9008 H   0  0  0  0  0  0  0  0  0  0  0  0
  143.8987  134.9924  151.1583 H   0  0  0  0  0  0  0  0  0  0  0  0
  145.4286  134.2088  151.5947 H   0  0  0  0  0  0  0  0  0  0  0  0
  144.6146  136.8671  152.3889 H   0  0  0  0  0  0  0  0  0  0  0  0
  146.2455  136.3019  152.7227 H   0  0  0  0  0  0  0  0  0  0  0  0
  146.1918  138.4676  150.6828 H   0  0  0  0  0  0  0  0  0  0  0  0
  145.4568  138.9578  152.1885 H   0  0  0  0  0  0  0  0  0  0  0  0
  148.2264  137.9239  152.0131 H   0  0  0  0  0  0  0  0  0  0  0  0
  149.5578  138.5774  153.3064 H   0  0  0  0  0  0  0  0  0  0  0  0
  151.4517  138.8873  154.6439 H   0  0  0  0  0  0  0  0  0  0  0  0
  152.6429  140.2725  156.3214 H   0  0  0  0  0  0  0  0  0  0  0  0
  151.5235  144.1978  156.4618 H   0  0  0  0  0  0  0  0  0  0  0  0
  150.4351  144.1375  157.8395 H   0  0  0  0  0  0  0  0  0  0  0  0
  153.4780  144.4675  157.9055 H   0  0  0  0  0  0  0  0  0  0  0  0
  152.2978  145.6897  158.3163 H   0  0  0  0  0  0  0  0  0  0  0  0
  153.2773  144.6062  160.3642 H   0  0  0  0  0  0  0  0  0  0  0  0
  151.5449  144.3739  160.2735 H   0  0  0  0  0  0  0  0  0  0  0  0
  153.6812  142.3442  159.4538 H   0  0  0  0  0  0  0  0  0  0  0  0
  152.6319  142.2255  160.8464 H   0  0  0  0  0  0  0  0  0  0  0  0
  150.6388  142.0170  159.3930 H   0  0  0  0  0  0  0  0  0  0  0  0
  151.8277  140.8114  158.9622 H   0  0  0  0  0  0  0  0  0  0  0  0
  148.0543  141.5293  155.1144 H   0  0  0  0  0  0  0  0  0  0  0  0
  1  2  1  0  0  0  0
  1 21  1  0  0  0  0
  1 22  1  0  0  0  0
  1 23  1  0  0  0  0
  2  3  1  0  0  0  0
  3  4  1  0  0  0  0
  3 24  1  0  0  0  0
  3 25  1  0  0  0  0
  4  5  1  0  0  0  0
  4 26  1  0  0  0  0
  4 27  1  0  0  0  0
  5  6  1  0  0  0  0
  5 28  1  0  0  0  0
  6  7  2  0  0  0  0
  6  8  1  0  0  0  0
  8  9  1  0  0  0  0
  8 29  1  0  0  0  0
  9 20  1  0  0  0  0
  9 10  2  0  0  0  0
 10 11  1  0  0  0  0
 10 30  1  0  0  0  0
 11 12  2  0  0  0  0
 11 31  1  0  0  0  0
 12 13  1  0  0  0  0
 12 19  1  0  0  0  0
 13 18  1  0  0  0  0
 13 14  1  0  0  0  0
 14 15  1  0  0  0  0
 14 32  1  0  0  0  0
 14 33  1  0  0  0  0
 15 16  1  0  0  0  0
 15 34  1  0  0  0  0
 15 35  1  0  0  0  0
 16 17  1  0  0  0  0
 16 36  1  0  0  0  0
 16 37  1  0  0  0  0
 17 18  1  0  0  0  0
 17 38  1  0  0  0  0
 17 39  1  0  0  0  0
 18 40  1  0  0  0  0
 18 41  1  0  0  0  0
 19 20  2  0  0  0  0
 20 42  1  0  0  0  0
M  END
> <s_m_source_file>
AV-unprocessed.smi

> <i_m_source_file_index>
1470

> <i_lp_mmshare_version>
43012

> <i_f3d_flags>
0

> <s_epik_input>
W0NIM11PW0NIMl1bQ0gyXVtOSF1DKD1PKVtOSF1jMVtjSF1bY0hdYyhuW2NIXTEpTjJbQ0gyXVtDSDJdW0NIMl1bQ0gyXVtDSDJdMg==

> <s_epik_cmdline>
J2VwaWtfcHl0aG9uJywgJy1waCcsICc3LjAnLCAnLXRuJywgJzgnLCAnLW1hJywgJzIwMCcsICctbWV0YWxfYmluZGluZycsICctaW1hZScsICc8aW5maWxlLm1hZT4nLCAnLW9tYWUnLCAnPG91dGZpbGUubWFlPic=

> <r_lp_tautomer_probability>
1

> <r_epik_Ionization_Penalty>
0.104129

> <r_epik_Ionization_Penalty_Charging>
0

> <r_epik_Ionization_Penalty_Neutral>
0.104129

> <r_epik_State_Penalty>
0.0879167

> <r_epik_Charging_Adjusted_Penalty>
0.0879167

> <i_epik_Tot_Q>
0

> <i_epik_Tot_abs_Q>
0

> <r_epik_Metal_State_Penalty>
0.0753231

> <b_epik_Metal_Only>
0

> <s_lp_Force_Field>
OPLS_2005

> <r_lp_Energy>
19.434

> <b_lp_Chiralities_Consistent>
1

> <s_lp_Variant>
AV-unprocessed.smi:1470-1

> <Gold.Version>
5.8.1

> <Gold.Id.Protein>
6NUR|6NUR_protein|mol2

> <Gold.PLP.Fitness>
44.7673

> <Gold.PLP.PLP>
-43.2481

> <Gold.PLP.part.hbond>
-3.0000

> <Gold.PLP.part.metal>
0.0000

> <Gold.PLP.part.buried>
-2.1597

> <Gold.PLP.part.nonpolar>
-40.7037

> <Gold.PLP.part.repulsive>
2.0329

> <Gold.PLP.ligand.clash>
0.0000

> <Gold.PLP.ligand.torsion>
0.9613

> <Gold.PLP.Chemscore.Hbond>
1.0000

> <Gold.PLP.Chemscore.CHOScore>
0.0000

> <Gold.PLP.Chemscore.Metal>
0.0000

> <Gold.Chemscore.Hbonds>
donor molecule, donor type, donor heavy atom, donor atom, acceptor molecule, acceptor atom, score
      L1  H     5    28       P1  7948  0.91

> <Gold.PLP.Chemscore.Internal.Correction>
0.4417

> <Gold.Rescore>
     Score         DG    S(hbond)    S(metal)    S(lipo)     H(rot)  DE(clash)    DE(int)     intcor
     14.73     -17.02       0.99        0.00     105.71       1.61       0.13       2.16       ----

> <Gold.Chemscore.Fitness>
14.7258

> <Gold.Chemscore.DG>
-17.0197

> <Gold.Chemscore.ZeroCoef>
-5.4800

> <Gold.Chemscore.Hbond>
0.9850

> <Gold.Chemscore.Metal>
0.0000

> <Gold.Chemscore.Lipo>
105.7058

> <Gold.Chemscore.Internal_Hbond>
0.0000

> <Gold.Chemscore.DEClash>
0.1325

> <Gold.Chemscore.DEInternal>
2.1614

> <Gold.Chemscore.Rot>
1.6086

> <Gold.Chemscore.Internal.Correction>
   9.000000E+99

> <Gold.Chemscore.Hbonds>
donor molecule, donor type, donor heavy atom, donor atom, acceptor molecule, acceptor atom, score
      L1  H     5    28       P1  7948  0.90

> <Gold.Chemscore.Hbond.Weighted>
-3.2900

> <Gold.Chemscore.Metal.Weighted>
-0.0000

> <Gold.Chemscore.Lipo.Weighted>
-12.3676

> <Gold.Chemscore.Internal_Hbond.Weighted>
0.0000

> <Gold.Chemscore.DEClash.Weighted>
0.1325

> <Gold.Chemscore.DEInternal.Weighted>
2.1614

> <Gold.Chemscore.Rot.Weighted>
4.1179

> <Gold.Chemscore.Internal.Correction.Weighted>
   9.000000E+99

> <Gold.Protein.RotatedTorsions>
[ 6907 6896 6895 6894 ] final   23.34 input  -60.11 | X-H torsion
[ 7974 7965 7964 7962 ] final  114.37 input  175.53 | X-H torsion
[ 8008 7997 7996 7995 ] final   53.49 input   59.86 | X-H torsion
[ 10167 10162 10161 10158 ] final  -38.52 input  -65.29 | X-H torsion
[ 10718 10713 10712 10709 ] final  124.83 input   66.30 | X-H torsion
[ 10763 10752 10751 10750 ] final   26.98 input  -60.55 | X-H torsion
[ 11005 11000 10999 10996 ] final    1.15 input  -57.11 | X-H torsion

> <Gold.Protein.ActiveResidues>
 VAL166  LYS551  ARG553  GLY616  TRP617  ASP618  TYR619  PRO620  LYS621  CYS622 
 ASP623  PHE694  ASN695  SER759  ASP760  ASP761  ALA762  ILE779  LEU786  VAL792 
 PHE793  MET794  SER795  GLU796  ALA797  LYS798  CYS799  TRP800  GLU811  SER814 

> <Gold.Protein.RotatedAtoms>
  151.9408  135.0214  160.0535 H   0  0  0  0  0  0  0  0  0  0  0  0  # atno 6907 bound_to 6896
  152.2038  133.4856  159.5081 H   0  0  0  0  0  0  0  0  0  0  0  0  # atno 6908 bound_to 6896
  150.6960  134.1473  159.4170 H   0  0  0  0  0  0  0  0  0  0  0  0  # atno 6909 bound_to 6896
  145.2053  139.2932  143.4297 H   0  0  0  0  0  0  0  0  0  0  0  0  # atno 7974 bound_to 7965
  155.4692  140.3464  155.4323 H   0  0  0  0  0  0  0  0  0  0  0  0  # atno 8008 bound_to 7997
  156.1111  140.1461  156.9366 H   0  0  0  0  0  0  0  0  0  0  0  0  # atno 8009 bound_to 7997
  154.4757  140.0886  156.7235 H   0  0  0  0  0  0  0  0  0  0  0  0  # atno 8010 bound_to 7997
  140.7090  143.3272  151.2653 H   0  0  0  0  0  0  0  0  0  0  0  0  # atno 10167 bound_to 10162
  157.5553  131.1092  150.8632 H   0  0  0  0  0  0  0  0  0  0  0  0  # atno 10718 bound_to 10713
  153.0586  135.6548  154.0516 H   0  0  0  0  0  0  0  0  0  0  0  0  # atno 10763 bound_to 10752
  154.0189  135.2921  155.3385 H   0  0  0  0  0  0  0  0  0  0  0  0  # atno 10764 bound_to 10752
  154.6914  135.5281  153.8465 H   0  0  0  0  0  0  0  0  0  0  0  0  # atno 10765 bound_to 10752
  140.6186  133.9682  155.8213 H   0  0  0  0  0  0  0  0  0  0  0  0  # atno 11005 bound_to 11000
  146.3409  140.2311  142.8593 LP  0  0  0  0  0  0  0  0  0  0  0  0  # atno 17320 bound_to 7965
  144.9908  140.8545  143.5340 LP  0  0  0  0  0  0  0  0  0  0  0  0  # atno 17321 bound_to 7965
  139.6743  143.9965  152.2772 LP  0  0  0  0  0  0  0  0  0  0  0  0  # atno 17342 bound_to 10162
  139.9574  144.6580  150.8113 LP  0  0  0  0  0  0  0  0  0  0  0  0  # atno 17343 bound_to 10162
  156.9145  130.5293  149.5280 LP  0  0  0  0  0  0  0  0  0  0  0  0  # atno 17370 bound_to 10713
  156.0613  130.5665  150.9198 LP  0  0  0  0  0  0  0  0  0  0  0  0  # atno 17371 bound_to 10713
  141.0758  134.0137  157.3459 LP  0  0  0  0  0  0  0  0  0  0  0  0  # atno 17394 bound_to 11000
  139.9162  135.0197  156.7892 LP  0  0  0  0  0  0  0  0  0  0  0  0  # atno 17395 bound_to 11000

$$$$
