AV-unprocessed.smi:264|AV-procd|sdf|2011|dock10
  -GOLD-   2262021213D 1   1.00000     0.00000
 Structure written by MMmdl.
 52 56  0  0  0  0  0  0  0  0  1 V2000
  143.1033  133.2434  151.8306 C   0  0  0  0  0  0  0  0  0  0  0  0
  144.2326  133.6060  150.8530 C   0  0  2  0  0  0  0  0  0  0  0  0
  145.1675  132.5303  150.8503 O   0  0  0  0  0  0  0  0  0  0  0  0
  146.4539  133.0468  150.5600 C   0  0  0  0  0  0  0  0  0  0  0  0
  146.4740  134.3385  151.3629 C   0  0  0  0  0  0  0  0  0  0  0  0
  145.0600  134.8830  151.1765 C   0  0  1  0  0  0  0  0  0  0  0  0
  145.0596  135.6989  150.0165 O   0  0  0  0  0  0  0  0  0  0  0  0
  144.5651  135.7445  152.3681 C   0  0  0  0  0  0  0  0  0  0  0  0
  145.5401  136.7279  152.8171 N   0  0  0  0  0  0  0  0  0  0  0  0
  146.0073  137.8085  152.1059 C   0  0  0  0  0  0  0  0  0  0  0  0
  146.8830  138.5462  152.7300 N   0  0  0  0  0  0  0  0  0  0  0  0
  147.0272  137.9406  153.9747 C   0  0  0  0  0  0  0  0  0  0  0  0
  147.8084  138.2086  155.1413 C   0  0  0  0  0  0  0  0  0  0  0  0
  148.6608  139.2551  155.3036 N   0  0  0  0  0  0  0  0  0  0  0  0
  148.2363  140.5397  154.7566 C   0  0  0  0  0  0  0  0  0  0  0  0
  149.4496  141.4652  154.5903 C   0  0  0  0  0  0  0  0  0  0  0  0
  150.1529  141.5838  155.8258 O   0  0  0  0  0  0  0  0  0  0  0  0
  150.6239  140.3412  156.3551 C   0  0  2  0  0  0  0  0  0  0  0  0
  151.2992  140.6298  157.6910 C   0  0  0  0  0  0  0  0  0  0  0  0
  152.4159  139.5989  157.7427 C   0  0  0  0  0  0  0  0  0  0  0  0
  152.8948  139.6017  156.4106 O   0  0  0  0  0  0  0  0  0  0  0  0
  151.7829  139.7327  155.5311 C   0  0  0  0  0  0  0  0  0  0  0  0
  149.4340  139.3694  156.5342 C   0  0  0  0  0  0  0  0  0  0  0  0
  147.6770  137.3486  156.1850 N   0  0  0  0  0  0  0  0  0  0  0  0
  146.8454  136.3065  156.1096 C   0  0  0  0  0  0  0  0  0  0  0  0
  146.0587  135.9405  155.0976 N   0  0  0  0  0  0  0  0  0  0  0  0
  146.1858  136.7913  154.0400 C   0  0  0  0  0  0  0  0  0  0  0  0
  142.3468  134.0270  151.8739 H   0  0  0  0  0  0  0  0  0  0  0  0
  143.4835  133.0770  152.8387 H   0  0  0  0  0  0  0  0  0  0  0  0
  142.6047  132.3264  151.5162 H   0  0  0  0  0  0  0  0  0  0  0  0
  143.8082  133.6724  149.8493 H   0  0  0  0  0  0  0  0  0  0  0  0
  147.2425  132.3538  150.8533 H   0  0  0  0  0  0  0  0  0  0  0  0
  146.5425  133.2443  149.4906 H   0  0  0  0  0  0  0  0  0  0  0  0
  146.6460  134.0912  152.4110 H   0  0  0  0  0  0  0  0  0  0  0  0
  147.2593  135.0286  151.0511 H   0  0  0  0  0  0  0  0  0  0  0  0
  145.5569  135.2615  149.3426 H   0  0  0  0  0  0  0  0  0  0  0  0
  143.6487  136.2732  152.1022 H   0  0  0  0  0  0  0  0  0  0  0  0
  144.3188  135.1113  153.2207 H   0  0  0  0  0  0  0  0  0  0  0  0
  145.6805  138.0307  151.1004 H   0  0  0  0  0  0  0  0  0  0  0  0
  147.7375  140.4289  153.7935 H   0  0  0  0  0  0  0  0  0  0  0  0
  147.5137  140.9897  155.4384 H   0  0  0  0  0  0  0  0  0  0  0  0
  150.1075  141.0944  153.8042 H   0  0  0  0  0  0  0  0  0  0  0  0
  149.1212  142.4567  154.2789 H   0  0  0  0  0  0  0  0  0  0  0  0
  151.7390  141.6281  157.6823 H   0  0  0  0  0  0  0  0  0  0  0  0
  150.6250  140.5735  158.5462 H   0  0  0  0  0  0  0  0  0  0  0  0
  153.2003  139.8592  158.4534 H   0  0  0  0  0  0  0  0  0  0  0  0
  152.0295  138.6106  157.9964 H   0  0  0  0  0  0  0  0  0  0  0  0
  151.5187  138.7544  155.1274 H   0  0  0  0  0  0  0  0  0  0  0  0
  152.0808  140.3649  154.6949 H   0  0  0  0  0  0  0  0  0  0  0  0
  148.7737  139.7322  157.3231 H   0  0  0  0  0  0  0  0  0  0  0  0
  149.8052  138.3914  156.8429 H   0  0  0  0  0  0  0  0  0  0  0  0
  146.8041  135.6768  156.9858 H   0  0  0  0  0  0  0  0  0  0  0  0
  1  2  1  0  0  0  0
  1 28  1  0  0  0  0
  1 29  1  0  0  0  0
  1 30  1  0  0  0  0
  2  6  1  0  0  0  0
  2  3  1  0  0  0  0
  2 31  1  0  0  0  0
  3  4  1  0  0  0  0
  4  5  1  0  0  0  0
  4 32  1  0  0  0  0
  4 33  1  0  0  0  0
  5  6  1  0  0  0  0
  5 34  1  0  0  0  0
  5 35  1  0  0  0  0
  6  7  1  0  0  0  0
  6  8  1  0  0  0  0
  7 36  1  0  0  0  0
  8  9  1  0  0  0  0
  8 37  1  0  0  0  0
  8 38  1  0  0  0  0
  9 27  1  0  0  0  0
  9 10  1  0  0  0  0
 10 11  2  0  0  0  0
 10 39  1  0  0  0  0
 11 12  1  0  0  0  0
 12 27  2  0  0  0  0
 12 13  1  0  0  0  0
 13 14  1  0  0  0  0
 13 24  2  0  0  0  0
 14 23  1  0  0  0  0
 14 15  1  0  0  0  0
 15 16  1  0  0  0  0
 15 40  1  0  0  0  0
 15 41  1  0  0  0  0
 16 17  1  0  0  0  0
 16 42  1  0  0  0  0
 16 43  1  0  0  0  0
 17 18  1  0  0  0  0
 18 22  1  0  0  0  0
 18 19  1  0  0  0  0
 18 23  1  0  0  0  0
 19 20  1  0  0  0  0
 19 44  1  0  0  0  0
 19 45  1  0  0  0  0
 20 21  1  0  0  0  0
 20 46  1  0  0  0  0
 20 47  1  0  0  0  0
 21 22  1  0  0  0  0
 22 48  1  0  0  0  0
 22 49  1  0  0  0  0
 23 50  1  0  0  0  0
 23 51  1  0  0  0  0
 24 25  1  0  0  0  0
 25 26  2  0  0  0  0
 25 52  1  0  0  0  0
 26 27  1  0  0  0  0
M  END
> <s_m_source_file>
AV-unprocessed.smi

> <i_m_source_file_index>
264

> <i_lp_mmshare_version>
43012

> <i_f3d_flags>
0

> <s_epik_input>
W0NIMl0xW0NIMl1PW0NAQEhdKFtDSDNdKVtDQEBdMShbT0hdKVtDSDJdbihbY0hdbjIpYyhjMjMpbltjSF1uYzNOKFtDSDJdNClbQ0gyXVtDSDJdT1tDQF00NVtDSDJdW0NIMl1PW0NIMl01

> <s_epik_cmdline>
J2VwaWtfcHl0aG9uJywgJy1waCcsICc3LjAnLCAnLXRuJywgJzgnLCAnLW1hJywgJzIwMCcsICctbWV0YWxfYmluZGluZycsICctaW1hZScsICc8aW5maWxlLm1hZT4nLCAnLW9tYWUnLCAnPG91dGZpbGUubWFlPic=

> <r_lp_tautomer_probability>
1

> <r_epik_Ionization_Penalty>
0.00539389

> <r_epik_Ionization_Penalty_Charging>
0

> <r_epik_Ionization_Penalty_Neutral>
0.00539389

> <r_epik_State_Penalty>
0.00375441

> <r_epik_Charging_Adjusted_Penalty>
0.00375441

> <i_epik_Tot_Q>
0

> <i_epik_Tot_abs_Q>
0

> <r_epik_Metal_State_Penalty>
-0

> <b_epik_Metal_Only>
0

> <s_lp_Force_Field>
OPLS_2005

> <r_lp_Energy>
55.2391

> <b_lp_Chiralities_Consistent>
1

> <s_lp_Variant>
AV-unprocessed.smi:264-5

> <Gold.Version>
5.8.1

> <Gold.Id.Protein>
6NUR|6NUR_protein|mol2

> <Gold.PLP.Fitness>
42.9938

> <Gold.PLP.PLP>
-34.6072

> <Gold.PLP.part.hbond>
-2.8661

> <Gold.PLP.part.metal>
0.0000

> <Gold.PLP.part.buried>
-4.6242

> <Gold.PLP.part.nonpolar>
-28.6023

> <Gold.PLP.part.repulsive>
0.5325

> <Gold.PLP.ligand.clash>
0.0000

> <Gold.PLP.ligand.torsion>
0.4564

> <Gold.PLP.Chemscore.Hbond>
2.0000

> <Gold.PLP.Chemscore.CHOScore>
1.0000

> <Gold.PLP.Chemscore.Metal>
0.0000

> <Gold.Chemscore.Hbonds>
donor molecule, donor type, donor heavy atom, donor atom, acceptor molecule, acceptor atom, score
      L1  H     7    36       P1  7921  1.00
      P1  H  7997  8008       L1    21  1.00
      L1  C    10    39       P1 10171  1.00

> <Gold.PLP.Chemscore.Internal.Correction>
0.2994

> <Gold.Rescore>
     Score         DG    S(hbond)    S(metal)    S(lipo)     H(rot)  DE(clash)    DE(int)     intcor
     15.85     -16.46       1.96        0.00      77.26       1.79       0.07       0.53       ----

> <Gold.Chemscore.Fitness>
15.8528

> <Gold.Chemscore.DG>
-16.4593

> <Gold.Chemscore.ZeroCoef>
-5.4800

> <Gold.Chemscore.Hbond>
1.9555

> <Gold.Chemscore.Metal>
0.0000

> <Gold.Chemscore.Lipo>
77.2590

> <Gold.Chemscore.Internal_Hbond>
0.0000

> <Gold.Chemscore.DEClash>
0.0727

> <Gold.Chemscore.DEInternal>
0.5338

> <Gold.Chemscore.Rot>
1.7935

> <Gold.Chemscore.Internal.Correction>
   9.000000E+99

> <Gold.Chemscore.Hbonds>
donor molecule, donor type, donor heavy atom, donor atom, acceptor molecule, acceptor atom, score
      L1  H     7    36       P1  7921  0.99
      P1  H  7997  8008       L1    21  0.91

> <Gold.Chemscore.Hbond.Weighted>
-6.5313

> <Gold.Chemscore.Metal.Weighted>
-0.0000

> <Gold.Chemscore.Lipo.Weighted>
-9.0393

> <Gold.Chemscore.Internal_Hbond.Weighted>
0.0000

> <Gold.Chemscore.DEClash.Weighted>
0.0727

> <Gold.Chemscore.DEInternal.Weighted>
0.5338

> <Gold.Chemscore.Rot.Weighted>
4.5913

> <Gold.Chemscore.Internal.Correction.Weighted>
   9.000000E+99

> <Gold.Protein.RotatedTorsions>
[ 6907 6896 6895 6894 ] final -131.40 input  -60.11 | X-H torsion
[ 7974 7965 7964 7962 ] final  112.87 input  175.53 | X-H torsion
[ 8008 7997 7996 7995 ] final  -32.02 input   59.86 | X-H torsion
[ 10167 10162 10161 10158 ] final -170.44 input  -65.29 | X-H torsion
[ 10718 10713 10712 10709 ] final  -62.70 input   66.30 | X-H torsion
[ 10763 10752 10751 10750 ] final -144.81 input  -60.55 | X-H torsion
[ 11005 11000 10999 10996 ] final  -81.98 input  -57.11 | X-H torsion

> <Gold.Protein.ActiveResidues>
 VAL166  LYS551  ARG553  GLY616  TRP617  ASP618  TYR619  PRO620  LYS621  CYS622 
 ASP623  PHE694  ASN695  SER759  ASP760  ASP761  ALA762  ILE779  LEU786  VAL792 
 PHE793  MET794  SER795  GLU796  ALA797  LYS798  CYS799  TRP800  GLU811  SER814 

> <Gold.Protein.RotatedAtoms>
  150.9506  133.6554  159.2772 H   0  0  0  0  0  0  0  0  0  0  0  0  # atno 6907 bound_to 6896
  151.3911  135.0955  159.9536 H   0  0  0  0  0  0  0  0  0  0  0  0  # atno 6908 bound_to 6896
  152.5108  133.9020  159.7500 H   0  0  0  0  0  0  0  0  0  0  0  0  # atno 6909 bound_to 6896
  145.2241  139.2849  143.4203 H   0  0  0  0  0  0  0  0  0  0  0  0  # atno 7974 bound_to 7965
  154.4194  140.1748  156.1661 H   0  0  0  0  0  0  0  0  0  0  0  0  # atno 8008 bound_to 7997
  155.9799  140.3378  155.6629 H   0  0  0  0  0  0  0  0  0  0  0  0  # atno 8009 bound_to 7997
  155.6514  140.0691  157.2576 H   0  0  0  0  0  0  0  0  0  0  0  0  # atno 8010 bound_to 7997
  139.5861  144.1315  152.1577 H   0  0  0  0  0  0  0  0  0  0  0  0  # atno 10167 bound_to 10162
  156.0838  130.4212  150.1172 H   0  0  0  0  0  0  0  0  0  0  0  0  # atno 10718 bound_to 10713
  154.8412  135.3430  154.6405 H   0  0  0  0  0  0  0  0  0  0  0  0  # atno 10763 bound_to 10752
  153.7016  135.6969  153.5066 H   0  0  0  0  0  0  0  0  0  0  0  0  # atno 10764 bound_to 10752
  153.2519  135.4351  155.0760 H   0  0  0  0  0  0  0  0  0  0  0  0  # atno 10765 bound_to 10752
  141.1665  133.7222  156.8503 H   0  0  0  0  0  0  0  0  0  0  0  0  # atno 11005 bound_to 11000
  146.3369  140.2556  142.8600 LP  0  0  0  0  0  0  0  0  0  0  0  0  # atno 17320 bound_to 7965
  144.9738  140.8394  143.5439 LP  0  0  0  0  0  0  0  0  0  0  0  0  # atno 17321 bound_to 7965
  140.0879  144.5646  150.7076 LP  0  0  0  0  0  0  0  0  0  0  0  0  # atno 17342 bound_to 10162
  140.7133  143.2523  151.4514 LP  0  0  0  0  0  0  0  0  0  0  0  0  # atno 17343 bound_to 10162
  156.9197  130.9679  151.3550 LP  0  0  0  0  0  0  0  0  0  0  0  0  # atno 17370 bound_to 10713
  157.5965  130.8481  149.8737 LP  0  0  0  0  0  0  0  0  0  0  0  0  # atno 17371 bound_to 10713
  140.1920  134.8959  157.3071 LP  0  0  0  0  0  0  0  0  0  0  0  0  # atno 17394 bound_to 11000
  140.2280  134.3944  155.7535 LP  0  0  0  0  0  0  0  0  0  0  0  0  # atno 17395 bound_to 11000

$$$$
