#       Name:                AV-unprocessed.smi:1109
#       Creating user name   scv26
#       Creation time:       Fri Mar 27 03:33:27 2020


#       File generated by GOLD software.
#

@<TRIPOS>MOLECULE
AV-unprocessed.smi:1109
    54    55     1
SMALL
NO_CHARGES


@<TRIPOS>ATOM
      1 ****        -4.3599   0.8837   1.3085 C.3            1 S1                 0.0000
      2 ****        -3.4206  -0.1275   0.9912 O.3            1 S1                 0.0000
      3 ****        -3.6959  -1.3534   1.6506 C.3            1 S1                 0.0000
      4 ****        -2.6309  -2.3922   1.2657 C.3            1 S1                 0.0000
      5 ****        -1.3135  -2.0434   1.8078 N.am           1 S1                 0.0000
      6 ****        -0.5413  -1.2861   0.9480 N.2            1 S1                 0.0000
      7 ****         0.6476  -0.9117   1.2855 C.2            1 S1                 0.0000
      8 ****         1.5076  -0.0552   0.4063 C.2            1 S1                 0.0000
      9 ****         2.3142   0.7000   0.9524 O.2            1 S1                 0.0000
     10 ****         1.3426  -0.0650  -0.9550 N.am           1 S1                 0.0000
     11 ****         0.7666  -1.1952  -1.7203 C.3            1 S1                 0.0000
     12 ****        -0.6718  -0.9830  -2.2291 C.2            1 S1                 0.0000
     13 ****        -1.2840   0.1779  -1.9731 N.am           1 S1                 0.0000
     14 ****        -1.2325  -1.8825  -2.8499 O.2            1 S1                 0.0000
     15 ****         1.9344   0.9847  -1.8231 C.3            1 S1                 0.0000
     16 ****         3.4801   0.9909  -1.8318 C.3            1 S1                 0.0000
     17 ****         3.9059   2.3816  -1.3513 C.3            1 S1                 0.0000
     18 ****         2.7328   3.2931  -1.7038 C.3            1 S1                 0.0000
     19 ****         1.4912   2.4273  -1.4864 C.3            1 S1                 0.0000
     20 ****         1.1871  -1.2670   2.5883 C.2            1 S1                 0.0000
     21 ****         0.4153  -1.9893   3.4303 C.2            1 S1                 0.0000
     22 ****        -0.9350  -2.4208   3.0652 C.2            1 S1                 0.0000
     23 ****        -1.6652  -3.0619   3.8202 O.2            1 S1                 0.0000
     24 ****        -4.1030   1.8015   0.7796 H              1 S1                 0.0000
     25 ****        -4.3600   1.0997   2.3775 H              1 S1                 0.0000
     26 ****        -5.3677   0.5934   1.0093 H              1 S1                 0.0000
     27 ****        -3.7195  -1.2110   2.7322 H              1 S1                 0.0000
     28 ****        -4.6805  -1.7134   1.3491 H              1 S1                 0.0000
     29 ****        -2.9356  -3.3788   1.6188 H              1 S1                 0.0000
     30 ****        -2.5797  -2.4805   0.1788 H              1 S1                 0.0000
     31 ****         1.3956  -1.3895  -2.5904 H              1 S1                 0.0000
     32 ****         0.8127  -2.1295  -1.1597 H              1 S1                 0.0000
     33 ****        -2.2248   0.3358  -2.3039 H              1 S1                 0.0000
     34 ****        -0.8002   0.8958  -1.4535 H              1 S1                 0.0000
     35 ****         1.6215   0.8123  -2.8546 H              1 S1                 0.0000
     36 ****         3.9227   0.2019  -1.2228 H              1 S1                 0.0000
     37 ****         3.8352   0.8347  -2.8512 H              1 S1                 0.0000
     38 ****         4.0491   2.3722  -0.2703 H              1 S1                 0.0000
     39 ****         4.8416   2.7111  -1.8035 H              1 S1                 0.0000
     40 ****         2.7168   4.2061  -1.1081 H              1 S1                 0.0000
     41 ****         2.7980   3.5817  -2.7536 H              1 S1                 0.0000
     42 ****         0.6571   2.7523  -2.1089 H              1 S1                 0.0000
     43 ****         1.1653   2.5304  -0.4519 H              1 S1                 0.0000
     44 ****         2.1831  -0.9668   2.8808 H              1 S1                 0.0000
     45 ****         0.8055  -2.2597   4.4005 H              1 S1                 0.0000
     46 ****        -2.5100   0.1846   1.2622 LP             1 S1                 0.0000
     47 ****        -3.4393  -0.2836   0.0037 LP             1 S1                 0.0000
     48 ****        -0.9071  -1.0251   0.0547 LP             1 S1                 0.0000
     49 ****         2.3781   0.7264   1.9501 LP             1 S1                 0.0000
     50 ****         2.9047   1.2864   0.3979 LP             1 S1                 0.0000
     51 ****        -0.7553  -2.7443  -3.0215 LP             1 S1                 0.0000
     52 ****        -2.1662  -1.7529  -3.1836 LP             1 S1                 0.0000
     53 ****        -2.5812  -3.3299   3.5217 LP             1 S1                 0.0000
     54 ****        -1.3426  -3.3149   4.7324 LP             1 S1                 0.0000
@<TRIPOS>BOND
    1    1    2 1     
    2    1   24 1     
    3    1   25 1     
    4    1   26 1     
    5    2    3 1     
    6    3    4 1     
    7    3   27 1     
    8    3   28 1     
    9    4    5 1     
   10    4   29 1     
   11    4   30 1     
   12    5   22 am    
   13    5    6 1     
   14    6    7 2     
   15    7    8 1     
   16    7   20 1     
   17    8    9 2     
   18    8   10 am    
   19   10   11 1     
   20   10   15 1     
   21   11   12 1     
   22   11   31 1     
   23   11   32 1     
   24   12   13 am    
   25   12   14 2     
   26   13   33 1     
   27   13   34 1     
   28   15   19 1     
   29   15   16 1     
   30   15   35 1     
   31   16   17 1     
   32   16   36 1     
   33   16   37 1     
   34   17   18 1     
   35   17   38 1     
   36   17   39 1     
   37   18   19 1     
   38   18   40 1     
   39   18   41 1     
   40   19   42 1     
   41   19   43 1     
   42   20   21 2     
   43   20   44 1     
   44   21   22 1     
   45   21   45 1     
   46   22   23 2     
   47    2   46 1     
   48    2   47 1     
   49    6   48 1     
   50    9   49 1     
   51    9   50 1     
   52   14   51 1     
   53   14   52 1     
   54   23   53 1     
   55   23   54 1     
@<TRIPOS>SUBSTRUCTURE
      1 S1             1
@<TRIPOS>SET
LONE_PAIRS      STATIC     ATOMS    <user>   **** ""
9 46 47 48 49 50 51 52 53 54
DONOR_HYDROGENS      STATIC     ATOMS    <user>   **** ""
2 33 34
ATOM$BLUE        STATIC     ATOMS    COLORGROUP SYSTEM
9 46 47 48 49 50 51 52 53 54
ATOM$RED        STATIC     ATOMS    COLORGROUP SYSTEM
2 33 34
