#       Name:                AV-unprocessed.smi:1983
#       Creating user name   scv26
#       Creation time:       Fri Mar 27 10:22:46 2020


#       File generated by GOLD software.
#

@<TRIPOS>MOLECULE
AV-unprocessed.smi:1983
    57    58     1
SMALL
NO_CHARGES


@<TRIPOS>ATOM
      1 ****        -4.7880   1.1738  -1.8694 C.3            1 S1                 0.0000
      2 ****        -4.4150   0.9843  -3.3509 C.3            1 S1                 0.0000
      3 ****        -5.5732   0.4510  -4.2144 C.3            1 S1                 0.0000
      4 ****        -6.1171  -0.7382  -3.6774 O.3            1 S1                 0.0000
      5 ****        -3.2459   0.1221  -3.5010 N.am           1 S1                 0.0000
      6 ****        -1.9705   0.5094  -3.3618 C.2            1 S1                 0.0000
      7 ****        -1.6215   1.6608  -3.1000 O.2            1 S1                 0.0000
      8 ****        -1.1201  -0.5123  -3.5317 N.am           1 S1                 0.0000
      9 ****         0.3316  -0.4152  -3.4160 C.3            1 S1                 0.0000
     10 ****         0.8436  -0.3412  -1.9841 C.ar           1 S1                 0.0000
     11 ****         2.0136   0.3829  -1.6863 C.ar           1 S1                 0.0000
     12 ****         2.4692   0.4351  -0.3552 C.ar           1 S1                 0.0000
     13 ****         1.7398  -0.2448   0.6531 C.ar           1 S1                 0.0000
     14 ****         2.1424  -0.2397   2.0074 N.3            1 S1                 0.0000
     15 ****         3.4394   0.3324   2.3519 C.3            1 S1                 0.0000
     16 ****         3.8603  -0.0968   3.7686 C.3            1 S1                 0.0000
     17 ****         5.1488   0.6006   4.2172 C.3            1 S1                 0.0000
     18 ****         2.8309   0.2372   4.6978 O.3            1 S1                 0.0000
     19 ****         1.5588  -0.3490   4.4143 C.3            1 S1                 0.0000
     20 ****         1.5437  -1.8661   4.6748 C.3            1 S1                 0.0000
     21 ****         1.0983   0.0329   2.9939 C.3            1 S1                 0.0000
     22 ****         0.6193  -0.9473   0.3585 N.ar           1 S1                 0.0000
     23 ****         0.1878  -0.9940  -0.9189 C.ar           1 S1                 0.0000
     24 ****        -5.6693   1.8072  -1.7670 H              1 S1                 0.0000
     25 ****        -3.9772   1.6495  -1.3167 H              1 S1                 0.0000
     26 ****        -5.0030   0.2217  -1.3833 H              1 S1                 0.0000
     27 ****        -4.1574   1.9655  -3.7539 H              1 S1                 0.0000
     28 ****        -6.3696   1.1940  -4.2662 H              1 S1                 0.0000
     29 ****        -5.2439   0.2692  -5.2381 H              1 S1                 0.0000
     30 ****        -6.8367  -1.0133  -4.2246 H              1 S1                 0.0000
     31 ****        -3.4281  -0.8482  -3.7120 H              1 S1                 0.0000
     32 ****        -1.5025  -1.4221  -3.7443 H              1 S1                 0.0000
     33 ****         0.7693  -1.2944  -3.8890 H              1 S1                 0.0000
     34 ****         0.6860   0.4484  -3.9814 H              1 S1                 0.0000
     35 ****         2.5559   0.8980  -2.4654 H              1 S1                 0.0000
     36 ****         3.3601   1.0038  -0.1366 H              1 S1                 0.0000
     37 ****         4.1999  -0.0007   1.6450 H              1 S1                 0.0000
     38 ****         3.3791   1.4196   2.2859 H              1 S1                 0.0000
     39 ****         4.0375  -1.1722   3.7867 H              1 S1                 0.0000
     40 ****         5.9745   0.3706   3.5433 H              1 S1                 0.0000
     41 ****         5.4373   0.2785   5.2179 H              1 S1                 0.0000
     42 ****         5.0248   1.6836   4.2384 H              1 S1                 0.0000
     43 ****         0.8570   0.0968   5.1196 H              1 S1                 0.0000
     44 ****         0.5319  -2.2617   4.5851 H              1 S1                 0.0000
     45 ****         1.8978  -2.0913   5.6809 H              1 S1                 0.0000
     46 ****         2.1667  -2.4141   3.9686 H              1 S1                 0.0000
     47 ****         0.8696   1.0987   2.9577 H              1 S1                 0.0000
     48 ****         0.1712  -0.4933   2.7659 H              1 S1                 0.0000
     49 ****        -0.7076  -1.5732  -1.0892 H              1 S1                 0.0000
     50 ****        -6.4456  -0.5691  -2.7481 LP             1 S1                 0.0000
     51 ****        -5.4161  -1.4511  -3.6585 LP             1 S1                 0.0000
     52 ****        -2.3094   2.3761  -2.9773 LP             1 S1                 0.0000
     53 ****        -0.6501   1.8806  -3.0100 LP             1 S1                 0.0000
     54 ****         2.3297  -1.2186   2.0886 LP             1 S1                 0.0000
     55 ****         2.7227   1.2314   4.6991 LP             1 S1                 0.0000
     56 ****         3.1193  -0.0678   5.6055 LP             1 S1                 0.0000
     57 ****         0.1180  -1.4256   1.0796 LP             1 S1                 0.0000
@<TRIPOS>BOND
    1    1    2 1     
    2    1   24 1     
    3    1   25 1     
    4    1   26 1     
    5    2    3 1     
    6    2    5 1     
    7    2   27 1     
    8    3    4 1     
    9    3   28 1     
   10    3   29 1     
   11    4   30 1     
   12    5    6 am    
   13    5   31 1     
   14    6    7 2     
   15    6    8 am    
   16    8    9 1     
   17    8   32 1     
   18    9   10 1     
   19    9   33 1     
   20    9   34 1     
   21   10   23 ar    
   22   10   11 ar    
   23   11   12 ar    
   24   11   35 1     
   25   12   13 ar    
   26   12   36 1     
   27   13   14 1     
   28   13   22 ar    
   29   14   21 1     
   30   14   15 1     
   31   15   16 1     
   32   15   37 1     
   33   15   38 1     
   34   16   17 1     
   35   16   18 1     
   36   16   39 1     
   37   17   40 1     
   38   17   41 1     
   39   17   42 1     
   40   18   19 1     
   41   19   20 1     
   42   19   21 1     
   43   19   43 1     
   44   20   44 1     
   45   20   45 1     
   46   20   46 1     
   47   21   47 1     
   48   21   48 1     
   49   22   23 ar    
   50   23   49 1     
   51    4   50 1     
   52    4   51 1     
   53    7   52 1     
   54    7   53 1     
   55   14   54 1     
   56   18   55 1     
   57   18   56 1     
   58   22   57 1     
@<TRIPOS>SUBSTRUCTURE
      1 S1             1
@<TRIPOS>SET
LONE_PAIRS      STATIC     ATOMS    <user>   **** ""
8 50 51 52 53 54 55 56 57
DONOR_HYDROGENS      STATIC     ATOMS    <user>   **** ""
3 30 31 32
ATOM$BLUE        STATIC     ATOMS    COLORGROUP SYSTEM
8 50 51 52 53 54 55 56 57
ATOM$RED        STATIC     ATOMS    COLORGROUP SYSTEM
3 30 31 32
