AV-unprocessed.smi:3156|AV-procd|sdf|12031|dock2
  -GOLD-   2272017443D 1   1.00000     0.00000
 Structure written by MMmdl.
 41 42  0  0  0  0  0  0  0  0  2 V2000
  151.4377  140.1665  155.3450 C   0  0  0  0  0  0  0  0  0  0  0  0
  150.8585  141.4497  155.9720 C   0  0  2  0  0  0  0  0  0  0  0  0
  151.6168  141.7987  157.1970 N   0  3  0  0  0  0  0  0  0  0  0  0
  151.3048  143.1202  157.7820 C   0  0  0  0  0  0  0  0  0  0  0  0
  152.0621  143.3412  159.1002 C   0  0  1  0  0  0  0  0  0  0  0  0
  151.2162  144.0871  160.1536 C   0  0  0  0  0  0  0  0  0  0  0  0
  151.9751  144.1914  161.4813 C   0  0  0  0  0  0  0  0  0  0  0  0
  152.4407  142.7996  161.9208 C   0  0  0  0  0  0  0  0  0  0  0  0
  153.2190  142.1147  160.7865 C   0  0  0  0  0  0  0  0  0  0  0  0
  152.4146  142.0581  159.6120 O   0  0  0  0  0  0  0  0  0  0  0  0
  149.3474  141.3135  156.3078 C   0  0  2  0  0  0  0  0  0  0  0  0
  149.0442  140.1724  157.2966 C   0  0  0  0  0  0  0  0  0  0  0  0
  148.5361  141.1402  155.1071 N   0  0  0  0  0  0  0  0  0  0  0  0
  147.4914  141.9259  154.6646 C   0  0  0  0  0  0  0  0  0  0  0  0
  147.0190  141.3677  153.5117 C   0  0  0  0  0  0  0  0  0  0  0  0
  147.8395  140.2199  153.3304 C   0  0  0  0  0  0  0  0  0  0  0  0
  148.7425  140.0839  154.2878 N   0  0  0  0  0  0  0  0  0  0  0  0
  150.9545  139.9278  154.3982 H   0  0  0  0  0  0  0  0  0  0  0  0
  151.3138  139.3101  156.0084 H   0  0  0  0  0  0  0  0  0  0  0  0
  152.5011  140.2660  155.1299 H   0  0  0  0  0  0  0  0  0  0  0  0
  150.9763  142.2644  155.2555 H   0  0  0  0  0  0  0  0  0  0  0  0
  151.3898  141.1067  157.8973 H   0  0  0  0  0  0  0  0  0  0  0  0
  151.5382  143.9188  157.0783 H   0  0  0  0  0  0  0  0  0  0  0  0
  150.2314  143.1666  157.9711 H   0  0  0  0  0  0  0  0  0  0  0  0
  152.9782  143.8984  158.8939 H   0  0  0  0  0  0  0  0  0  0  0  0
  150.9552  145.0851  159.8004 H   0  0  0  0  0  0  0  0  0  0  0  0
  150.2763  143.5571  160.3135 H   0  0  0  0  0  0  0  0  0  0  0  0
  152.8385  144.8468  161.3614 H   0  0  0  0  0  0  0  0  0  0  0  0
  151.3429  144.6408  162.2476 H   0  0  0  0  0  0  0  0  0  0  0  0
  153.0606  142.8733  162.8146 H   0  0  0  0  0  0  0  0  0  0  0  0
  151.5760  142.1907  162.1881 H   0  0  0  0  0  0  0  0  0  0  0  0
  154.1504  142.6437  160.5781 H   0  0  0  0  0  0  0  0  0  0  0  0
  153.4891  141.0996  161.0779 H   0  0  0  0  0  0  0  0  0  0  0  0
  149.0216  142.2452  156.7734 H   0  0  0  0  0  0  0  0  0  0  0  0
  149.4860  140.3550  158.2755 H   0  0  0  0  0  0  0  0  0  0  0  0
  149.4215  139.2167  156.9312 H   0  0  0  0  0  0  0  0  0  0  0  0
  147.9698  140.0653  157.4506 H   0  0  0  0  0  0  0  0  0  0  0  0
  147.1733  142.8083  155.2007 H   0  0  0  0  0  0  0  0  0  0  0  0
  146.2061  141.7213  152.8949 H   0  0  0  0  0  0  0  0  0  0  0  0
  147.8044  139.4855  152.5392 H   0  0  0  0  0  0  0  0  0  0  0  0
  152.6053  141.7415  156.9986 H   0  0  0  0  0  0  0  0  0  0  0  0
  1  2  1  0  0  0  0
  1 18  1  0  0  0  0
  1 19  1  0  0  0  0
  1 20  1  0  0  0  0
  2  3  1  0  0  0  0
  2 11  1  0  0  0  0
  2 21  1  0  0  0  0
  3  4  1  0  0  0  0
  3 22  1  0  0  0  0
  3 41  1  0  0  0  0
  4  5  1  0  0  0  0
  4 23  1  0  0  0  0
  4 24  1  0  0  0  0
  5 10  1  0  0  0  0
  5  6  1  0  0  0  0
  5 25  1  0  0  0  0
  6  7  1  0  0  0  0
  6 26  1  0  0  0  0
  6 27  1  0  0  0  0
  7  8  1  0  0  0  0
  7 28  1  0  0  0  0
  7 29  1  0  0  0  0
  8  9  1  0  0  0  0
  8 30  1  0  0  0  0
  8 31  1  0  0  0  0
  9 10  1  0  0  0  0
  9 32  1  0  0  0  0
  9 33  1  0  0  0  0
 11 12  1  0  0  0  0
 11 13  1  0  0  0  0
 11 34  1  0  0  0  0
 12 35  1  0  0  0  0
 12 36  1  0  0  0  0
 12 37  1  0  0  0  0
 13 17  1  0  0  0  0
 13 14  1  0  0  0  0
 14 15  2  0  0  0  0
 14 38  1  0  0  0  0
 15 16  1  0  0  0  0
 15 39  1  0  0  0  0
 16 17  2  0  0  0  0
 16 40  1  0  0  0  0
M  CHG  1   3   1
M  END
> <s_m_source_file>
AV-unprocessed.smi

> <i_m_source_file_index>
3156

> <i_lp_mmshare_version>
43012

> <i_f3d_flags>
0

> <s_epik_input>
bjFbY0hdW2NIXVtjSF1uMVtDQEBIXShbQ0gzXSlbQ0BIXShbQ0gzXSlbTkhdW0NIMl1bQ0BASF0yW0NIMl1bQ0gyXVtDSDJdW0NIMl1PMg==

> <s_epik_cmdline>
J2VwaWtfcHl0aG9uJywgJy1waCcsICc3LjAnLCAnLXRuJywgJzgnLCAnLW1hJywgJzIwMCcsICctbWV0YWxfYmluZGluZycsICctaW1hZScsICc8aW5maWxlLm1hZT4nLCAnLW9tYWUnLCAnPG91dGZpbGUubWFlPic=

> <r_lp_tautomer_probability>
1

> <r_epik_Ionization_Penalty>
0.00658015

> <r_epik_Ionization_Penalty_Charging>
0.00656881

> <r_epik_Ionization_Penalty_Neutral>
1.13431e-05

> <r_epik_State_Penalty>
0.0048654

> <r_epik_Charging_Adjusted_Penalty>
0.0114342

> <i_epik_Tot_Q>
1

> <i_epik_Tot_abs_Q>
1

> <r_epik_Metal_State_Penalty>
-0

> <b_epik_Metal_Only>
0

> <s_lp_Force_Field>
OPLS_2005

> <r_lp_Energy>
18.0883

> <b_lp_Chiralities_Consistent>
1

> <s_lp_Variant>
AV-unprocessed.smi:3156-3

> <Gold.Version>
5.8.1

> <Gold.Id.Protein>
6NUR|6NUR_protein|mol2

> <Gold.PLP.Fitness>
41.4486

> <Gold.PLP.PLP>
-38.5446

> <Gold.PLP.part.hbond>
0.0000

> <Gold.PLP.part.metal>
0.0000

> <Gold.PLP.part.buried>
-1.3466

> <Gold.PLP.part.nonpolar>
-35.7978

> <Gold.PLP.part.repulsive>
0.1987

> <Gold.PLP.ligand.clash>
0.0000

> <Gold.PLP.ligand.torsion>
0.6362

> <Gold.PLP.Chemscore.Hbond>
0.0000

> <Gold.PLP.Chemscore.CHOScore>
1.3500

> <Gold.PLP.Chemscore.Metal>
0.0000

> <Gold.Chemscore.Hbonds>
donor molecule, donor type, donor heavy atom, donor atom, acceptor molecule, acceptor atom, score
      L1  C    14    38       P1  8028  0.72
      L1  C    16    40       P1  7957  0.50

> <Gold.PLP.Chemscore.Internal.Correction>
0.1264

> <Gold.Rescore>
     Score         DG    S(hbond)    S(metal)    S(lipo)     H(rot)  DE(clash)    DE(int)     intcor
     13.26     -14.50       0.00        0.00     111.97       1.59       0.32       0.92       ----

> <Gold.Chemscore.Fitness>
13.2623

> <Gold.Chemscore.DG>
-14.5008

> <Gold.Chemscore.ZeroCoef>
-5.4800

> <Gold.Chemscore.Hbond>
0.0000

> <Gold.Chemscore.Metal>
0.0000

> <Gold.Chemscore.Lipo>
111.9746

> <Gold.Chemscore.Internal_Hbond>
0.0000

> <Gold.Chemscore.DEClash>
0.3155

> <Gold.Chemscore.DEInternal>
0.9229

> <Gold.Chemscore.Rot>
1.5938

> <Gold.Chemscore.Internal.Correction>
   9.000000E+99

> <Gold.Chemscore.Hbond.Weighted>
-0.0000

> <Gold.Chemscore.Metal.Weighted>
-0.0000

> <Gold.Chemscore.Lipo.Weighted>
-13.1010

> <Gold.Chemscore.Internal_Hbond.Weighted>
0.0000

> <Gold.Chemscore.DEClash.Weighted>
0.3155

> <Gold.Chemscore.DEInternal.Weighted>
0.9229

> <Gold.Chemscore.Rot.Weighted>
4.0802

> <Gold.Chemscore.Internal.Correction.Weighted>
   9.000000E+99

> <Gold.Protein.RotatedTorsions>
[ 6907 6896 6895 6894 ] final   56.16 input  -60.11 | X-H torsion
[ 7974 7965 7964 7962 ] final   16.43 input  175.53 | X-H torsion
[ 8008 7997 7996 7995 ] final  -51.86 input   59.86 | X-H torsion
[ 10167 10162 10161 10158 ] final   80.27 input  -65.29 | X-H torsion
[ 10718 10713 10712 10709 ] final   56.99 input   66.30 | X-H torsion
[ 10763 10752 10751 10750 ] final  -33.18 input  -60.55 | X-H torsion
[ 11005 11000 10999 10996 ] final -121.07 input  -57.11 | X-H torsion

> <Gold.Protein.ActiveResidues>
 VAL166  LYS551  ARG553  GLY616  TRP617  ASP618  TYR619  PRO620  LYS621  CYS622 
 ASP623  PHE694  ASN695  SER759  ASP760  ASP761  ALA762  ILE779  LEU786  VAL792 
 PHE793  MET794  SER795  GLU796  ALA797  LYS798  CYS799  TRP800  GLU811  SER814 

> <Gold.Protein.RotatedAtoms>
  152.3609  134.6874  160.0207 H   0  0  0  0  0  0  0  0  0  0  0  0  # atno 6907 bound_to 6896
  151.7197  133.3309  159.3320 H   0  0  0  0  0  0  0  0  0  0  0  0  # atno 6908 bound_to 6896
  150.7604  134.6393  159.6273 H   0  0  0  0  0  0  0  0  0  0  0  0  # atno 6909 bound_to 6896
  146.2249  139.8748  142.8581 H   0  0  0  0  0  0  0  0  0  0  0  0  # atno 7974 bound_to 7965
  154.4093  140.1238  156.4897 H   0  0  0  0  0  0  0  0  0  0  0  0  # atno 8008 bound_to 7997
  155.7002  140.3495  155.4910 H   0  0  0  0  0  0  0  0  0  0  0  0  # atno 8009 bound_to 7997
  155.9392  140.1084  157.1060 H   0  0  0  0  0  0  0  0  0  0  0  0  # atno 8010 bound_to 7997
  139.9515  144.6022  150.8156 H   0  0  0  0  0  0  0  0  0  0  0  0  # atno 10167 bound_to 10162
  157.5477  130.8743  149.8916 H   0  0  0  0  0  0  0  0  0  0  0  0  # atno 10718 bound_to 10713
  153.8260  135.6870  153.4820 H   0  0  0  0  0  0  0  0  0  0  0  0  # atno 10763 bound_to 10752
  153.1540  135.4606  154.9675 H   0  0  0  0  0  0  0  0  0  0  0  0  # atno 10764 bound_to 10752
  154.7907  135.3300  154.7728 H   0  0  0  0  0  0  0  0  0  0  0  0  # atno 10765 bound_to 10752
  141.0097  134.0282  157.3429 H   0  0  0  0  0  0  0  0  0  0  0  0  # atno 11005 bound_to 11000
  145.2571  141.0064  143.3847 LP  0  0  0  0  0  0  0  0  0  0  0  0  # atno 17320 bound_to 7965
  144.9328  139.4279  143.6487 LP  0  0  0  0  0  0  0  0  0  0  0  0  # atno 17321 bound_to 7965
  140.7581  143.3100  151.2867 LP  0  0  0  0  0  0  0  0  0  0  0  0  # atno 17342 bound_to 10162
  139.6624  144.0165  152.2701 LP  0  0  0  0  0  0  0  0  0  0  0  0  # atno 17343 bound_to 10162
  156.0549  130.3710  150.1113 LP  0  0  0  0  0  0  0  0  0  0  0  0  # atno 17370 bound_to 10713
  156.9289  130.9707  151.3536 LP  0  0  0  0  0  0  0  0  0  0  0  0  # atno 17371 bound_to 10713
  139.9083  135.0185  156.7583 LP  0  0  0  0  0  0  0  0  0  0  0  0  # atno 17394 bound_to 11000
  140.6753  133.9523  155.7879 LP  0  0  0  0  0  0  0  0  0  0  0  0  # atno 17395 bound_to 11000

$$$$
