#       Name:                AV-unprocessed.smi:877
#       Creating user name   scv26
#       Creation time:       Fri Mar 27 01:51:47 2020


#       File generated by GOLD software.
#

@<TRIPOS>MOLECULE
AV-unprocessed.smi:877
    50    52     1
SMALL
NO_CHARGES


@<TRIPOS>ATOM
      1 ****        -3.2240   5.6282  -1.3909 C.3            1 S1                 0.0000
      2 ****        -2.4076   4.6216  -1.9712 O.3            1 S1                 0.0000
      3 ****        -1.7411   3.7602  -1.1263 C.ar           1 S1                 0.0000
      4 ****        -1.8080   3.8209   0.2886 C.ar           1 S1                 0.0000
      5 ****        -1.0943   2.8976   1.0770 C.ar           1 S1                 0.0000
      6 ****        -0.3038   1.9024   0.4677 C.ar           1 S1                 0.0000
      7 ****         0.4665   0.9063   1.3173 C.3            1 S1                 0.0000
      8 ****        -0.0552  -0.4992   1.1981 C.2            1 S1                 0.0000
      9 ****        -1.3553  -0.7772   1.3164 N.2            1 S1                 0.0000
     10 ****        -1.3950  -2.1461   1.1428 C.ar           1 S1                 0.0000
     11 ****        -2.4885  -3.0414   1.1492 C.ar           1 S1                 0.0000
     12 ****        -2.2824  -4.4214   0.9442 C.ar           1 S1                 0.0000
     13 ****        -0.9828  -4.9246   0.7311 C.ar           1 S1                 0.0000
     14 ****         0.1205  -4.0496   0.7232 C.ar           1 S1                 0.0000
     15 ****        -0.0906  -2.6726   0.9277 C.ar           1 S1                 0.0000
     16 ****         0.7546  -1.5675   0.9773 N.pl3          1 S1                 0.0000
     17 ****         2.2041  -1.5924   0.8258 C.3            1 S1                 0.0000
     18 ****         2.6627  -1.2505  -0.6060 C.3            1 S1                 0.0000
     19 ****         2.1165  -2.1957  -1.5062 O.3            1 S1                 0.0000
     20 ****         4.1949  -1.2771  -0.7336 C.3            1 S1                 0.0000
     21 ****         4.5946  -0.6627  -1.9401 O.3            1 S1                 0.0000
     22 ****        -0.2322   1.8387  -0.9383 C.ar           1 S1                 0.0000
     23 ****        -0.9472   2.7611  -1.7256 C.ar           1 S1                 0.0000
     24 ****        -3.6838   6.2190  -2.1830 H              1 S1                 0.0000
     25 ****        -2.6385   6.3078  -0.7701 H              1 S1                 0.0000
     26 ****        -4.0277   5.1944  -0.7944 H              1 S1                 0.0000
     27 ****        -2.4015   4.5670   0.7946 H              1 S1                 0.0000
     28 ****        -1.1588   2.9570   2.1537 H              1 S1                 0.0000
     29 ****         1.5136   0.9647   1.0260 H              1 S1                 0.0000
     30 ****         0.4237   1.2000   2.3665 H              1 S1                 0.0000
     31 ****        -3.4879  -2.6654   1.3109 H              1 S1                 0.0000
     32 ****        -3.1255  -5.0966   0.9499 H              1 S1                 0.0000
     33 ****        -0.8328  -5.9828   0.5737 H              1 S1                 0.0000
     34 ****         1.1165  -4.4333   0.5586 H              1 S1                 0.0000
     35 ****         2.6442  -0.9043   1.5479 H              1 S1                 0.0000
     36 ****         2.5654  -2.5822   1.1075 H              1 S1                 0.0000
     37 ****         2.2928  -0.2610  -0.8752 H              1 S1                 0.0000
     38 ****         1.1744  -2.1672  -1.4351 H              1 S1                 0.0000
     39 ****         4.6514  -0.7199   0.0851 H              1 S1                 0.0000
     40 ****         4.5820  -2.2957  -0.6848 H              1 S1                 0.0000
     41 ****         4.2067  -1.1404  -2.6578 H              1 S1                 0.0000
     42 ****         0.3675   1.0796  -1.4182 H              1 S1                 0.0000
     43 ****        -0.8865   2.7006  -2.8023 H              1 S1                 0.0000
     44 ****        -1.7180   5.0834  -2.5291 LP             1 S1                 0.0000
     45 ****        -2.9947   4.0656  -2.5597 LP             1 S1                 0.0000
     46 ****        -2.1138  -0.1486   1.4884 LP             1 S1                 0.0000
     47 ****         2.4448  -3.1114  -1.2745 LP             1 S1                 0.0000
     48 ****         2.3913  -1.9697  -2.4408 LP             1 S1                 0.0000
     49 ****         5.5913  -0.6857  -2.0177 LP             1 S1                 0.0000
     50 ****         4.2808   0.2867  -1.9566 LP             1 S1                 0.0000
@<TRIPOS>BOND
    1    1    2 1     
    2    1   24 1     
    3    1   25 1     
    4    1   26 1     
    5    2    3 1     
    6    3   23 ar    
    7    3    4 ar    
    8    4    5 ar    
    9    4   27 1     
   10    5    6 ar    
   11    5   28 1     
   12    6    7 1     
   13    6   22 ar    
   14    7    8 1     
   15    7   29 1     
   16    7   30 1     
   17    8   16 1     
   18    8    9 2     
   19    9   10 1     
   20   10   15 ar    
   21   10   11 ar    
   22   11   12 ar    
   23   11   31 1     
   24   12   13 ar    
   25   12   32 1     
   26   13   14 ar    
   27   13   33 1     
   28   14   15 ar    
   29   14   34 1     
   30   15   16 1     
   31   16   17 1     
   32   17   18 1     
   33   17   35 1     
   34   17   36 1     
   35   18   19 1     
   36   18   20 1     
   37   18   37 1     
   38   19   38 1     
   39   20   21 1     
   40   20   39 1     
   41   20   40 1     
   42   21   41 1     
   43   22   23 ar    
   44   22   42 1     
   45   23   43 1     
   46    2   44 1     
   47    2   45 1     
   48    9   46 1     
   49   19   47 1     
   50   19   48 1     
   51   21   49 1     
   52   21   50 1     
@<TRIPOS>SUBSTRUCTURE
      1 S1             1
@<TRIPOS>SET
LONE_PAIRS      STATIC     ATOMS    <user>   **** ""
7 44 45 46 47 48 49 50
DONOR_HYDROGENS      STATIC     ATOMS    <user>   **** ""
2 38 41
ATOM$BLUE        STATIC     ATOMS    COLORGROUP SYSTEM
7 44 45 46 47 48 49 50
ATOM$RED        STATIC     ATOMS    COLORGROUP SYSTEM
2 38 41
