AV-unprocessed.smi:1308|AV-procd|sdf|5441|dock10
  -GOLD-   22720 5 13D 1   1.00000     0.00000
 Structure written by MMmdl.
 45 45  0  0  0  0  0  0  0  0  1 V2000
  151.0070  142.3415  156.4361 C   0  0  0  0  0  0  0  0  0  0  0  0
  150.0617  141.6303  155.4925 C   0  0  0  0  0  0  0  0  0  0  0  0
  148.8860  142.3233  155.2556 N   0  0  0  0  0  0  0  0  0  0  0  0
  147.9606  141.7547  154.3980 C   0  0  0  0  0  0  0  0  0  0  0  0
  146.7009  142.5784  154.1919 C   0  0  0  0  0  0  0  0  0  0  0  0
  148.1936  140.5537  153.8099 C   0  0  0  0  0  0  0  0  0  0  0  0
  147.1981  139.8917  152.8575 C   0  0  0  0  0  0  0  0  0  0  0  0
  146.6669  138.5188  153.2775 C   0  0  0  0  0  0  0  0  0  0  0  0
  147.0381  137.9990  154.3299 O   0  0  0  0  0  0  0  0  0  0  0  0
  145.7827  137.9542  152.4378 N   0  0  0  0  0  0  0  0  0  0  0  0
  145.0781  136.6813  152.6112 C   0  0  1  0  0  0  0  0  0  0  0  0
  143.5703  136.8907  152.8382 C   0  0  0  0  0  0  0  0  0  0  0  0
  145.3681  135.6750  151.4746 C   0  0  0  0  0  0  0  0  0  0  0  0
  144.5721  134.3590  151.5875 C   0  0  0  0  0  0  0  0  0  0  0  0
  144.9931  133.2787  150.5705 C   0  0  0  0  0  0  0  0  0  0  0  0
  144.2127  131.9653  150.7493 C   0  0  0  0  0  0  0  0  0  0  0  0
  146.5045  133.0153  150.6535 C   0  0  0  0  0  0  0  0  0  0  0  0
  149.4650  139.8544  154.1110 C   0  0  0  0  0  0  0  0  0  0  0  0
  149.7269  138.7554  153.6237 O   0  0  0  0  0  0  0  0  0  0  0  0
  150.3742  140.4788  154.9804 N   0  0  0  0  0  0  0  0  0  0  0  0
  148.6724  143.2176  155.6731 H   0  0  0  0  0  0  0  0  0  0  0  0
  151.9026  141.7452  156.6146 H   0  0  0  0  0  0  0  0  0  0  0  0
  150.5222  142.5224  157.3959 H   0  0  0  0  0  0  0  0  0  0  0  0
  151.3142  143.2996  156.0158 H   0  0  0  0  0  0  0  0  0  0  0  0
  145.8183  142.0065  154.4793 H   0  0  0  0  0  0  0  0  0  0  0  0
  146.6001  142.8663  153.1455 H   0  0  0  0  0  0  0  0  0  0  0  0
  146.7156  143.4909  154.7895 H   0  0  0  0  0  0  0  0  0  0  0  0
  147.6224  139.8070  151.8566 H   0  0  0  0  0  0  0  0  0  0  0  0
  146.3434  140.5588  152.7409 H   0  0  0  0  0  0  0  0  0  0  0  0
  145.5553  138.4712  151.6009 H   0  0  0  0  0  0  0  0  0  0  0  0
  145.4787  136.2542  153.5312 H   0  0  0  0  0  0  0  0  0  0  0  0
  143.0844  135.9516  153.1040 H   0  0  0  0  0  0  0  0  0  0  0  0
  143.0733  137.2730  151.9464 H   0  0  0  0  0  0  0  0  0  0  0  0
  143.3880  137.5951  153.6504 H   0  0  0  0  0  0  0  0  0  0  0  0
  145.1329  136.1594  150.5273 H   0  0  0  0  0  0  0  0  0  0  0  0
  146.4346  135.4513  151.4357 H   0  0  0  0  0  0  0  0  0  0  0  0
  144.7063  133.9552  152.5915 H   0  0  0  0  0  0  0  0  0  0  0  0
  143.5055  134.5636  151.4864 H   0  0  0  0  0  0  0  0  0  0  0  0
  144.7878  133.6579  149.5684 H   0  0  0  0  0  0  0  0  0  0  0  0
  144.3456  131.5591  151.7524 H   0  0  0  0  0  0  0  0  0  0  0  0
  144.5511  131.2102  150.0393 H   0  0  0  0  0  0  0  0  0  0  0  0
  143.1446  132.1026  150.5829 H   0  0  0  0  0  0  0  0  0  0  0  0
  146.7884  132.6422  151.6381 H   0  0  0  0  0  0  0  0  0  0  0  0
  147.0753  133.9250  150.4646 H   0  0  0  0  0  0  0  0  0  0  0  0
  146.8162  132.2758  149.9152 H   0  0  0  0  0  0  0  0  0  0  0  0
  1 22  1  0  0  0  0
  1 23  1  0  0  0  0
  1 24  1  0  0  0  0
  1  2  1  0  0  0  0
  2  3  1  0  0  0  0
  2 20  2  0  0  0  0
  3  4  1  0  0  0  0
  3 21  1  0  0  0  0
  4  6  2  0  0  0  0
  4  5  1  0  0  0  0
  5 25  1  0  0  0  0
  5 26  1  0  0  0  0
  5 27  1  0  0  0  0
  6 18  1  0  0  0  0
  6  7  1  0  0  0  0
  7  8  1  0  0  0  0
  7 28  1  0  0  0  0
  7 29  1  0  0  0  0
  8  9  2  0  0  0  0
  8 10  1  0  0  0  0
 10 11  1  0  0  0  0
 10 30  1  0  0  0  0
 11 12  1  0  0  0  0
 11 13  1  0  0  0  0
 11 31  1  0  0  0  0
 12 32  1  0  0  0  0
 12 33  1  0  0  0  0
 12 34  1  0  0  0  0
 13 14  1  0  0  0  0
 13 35  1  0  0  0  0
 13 36  1  0  0  0  0
 14 15  1  0  0  0  0
 14 37  1  0  0  0  0
 14 38  1  0  0  0  0
 15 16  1  0  0  0  0
 15 17  1  0  0  0  0
 15 39  1  0  0  0  0
 16 40  1  0  0  0  0
 16 41  1  0  0  0  0
 16 42  1  0  0  0  0
 17 43  1  0  0  0  0
 17 44  1  0  0  0  0
 17 45  1  0  0  0  0
 18 19  2  0  0  0  0
 18 20  1  0  0  0  0
M  END
> <s_m_source_file>
AV-unprocessed.smi

> <i_m_source_file_index>
1308

> <i_lp_mmshare_version>
43012

> <i_f3d_flags>
0

> <s_epik_input>
W0NIM11jMW5jKFtDSDNdKWMoYyg9TylbbkhdMSlbQ0gyXUMoPU8pW05IXVtDQEhdKFtDSDNdKVtDSDJdW0NIMl1bQ0hdKFtDSDNdKVtDSDNd

> <s_epik_cmdline>
J2VwaWtfcHl0aG9uJywgJy1waCcsICc3LjAnLCAnLXRuJywgJzgnLCAnLW1hJywgJzIwMCcsICctbWV0YWxfYmluZGluZycsICctaW1hZScsICc8aW5maWxlLm1hZT4nLCAnLW9tYWUnLCAnPG91dGZpbGUubWFlPic=

> <r_lp_tautomer_probability>
0.156392

> <r_epik_Ionization_Penalty>
0.0141156

> <r_epik_Ionization_Penalty_Charging>
0.0139937

> <r_epik_Ionization_Penalty_Neutral>
0.00012188

> <r_epik_State_Penalty>
1.52994

> <r_epik_Charging_Adjusted_Penalty>
1.54393

> <i_epik_Tot_Q>
0

> <i_epik_Tot_abs_Q>
0

> <r_epik_Metal_State_Penalty>
1.70663

> <b_epik_Metal_Only>
0

> <s_lp_Force_Field>
OPLS_2005

> <r_lp_Energy>
10.3869

> <b_lp_Chiralities_Consistent>
1

> <s_lp_Variant>
AV-unprocessed.smi:1308-4

> <Gold.Version>
5.8.1

> <Gold.Id.Protein>
6NUR|6NUR_protein|mol2

> <Gold.PLP.Fitness>
45.3183

> <Gold.PLP.PLP>
-39.4197

> <Gold.PLP.part.hbond>
-3.6353

> <Gold.PLP.part.metal>
0.0000

> <Gold.PLP.part.buried>
-1.6760

> <Gold.PLP.part.nonpolar>
-36.8612

> <Gold.PLP.part.repulsive>
3.5795

> <Gold.PLP.ligand.clash>
0.0000

> <Gold.PLP.ligand.torsion>
0.0948

> <Gold.PLP.Chemscore.Hbond>
2.0052

> <Gold.PLP.Chemscore.CHOScore>
0.0000

> <Gold.PLP.Chemscore.Metal>
0.0000

> <Gold.Chemscore.Hbonds>
donor molecule, donor type, donor heavy atom, donor atom, acceptor molecule, acceptor atom, score
      L1  H     3    21       P1  8028  0.90
      P1  H  7989  7998       L1    20  0.60

> <Gold.PLP.Chemscore.Internal.Correction>
0.0728

> <Gold.Rescore>
     Score         DG    S(hbond)    S(metal)    S(lipo)     H(rot)  DE(clash)    DE(int)     intcor
     11.97     -14.90       1.59        0.00      78.65       1.98       1.03       1.90       ----

> <Gold.Chemscore.Fitness>
11.9708

> <Gold.Chemscore.DG>
-14.9027

> <Gold.Chemscore.ZeroCoef>
-5.4800

> <Gold.Chemscore.Hbond>
1.5863

> <Gold.Chemscore.Metal>
0.0000

> <Gold.Chemscore.Lipo>
78.6525

> <Gold.Chemscore.Internal_Hbond>
0.0000

> <Gold.Chemscore.DEClash>
1.0294

> <Gold.Chemscore.DEInternal>
1.9026

> <Gold.Chemscore.Rot>
1.9835

> <Gold.Chemscore.Internal.Correction>
   9.000000E+99

> <Gold.Chemscore.Hbonds>
donor molecule, donor type, donor heavy atom, donor atom, acceptor molecule, acceptor atom, score
      L1  H     3    21       P1  8028  0.83
      L1  H    10    30       P1 10171  0.04
      P1  H  7989  7998       L1    20  0.02

> <Gold.Chemscore.Hbond.Weighted>
-5.2981

> <Gold.Chemscore.Metal.Weighted>
-0.0000

> <Gold.Chemscore.Lipo.Weighted>
-9.2023

> <Gold.Chemscore.Internal_Hbond.Weighted>
0.0000

> <Gold.Chemscore.DEClash.Weighted>
1.0294

> <Gold.Chemscore.DEInternal.Weighted>
1.9026

> <Gold.Chemscore.Rot.Weighted>
5.0778

> <Gold.Chemscore.Internal.Correction.Weighted>
   9.000000E+99

> <Gold.Protein.RotatedTorsions>
[ 6907 6896 6895 6894 ] final   63.82 input  -60.11 | X-H torsion
[ 7974 7965 7964 7962 ] final  -81.39 input  175.53 | X-H torsion
[ 8008 7997 7996 7995 ] final -128.39 input   59.86 | X-H torsion
[ 10167 10162 10161 10158 ] final  175.96 input  -65.29 | X-H torsion
[ 10718 10713 10712 10709 ] final -159.64 input   66.30 | X-H torsion
[ 10763 10752 10751 10750 ] final  -70.79 input  -60.55 | X-H torsion
[ 11005 11000 10999 10996 ] final -142.06 input  -57.11 | X-H torsion

> <Gold.Protein.ActiveResidues>
 VAL166  LYS551  ARG553  GLY616  TRP617  ASP618  TYR619  PRO620  LYS621  CYS622 
 ASP623  PHE694  ASN695  SER759  ASP760  ASP761  ALA762  ILE779  LEU786  VAL792 
 PHE793  MET794  SER795  GLU796  ALA797  LYS798  CYS799  TRP800  GLU811  SER814 

> <Gold.Protein.RotatedAtoms>
  152.4283  134.5825  159.9951 H   0  0  0  0  0  0  0  0  0  0  0  0  # atno 6907 bound_to 6896
  151.5956  133.3356  159.3044 H   0  0  0  0  0  0  0  0  0  0  0  0  # atno 6908 bound_to 6896
  150.8174  134.7400  159.6807 H   0  0  0  0  0  0  0  0  0  0  0  0  # atno 6909 bound_to 6896
  145.5473  140.9501  143.1518 H   0  0  0  0  0  0  0  0  0  0  0  0  # atno 7974 bound_to 7965
  155.2619  140.0436  157.2998 H   0  0  0  0  0  0  0  0  0  0  0  0  # atno 8008 bound_to 7997
  154.5705  140.2372  155.8168 H   0  0  0  0  0  0  0  0  0  0  0  0  # atno 8009 bound_to 7997
  156.2119  140.2996  155.9759 H   0  0  0  0  0  0  0  0  0  0  0  0  # atno 8010 bound_to 7997
  139.5196  144.2970  152.0412 H   0  0  0  0  0  0  0  0  0  0  0  0  # atno 10167 bound_to 10162
  156.5709  130.8688  151.2837 H   0  0  0  0  0  0  0  0  0  0  0  0  # atno 10718 bound_to 10713
  154.4227  135.5983  153.6019 H   0  0  0  0  0  0  0  0  0  0  0  0  # atno 10763 bound_to 10752
  152.9794  135.5956  154.3936 H   0  0  0  0  0  0  0  0  0  0  0  0  # atno 10764 bound_to 10752
  154.3763  135.2841  155.2216 H   0  0  0  0  0  0  0  0  0  0  0  0  # atno 10765 bound_to 10752
  140.8262  134.2571  157.4878 H   0  0  0  0  0  0  0  0  0  0  0  0  # atno 11005 bound_to 11000
  144.7547  139.7105  143.7259 LP  0  0  0  0  0  0  0  0  0  0  0  0  # atno 17320 bound_to 7965
  146.1941  139.5197  142.9786 LP  0  0  0  0  0  0  0  0  0  0  0  0  # atno 17321 bound_to 7965
  140.2419  144.4260  150.6256 LP  0  0  0  0  0  0  0  0  0  0  0  0  # atno 17342 bound_to 10162
  140.6284  143.2184  151.6547 LP  0  0  0  0  0  0  0  0  0  0  0  0  # atno 17343 bound_to 10162
  157.7348  130.9752  150.2049 LP  0  0  0  0  0  0  0  0  0  0  0  0  # atno 17370 bound_to 10713
  156.2715  130.3722  149.8026 LP  0  0  0  0  0  0  0  0  0  0  0  0  # atno 17371 bound_to 10713
  139.8706  134.9562  156.4230 LP  0  0  0  0  0  0  0  0  0  0  0  0  # atno 17394 bound_to 11000
  140.9046  133.7755  155.9720 LP  0  0  0  0  0  0  0  0  0  0  0  0  # atno 17395 bound_to 11000

$$$$
