AV-unprocessed.smi:2627|AV-procd|sdf|10242|dock2
  -GOLD-   2272014253D 1   1.00000     0.00000
 Structure written by MMmdl.
 40 42  0  0  0  0  0  0  0  0  2 V2000
  147.8148  140.6466  154.8253 C   0  0  0  0  0  0  0  0  0  0  0  0
  149.3109  140.4614  154.5396 C   0  0  1  0  0  0  0  0  0  0  0  0
  149.6166  141.0961  153.3153 O   0  0  0  0  0  0  0  0  0  0  0  0
  150.1375  140.9953  155.6689 C   0  0  0  0  0  0  0  0  0  0  0  0
  150.0014  142.2296  156.2326 N   0  3  0  0  0  0  0  0  0  0  0  0
  150.9092  142.3766  157.2808 C   0  0  0  0  0  0  0  0  0  0  0  0
  151.1402  143.4445  158.1422 C   0  0  0  0  0  0  0  0  0  0  0  0
  152.1429  143.2651  159.1174 C   0  0  0  0  0  0  0  0  0  0  0  0
  152.8694  142.0600  159.2097 C   0  0  0  0  0  0  0  0  0  0  0  0
  152.6263  140.9846  158.3298 C   0  0  0  0  0  0  0  0  0  0  0  0
  151.6357  141.1715  157.3656 C   0  0  0  0  0  0  0  0  0  0  0  0
  151.1320  140.3511  156.3488 N   0  0  0  0  0  0  0  0  0  0  0  0
  151.6909  139.0021  156.1784 C   0  0  0  0  0  0  0  0  0  0  0  0
  150.6077  137.9209  156.2659 C   0  0  0  0  0  0  0  0  0  0  0  0
  151.2287  136.6834  156.5818 O   0  0  0  0  0  0  0  0  0  0  0  0
  150.7205  135.5355  156.0121 C   0  0  0  0  0  0  0  0  0  0  0  0
  151.2394  134.3078  156.4734 C   0  0  0  0  0  0  0  0  0  0  0  0
  150.7806  133.0861  155.9439 C   0  0  0  0  0  0  0  0  0  0  0  0
  149.7930  133.0805  154.9420 C   0  0  0  0  0  0  0  0  0  0  0  0
  149.2648  134.2976  154.4733 C   0  0  0  0  0  0  0  0  0  0  0  0
  149.7230  135.5195  155.0039 C   0  0  0  0  0  0  0  0  0  0  0  0
  147.5233  140.1340  155.7423 H   0  0  0  0  0  0  0  0  0  0  0  0
  147.2066  140.2420  154.0158 H   0  0  0  0  0  0  0  0  0  0  0  0
  147.5582  141.7005  154.9390 H   0  0  0  0  0  0  0  0  0  0  0  0
  149.5177  139.3996  154.4114 H   0  0  0  0  0  0  0  0  0  0  0  0
  149.6188  140.4440  152.6309 H   0  0  0  0  0  0  0  0  0  0  0  0
  150.5823  144.3670  158.0751 H   0  0  0  0  0  0  0  0  0  0  0  0
  152.3579  144.0666  159.8095 H   0  0  0  0  0  0  0  0  0  0  0  0
  153.6289  141.9580  159.9713 H   0  0  0  0  0  0  0  0  0  0  0  0
  153.1872  140.0656  158.4131 H   0  0  0  0  0  0  0  0  0  0  0  0
  152.1900  138.9602  155.2107 H   0  0  0  0  0  0  0  0  0  0  0  0
  152.4682  138.8391  156.9253 H   0  0  0  0  0  0  0  0  0  0  0  0
  149.8792  138.1838  157.0346 H   0  0  0  0  0  0  0  0  0  0  0  0
  150.0861  137.8474  155.3106 H   0  0  0  0  0  0  0  0  0  0  0  0
  151.9992  134.3022  157.2411 H   0  0  0  0  0  0  0  0  0  0  0  0
  151.1878  132.1536  156.3059 H   0  0  0  0  0  0  0  0  0  0  0  0
  149.4413  132.1446  154.5335 H   0  0  0  0  0  0  0  0  0  0  0  0
  148.5066  134.2946  153.7041 H   0  0  0  0  0  0  0  0  0  0  0  0
  149.2928  136.4313  154.6188 H   0  0  0  0  0  0  0  0  0  0  0  0
  149.3281  142.9171  155.9191 H   0  0  0  0  0  0  0  0  0  0  0  0
  1  2  1  0  0  0  0
  1 22  1  0  0  0  0
  1 23  1  0  0  0  0
  1 24  1  0  0  0  0
  2  3  1  0  0  0  0
  2  4  1  0  0  0  0
  2 25  1  0  0  0  0
  3 26  1  0  0  0  0
  4 12  1  0  0  0  0
  4  5  2  0  0  0  0
  5  6  1  0  0  0  0
  5 40  1  0  0  0  0
  6 11  2  0  0  0  0
  6  7  1  0  0  0  0
  7  8  2  0  0  0  0
  7 27  1  0  0  0  0
  8  9  1  0  0  0  0
  8 28  1  0  0  0  0
  9 10  2  0  0  0  0
  9 29  1  0  0  0  0
 10 11  1  0  0  0  0
 10 30  1  0  0  0  0
 11 12  1  0  0  0  0
 12 13  1  0  0  0  0
 13 14  1  0  0  0  0
 13 31  1  0  0  0  0
 13 32  1  0  0  0  0
 14 15  1  0  0  0  0
 14 33  1  0  0  0  0
 14 34  1  0  0  0  0
 15 16  1  0  0  0  0
 16 21  1  0  0  0  0
 16 17  2  0  0  0  0
 17 18  1  0  0  0  0
 17 35  1  0  0  0  0
 18 19  2  0  0  0  0
 18 36  1  0  0  0  0
 19 20  1  0  0  0  0
 19 37  1  0  0  0  0
 20 21  2  0  0  0  0
 20 38  1  0  0  0  0
 21 39  1  0  0  0  0
M  CHG  1   5   1
M  END
> <s_m_source_file>
AV-unprocessed.smi

> <i_m_source_file_index>
2627

> <i_lp_mmshare_version>
43012

> <i_f3d_flags>
0

> <s_epik_input>
W2NIXTFbY0hdW2NIXVtjSF1jKGMxMiluKGMobjIpW0NASF0oW0NIM10pW09IXSlbQ0gyXVtDSDJdT2MzW2NIXVtjSF1bY0hdW2NIXVtjSF0z

> <s_epik_cmdline>
J2VwaWtfcHl0aG9uJywgJy1waCcsICc3LjAnLCAnLXRuJywgJzgnLCAnLW1hJywgJzIwMCcsICctbWV0YWxfYmluZGluZycsICctaW1hZScsICc8aW5maWxlLm1hZT4nLCAnLW9tYWUnLCAnPG91dGZpbGUubWFlPic=

> <r_lp_tautomer_probability>
1

> <r_epik_Ionization_Penalty>
1.52183

> <r_epik_Ionization_Penalty_Charging>
1.5218

> <r_epik_Ionization_Penalty_Neutral>
2.92192e-05

> <r_epik_State_Penalty>
1.61369

> <r_epik_Charging_Adjusted_Penalty>
3.13549

> <i_epik_Tot_Q>
1

> <i_epik_Tot_abs_Q>
1

> <r_epik_Metal_State_Penalty>
5.66625

> <b_epik_Metal_Only>
0

> <s_lp_Force_Field>
OPLS_2005

> <r_lp_Energy>
19.8189

> <b_lp_Chiralities_Consistent>
1

> <s_lp_Variant>
AV-unprocessed.smi:2627-4

> <Gold.Version>
5.8.1

> <Gold.Id.Protein>
6NUR|6NUR_protein|mol2

> <Gold.PLP.Fitness>
49.5589

> <Gold.PLP.PLP>
-39.0398

> <Gold.PLP.part.hbond>
-3.3757

> <Gold.PLP.part.metal>
0.0000

> <Gold.PLP.part.buried>
-3.1225

> <Gold.PLP.part.nonpolar>
-32.0275

> <Gold.PLP.part.repulsive>
0.0906

> <Gold.PLP.ligand.clash>
0.0000

> <Gold.PLP.ligand.torsion>
0.6039

> <Gold.PLP.Chemscore.Hbond>
3.8545

> <Gold.PLP.Chemscore.CHOScore>
0.0000

> <Gold.PLP.Chemscore.Metal>
0.0000

> <Gold.Chemscore.Hbonds>
donor molecule, donor type, donor heavy atom, donor atom, acceptor molecule, acceptor atom, score
      L1  H     3    26       P1  7957  0.98
      L1  H     5    40       P1  8028  1.95
      P1  H  7989  7998       L1     3  0.06
      P1  H  8011  8017       L1     3  0.80

> <Gold.PLP.Chemscore.Internal.Correction>
0.1636

> <Gold.Rescore>
     Score         DG    S(hbond)    S(metal)    S(lipo)     H(rot)  DE(clash)    DE(int)     intcor
     18.92     -19.65       2.07        0.00     108.71       2.13       0.07       0.66       ----

> <Gold.Chemscore.Fitness>
18.9186

> <Gold.Chemscore.DG>
-19.6491

> <Gold.Chemscore.ZeroCoef>
-5.4800

> <Gold.Chemscore.Hbond>
2.0665

> <Gold.Chemscore.Metal>
0.0000

> <Gold.Chemscore.Lipo>
108.7136

> <Gold.Chemscore.Internal_Hbond>
0.0000

> <Gold.Chemscore.DEClash>
0.0668

> <Gold.Chemscore.DEInternal>
0.6638

> <Gold.Chemscore.Rot>
2.1299

> <Gold.Chemscore.Internal.Correction>
   9.000000E+99

> <Gold.Chemscore.Hbonds>
donor molecule, donor type, donor heavy atom, donor atom, acceptor molecule, acceptor atom, score
      L1  H     3    26       P1  7957  0.88
      L1  H     5    40       P1  8028  0.93
      P1  H  8011  8017       L1     3  0.12

> <Gold.Chemscore.Hbond.Weighted>
-6.9022

> <Gold.Chemscore.Metal.Weighted>
-0.0000

> <Gold.Chemscore.Lipo.Weighted>
-12.7195

> <Gold.Chemscore.Internal_Hbond.Weighted>
0.0000

> <Gold.Chemscore.DEClash.Weighted>
0.0668

> <Gold.Chemscore.DEInternal.Weighted>
0.6638

> <Gold.Chemscore.Rot.Weighted>
5.4526

> <Gold.Chemscore.Internal.Correction.Weighted>
   9.000000E+99

> <Gold.Protein.RotatedTorsions>
[ 6907 6896 6895 6894 ] final  -74.35 input  -60.11 | X-H torsion
[ 7974 7965 7964 7962 ] final   90.03 input  175.53 | X-H torsion
[ 8008 7997 7996 7995 ] final  -21.78 input   59.86 | X-H torsion
[ 10167 10162 10161 10158 ] final  -51.69 input  -65.29 | X-H torsion
[ 10718 10713 10712 10709 ] final  -36.22 input   66.30 | X-H torsion
[ 10763 10752 10751 10750 ] final  -13.99 input  -60.55 | X-H torsion
[ 11005 11000 10999 10996 ] final  -20.41 input  -57.11 | X-H torsion

> <Gold.Protein.ActiveResidues>
 VAL166  LYS551  ARG553  GLY616  TRP617  ASP618  TYR619  PRO620  LYS621  CYS622 
 ASP623  PHE694  ASN695  SER759  ASP760  ASP761  ALA762  ILE779  LEU786  VAL792 
 PHE793  MET794  SER795  GLU796  ALA797  LYS798  CYS799  TRP800  GLU811  SER814 

> <Gold.Protein.RotatedAtoms>
  150.7096  134.4882  159.5502 H   0  0  0  0  0  0  0  0  0  0  0  0  # atno 6907 bound_to 6896
  152.2505  134.8135  160.0456 H   0  0  0  0  0  0  0  0  0  0  0  0  # atno 6908 bound_to 6896
  151.8884  133.3475  159.3826 H   0  0  0  0  0  0  0  0  0  0  0  0  # atno 6909 bound_to 6896
  145.5245  139.2280  143.2653 H   0  0  0  0  0  0  0  0  0  0  0  0  # atno 7974 bound_to 7965
  154.4684  140.2025  156.0058 H   0  0  0  0  0  0  0  0  0  0  0  0  # atno 8008 bound_to 7997
  156.0968  140.3250  155.7859 H   0  0  0  0  0  0  0  0  0  0  0  0  # atno 8009 bound_to 7997
  155.4864  140.0542  157.2950 H   0  0  0  0  0  0  0  0  0  0  0  0  # atno 8010 bound_to 7997
  140.6575  143.2610  151.4540 H   0  0  0  0  0  0  0  0  0  0  0  0  # atno 10167 bound_to 10162
  156.3294  130.4277  149.7887 H   0  0  0  0  0  0  0  0  0  0  0  0  # atno 10718 bound_to 10713
  153.5216  135.7015  153.5728 H   0  0  0  0  0  0  0  0  0  0  0  0  # atno 10763 bound_to 10752
  153.3775  135.3929  155.1833 H   0  0  0  0  0  0  0  0  0  0  0  0  # atno 10764 bound_to 10752
  154.8694  135.3827  154.4705 H   0  0  0  0  0  0  0  0  0  0  0  0  # atno 10765 bound_to 10752
  140.8461  133.7890  155.9914 H   0  0  0  0  0  0  0  0  0  0  0  0  # atno 11005 bound_to 11000
  146.2084  140.6058  142.9070 LP  0  0  0  0  0  0  0  0  0  0  0  0  # atno 17320 bound_to 7965
  144.7658  140.5528  143.6704 LP  0  0  0  0  0  0  0  0  0  0  0  0  # atno 17321 bound_to 7965
  139.5801  144.1729  152.1957 LP  0  0  0  0  0  0  0  0  0  0  0  0  # atno 17342 bound_to 10162
  140.1051  144.5506  150.6962 LP  0  0  0  0  0  0  0  0  0  0  0  0  # atno 17343 bound_to 10162
  156.5165  130.8195  151.3188 LP  0  0  0  0  0  0  0  0  0  0  0  0  # atno 17370 bound_to 10713
  157.7427  130.9897  150.2539 LP  0  0  0  0  0  0  0  0  0  0  0  0  # atno 17371 bound_to 10713
  140.8841  134.2575  157.5129 LP  0  0  0  0  0  0  0  0  0  0  0  0  # atno 17394 bound_to 11000
  139.8703  134.9629  156.4446 LP  0  0  0  0  0  0  0  0  0  0  0  0  # atno 17395 bound_to 11000

$$$$
