AV-unprocessed.smi:101|AV-procd|sdf|924|dock4
  -GOLD-   2262017433D 1   1.00000     0.00000
 Structure written by MMmdl.
 44 46  0  0  0  0  0  0  0  0  1 V2000
  144.8264  141.2755  158.3489 C   0  0  0  0  0  0  0  0  0  0  0  0
  144.9868  141.9382  156.9902 C   0  0  0  0  0  0  0  0  0  0  0  0
  145.9634  141.5816  156.1167 C   0  0  0  0  0  0  0  0  0  0  0  0
  146.1340  142.1665  154.8660 N   0  0  0  0  0  0  0  0  0  0  0  0
  147.2512  141.7711  153.9136 C   0  0  1  0  0  0  0  0  0  0  0  0
  148.4779  141.7971  154.5780 O   0  0  0  0  0  0  0  0  0  0  0  0
  148.7902  140.4903  155.0366 C   0  0  2  0  0  0  0  0  0  0  0  0
  150.2867  140.3779  155.3584 C   0  0  0  0  0  0  0  0  0  0  0  0
  150.6779  141.4240  156.2338 O   0  0  0  0  0  0  0  0  0  0  0  0
  151.7438  141.2699  157.0410 C   0  0  0  0  0  0  0  0  0  0  0  0
  152.5351  140.3287  156.9549 O   0  0  0  0  0  0  0  0  0  0  0  0
  151.8655  142.3598  158.0517 C   0  0  0  0  0  0  0  0  0  0  0  0
  152.5202  142.0988  159.2780 C   0  0  0  0  0  0  0  0  0  0  0  0
  152.6491  143.1083  160.2515 C   0  0  0  0  0  0  0  0  0  0  0  0
  152.1258  144.3919  160.0103 C   0  0  0  0  0  0  0  0  0  0  0  0
  151.4733  144.6648  158.7940 C   0  0  0  0  0  0  0  0  0  0  0  0
  151.3423  143.6562  157.8195 C   0  0  0  0  0  0  0  0  0  0  0  0
  148.2816  139.5776  153.9193 C   0  0  1  0  0  0  0  0  0  0  0  0
  147.9112  138.3203  154.4484 O   0  0  0  0  0  0  0  0  0  0  0  0
  147.0588  140.3254  153.3892 C   0  0  2  0  0  0  0  0  0  0  0  0
  147.0359  140.2821  151.9767 O   0  0  0  0  0  0  0  0  0  0  0  0
  145.2872  143.2307  154.4891 C   0  0  0  0  0  0  0  0  0  0  0  0
  145.4088  143.8319  153.4221 O   0  0  0  0  0  0  0  0  0  0  0  0
  144.2812  143.5926  155.3820 N   0  0  0  0  0  0  0  0  0  0  0  0
  144.0533  143.0081  156.6291 C   0  0  0  0  0  0  0  0  0  0  0  0
  143.1251  143.4107  157.3282 O   0  0  0  0  0  0  0  0  0  0  0  0
  143.6678  144.3459  155.1067 H   0  0  0  0  0  0  0  0  0  0  0  0
  145.5722  140.4969  158.5120 H   0  0  0  0  0  0  0  0  0  0  0  0
  143.8407  140.8165  158.4345 H   0  0  0  0  0  0  0  0  0  0  0  0
  144.9320  142.0116  159.1464 H   0  0  0  0  0  0  0  0  0  0  0  0
  146.6384  140.8022  156.4350 H   0  0  0  0  0  0  0  0  0  0  0  0
  147.2413  142.5416  153.1398 H   0  0  0  0  0  0  0  0  0  0  0  0
  148.2169  140.3061  155.9468 H   0  0  0  0  0  0  0  0  0  0  0  0
  150.4957  139.4122  155.8206 H   0  0  0  0  0  0  0  0  0  0  0  0
  150.8694  140.4332  154.4380 H   0  0  0  0  0  0  0  0  0  0  0  0
  152.9309  141.1211  159.4855 H   0  0  0  0  0  0  0  0  0  0  0  0
  153.1504  142.8970  161.1845 H   0  0  0  0  0  0  0  0  0  0  0  0
  152.2252  145.1659  160.7568 H   0  0  0  0  0  0  0  0  0  0  0  0
  151.0717  145.6499  158.6072 H   0  0  0  0  0  0  0  0  0  0  0  0
  150.8355  143.8996  156.8970 H   0  0  0  0  0  0  0  0  0  0  0  0
  149.0337  139.4541  153.1385 H   0  0  0  0  0  0  0  0  0  0  0  0
  148.2874  137.6456  153.9037 H   0  0  0  0  0  0  0  0  0  0  0  0
  146.1343  139.9005  153.7835 H   0  0  0  0  0  0  0  0  0  0  0  0
  147.8878  140.5391  151.6576 H   0  0  0  0  0  0  0  0  0  0  0  0
  1  2  1  0  0  0  0
  1 28  1  0  0  0  0
  1 29  1  0  0  0  0
  1 30  1  0  0  0  0
  2 25  1  0  0  0  0
  2  3  2  0  0  0  0
  3  4  1  0  0  0  0
  3 31  1  0  0  0  0
  4  5  1  0  0  0  0
  4 22  1  0  0  0  0
  5 20  1  0  0  0  0
  5  6  1  0  0  0  0
  5 32  1  0  0  0  0
  6  7  1  0  0  0  0
  7  8  1  0  0  0  0
  7 18  1  0  0  0  0
  7 33  1  0  0  0  0
  8  9  1  0  0  0  0
  8 34  1  0  0  0  0
  8 35  1  0  0  0  0
  9 10  1  0  0  0  0
 10 11  2  0  0  0  0
 10 12  1  0  0  0  0
 12 17  1  0  0  0  0
 12 13  2  0  0  0  0
 13 14  1  0  0  0  0
 13 36  1  0  0  0  0
 14 15  2  0  0  0  0
 14 37  1  0  0  0  0
 15 16  1  0  0  0  0
 15 38  1  0  0  0  0
 16 17  2  0  0  0  0
 16 39  1  0  0  0  0
 17 40  1  0  0  0  0
 18 19  1  0  0  0  0
 18 20  1  0  0  0  0
 18 41  1  0  0  0  0
 19 42  1  0  0  0  0
 20 21  1  0  0  0  0
 20 43  1  0  0  0  0
 21 44  1  0  0  0  0
 22 23  2  0  0  0  0
 22 24  1  0  0  0  0
 24 27  1  0  0  0  0
 24 25  1  0  0  0  0
 25 26  2  0  0  0  0
M  END
> <s_m_source_file>
AV-unprocessed.smi

> <i_m_source_file_index>
101

> <i_lp_mmshare_version>
43012

> <i_f3d_flags>
0

> <s_epik_input>
Tz1jMVtuSF1jKD1PKW4oW2NIXWMxW0NIM10pW0NAQEhdMk9bQ0BIXShbQ0BASF0oW09IXSlbQ0BIXTJbT0hdKVtDSDJdT0MoPU8pYzNbY0hdW2NIXVtjSF1bY0hdW2NIXTM=

> <s_epik_cmdline>
J2VwaWtfcHl0aG9uJywgJy1waCcsICc3LjAnLCAnLXRuJywgJzgnLCAnLW1hJywgJzIwMCcsICctbWV0YWxfYmluZGluZycsICctaW1hZScsICc8aW5maWxlLm1hZT4nLCAnLW9tYWUnLCAnPG91dGZpbGUubWFlPic=

> <r_lp_tautomer_probability>
0.999537

> <r_epik_Ionization_Penalty>
0.00263537

> <r_epik_Ionization_Penalty_Charging>
0.00263428

> <r_epik_Ionization_Penalty_Neutral>
1.09111e-06

> <r_epik_State_Penalty>
0.00183335

> <r_epik_Charging_Adjusted_Penalty>
0.00446763

> <i_epik_Tot_Q>
0

> <i_epik_Tot_abs_Q>
0

> <r_epik_Metal_State_Penalty>
1.00528

> <b_epik_Metal_Only>
0

> <s_epik_Chemistry_Notes>
This compound has an ester and may undergo hydrolysis at high or low pH. This compound contains an acetal/aminal-like group ( X-CH(R)-Y where X, Y are N, S, or O) that may be acid/base labile, releasing an aldehyde.

> <s_lp_Force_Field>
OPLS_2005

> <r_lp_Energy>
29.5421

> <b_lp_Chiralities_Consistent>
1

> <s_lp_Variant>
AV-unprocessed.smi:101-12

> <Gold.Version>
5.8.1

> <Gold.Id.Protein>
6NUR|6NUR_protein|mol2

> <Gold.PLP.Fitness>
50.9470

> <Gold.PLP.PLP>
-46.2211

> <Gold.PLP.part.hbond>
-3.3119

> <Gold.PLP.part.metal>
0.0000

> <Gold.PLP.part.buried>
-6.8754

> <Gold.PLP.part.nonpolar>
-36.6671

> <Gold.PLP.part.repulsive>
0.4559

> <Gold.PLP.ligand.clash>
0.0000

> <Gold.PLP.ligand.torsion>
0.6708

> <Gold.PLP.Chemscore.Hbond>
2.0000

> <Gold.PLP.Chemscore.CHOScore>
0.0000

> <Gold.PLP.Chemscore.Metal>
0.0000

> <Gold.Chemscore.Hbonds>
donor molecule, donor type, donor heavy atom, donor atom, acceptor molecule, acceptor atom, score
      L1  H    21    44       P1  7957  0.98
      P1  H  7997  8008       L1    11  0.98

> <Gold.PLP.Chemscore.Internal.Correction>
0.0675

> <Gold.Rescore>
     Score         DG    S(hbond)    S(metal)    S(lipo)     H(rot)  DE(clash)    DE(int)     intcor
     14.32     -14.83       1.97        0.00      96.23       3.32       0.01       0.51       ----

> <Gold.Chemscore.Fitness>
14.3180

> <Gold.Chemscore.DG>
-14.8335

> <Gold.Chemscore.ZeroCoef>
-5.4800

> <Gold.Chemscore.Hbond>
1.9720

> <Gold.Chemscore.Metal>
0.0000

> <Gold.Chemscore.Lipo>
96.2313

> <Gold.Chemscore.Internal_Hbond>
0.0000

> <Gold.Chemscore.DEClash>
0.0067

> <Gold.Chemscore.DEInternal>
0.5089

> <Gold.Chemscore.Rot>
3.3172

> <Gold.Chemscore.Internal.Correction>
   9.000000E+99

> <Gold.Chemscore.Hbonds>
donor molecule, donor type, donor heavy atom, donor atom, acceptor molecule, acceptor atom, score
      L1  H    21    44       P1  7957  0.93
      P1  H  7997  8008       L1    11  0.93

> <Gold.Chemscore.Hbond.Weighted>
-6.5865

> <Gold.Chemscore.Metal.Weighted>
-0.0000

> <Gold.Chemscore.Lipo.Weighted>
-11.2591

> <Gold.Chemscore.Internal_Hbond.Weighted>
0.0000

> <Gold.Chemscore.DEClash.Weighted>
0.0067

> <Gold.Chemscore.DEInternal.Weighted>
0.5089

> <Gold.Chemscore.Rot.Weighted>
8.4920

> <Gold.Chemscore.Internal.Correction.Weighted>
   9.000000E+99

> <Gold.Protein.RotatedTorsions>
[ 6907 6896 6895 6894 ] final -137.28 input  -60.11 | X-H torsion
[ 7974 7965 7964 7962 ] final  -88.19 input  175.53 | X-H torsion
[ 8008 7997 7996 7995 ] final  -50.01 input   59.86 | X-H torsion
[ 10167 10162 10161 10158 ] final  -53.11 input  -65.29 | X-H torsion
[ 10718 10713 10712 10709 ] final -114.59 input   66.30 | X-H torsion
[ 10763 10752 10751 10750 ] final   78.93 input  -60.55 | X-H torsion
[ 11005 11000 10999 10996 ] final -141.59 input  -57.11 | X-H torsion

> <Gold.Protein.ActiveResidues>
 VAL166  LYS551  ARG553  GLY616  TRP617  ASP618  TYR619  PRO620  LYS621  CYS622 
 ASP623  PHE694  ASN695  SER759  ASP760  ASP761  ALA762  ILE779  LEU786  VAL792 
 PHE793  MET794  SER795  GLU796  ALA797  LYS798  CYS799  TRP800  GLU811  SER814 

> <Gold.Protein.RotatedAtoms>
  151.0204  133.5881  159.2671 H   0  0  0  0  0  0  0  0  0  0  0  0  # atno 6907 bound_to 6896
  151.3000  135.0765  159.9245 H   0  0  0  0  0  0  0  0  0  0  0  0  # atno 6908 bound_to 6896
  152.5322  133.9888  159.7895 H   0  0  0  0  0  0  0  0  0  0  0  0  # atno 6909 bound_to 6896
  145.4564  140.9561  143.1994 H   0  0  0  0  0  0  0  0  0  0  0  0  # atno 7974 bound_to 7965
  154.4054  140.1283  156.4595 H   0  0  0  0  0  0  0  0  0  0  0  0  # atno 8008 bound_to 7997
  155.7287  140.3491  155.5029 H   0  0  0  0  0  0  0  0  0  0  0  0  # atno 8009 bound_to 7997
  155.9148  140.1042  157.1242 H   0  0  0  0  0  0  0  0  0  0  0  0  # atno 8010 bound_to 7997
  140.6502  143.2561  151.4744 H   0  0  0  0  0  0  0  0  0  0  0  0  # atno 10167 bound_to 10162
  156.0840  130.6035  150.8794 H   0  0  0  0  0  0  0  0  0  0  0  0  # atno 10718 bound_to 10713
  153.0912  135.4859  154.8694 H   0  0  0  0  0  0  0  0  0  0  0  0  # atno 10763 bound_to 10752
  154.7272  135.3052  154.8954 H   0  0  0  0  0  0  0  0  0  0  0  0  # atno 10764 bound_to 10752
  153.9601  135.6813  153.4798 H   0  0  0  0  0  0  0  0  0  0  0  0  # atno 10765 bound_to 10752
  140.8309  134.2518  157.4857 H   0  0  0  0  0  0  0  0  0  0  0  0  # atno 11005 bound_to 11000
  144.8030  139.6105  143.7063 LP  0  0  0  0  0  0  0  0  0  0  0  0  # atno 17320 bound_to 7965
  146.2476  139.6130  142.9449 LP  0  0  0  0  0  0  0  0  0  0  0  0  # atno 17321 bound_to 7965
  139.5716  144.1914  152.1845 LP  0  0  0  0  0  0  0  0  0  0  0  0  # atno 17342 bound_to 10162
  140.1212  144.5371  150.6861 LP  0  0  0  0  0  0  0  0  0  0  0  0  # atno 17343 bound_to 10162
  157.5967  131.0943  150.9029 LP  0  0  0  0  0  0  0  0  0  0  0  0  # atno 17370 bound_to 10713
  156.9194  130.5309  149.5279 LP  0  0  0  0  0  0  0  0  0  0  0  0  # atno 17371 bound_to 10713
  139.8705  134.9586  156.4304 LP  0  0  0  0  0  0  0  0  0  0  0  0  # atno 17394 bound_to 11000
  140.8999  133.7787  155.9668 LP  0  0  0  0  0  0  0  0  0  0  0  0  # atno 17395 bound_to 11000

$$$$
