AV-unprocessed.smi:3156|AV-procd|sdf|12035|dock9
  -GOLD-   2272017453D 1   1.00000     0.00000
 Structure written by MMmdl.
 41 42  0  0  0  0  0  0  0  0  2 V2000
  145.7665  136.0634  150.9210 C   0  0  0  0  0  0  0  0  0  0  0  0
  145.6958  135.1554  152.1622 C   0  0  2  0  0  0  0  0  0  0  0  0
  147.0384  134.5841  152.4123 N   0  3  0  0  0  0  0  0  0  0  0  0
  147.2313  134.0168  153.7628 C   0  0  0  0  0  0  0  0  0  0  0  0
  148.5531  133.2293  153.8622 C   0  0  1  0  0  0  0  0  0  0  0  0
  149.3091  133.5121  155.1761 C   0  0  0  0  0  0  0  0  0  0  0  0
  150.5700  132.6456  155.2716 C   0  0  0  0  0  0  0  0  0  0  0  0
  150.1992  131.1729  155.0693 C   0  0  0  0  0  0  0  0  0  0  0  0
  149.3972  130.9985  153.7702 C   0  0  0  0  0  0  0  0  0  0  0  0
  148.2460  131.8379  153.7937 O   0  0  0  0  0  0  0  0  0  0  0  0
  144.6447  134.0206  152.0332 C   0  0  1  0  0  0  0  0  0  0  0  0
  143.1968  134.5479  152.0419 C   0  0  0  0  0  0  0  0  0  0  0  0
  144.8676  133.1945  150.8531 N   0  0  0  0  0  0  0  0  0  0  0  0
  144.0280  133.0006  149.7755 C   0  0  0  0  0  0  0  0  0  0  0  0
  144.6590  132.1503  148.9136 C   0  0  0  0  0  0  0  0  0  0  0  0
  145.8981  131.8753  149.5558 C   0  0  0  0  0  0  0  0  0  0  0  0
  146.0207  132.5013  150.7151 N   0  0  0  0  0  0  0  0  0  0  0  0
  144.8269  136.5883  150.7467 H   0  0  0  0  0  0  0  0  0  0  0  0
  145.9993  135.4903  150.0228 H   0  0  0  0  0  0  0  0  0  0  0  0
  146.5385  136.8246  151.0386 H   0  0  0  0  0  0  0  0  0  0  0  0
  145.4139  135.7890  153.0054 H   0  0  0  0  0  0  0  0  0  0  0  0
  147.2039  133.8553  151.7328 H   0  0  0  0  0  0  0  0  0  0  0  0
  147.2051  134.8271  154.4926 H   0  0  0  0  0  0  0  0  0  0  0  0
  146.3867  133.3660  153.9940 H   0  0  0  0  0  0  0  0  0  0  0  0
  149.1966  133.4796  153.0161 H   0  0  0  0  0  0  0  0  0  0  0  0
  149.5780  134.5672  155.2382 H   0  0  0  0  0  0  0  0  0  0  0  0
  148.6606  133.3031  156.0281 H   0  0  0  0  0  0  0  0  0  0  0  0
  151.2871  132.9526  154.5092 H   0  0  0  0  0  0  0  0  0  0  0  0
  151.0578  132.7866  156.2366 H   0  0  0  0  0  0  0  0  0  0  0  0
  151.0982  130.5565  155.0451 H   0  0  0  0  0  0  0  0  0  0  0  0
  149.6032  130.8253  155.9141 H   0  0  0  0  0  0  0  0  0  0  0  0
  150.0120  131.2293  152.8988 H   0  0  0  0  0  0  0  0  0  0  0  0
  149.0753  129.9622  153.6655 H   0  0  0  0  0  0  0  0  0  0  0  0
  144.7573  133.3623  152.8962 H   0  0  0  0  0  0  0  0  0  0  0  0
  142.9592  135.0512  152.9791 H   0  0  0  0  0  0  0  0  0  0  0  0
  142.4829  133.7317  151.9254 H   0  0  0  0  0  0  0  0  0  0  0  0
  143.0235  135.2574  151.2321 H   0  0  0  0  0  0  0  0  0  0  0  0
  143.0611  133.4779  149.7120 H   0  0  0  0  0  0  0  0  0  0  0  0
  144.2920  131.7821  147.9671 H   0  0  0  0  0  0  0  0  0  0  0  0
  146.7066  131.2447  149.2162 H   0  0  0  0  0  0  0  0  0  0  0  0
  147.7239  135.3127  152.2733 H   0  0  0  0  0  0  0  0  0  0  0  0
  1  2  1  0  0  0  0
  1 18  1  0  0  0  0
  1 19  1  0  0  0  0
  1 20  1  0  0  0  0
  2  3  1  0  0  0  0
  2 11  1  0  0  0  0
  2 21  1  0  0  0  0
  3  4  1  0  0  0  0
  3 22  1  0  0  0  0
  3 41  1  0  0  0  0
  4  5  1  0  0  0  0
  4 23  1  0  0  0  0
  4 24  1  0  0  0  0
  5 10  1  0  0  0  0
  5  6  1  0  0  0  0
  5 25  1  0  0  0  0
  6  7  1  0  0  0  0
  6 26  1  0  0  0  0
  6 27  1  0  0  0  0
  7  8  1  0  0  0  0
  7 28  1  0  0  0  0
  7 29  1  0  0  0  0
  8  9  1  0  0  0  0
  8 30  1  0  0  0  0
  8 31  1  0  0  0  0
  9 10  1  0  0  0  0
  9 32  1  0  0  0  0
  9 33  1  0  0  0  0
 11 12  1  0  0  0  0
 11 13  1  0  0  0  0
 11 34  1  0  0  0  0
 12 35  1  0  0  0  0
 12 36  1  0  0  0  0
 12 37  1  0  0  0  0
 13 17  1  0  0  0  0
 13 14  1  0  0  0  0
 14 15  2  0  0  0  0
 14 38  1  0  0  0  0
 15 16  1  0  0  0  0
 15 39  1  0  0  0  0
 16 17  2  0  0  0  0
 16 40  1  0  0  0  0
M  CHG  1   3   1
M  END
> <s_m_source_file>
AV-unprocessed.smi

> <i_m_source_file_index>
3156

> <i_lp_mmshare_version>
43012

> <i_f3d_flags>
0

> <s_epik_input>
bjFbY0hdW2NIXVtjSF1uMVtDQEBIXShbQ0gzXSlbQ0BIXShbQ0gzXSlbTkhdW0NIMl1bQ0BASF0yW0NIMl1bQ0gyXVtDSDJdW0NIMl1PMg==

> <s_epik_cmdline>
J2VwaWtfcHl0aG9uJywgJy1waCcsICc3LjAnLCAnLXRuJywgJzgnLCAnLW1hJywgJzIwMCcsICctbWV0YWxfYmluZGluZycsICctaW1hZScsICc8aW5maWxlLm1hZT4nLCAnLW9tYWUnLCAnPG91dGZpbGUubWFlPic=

> <r_lp_tautomer_probability>
1

> <r_epik_Ionization_Penalty>
0.00658015

> <r_epik_Ionization_Penalty_Charging>
0.00656881

> <r_epik_Ionization_Penalty_Neutral>
1.13431e-05

> <r_epik_State_Penalty>
0.0048654

> <r_epik_Charging_Adjusted_Penalty>
0.0114342

> <i_epik_Tot_Q>
1

> <i_epik_Tot_abs_Q>
1

> <r_epik_Metal_State_Penalty>
-0

> <b_epik_Metal_Only>
0

> <s_lp_Force_Field>
OPLS_2005

> <r_lp_Energy>
21.7915

> <b_lp_Chiralities_Consistent>
1

> <s_lp_Variant>
AV-unprocessed.smi:3156-7

> <Gold.Version>
5.8.1

> <Gold.Id.Protein>
6NUR|6NUR_protein|mol2

> <Gold.PLP.Fitness>
42.6500

> <Gold.PLP.PLP>
-32.3003

> <Gold.PLP.part.hbond>
-1.0000

> <Gold.PLP.part.metal>
0.0000

> <Gold.PLP.part.buried>
-3.9294

> <Gold.PLP.part.nonpolar>
-28.3444

> <Gold.PLP.part.repulsive>
0.2383

> <Gold.PLP.ligand.clash>
0.0000

> <Gold.PLP.ligand.torsion>
0.8576

> <Gold.PLP.Chemscore.Hbond>
2.0000

> <Gold.PLP.Chemscore.CHOScore>
2.0000

> <Gold.PLP.Chemscore.Metal>
0.0000

> <Gold.Chemscore.Hbonds>
donor molecule, donor type, donor heavy atom, donor atom, acceptor molecule, acceptor atom, score
      L1  H     3    41       P1  7948  2.00
      L1  C    14    38       P1 10186  1.00
      L1  C    16    40       P1 10747  1.00

> <Gold.PLP.Chemscore.Internal.Correction>
0.0649

> <Gold.Rescore>
     Score         DG    S(hbond)    S(metal)    S(lipo)     H(rot)  DE(clash)    DE(int)     intcor
     12.65     -14.72       0.99        0.00      85.66       1.59       0.00       2.07       ----

> <Gold.Chemscore.Fitness>
12.6473

> <Gold.Chemscore.DG>
-14.7247

> <Gold.Chemscore.ZeroCoef>
-5.4800

> <Gold.Chemscore.Hbond>
0.9888

> <Gold.Chemscore.Metal>
0.0000

> <Gold.Chemscore.Lipo>
85.6609

> <Gold.Chemscore.Internal_Hbond>
0.0000

> <Gold.Chemscore.DEClash>
0.0034

> <Gold.Chemscore.DEInternal>
2.0739

> <Gold.Chemscore.Rot>
1.5938

> <Gold.Chemscore.Internal.Correction>
   9.000000E+99

> <Gold.Chemscore.Hbonds>
donor molecule, donor type, donor heavy atom, donor atom, acceptor molecule, acceptor atom, score
      L1  H     3    41       P1  7948  0.95

> <Gold.Chemscore.Hbond.Weighted>
-3.3026

> <Gold.Chemscore.Metal.Weighted>
-0.0000

> <Gold.Chemscore.Lipo.Weighted>
-10.0223

> <Gold.Chemscore.Internal_Hbond.Weighted>
0.0000

> <Gold.Chemscore.DEClash.Weighted>
0.0034

> <Gold.Chemscore.DEInternal.Weighted>
2.0739

> <Gold.Chemscore.Rot.Weighted>
4.0802

> <Gold.Chemscore.Internal.Correction.Weighted>
   9.000000E+99

> <Gold.Protein.RotatedTorsions>
[ 6907 6896 6895 6894 ] final -142.29 input  -60.11 | X-H torsion
[ 7974 7965 7964 7962 ] final  -91.92 input  175.53 | X-H torsion
[ 8008 7997 7996 7995 ] final  -90.77 input   59.86 | X-H torsion
[ 10167 10162 10161 10158 ] final -121.05 input  -65.29 | X-H torsion
[ 10718 10713 10712 10709 ] final -128.59 input   66.30 | X-H torsion
[ 10763 10752 10751 10750 ] final   85.12 input  -60.55 | X-H torsion
[ 11005 11000 10999 10996 ] final  114.37 input  -57.11 | X-H torsion

> <Gold.Protein.ActiveResidues>
 VAL166  LYS551  ARG553  GLY616  TRP617  ASP618  TYR619  PRO620  LYS621  CYS622 
 ASP623  PHE694  ASN695  SER759  ASP760  ASP761  ALA762  ILE779  LEU786  VAL792 
 PHE793  MET794  SER795  GLU796  ALA797  LYS798  CYS799  TRP800  GLU811  SER814 

> <Gold.Protein.RotatedAtoms>
  151.0851  133.5360  159.2618 H   0  0  0  0  0  0  0  0  0  0  0  0  # atno 6907 bound_to 6896
  151.2248  135.0532  159.8974 H   0  0  0  0  0  0  0  0  0  0  0  0  # atno 6908 bound_to 6896
  152.5428  134.0648  159.8221 H   0  0  0  0  0  0  0  0  0  0  0  0  # atno 6909 bound_to 6896
  145.4067  140.9542  143.2257 H   0  0  0  0  0  0  0  0  0  0  0  0  # atno 7974 bound_to 7965
  154.7026  140.0527  157.0473 H   0  0  0  0  0  0  0  0  0  0  0  0  # atno 8008 bound_to 7997
  155.0663  140.3195  155.4625 H   0  0  0  0  0  0  0  0  0  0  0  0  # atno 8009 bound_to 7997
  156.2765  140.2089  156.5791 H   0  0  0  0  0  0  0  0  0  0  0  0  # atno 8010 bound_to 7997
  140.0292  143.5265  152.2184 H   0  0  0  0  0  0  0  0  0  0  0  0  # atno 10167 bound_to 10162
  156.1965  130.6829  151.0488 H   0  0  0  0  0  0  0  0  0  0  0  0  # atno 10718 bound_to 10713
  153.1445  135.4629  154.9545 H   0  0  0  0  0  0  0  0  0  0  0  0  # atno 10763 bound_to 10752
  154.7774  135.3177  154.8065 H   0  0  0  0  0  0  0  0  0  0  0  0  # atno 10764 bound_to 10752
  153.8581  135.6915  153.4839 H   0  0  0  0  0  0  0  0  0  0  0  0  # atno 10765 bound_to 10752
  139.8979  134.9567  156.6882 H   0  0  0  0  0  0  0  0  0  0  0  0  # atno 11005 bound_to 11000
  144.8337  139.5586  143.6932 LP  0  0  0  0  0  0  0  0  0  0  0  0  # atno 17320 bound_to 7965
  146.2725  139.6671  142.9286 LP  0  0  0  0  0  0  0  0  0  0  0  0  # atno 17321 bound_to 7965
  139.6087  144.7603  151.3001 LP  0  0  0  0  0  0  0  0  0  0  0  0  # atno 17342 bound_to 10162
  140.7309  143.6866  150.7956 LP  0  0  0  0  0  0  0  0  0  0  0  0  # atno 17343 bound_to 10162
  157.6961  131.0793  150.6965 LP  0  0  0  0  0  0  0  0  0  0  0  0  # atno 17370 bound_to 10713
  156.7022  130.4627  149.5570 LP  0  0  0  0  0  0  0  0  0  0  0  0  # atno 17371 bound_to 10713
  140.7245  133.9112  155.8169 LP  0  0  0  0  0  0  0  0  0  0  0  0  # atno 17394 bound_to 11000
  141.0201  134.0901  157.4129 LP  0  0  0  0  0  0  0  0  0  0  0  0  # atno 17395 bound_to 11000

$$$$
