AV-unprocessed.smi:1885|AV-procd|sdf|7650|dock2
  -GOLD-   22720 9383D 1   1.00000     0.00000
 Structure written by MMmdl.
 43 45  0  0  0  0  0  0  0  0  1 V2000
  156.4491  144.3982  167.6339 C   0  0  0  0  0  0  0  0  0  0  0  0
  156.2859  143.8599  166.3298 O   0  0  0  0  0  0  0  0  0  0  0  0
  156.2292  142.4890  166.1966 C   0  0  0  0  0  0  0  0  0  0  0  0
  156.3017  141.5795  167.2816 C   0  0  0  0  0  0  0  0  0  0  0  0
  156.2370  140.1909  167.0543 C   0  0  0  0  0  0  0  0  0  0  0  0
  156.0918  139.6883  165.7456 C   0  0  0  0  0  0  0  0  0  0  0  0
  156.0431  138.1901  165.5102 C   0  0  0  0  0  0  0  0  0  0  0  0
  155.9048  137.8688  164.1356 O   0  0  0  0  0  0  0  0  0  0  0  0
  154.6147  137.3810  163.8070 C   0  0  0  0  0  0  0  0  0  0  0  0
  154.2969  137.7607  162.3536 C   0  0  2  0  0  0  0  0  0  0  0  0
  154.6995  136.7002  161.5092 O   0  0  0  0  0  0  0  0  0  0  0  0
  154.9924  139.0656  161.9197 C   0  0  0  0  0  0  0  0  0  0  0  0
  154.3030  139.7181  160.8215 N   0  0  0  0  0  0  0  0  0  0  0  0
  154.0546  139.2141  159.5972 C   0  0  0  0  0  0  0  0  0  0  0  0
  153.4015  139.9933  158.7393 N   0  0  0  0  0  0  0  0  0  0  0  0
  153.2023  141.1362  159.4949 C   0  0  0  0  0  0  0  0  0  0  0  0
  152.5633  142.3535  159.1678 C   0  0  0  0  0  0  0  0  0  0  0  0
  152.4799  143.3947  160.1160 C   0  0  0  0  0  0  0  0  0  0  0  0
  151.8639  144.5547  159.7860 F   0  0  0  0  0  0  0  0  0  0  0  0
  153.0339  143.2347  161.4036 C   0  0  0  0  0  0  0  0  0  0  0  0
  152.9493  144.2393  162.3075 F   0  0  0  0  0  0  0  0  0  0  0  0
  153.6758  142.0310  161.7522 C   0  0  0  0  0  0  0  0  0  0  0  0
  153.7559  140.9957  160.8030 C   0  0  0  0  0  0  0  0  0  0  0  0
  156.0280  140.5884  164.6623 C   0  0  0  0  0  0  0  0  0  0  0  0
  156.0934  141.9763  164.8902 C   0  0  0  0  0  0  0  0  0  0  0  0
  156.4719  145.4861  167.5737 H   0  0  0  0  0  0  0  0  0  0  0  0
  157.3879  144.0736  168.0847 H   0  0  0  0  0  0  0  0  0  0  0  0
  155.6196  144.1217  168.2860 H   0  0  0  0  0  0  0  0  0  0  0  0
  156.4095  141.9220  168.2995 H   0  0  0  0  0  0  0  0  0  0  0  0
  156.2987  139.5112  167.8914 H   0  0  0  0  0  0  0  0  0  0  0  0
  156.9609  137.7520  165.9051 H   0  0  0  0  0  0  0  0  0  0  0  0
  155.2092  137.7634  166.0701 H   0  0  0  0  0  0  0  0  0  0  0  0
  154.5682  136.2986  163.9388 H   0  0  0  0  0  0  0  0  0  0  0  0
  153.8808  137.8270  164.4807 H   0  0  0  0  0  0  0  0  0  0  0  0
  153.2166  137.8699  162.2478 H   0  0  0  0  0  0  0  0  0  0  0  0
  155.0986  136.0281  162.0400 H   0  0  0  0  0  0  0  0  0  0  0  0
  155.0343  139.7673  162.7537 H   0  0  0  0  0  0  0  0  0  0  0  0
  156.0249  138.8730  161.6241 H   0  0  0  0  0  0  0  0  0  0  0  0
  154.3690  138.2181  159.3213 H   0  0  0  0  0  0  0  0  0  0  0  0
  152.1352  142.4873  158.1856 H   0  0  0  0  0  0  0  0  0  0  0  0
  154.1008  141.9041  162.7368 H   0  0  0  0  0  0  0  0  0  0  0  0
  155.9289  140.2210  163.6514 H   0  0  0  0  0  0  0  0  0  0  0  0
  156.0409  142.6557  164.0521 H   0  0  0  0  0  0  0  0  0  0  0  0
  1  2  1  0  0  0  0
  1 26  1  0  0  0  0
  1 27  1  0  0  0  0
  1 28  1  0  0  0  0
  2  3  1  0  0  0  0
  3 25  1  0  0  0  0
  3  4  2  0  0  0  0
  4  5  1  0  0  0  0
  4 29  1  0  0  0  0
  5  6  2  0  0  0  0
  5 30  1  0  0  0  0
  6  7  1  0  0  0  0
  6 24  1  0  0  0  0
  7  8  1  0  0  0  0
  7 31  1  0  0  0  0
  7 32  1  0  0  0  0
  8  9  1  0  0  0  0
  9 10  1  0  0  0  0
  9 33  1  0  0  0  0
  9 34  1  0  0  0  0
 10 11  1  0  0  0  0
 10 12  1  0  0  0  0
 10 35  1  0  0  0  0
 11 36  1  0  0  0  0
 12 13  1  0  0  0  0
 12 37  1  0  0  0  0
 12 38  1  0  0  0  0
 13 23  1  0  0  0  0
 13 14  1  0  0  0  0
 14 15  2  0  0  0  0
 14 39  1  0  0  0  0
 15 16  1  0  0  0  0
 16 23  2  0  0  0  0
 16 17  1  0  0  0  0
 17 18  2  0  0  0  0
 17 40  1  0  0  0  0
 18 19  1  0  0  0  0
 18 20  1  0  0  0  0
 20 21  1  0  0  0  0
 20 22  2  0  0  0  0
 22 23  1  0  0  0  0
 22 41  1  0  0  0  0
 24 25  2  0  0  0  0
 24 42  1  0  0  0  0
 25 43  1  0  0  0  0
M  END
> <s_m_source_file>
AV-unprocessed.smi

> <i_m_source_file_index>
1885

> <i_lp_mmshare_version>
43012

> <i_f3d_flags>
0

> <s_epik_input>
W0NIM11PYzFbY0hdW2NIXWMoW2NIXVtjSF0xKVtDSDJdT1tDSDJdW0NASF0oW09IXSlbQ0gyXW4oW2NIXW4yKWMoYzIzKVtjSF1jKEYpYyhGKVtjSF0z

> <s_epik_cmdline>
J2VwaWtfcHl0aG9uJywgJy1waCcsICc3LjAnLCAnLXRuJywgJzgnLCAnLW1hJywgJzIwMCcsICctbWV0YWxfYmluZGluZycsICctaW1hZScsICc8aW5maWxlLm1hZT4nLCAnLW9tYWUnLCAnPG91dGZpbGUubWFlPic=

> <r_lp_tautomer_probability>
1

> <r_epik_Ionization_Penalty>
0.0160256

> <r_epik_Ionization_Penalty_Charging>
0

> <r_epik_Ionization_Penalty_Neutral>
0.0160256

> <r_epik_State_Penalty>
0.0126263

> <r_epik_Charging_Adjusted_Penalty>
0.0126263

> <i_epik_Tot_Q>
0

> <i_epik_Tot_abs_Q>
0

> <r_epik_Metal_State_Penalty>
1.27616e-05

> <b_epik_Metal_Only>
0

> <s_lp_Force_Field>
OPLS_2005

> <r_lp_Energy>
16.1682

> <b_lp_Chiralities_Consistent>
1

> <s_lp_Variant>
AV-unprocessed.smi:1885-1

> <Gold.Version>
5.8.1

> <Gold.Id.Protein>
6NUR|6NUR_protein|mol2

> <Gold.PLP.Fitness>
58.8347

> <Gold.PLP.PLP>
-58.0274

> <Gold.PLP.part.hbond>
-1.1137

> <Gold.PLP.part.metal>
0.0000

> <Gold.PLP.part.buried>
-7.2003

> <Gold.PLP.part.nonpolar>
-49.1613

> <Gold.PLP.part.repulsive>
0.0657

> <Gold.PLP.ligand.clash>
0.0000

> <Gold.PLP.ligand.torsion>
1.1712

> <Gold.PLP.Chemscore.Hbond>
1.0000

> <Gold.PLP.Chemscore.CHOScore>
0.0000

> <Gold.PLP.Chemscore.Metal>
0.0000

> <Gold.Chemscore.Hbonds>
donor molecule, donor type, donor heavy atom, donor atom, acceptor molecule, acceptor atom, score
      P1  H  7997  8010       L1    15  0.56

> <Gold.PLP.Chemscore.Internal.Correction>
0.1498

> <Gold.Rescore>
     Score         DG    S(hbond)    S(metal)    S(lipo)     H(rot)  DE(clash)    DE(int)     intcor
     15.82     -17.04       0.90        0.00     137.38       2.93       0.03       1.19       ----

> <Gold.Chemscore.Fitness>
15.8229

> <Gold.Chemscore.DG>
-17.0415

> <Gold.Chemscore.ZeroCoef>
-5.4800

> <Gold.Chemscore.Hbond>
0.8976

> <Gold.Chemscore.Metal>
0.0000

> <Gold.Chemscore.Lipo>
137.3771

> <Gold.Chemscore.Internal_Hbond>
0.0000

> <Gold.Chemscore.DEClash>
0.0263

> <Gold.Chemscore.DEInternal>
1.1923

> <Gold.Chemscore.Rot>
2.9335

> <Gold.Chemscore.Internal.Correction>
   9.000000E+99

> <Gold.Chemscore.Hbonds>
donor molecule, donor type, donor heavy atom, donor atom, acceptor molecule, acceptor atom, score
      P1  H  7997  8010       L1    15  0.08

> <Gold.Chemscore.Hbond.Weighted>
-2.9981

> <Gold.Chemscore.Metal.Weighted>
-0.0000

> <Gold.Chemscore.Lipo.Weighted>
-16.0731

> <Gold.Chemscore.Internal_Hbond.Weighted>
0.0000

> <Gold.Chemscore.DEClash.Weighted>
0.0263

> <Gold.Chemscore.DEInternal.Weighted>
1.1923

> <Gold.Chemscore.Rot.Weighted>
7.5097

> <Gold.Chemscore.Internal.Correction.Weighted>
   9.000000E+99

> <Gold.Protein.RotatedTorsions>
[ 6907 6896 6895 6894 ] final   99.87 input  -60.11 | X-H torsion
[ 7974 7965 7964 7962 ] final  -55.57 input  175.53 | X-H torsion
[ 8008 7997 7996 7995 ] final    9.61 input   59.86 | X-H torsion
[ 10167 10162 10161 10158 ] final -157.35 input  -65.29 | X-H torsion
[ 10718 10713 10712 10709 ] final   -0.05 input   66.30 | X-H torsion
[ 10763 10752 10751 10750 ] final  -45.93 input  -60.55 | X-H torsion
[ 11005 11000 10999 10996 ] final  -73.10 input  -57.11 | X-H torsion

> <Gold.Protein.ActiveResidues>
 VAL166  LYS551  ARG553  GLY616  TRP617  ASP618  TYR619  PRO620  LYS621  CYS622 
 ASP623  PHE694  ASN695  SER759  ASP760  ASP761  ALA762  ILE779  LEU786  VAL792 
 PHE793  MET794  SER795  GLU796  ALA797  LYS798  CYS799  TRP800  GLU811  SER814 

> <Gold.Protein.RotatedAtoms>
  152.5383  134.0362  159.8046 H   0  0  0  0  0  0  0  0  0  0  0  0  # atno 6907 bound_to 6896
  151.0525  133.5604  159.2648 H   0  0  0  0  0  0  0  0  0  0  0  0  # atno 6908 bound_to 6896
  151.2533  135.0637  159.9124 H   0  0  0  0  0  0  0  0  0  0  0  0  # atno 6909 bound_to 6896
  145.8727  140.8204  142.9880 H   0  0  0  0  0  0  0  0  0  0  0  0  # atno 7974 bound_to 7965
  154.7823  140.2821  155.6054 H   0  0  0  0  0  0  0  0  0  0  0  0  # atno 8008 bound_to 7997
  156.2952  140.2620  156.2580 H   0  0  0  0  0  0  0  0  0  0  0  0  # atno 8009 bound_to 7997
  154.9769  140.0375  157.2250 H   0  0  0  0  0  0  0  0  0  0  0  0  # atno 8010 bound_to 7997
  139.6777  143.9635  152.2319 H   0  0  0  0  0  0  0  0  0  0  0  0  # atno 10167 bound_to 10162
  156.8262  130.5473  149.5692 H   0  0  0  0  0  0  0  0  0  0  0  0  # atno 10718 bound_to 10713
  154.0366  135.6649  153.4786 H   0  0  0  0  0  0  0  0  0  0  0  0  # atno 10763 bound_to 10752
  153.0518  135.5080  154.7882 H   0  0  0  0  0  0  0  0  0  0  0  0  # atno 10764 bound_to 10752
  154.6845  135.3050  154.9533 H   0  0  0  0  0  0  0  0  0  0  0  0  # atno 10765 bound_to 10752
  141.1618  133.6867  156.7161 H   0  0  0  0  0  0  0  0  0  0  0  0  # atno 11005 bound_to 11000
  144.6726  140.1263  143.7446 LP  0  0  0  0  0  0  0  0  0  0  0  0  # atno 17320 bound_to 7965
  145.9118  139.2492  143.1433 LP  0  0  0  0  0  0  0  0  0  0  0  0  # atno 17321 bound_to 7965
  139.9416  144.6678  150.8260 LP  0  0  0  0  0  0  0  0  0  0  0  0  # atno 17342 bound_to 10162
  140.7641  143.3240  151.2557 LP  0  0  0  0  0  0  0  0  0  0  0  0  # atno 17343 bound_to 10162
  156.0960  130.5933  150.9814 LP  0  0  0  0  0  0  0  0  0  0  0  0  # atno 17370 bound_to 10713
  157.6431  131.0907  150.8210 LP  0  0  0  0  0  0  0  0  0  0  0  0  # atno 17371 bound_to 10713
  140.2851  134.8285  157.3968 LP  0  0  0  0  0  0  0  0  0  0  0  0  # atno 17394 bound_to 11000
  140.1397  134.4987  155.8041 LP  0  0  0  0  0  0  0  0  0  0  0  0  # atno 17395 bound_to 11000

$$$$
