AV-unprocessed.smi:2888|AV-procd|sdf|11103|dock4
  -GOLD-   2272015573D 1   1.00000     0.00000
 Structure written by MMmdl.
 33 35  0  0  0  0  0  0  0  0  1 V2000
  151.8843  145.7015  159.7612 C   0  0  0  0  0  0  0  0  0  0  0  0
  151.9544  144.2699  159.2744 C   0  0  0  0  0  0  0  0  0  0  0  0
  152.8424  143.3364  159.8485 C   0  0  0  0  0  0  0  0  0  0  0  0
  152.8106  142.0350  159.3047 C   0  0  0  0  0  0  0  0  0  0  0  0
  153.7139  140.9370  159.8250 C   0  0  0  0  0  0  0  0  0  0  0  0
  151.9777  141.7061  158.2923 N   0  0  0  0  0  0  0  0  0  0  0  0
  151.1819  142.6704  157.8225 C   0  0  0  0  0  0  0  0  0  0  0  0
  150.3502  142.3006  156.7816 N   0  0  0  0  0  0  0  0  0  0  0  0
  149.9291  140.9315  156.5120 C   0  0  1  0  0  0  0  0  0  0  0  0
  148.6738  140.8535  155.6338 C   0  0  0  0  0  0  0  0  0  0  0  0
  149.1560  139.9782  154.4705 C   0  0  2  0  0  0  0  0  0  0  0  0
  149.4060  138.5260  154.9000 C   0  0  0  0  0  0  0  0  0  0  0  0
  150.6968  138.6572  155.7080 C   0  0  0  0  0  0  0  0  0  0  0  0
  150.9522  140.1696  155.6531 C   0  0  1  0  0  0  0  0  0  0  0  0
  150.4864  140.4474  154.3420 O   0  0  0  0  0  0  0  0  0  0  0  0
  151.1264  143.9340  158.2611 N   0  0  0  0  0  0  0  0  0  0  0  0
  152.5270  145.8546  160.6286 H   0  0  0  0  0  0  0  0  0  0  0  0
  150.8631  145.9574  160.0449 H   0  0  0  0  0  0  0  0  0  0  0  0
  152.2047  146.3840  158.9737 H   0  0  0  0  0  0  0  0  0  0  0  0
  153.5083  143.6028  160.6562 H   0  0  0  0  0  0  0  0  0  0  0  0
  154.2623  141.2646  160.7084 H   0  0  0  0  0  0  0  0  0  0  0  0
  154.4364  140.6485  159.0616 H   0  0  0  0  0  0  0  0  0  0  0  0
  153.1284  140.0578  160.0953 H   0  0  0  0  0  0  0  0  0  0  0  0
  149.8819  143.0441  156.2844 H   0  0  0  0  0  0  0  0  0  0  0  0
  149.7833  140.4145  157.4614 H   0  0  0  0  0  0  0  0  0  0  0  0
  147.8212  140.4202  156.1576 H   0  0  0  0  0  0  0  0  0  0  0  0
  148.3778  141.8369  155.2651 H   0  0  0  0  0  0  0  0  0  0  0  0
  148.5559  140.0764  153.5656 H   0  0  0  0  0  0  0  0  0  0  0  0
  148.5790  138.1200  155.4836 H   0  0  0  0  0  0  0  0  0  0  0  0
  149.5613  137.8833  154.0328 H   0  0  0  0  0  0  0  0  0  0  0  0
  150.5983  138.2865  156.7288 H   0  0  0  0  0  0  0  0  0  0  0  0
  151.5073  138.1116  155.2235 H   0  0  0  0  0  0  0  0  0  0  0  0
  151.9924  140.4431  155.8353 H   0  0  0  0  0  0  0  0  0  0  0  0
  1  2  1  0  0  0  0
  1 17  1  0  0  0  0
  1 18  1  0  0  0  0
  1 19  1  0  0  0  0
  2 16  1  0  0  0  0
  2  3  2  0  0  0  0
  3  4  1  0  0  0  0
  3 20  1  0  0  0  0
  4  5  1  0  0  0  0
  4  6  2  0  0  0  0
  5 21  1  0  0  0  0
  5 22  1  0  0  0  0
  5 23  1  0  0  0  0
  6  7  1  0  0  0  0
  7  8  1  0  0  0  0
  7 16  2  0  0  0  0
  8  9  1  0  0  0  0
  8 24  1  0  0  0  0
  9 14  1  0  0  0  0
  9 10  1  0  0  0  0
  9 25  1  0  0  0  0
 10 11  1  0  0  0  0
 10 26  1  0  0  0  0
 10 27  1  0  0  0  0
 11 15  1  0  0  0  0
 11 12  1  0  0  0  0
 11 28  1  0  0  0  0
 12 13  1  0  0  0  0
 12 29  1  0  0  0  0
 12 30  1  0  0  0  0
 13 14  1  0  0  0  0
 13 31  1  0  0  0  0
 13 32  1  0  0  0  0
 14 15  1  0  0  0  0
 14 33  1  0  0  0  0
M  END
> <s_m_source_file>
AV-unprocessed.smi

> <i_m_source_file_index>
2888

> <i_lp_mmshare_version>
43012

> <i_f3d_flags>
0

> <s_epik_input>
W0NIM11jMVtjSF1jKFtDSDNdKW5jKG4xKVtOSF1bQ0BIXShbQ0gyXVtDQEBIXTIzKVtDQEBIXShPMylbQ0gyXVtDSDJdMg==

> <s_epik_cmdline>
J2VwaWtfcHl0aG9uJywgJy1waCcsICc3LjAnLCAnLXRuJywgJzgnLCAnLW1hJywgJzIwMCcsICctbWV0YWxfYmluZGluZycsICctaW1hZScsICc8aW5maWxlLm1hZT4nLCAnLW9tYWUnLCAnPG91dGZpbGUubWFlPic=

> <r_lp_tautomer_probability>
1

> <r_epik_Ionization_Penalty>
0.00890508

> <r_epik_Ionization_Penalty_Charging>
0

> <r_epik_Ionization_Penalty_Neutral>
0.00890508

> <r_epik_State_Penalty>
0.0067342

> <r_epik_Charging_Adjusted_Penalty>
0.0067342

> <i_epik_Tot_Q>
0

> <i_epik_Tot_abs_Q>
0

> <r_epik_Metal_State_Penalty>
0.00663442

> <b_epik_Metal_Only>
0

> <s_lp_Force_Field>
OPLS_2005

> <r_lp_Energy>
31.5377

> <b_lp_Chiralities_Consistent>
1

> <s_lp_Variant>
AV-unprocessed.smi:2888-4

> <Gold.Version>
5.8.1

> <Gold.Id.Protein>
6NUR|6NUR_protein|mol2

> <Gold.PLP.Fitness>
39.0886

> <Gold.PLP.PLP>
-34.2200

> <Gold.PLP.part.hbond>
-1.6307

> <Gold.PLP.part.metal>
0.0000

> <Gold.PLP.part.buried>
-4.5406

> <Gold.PLP.part.nonpolar>
-28.9394

> <Gold.PLP.part.repulsive>
0.3062

> <Gold.PLP.ligand.clash>
0.0000

> <Gold.PLP.ligand.torsion>
0.4326

> <Gold.PLP.Chemscore.Hbond>
1.9051

> <Gold.PLP.Chemscore.CHOScore>
0.0000

> <Gold.PLP.Chemscore.Metal>
0.0000

> <Gold.Chemscore.Hbonds>
donor molecule, donor type, donor heavy atom, donor atom, acceptor molecule, acceptor atom, score
      L1  H     8    24       P1  8028  0.96
      P1  H  7989  7998       L1    15  0.88

> <Gold.PLP.Chemscore.Internal.Correction>
0.0187

> <Gold.Rescore>
     Score         DG    S(hbond)    S(metal)    S(lipo)     H(rot)  DE(clash)    DE(int)     intcor
     19.25     -19.64       1.92        0.00      88.03       1.00       0.05       0.34       ----

> <Gold.Chemscore.Fitness>
19.2457

> <Gold.Chemscore.DG>
-19.6388

> <Gold.Chemscore.ZeroCoef>
-5.4800

> <Gold.Chemscore.Hbond>
1.9220

> <Gold.Chemscore.Metal>
0.0000

> <Gold.Chemscore.Lipo>
88.0286

> <Gold.Chemscore.Internal_Hbond>
0.0000

> <Gold.Chemscore.DEClash>
0.0484

> <Gold.Chemscore.DEInternal>
0.3447

> <Gold.Chemscore.Rot>
1.0000

> <Gold.Chemscore.Internal.Correction>
   9.000000E+99

> <Gold.Chemscore.Hbonds>
donor molecule, donor type, donor heavy atom, donor atom, acceptor molecule, acceptor atom, score
      L1  H     8    24       P1  8028  0.91
      P1  H  7989  7998       L1    15  0.59

> <Gold.Chemscore.Hbond.Weighted>
-6.4195

> <Gold.Chemscore.Metal.Weighted>
-0.0000

> <Gold.Chemscore.Lipo.Weighted>
-10.2993

> <Gold.Chemscore.Internal_Hbond.Weighted>
0.0000

> <Gold.Chemscore.DEClash.Weighted>
0.0484

> <Gold.Chemscore.DEInternal.Weighted>
0.3447

> <Gold.Chemscore.Rot.Weighted>
2.5600

> <Gold.Chemscore.Internal.Correction.Weighted>
   9.000000E+99

> <Gold.Protein.RotatedTorsions>
[ 6907 6896 6895 6894 ] final -177.49 input  -60.11 | X-H torsion
[ 7974 7965 7964 7962 ] final -106.67 input  175.53 | X-H torsion
[ 8008 7997 7996 7995 ] final  -33.11 input   59.86 | X-H torsion
[ 10167 10162 10161 10158 ] final  -59.65 input  -65.29 | X-H torsion
[ 10718 10713 10712 10709 ] final  100.54 input   66.30 | X-H torsion
[ 10763 10752 10751 10750 ] final -174.40 input  -60.55 | X-H torsion
[ 11005 11000 10999 10996 ] final   22.73 input  -57.11 | X-H torsion

> <Gold.Protein.ActiveResidues>
 VAL166  LYS551  ARG553  GLY616  TRP617  ASP618  TYR619  PRO620  LYS621  CYS622 
 ASP623  PHE694  ASN695  SER759  ASP760  ASP761  ALA762  ILE779  LEU786  VAL792 
 PHE793  MET794  SER795  GLU796  ALA797  LYS798  CYS799  TRP800  GLU811  SER814 

> <Gold.Protein.RotatedAtoms>
  151.6219  133.3338  159.3089 H   0  0  0  0  0  0  0  0  0  0  0  0  # atno 6907 bound_to 6896
  150.8101  134.7255  159.6692 H   0  0  0  0  0  0  0  0  0  0  0  0  # atno 6908 bound_to 6896
  152.4198  134.5981  160.0044 H   0  0  0  0  0  0  0  0  0  0  0  0  # atno 6909 bound_to 6896
  145.2149  140.9111  143.3293 H   0  0  0  0  0  0  0  0  0  0  0  0  # atno 7974 bound_to 7965
  154.4159  140.1719  156.1835 H   0  0  0  0  0  0  0  0  0  0  0  0  # atno 8008 bound_to 7997
  155.9662  140.3389  155.6511 H   0  0  0  0  0  0  0  0  0  0  0  0  # atno 8009 bound_to 7997
  155.6684  140.0709  157.2519 H   0  0  0  0  0  0  0  0  0  0  0  0  # atno 8010 bound_to 7997
  140.6122  143.2391  151.5683 H   0  0  0  0  0  0  0  0  0  0  0  0  # atno 10167 bound_to 10162
  157.6851  131.0701  150.5116 H   0  0  0  0  0  0  0  0  0  0  0  0  # atno 10718 bound_to 10713
  154.5966  135.2850  155.0580 H   0  0  0  0  0  0  0  0  0  0  0  0  # atno 10763 bound_to 10752
  154.1860  135.6449  153.5051 H   0  0  0  0  0  0  0  0  0  0  0  0  # atno 10764 bound_to 10752
  153.0141  135.5435  154.6670 H   0  0  0  0  0  0  0  0  0  0  0  0  # atno 10765 bound_to 10752
  140.3773  134.1958  155.7664 H   0  0  0  0  0  0  0  0  0  0  0  0  # atno 11005 bound_to 11000
  144.9820  139.3773  143.6257 LP  0  0  0  0  0  0  0  0  0  0  0  0  # atno 17320 bound_to 7965
  146.3389  139.8966  142.8801 LP  0  0  0  0  0  0  0  0  0  0  0  0  # atno 17321 bound_to 7965
  139.5370  144.2754  152.1272 LP  0  0  0  0  0  0  0  0  0  0  0  0  # atno 17342 bound_to 10162
  140.1955  144.4709  150.6457 LP  0  0  0  0  0  0  0  0  0  0  0  0  # atno 17343 bound_to 10162
  156.5433  130.4213  149.6143 LP  0  0  0  0  0  0  0  0  0  0  0  0  # atno 17370 bound_to 10713
  156.2966  130.7153  151.2015 LP  0  0  0  0  0  0  0  0  0  0  0  0  # atno 17371 bound_to 10713
  141.1935  133.8149  157.0796 LP  0  0  0  0  0  0  0  0  0  0  0  0  # atno 17394 bound_to 11000
  140.0505  134.9808  157.1128 LP  0  0  0  0  0  0  0  0  0  0  0  0  # atno 17395 bound_to 11000

$$$$
