AV-unprocessed.smi:1686|AV-procd|sdf|6758|dock5
  -GOLD-   22720 7513D 1   1.00000     0.00000
 Structure written by MMmdl.
 41 43  0  0  0  0  0  0  0  0  1 V2000
  148.7113  136.6466  157.8850 C   0  0  0  0  0  0  0  0  0  0  0  0
  150.1250  136.5517  157.3878 C   0  0  0  0  0  0  0  0  0  0  0  0
  150.3939  135.7670  156.3525 N   0  0  0  0  0  0  0  0  0  0  0  0
  151.7675  135.8875  156.1124 O   0  0  0  0  0  0  0  0  0  0  0  0
  152.2563  136.7501  157.0326 C   0  0  0  0  0  0  0  0  0  0  0  0
  153.9170  137.1907  157.0903 Cl  0  0  0  0  0  0  0  0  0  0  0  0
  151.2898  137.2121  157.8788 C   0  0  0  0  0  0  0  0  0  0  0  0
  151.4102  138.1781  159.0330 C   0  0  0  0  0  0  0  0  0  0  0  0
  152.2151  139.4263  158.6512 C   0  0  0  0  0  0  0  0  0  0  0  0
  152.7299  139.5387  157.5374 O   0  0  0  0  0  0  0  0  0  0  0  0
  152.3028  140.3685  159.6030 N   0  0  0  0  0  0  0  0  0  0  0  0
  152.9933  141.6528  159.4884 C   0  0  2  0  0  0  0  0  0  0  0  0
  154.2044  141.6442  160.4335 C   0  0  0  0  0  0  0  0  0  0  0  0
  152.0063  142.8045  159.7992 C   0  0  2  0  0  0  0  0  0  0  0  0
  150.7666  142.8716  158.8765 C   0  0  0  0  0  0  0  0  0  0  0  0
  150.7291  144.3510  158.4514 C   0  0  2  0  0  0  0  0  0  0  0  0
  151.8515  144.6065  157.4291 C   0  0  0  0  0  0  0  0  0  0  0  0
  153.1189  144.5624  158.3018 C   0  0  0  0  0  0  0  0  0  0  0  0
  152.5585  144.2490  159.7046 C   0  0  1  0  0  0  0  0  0  0  0  0
  151.2649  145.0576  159.6912 C   0  0  0  0  0  0  0  0  0  0  0  0
  148.6012  137.4370  158.6274 H   0  0  0  0  0  0  0  0  0  0  0  0
  148.3955  135.7108  158.3462 H   0  0  0  0  0  0  0  0  0  0  0  0
  148.0218  136.8664  157.0696 H   0  0  0  0  0  0  0  0  0  0  0  0
  150.4261  138.4956  159.3790 H   0  0  0  0  0  0  0  0  0  0  0  0
  151.8919  137.7066  159.8902 H   0  0  0  0  0  0  0  0  0  0  0  0
  151.8458  140.1836  160.4842 H   0  0  0  0  0  0  0  0  0  0  0  0
  153.3709  141.7695  158.4725 H   0  0  0  0  0  0  0  0  0  0  0  0
  154.7917  142.5571  160.3342 H   0  0  0  0  0  0  0  0  0  0  0  0
  154.8681  140.8079  160.2115 H   0  0  0  0  0  0  0  0  0  0  0  0
  153.8956  141.5576  161.4758 H   0  0  0  0  0  0  0  0  0  0  0  0
  151.6519  142.6633  160.8224 H   0  0  0  0  0  0  0  0  0  0  0  0
  150.8383  142.2114  158.0115 H   0  0  0  0  0  0  0  0  0  0  0  0
  149.8659  142.5967  159.4264 H   0  0  0  0  0  0  0  0  0  0  0  0
  149.7471  144.6853  158.1150 H   0  0  0  0  0  0  0  0  0  0  0  0
  151.8669  143.8591  156.6351 H   0  0  0  0  0  0  0  0  0  0  0  0
  151.7401  145.5865  156.9634 H   0  0  0  0  0  0  0  0  0  0  0  0
  153.8495  143.8342  157.9524 H   0  0  0  0  0  0  0  0  0  0  0  0
  153.6101  145.5362  158.2996 H   0  0  0  0  0  0  0  0  0  0  0  0
  153.2402  144.5099  160.5146 H   0  0  0  0  0  0  0  0  0  0  0  0
  151.4225  146.1278  159.5448 H   0  0  0  0  0  0  0  0  0  0  0  0
  150.6462  144.9056  160.5775 H   0  0  0  0  0  0  0  0  0  0  0  0
  1  2  1  0  0  0  0
  1 21  1  0  0  0  0
  1 22  1  0  0  0  0
  1 23  1  0  0  0  0
  2  7  1  0  0  0  0
  2  3  2  0  0  0  0
  3  4  1  0  0  0  0
  4  5  1  0  0  0  0
  5  6  1  0  0  0  0
  5  7  2  0  0  0  0
  7  8  1  0  0  0  0
  8  9  1  0  0  0  0
  8 24  1  0  0  0  0
  8 25  1  0  0  0  0
  9 10  2  0  0  0  0
  9 11  1  0  0  0  0
 11 12  1  0  0  0  0
 11 26  1  0  0  0  0
 12 13  1  0  0  0  0
 12 14  1  0  0  0  0
 12 27  1  0  0  0  0
 13 28  1  0  0  0  0
 13 29  1  0  0  0  0
 13 30  1  0  0  0  0
 14 19  1  0  0  0  0
 14 15  1  0  0  0  0
 14 31  1  0  0  0  0
 15 16  1  0  0  0  0
 15 32  1  0  0  0  0
 15 33  1  0  0  0  0
 16 20  1  0  0  0  0
 16 17  1  0  0  0  0
 16 34  1  0  0  0  0
 17 18  1  0  0  0  0
 17 35  1  0  0  0  0
 17 36  1  0  0  0  0
 18 19  1  0  0  0  0
 18 37  1  0  0  0  0
 18 38  1  0  0  0  0
 19 20  1  0  0  0  0
 19 39  1  0  0  0  0
 20 40  1  0  0  0  0
 20 41  1  0  0  0  0
M  END
> <s_m_source_file>
AV-unprocessed.smi

> <i_m_source_file_index>
1686

> <i_lp_mmshare_version>
43012

> <i_f3d_flags>
0

> <s_epik_input>
W0NIM11jMW5vYyhDbCljMVtDSDJdQyg9TylbTkhdW0NASF0oW0NIM10pW0NASF0oW0NIMl1bQ0BIXTIzKVtDQEhdKFtDSDJdMylbQ0gyXVtDSDJdMg==

> <s_epik_cmdline>
J2VwaWtfcHl0aG9uJywgJy1waCcsICc3LjAnLCAnLXRuJywgJzgnLCAnLW1hJywgJzIwMCcsICctbWV0YWxfYmluZGluZycsICctaW1hZScsICc8aW5maWxlLm1hZT4nLCAnLW9tYWUnLCAnPG91dGZpbGUubWFlPic=

> <r_lp_tautomer_probability>
1

> <r_epik_Ionization_Penalty>
2.01576e-08

> <r_epik_Ionization_Penalty_Charging>
0

> <r_epik_Ionization_Penalty_Neutral>
2.01576e-08

> <r_epik_State_Penalty>
-0

> <r_epik_Charging_Adjusted_Penalty>
0

> <i_epik_Tot_Q>
0

> <i_epik_Tot_abs_Q>
0

> <r_epik_Metal_State_Penalty>
-0

> <b_epik_Metal_Only>
0

> <s_lp_Force_Field>
OPLS_2005

> <r_lp_Energy>
47.064

> <b_lp_Chiralities_Consistent>
1

> <s_lp_Variant>
AV-unprocessed.smi:1686-1

> <Gold.Version>
5.8.1

> <Gold.Id.Protein>
6NUR|6NUR_protein|mol2

> <Gold.PLP.Fitness>
42.9100

> <Gold.PLP.PLP>
-37.2591

> <Gold.PLP.part.hbond>
-2.0000

> <Gold.PLP.part.metal>
0.0000

> <Gold.PLP.part.buried>
-5.8192

> <Gold.PLP.part.nonpolar>
-29.7519

> <Gold.PLP.part.repulsive>
0.1528

> <Gold.PLP.ligand.clash>
0.0000

> <Gold.PLP.ligand.torsion>
0.1830

> <Gold.PLP.Chemscore.Hbond>
2.0000

> <Gold.PLP.Chemscore.CHOScore>
0.0000

> <Gold.PLP.Chemscore.Metal>
0.0000

> <Gold.Chemscore.Hbonds>
donor molecule, donor type, donor heavy atom, donor atom, acceptor molecule, acceptor atom, score
      P1  H  7997  8009       L1    10  1.00
      P1  H 10752 10765       L1     4  1.00

> <Gold.PLP.Chemscore.Internal.Correction>
0.0169

> <Gold.Rescore>
     Score         DG    S(hbond)    S(metal)    S(lipo)     H(rot)  DE(clash)    DE(int)     intcor
     21.52     -21.99       1.85        0.00     120.42       1.46       0.37       0.10       ----

> <Gold.Chemscore.Fitness>
21.5186

> <Gold.Chemscore.DG>
-21.9918

> <Gold.Chemscore.ZeroCoef>
-5.4800

> <Gold.Chemscore.Hbond>
1.8479

> <Gold.Chemscore.Metal>
0.0000

> <Gold.Chemscore.Lipo>
120.4246

> <Gold.Chemscore.Internal_Hbond>
0.0000

> <Gold.Chemscore.DEClash>
0.3724

> <Gold.Chemscore.DEInternal>
0.1008

> <Gold.Chemscore.Rot>
1.4648

> <Gold.Chemscore.Internal.Correction>
   9.000000E+99

> <Gold.Chemscore.Hbonds>
donor molecule, donor type, donor heavy atom, donor atom, acceptor molecule, acceptor atom, score
      P1  H  7997  8009       L1    10  0.99
      P1  H 10752 10765       L1     4  0.60

> <Gold.Chemscore.Hbond.Weighted>
-6.1721

> <Gold.Chemscore.Metal.Weighted>
-0.0000

> <Gold.Chemscore.Lipo.Weighted>
-14.0897

> <Gold.Chemscore.Internal_Hbond.Weighted>
0.0000

> <Gold.Chemscore.DEClash.Weighted>
0.3724

> <Gold.Chemscore.DEInternal.Weighted>
0.1008

> <Gold.Chemscore.Rot.Weighted>
3.7500

> <Gold.Chemscore.Internal.Correction.Weighted>
   9.000000E+99

> <Gold.Protein.RotatedTorsions>
[ 6907 6896 6895 6894 ] final  -26.35 input  -60.11 | X-H torsion
[ 7974 7965 7964 7962 ] final   82.03 input  175.53 | X-H torsion
[ 8008 7997 7996 7995 ] final  165.91 input   59.86 | X-H torsion
[ 10167 10162 10161 10158 ] final -173.38 input  -65.29 | X-H torsion
[ 10718 10713 10712 10709 ] final  -15.94 input   66.30 | X-H torsion
[ 10763 10752 10751 10750 ] final -153.26 input  -60.55 | X-H torsion
[ 11005 11000 10999 10996 ] final  143.50 input  -57.11 | X-H torsion

> <Gold.Protein.ActiveResidues>
 VAL166  LYS551  ARG553  GLY616  TRP617  ASP618  TYR619  PRO620  LYS621  CYS622 
 ASP623  PHE694  ASN695  SER759  ASP760  ASP761  ALA762  ILE779  LEU786  VAL792 
 PHE793  MET794  SER795  GLU796  ALA797  LYS798  CYS799  TRP800  GLU811  SER814 

> <Gold.Protein.RotatedAtoms>
  151.1622  135.0279  159.8715 H   0  0  0  0  0  0  0  0  0  0  0  0  # atno 6907 bound_to 6896
  152.5451  134.1266  159.8431 H   0  0  0  0  0  0  0  0  0  0  0  0  # atno 6908 bound_to 6896
  151.1362  133.4956  159.2630 H   0  0  0  0  0  0  0  0  0  0  0  0  # atno 6909 bound_to 6896
  145.6304  139.2404  143.2087 H   0  0  0  0  0  0  0  0  0  0  0  0  # atno 7974 bound_to 7965
  156.1762  140.1657  156.8359 H   0  0  0  0  0  0  0  0  0  0  0  0  # atno 8008 bound_to 7997
  154.5309  140.0757  156.8377 H   0  0  0  0  0  0  0  0  0  0  0  0  # atno 8009 bound_to 7997
  155.3409  140.3384  155.4241 H   0  0  0  0  0  0  0  0  0  0  0  0  # atno 8010 bound_to 7997
  139.5691  144.1683  152.1358 H   0  0  0  0  0  0  0  0  0  0  0  0  # atno 10167 bound_to 10162
  156.5947  130.4808  149.6264 H   0  0  0  0  0  0  0  0  0  0  0  0  # atno 10718 bound_to 10713
  154.7939  135.3217  154.7712 H   0  0  0  0  0  0  0  0  0  0  0  0  # atno 10763 bound_to 10752
  153.8395  135.6872  153.4809 H   0  0  0  0  0  0  0  0  0  0  0  0  # atno 10764 bound_to 10752
  153.1622  135.4656  154.9729 H   0  0  0  0  0  0  0  0  0  0  0  0  # atno 10765 bound_to 10752
  140.0559  134.9231  157.1099 H   0  0  0  0  0  0  0  0  0  0  0  0  # atno 11005 bound_to 11000
  146.1361  140.7121  142.9389 LP  0  0  0  0  0  0  0  0  0  0  0  0  # atno 17320 bound_to 7965
  144.7196  140.4327  143.7018 LP  0  0  0  0  0  0  0  0  0  0  0  0  # atno 17321 bound_to 7965
  140.1212  144.5371  150.6861 LP  0  0  0  0  0  0  0  0  0  0  0  0  # atno 17342 bound_to 10162
  140.6976  143.2413  151.4957 LP  0  0  0  0  0  0  0  0  0  0  0  0  # atno 17343 bound_to 10162
  156.2520  130.6912  151.1653 LP  0  0  0  0  0  0  0  0  0  0  0  0  # atno 17370 bound_to 10713
  157.7295  131.0624  150.5772 LP  0  0  0  0  0  0  0  0  0  0  0  0  # atno 17371 bound_to 10713
  140.3845  134.2251  155.7169 LP  0  0  0  0  0  0  0  0  0  0  0  0  # atno 17394 bound_to 11000
  141.1951  133.8112  157.0727 LP  0  0  0  0  0  0  0  0  0  0  0  0  # atno 17395 bound_to 11000

$$$$
