AV-unprocessed.smi:3248|AV-procd|sdf|12414|dock4
  -GOLD-   2272018293D 1   1.00000     0.00000
 Structure written by MMmdl.
 38 39  0  0  0  0  0  0  0  0  1 V2000
  149.0908  141.9700  157.4374 C   0  0  0  0  0  0  0  0  0  0  0  0
  150.4334  141.2301  157.5045 C   0  0  1  0  0  0  0  0  0  0  0  0
  151.0613  141.0781  156.1020 C   0  0  0  0  0  0  0  0  0  0  0  0
  150.7837  139.7871  155.4968 N   0  0  0  0  0  0  0  0  0  0  0  0
  150.9327  138.5317  156.0483 C   0  0  0  0  0  0  0  0  0  0  0  0
  150.5288  137.6254  155.1106 C   0  0  0  0  0  0  0  0  0  0  0  0
  150.1497  138.4330  154.0022 C   0  0  0  0  0  0  0  0  0  0  0  0
  150.3086  139.7260  154.2342 N   0  0  0  0  0  0  0  0  0  0  0  0
  151.3313  141.9600  158.3987 N   0  0  0  0  0  0  0  0  0  0  0  0
  152.1078  141.4162  159.3522 C   0  0  0  0  0  0  0  0  0  0  0  0
  152.1509  140.2046  159.5646 O   0  0  0  0  0  0  0  0  0  0  0  0
  152.9333  142.3166  159.9374 N   0  0  0  0  0  0  0  0  0  0  0  0
  152.4850  143.6941  160.1845 C   0  0  0  0  0  0  0  0  0  0  0  0
  151.9386  143.7766  161.6236 C   0  0  0  0  0  0  0  0  0  0  0  0
  152.9460  143.3765  162.5504 O   0  0  0  0  0  0  0  0  0  0  0  0
  153.4450  142.0614  162.3134 C   0  0  0  0  0  0  0  0  0  0  0  0
  154.0162  141.9848  160.8833 C   0  0  1  0  0  0  0  0  0  0  0  0
  154.7560  140.6593  160.6039 C   0  0  0  0  0  0  0  0  0  0  0  0
  148.3822  141.4383  156.8018 H   0  0  0  0  0  0  0  0  0  0  0  0
  149.2105  142.9757  157.0332 H   0  0  0  0  0  0  0  0  0  0  0  0
  148.6409  142.0589  158.4270 H   0  0  0  0  0  0  0  0  0  0  0  0
  150.2323  140.2368  157.9102 H   0  0  0  0  0  0  0  0  0  0  0  0
  150.6797  141.8514  155.4340 H   0  0  0  0  0  0  0  0  0  0  0  0
  152.1425  141.2165  156.1499 H   0  0  0  0  0  0  0  0  0  0  0  0
  151.3004  138.3902  157.0538 H   0  0  0  0  0  0  0  0  0  0  0  0
  150.5049  136.5498  155.2032 H   0  0  0  0  0  0  0  0  0  0  0  0
  149.7673  138.1203  153.0419 H   0  0  0  0  0  0  0  0  0  0  0  0
  151.3923  142.9582  158.2608 H   0  0  0  0  0  0  0  0  0  0  0  0
  153.3212  144.3832  160.0569 H   0  0  0  0  0  0  0  0  0  0  0  0
  151.7175  144.0254  159.4839 H   0  0  0  0  0  0  0  0  0  0  0  0
  151.6335  144.7975  161.8537 H   0  0  0  0  0  0  0  0  0  0  0  0
  151.0562  143.1455  161.7417 H   0  0  0  0  0  0  0  0  0  0  0  0
  154.2230  141.8493  163.0472 H   0  0  0  0  0  0  0  0  0  0  0  0
  152.6532  141.3259  162.4638 H   0  0  0  0  0  0  0  0  0  0  0  0
  154.7735  142.7647  160.7856 H   0  0  0  0  0  0  0  0  0  0  0  0
  155.6547  140.5888  161.2168 H   0  0  0  0  0  0  0  0  0  0  0  0
  155.0686  140.5922  159.5615 H   0  0  0  0  0  0  0  0  0  0  0  0
  154.1497  139.7842  160.8353 H   0  0  0  0  0  0  0  0  0  0  0  0
  1  2  1  0  0  0  0
  1 19  1  0  0  0  0
  1 20  1  0  0  0  0
  1 21  1  0  0  0  0
  2  3  1  0  0  0  0
  2  9  1  0  0  0  0
  2 22  1  0  0  0  0
  3  4  1  0  0  0  0
  3 23  1  0  0  0  0
  3 24  1  0  0  0  0
  4  8  1  0  0  0  0
  4  5  1  0  0  0  0
  5  6  2  0  0  0  0
  5 25  1  0  0  0  0
  6  7  1  0  0  0  0
  6 26  1  0  0  0  0
  7  8  2  0  0  0  0
  7 27  1  0  0  0  0
  9 10  1  0  0  0  0
  9 28  1  0  0  0  0
 10 11  2  0  0  0  0
 10 12  1  0  0  0  0
 12 17  1  0  0  0  0
 12 13  1  0  0  0  0
 13 14  1  0  0  0  0
 13 29  1  0  0  0  0
 13 30  1  0  0  0  0
 14 15  1  0  0  0  0
 14 31  1  0  0  0  0
 14 32  1  0  0  0  0
 15 16  1  0  0  0  0
 16 17  1  0  0  0  0
 16 33  1  0  0  0  0
 16 34  1  0  0  0  0
 17 18  1  0  0  0  0
 17 35  1  0  0  0  0
 18 36  1  0  0  0  0
 18 37  1  0  0  0  0
 18 38  1  0  0  0  0
M  END
> <s_m_source_file>
AV-unprocessed.smi

> <i_m_source_file_index>
3248

> <i_lp_mmshare_version>
43012

> <i_f3d_flags>
0

> <s_epik_input>
bjFbY0hdW2NIXVtjSF1uMVtDSDJdW0NAQEhdKFtDSDNdKVtOSF1DKD1PKU4yW0NIMl1bQ0gyXU9bQ0gyXVtDQEhdMltDSDNd

> <s_epik_cmdline>
J2VwaWtfcHl0aG9uJywgJy1waCcsICc3LjAnLCAnLXRuJywgJzgnLCAnLW1hJywgJzIwMCcsICctbWV0YWxfYmluZGluZycsICctaW1hZScsICc8aW5maWxlLm1hZT4nLCAnLW9tYWUnLCAnPG91dGZpbGUubWFlPic=

> <r_lp_tautomer_probability>
1

> <r_epik_Ionization_Penalty>
4.45233e-05

> <r_epik_Ionization_Penalty_Charging>
0

> <r_epik_Ionization_Penalty_Neutral>
4.45233e-05

> <r_epik_State_Penalty>
-0

> <r_epik_Charging_Adjusted_Penalty>
0

> <i_epik_Tot_Q>
0

> <i_epik_Tot_abs_Q>
0

> <r_epik_Metal_State_Penalty>
-0

> <b_epik_Metal_Only>
0

> <s_lp_Force_Field>
OPLS_2005

> <r_lp_Energy>
31.1231

> <b_lp_Chiralities_Consistent>
1

> <s_lp_Variant>
AV-unprocessed.smi:3248-2

> <Gold.Version>
5.8.1

> <Gold.Id.Protein>
6NUR|6NUR_protein|mol2

> <Gold.PLP.Fitness>
43.2297

> <Gold.PLP.PLP>
-37.1816

> <Gold.PLP.part.hbond>
-1.0000

> <Gold.PLP.part.metal>
0.0000

> <Gold.PLP.part.buried>
-2.1264

> <Gold.PLP.part.nonpolar>
-33.4351

> <Gold.PLP.part.repulsive>
0.6676

> <Gold.PLP.ligand.clash>
0.2313

> <Gold.PLP.ligand.torsion>
1.0694

> <Gold.PLP.Chemscore.Hbond>
0.8500

> <Gold.PLP.Chemscore.CHOScore>
1.7804

> <Gold.PLP.Chemscore.Metal>
0.0000

> <Gold.Chemscore.Hbonds>
donor molecule, donor type, donor heavy atom, donor atom, acceptor molecule, acceptor atom, score
      P1  H  7989  7998       L1     8  0.80
      L1  C     7    27       P1  7948  1.00
      L1  C     7    27       P1  7957  0.47

> <Gold.PLP.Chemscore.Internal.Correction>
0.5271

> <Gold.Rescore>
     Score         DG    S(hbond)    S(metal)    S(lipo)     H(rot)  DE(clash)    DE(int)     intcor
     12.07     -14.62       0.69        0.00      89.51       1.42       0.14       2.41       ----

> <Gold.Chemscore.Fitness>
12.0739

> <Gold.Chemscore.DG>
-14.6245

> <Gold.Chemscore.ZeroCoef>
-5.4800

> <Gold.Chemscore.Hbond>
0.6902

> <Gold.Chemscore.Metal>
0.0000

> <Gold.Chemscore.Lipo>
89.5068

> <Gold.Chemscore.Internal_Hbond>
0.0000

> <Gold.Chemscore.DEClash>
0.1386

> <Gold.Chemscore.DEInternal>
2.4120

> <Gold.Chemscore.Rot>
1.4191

> <Gold.Chemscore.Internal.Correction>
   9.000000E+99

> <Gold.Chemscore.Hbonds>
donor molecule, donor type, donor heavy atom, donor atom, acceptor molecule, acceptor atom, score
      P1  H  7989  7998       L1     8  0.12

> <Gold.Chemscore.Hbond.Weighted>
-2.3052

> <Gold.Chemscore.Metal.Weighted>
-0.0000

> <Gold.Chemscore.Lipo.Weighted>
-10.4723

> <Gold.Chemscore.Internal_Hbond.Weighted>
0.0000

> <Gold.Chemscore.DEClash.Weighted>
0.1386

> <Gold.Chemscore.DEInternal.Weighted>
2.4120

> <Gold.Chemscore.Rot.Weighted>
3.6330

> <Gold.Chemscore.Internal.Correction.Weighted>
   9.000000E+99

> <Gold.Protein.RotatedTorsions>
[ 6907 6896 6895 6894 ] final   19.23 input  -60.11 | X-H torsion
[ 7974 7965 7964 7962 ] final -106.03 input  175.53 | X-H torsion
[ 8008 7997 7996 7995 ] final  -69.12 input   59.86 | X-H torsion
[ 10167 10162 10161 10158 ] final  134.15 input  -65.29 | X-H torsion
[ 10718 10713 10712 10709 ] final   90.81 input   66.30 | X-H torsion
[ 10763 10752 10751 10750 ] final   93.77 input  -60.55 | X-H torsion
[ 11005 11000 10999 10996 ] final  -96.89 input  -57.11 | X-H torsion

> <Gold.Protein.ActiveResidues>
 VAL166  LYS551  ARG553  GLY616  TRP617  ASP618  TYR619  PRO620  LYS621  CYS622 
 ASP623  PHE694  ASN695  SER759  ASP760  ASP761  ALA762  ILE779  LEU786  VAL792 
 PHE793  MET794  SER795  GLU796  ALA797  LYS798  CYS799  TRP800  GLU811  SER814 

> <Gold.Protein.RotatedAtoms>
  151.8776  135.0466  160.0485 H   0  0  0  0  0  0  0  0  0  0  0  0  # atno 6907 bound_to 6896
  152.2538  133.5233  159.5349 H   0  0  0  0  0  0  0  0  0  0  0  0  # atno 6908 bound_to 6896
  150.7093  134.0840  159.3950 H   0  0  0  0  0  0  0  0  0  0  0  0  # atno 6909 bound_to 6896
  145.2230  140.9141  143.3248 H   0  0  0  0  0  0  0  0  0  0  0  0  # atno 7974 bound_to 7965
  154.4916  140.0859  156.7606 H   0  0  0  0  0  0  0  0  0  0  0  0  # atno 8008 bound_to 7997
  155.4217  140.3446  155.4254 H   0  0  0  0  0  0  0  0  0  0  0  0  # atno 8009 bound_to 7997
  156.1337  140.1509  156.9014 H   0  0  0  0  0  0  0  0  0  0  0  0  # atno 8010 bound_to 7997
  139.5267  144.6581  151.5099 H   0  0  0  0  0  0  0  0  0  0  0  0  # atno 10167 bound_to 10162
  157.6959  131.0384  150.3633 H   0  0  0  0  0  0  0  0  0  0  0  0  # atno 10718 bound_to 10713
  153.2340  135.4313  155.0626 H   0  0  0  0  0  0  0  0  0  0  0  0  # atno 10763 bound_to 10752
  154.8310  135.3386  154.6745 H   0  0  0  0  0  0  0  0  0  0  0  0  # atno 10764 bound_to 10752
  153.7171  135.7019  153.5078 H   0  0  0  0  0  0  0  0  0  0  0  0  # atno 10765 bound_to 10752
  141.1397  133.8130  157.0632 H   0  0  0  0  0  0  0  0  0  0  0  0  # atno 11005 bound_to 11000
  144.9747  139.3844  143.6291 LP  0  0  0  0  0  0  0  0  0  0  0  0  # atno 17320 bound_to 7965
  146.3371  139.8861  142.8816 LP  0  0  0  0  0  0  0  0  0  0  0  0  # atno 17321 bound_to 7965
  140.6416  143.8877  150.6697 LP  0  0  0  0  0  0  0  0  0  0  0  0  # atno 17342 bound_to 10162
  140.2214  143.3806  152.1640 LP  0  0  0  0  0  0  0  0  0  0  0  0  # atno 17343 bound_to 10162
  156.4067  130.3926  149.6921 LP  0  0  0  0  0  0  0  0  0  0  0  0  # atno 17370 bound_to 10713
  156.4219  130.7773  151.2790 LP  0  0  0  0  0  0  0  0  0  0  0  0  # atno 17371 bound_to 10713
  140.0558  134.9781  157.1218 LP  0  0  0  0  0  0  0  0  0  0  0  0  # atno 17394 bound_to 11000
  140.3921  134.2173  155.7166 LP  0  0  0  0  0  0  0  0  0  0  0  0  # atno 17395 bound_to 11000

$$$$
