AV-unprocessed.smi:157|AV-procd|sdf|1309|dock7
  -GOLD-   2262019 03D 1   1.00000     0.00000
 Structure written by MMmdl.
 36 38  0  0  0  0  0  0  0  0  2 V2000
  155.7189  138.7118  158.1632 O   0  0  0  0  0  0  0  0  0  0  0  0
  154.6206  137.8254  158.1605 C   0  0  0  0  0  0  0  0  0  0  0  0
  153.3138  138.6148  158.3254 C   0  0  1  0  0  0  0  0  0  0  0  0
  153.1067  139.4493  157.1891 O   0  0  0  0  0  0  0  0  0  0  0  0
  151.7413  139.6850  157.0064 C   0  0  2  0  0  0  0  0  0  0  0  0
  151.4468  141.1103  157.3538 N   0  0  0  0  0  0  0  0  0  0  0  0
  150.7512  141.9992  156.6120 C   0  0  0  0  0  0  0  0  0  0  0  0
  150.6461  143.1993  157.1568 N   0  3  0  0  0  0  0  0  0  0  0  0
  151.3144  143.1420  158.3614 C   0  0  0  0  0  0  0  0  0  0  0  0
  151.8131  141.8406  158.4605 C   0  0  0  0  0  0  0  0  0  0  0  0
  152.5775  141.2445  159.4752 N   0  0  0  0  0  0  0  0  0  0  0  0
  153.1859  141.9250  160.3918 C   0  0  0  0  0  0  0  0  0  0  0  0
  153.1588  143.2889  160.6313 N   0  0  0  0  0  0  0  0  0  0  0  0
  151.9349  144.0704  160.6451 C   0  0  0  0  0  0  0  0  0  0  0  0
  151.3656  144.3468  159.2476 C   0  0  1  0  0  0  0  0  0  0  0  0
  152.0868  145.4152  158.6698 O   0  0  0  0  0  0  0  0  0  0  0  0
  150.9860  138.7487  157.9550 C   0  0  0  0  0  0  0  0  0  0  0  0
  152.0587  137.7406  158.3150 C   0  0  2  0  0  0  0  0  0  0  0  0
  151.7992  137.1506  159.5722 O   0  0  0  0  0  0  0  0  0  0  0  0
  153.3301  139.2256  159.2305 H   0  0  0  0  0  0  0  0  0  0  0  0
  151.4694  139.5776  155.9556 H   0  0  0  0  0  0  0  0  0  0  0  0
  150.3441  144.7077  159.3729 H   0  0  0  0  0  0  0  0  0  0  0  0
  152.1283  136.9721  157.5435 H   0  0  0  0  0  0  0  0  0  0  0  0
  155.9380  138.9154  159.0598 H   0  0  0  0  0  0  0  0  0  0  0  0
  154.6134  137.2297  157.2474 H   0  0  0  0  0  0  0  0  0  0  0  0
  154.7526  137.1372  158.9959 H   0  0  0  0  0  0  0  0  0  0  0  0
  150.3173  141.7501  155.6603 H   0  0  0  0  0  0  0  0  0  0  0  0
  153.8176  141.3973  161.1078 H   0  0  0  0  0  0  0  0  0  0  0  0
  153.8576  143.6865  161.2430 H   0  0  0  0  0  0  0  0  0  0  0  0
  151.1973  143.5124  161.2241 H   0  0  0  0  0  0  0  0  0  0  0  0
  152.1018  145.0026  161.1859 H   0  0  0  0  0  0  0  0  0  0  0  0
  152.7114  145.7373  159.3012 H   0  0  0  0  0  0  0  0  0  0  0  0
  150.6549  139.3006  158.8372 H   0  0  0  0  0  0  0  0  0  0  0  0
  150.1166  138.3081  157.4660 H   0  0  0  0  0  0  0  0  0  0  0  0
  151.6121  137.8351  160.1962 H   0  0  0  0  0  0  0  0  0  0  0  0
  150.1616  143.9968  156.7648 H   0  0  0  0  0  0  0  0  0  0  0  0
  1  2  1  0  0  0  0
  1 24  1  0  0  0  0
  2  3  1  0  0  0  0
  2 25  1  0  0  0  0
  2 26  1  0  0  0  0
  3 20  1  0  0  0  0
  3 18  1  0  0  0  0
  3  4  1  0  0  0  0
  4  5  1  0  0  0  0
  5 21  1  0  0  0  0
  5  6  1  0  0  0  0
  5 17  1  0  0  0  0
  6 10  1  0  0  0  0
  6  7  1  0  0  0  0
  7  8  2  0  0  0  0
  7 27  1  0  0  0  0
  8  9  1  0  0  0  0
  8 36  1  0  0  0  0
  9 15  1  0  0  0  0
  9 10  2  0  0  0  0
 10 11  1  0  0  0  0
 11 12  2  0  0  0  0
 12 13  1  0  0  0  0
 12 28  1  0  0  0  0
 13 14  1  0  0  0  0
 13 29  1  0  0  0  0
 14 15  1  0  0  0  0
 14 30  1  0  0  0  0
 14 31  1  0  0  0  0
 15 22  1  0  0  0  0
 15 16  1  0  0  0  0
 16 32  1  0  0  0  0
 17 18  1  0  0  0  0
 17 33  1  0  0  0  0
 17 34  1  0  0  0  0
 18 23  1  0  0  0  0
 18 19  1  0  0  0  0
 19 35  1  0  0  0  0
M  CHG  1   8   1
M  END
> <s_m_source_file>
AV-unprocessed.smi

> <i_m_source_file_index>
157

> <i_lp_mmshare_version>
43012

> <i_f3d_flags>
0

> <s_epik_input>
W09IXVtDSDJdW0NASF0xT1tDQEhdKFtDSDJdW0NAQEhdMVtPSF0pbihbY0hdbjIpYyhjMjMpTj1bQ0hdW05IXVtDSDJdW0NASF0zW09IXQ==

> <s_epik_cmdline>
J2VwaWtfcHl0aG9uJywgJy1waCcsICc3LjAnLCAnLXRuJywgJzgnLCAnLW1hJywgJzIwMCcsICctbWV0YWxfYmluZGluZycsICctaW1hZScsICc8aW5maWxlLm1hZT4nLCAnLW9tYWUnLCAnPG91dGZpbGUubWFlPic=

> <r_epik_Ionization_Penalty>
1.68594

> <r_epik_Ionization_Penalty_Charging>
0

> <r_epik_Ionization_Penalty_Neutral>
1.68594

> <r_epik_State_Penalty>
1.79006

> <r_epik_Charging_Adjusted_Penalty>
1.79006

> <i_epik_Tot_Q>
1

> <i_epik_Tot_abs_Q>
1

> <r_epik_Metal_State_Penalty>
5.85324

> <b_epik_Metal_Only>
0

> <s_epik_Chemistry_Notes>
This compound has an imine and may undergo hydrolysis. This compound contains an acetal/aminal-like group ( X-CH(R)-Y where X, Y are N, S, or O) that may be acid/base labile, releasing an aldehyde.

> <s_lp_Force_Field>
OPLS_2005

> <r_lp_Energy>
51.4634

> <b_lp_Chiralities_Consistent>
1

> <s_lp_Variant>
AV-unprocessed.smi:157-19

> <Gold.Version>
5.8.1

> <Gold.Id.Protein>
6NUR|6NUR_protein|mol2

> <Gold.PLP.Fitness>
45.3398

> <Gold.PLP.PLP>
-31.5805

> <Gold.PLP.part.hbond>
-4.2035

> <Gold.PLP.part.metal>
0.0000

> <Gold.PLP.part.buried>
-6.0853

> <Gold.PLP.part.nonpolar>
-21.5565

> <Gold.PLP.part.repulsive>
0.0458

> <Gold.PLP.ligand.clash>
0.0000

> <Gold.PLP.ligand.torsion>
0.1856

> <Gold.PLP.Chemscore.Hbond>
4.7040

> <Gold.PLP.Chemscore.CHOScore>
0.0000

> <Gold.PLP.Chemscore.Metal>
0.0000

> <Gold.Chemscore.Hbonds>
donor molecule, donor type, donor heavy atom, donor atom, acceptor molecule, acceptor atom, score
      L1  H     8    36       P1  8028  2.00
      P1  H  6896  6908       L1    19  0.91
      P1  H  7997  8008       L1     4  1.00
      P1  H  7997  8010       L1     1  0.70

> <Gold.PLP.Chemscore.Internal.Correction>
0.0185

> <Gold.Rescore>
     Score         DG    S(hbond)    S(metal)    S(lipo)     H(rot)  DE(clash)    DE(int)     intcor
     11.59     -13.06       3.51        0.00      44.88       3.67       0.02       1.45       ----

> <Gold.Chemscore.Fitness>
11.5868

> <Gold.Chemscore.DG>
-13.0614

> <Gold.Chemscore.ZeroCoef>
-5.4800

> <Gold.Chemscore.Hbond>
3.5075

> <Gold.Chemscore.Metal>
0.0000

> <Gold.Chemscore.Lipo>
44.8810

> <Gold.Chemscore.Internal_Hbond>
0.0000

> <Gold.Chemscore.DEClash>
0.0234

> <Gold.Chemscore.DEInternal>
1.4512

> <Gold.Chemscore.Rot>
3.6659

> <Gold.Chemscore.Internal.Correction>
   9.000000E+99

> <Gold.Chemscore.Hbonds>
donor molecule, donor type, donor heavy atom, donor atom, acceptor molecule, acceptor atom, score
      L1  H     8    36       P1  8028  0.96
      P1  H  6896  6908       L1    19  0.85
      P1  H  7997  8008       L1     4  0.93
      P1  H  7997  8010       L1     1  0.55

> <Gold.Chemscore.Hbond.Weighted>
-11.7151

> <Gold.Chemscore.Metal.Weighted>
-0.0000

> <Gold.Chemscore.Lipo.Weighted>
-5.2511

> <Gold.Chemscore.Internal_Hbond.Weighted>
0.0000

> <Gold.Chemscore.DEClash.Weighted>
0.0234

> <Gold.Chemscore.DEInternal.Weighted>
1.4512

> <Gold.Chemscore.Rot.Weighted>
9.3848

> <Gold.Chemscore.Internal.Correction.Weighted>
   9.000000E+99

> <Gold.Protein.RotatedTorsions>
[ 6907 6896 6895 6894 ] final -132.52 input  -60.11 | X-H torsion
[ 7974 7965 7964 7962 ] final  163.94 input  175.53 | X-H torsion
[ 8008 7997 7996 7995 ] final  -48.06 input   59.86 | X-H torsion
[ 10167 10162 10161 10158 ] final  -35.79 input  -65.29 | X-H torsion
[ 10718 10713 10712 10709 ] final   50.12 input   66.30 | X-H torsion
[ 10763 10752 10751 10750 ] final   47.44 input  -60.55 | X-H torsion
[ 11005 11000 10999 10996 ] final -151.24 input  -57.11 | X-H torsion

> <Gold.Protein.ActiveResidues>
 VAL166  LYS551  ARG553  GLY616  TRP617  ASP618  TYR619  PRO620  LYS621  CYS622 
 ASP623  PHE694  ASN695  SER759  ASP760  ASP761  ALA762  ILE779  LEU786  VAL792 
 PHE793  MET794  SER795  GLU796  ALA797  LYS798  CYS799  TRP800  GLU811  SER814 

> <Gold.Protein.RotatedAtoms>
  150.9634  133.6421  159.2750 H   0  0  0  0  0  0  0  0  0  0  0  0  # atno 6907 bound_to 6896
  151.3735  135.0926  159.9483 H   0  0  0  0  0  0  0  0  0  0  0  0  # atno 6908 bound_to 6896
  152.5156  133.9183  159.7576 H   0  0  0  0  0  0  0  0  0  0  0  0  # atno 6909 bound_to 6896
  144.7567  139.8254  143.6347 H   0  0  0  0  0  0  0  0  0  0  0  0  # atno 7974 bound_to 7965
  154.4024  140.1331  156.4277 H   0  0  0  0  0  0  0  0  0  0  0  0  # atno 8008 bound_to 7997
  155.7581  140.3486  155.5164 H   0  0  0  0  0  0  0  0  0  0  0  0  # atno 8009 bound_to 7997
  155.8885  140.0999  157.1425 H   0  0  0  0  0  0  0  0  0  0  0  0  # atno 8010 bound_to 7997
  140.7157  143.3453  151.2270 H   0  0  0  0  0  0  0  0  0  0  0  0  # atno 10167 bound_to 10162
  157.4853  130.8341  149.8140 H   0  0  0  0  0  0  0  0  0  0  0  0  # atno 10718 bound_to 10713
  152.9800  135.5976  154.3763 H   0  0  0  0  0  0  0  0  0  0  0  0  # atno 10763 bound_to 10752
  154.3432  135.2767  155.2413 H   0  0  0  0  0  0  0  0  0  0  0  0  # atno 10764 bound_to 10752
  154.4486  135.5995  153.6231 H   0  0  0  0  0  0  0  0  0  0  0  0  # atno 10765 bound_to 10752
  140.7317  134.3614  157.5165 H   0  0  0  0  0  0  0  0  0  0  0  0  # atno 11005 bound_to 11000
  146.1585  139.4691  143.0003 LP  0  0  0  0  0  0  0  0  0  0  0  0  # atno 17320 bound_to 7965
  145.6755  141.0205  143.1634 LP  0  0  0  0  0  0  0  0  0  0  0  0  # atno 17321 bound_to 7965
  139.6971  143.9595  152.2888 LP  0  0  0  0  0  0  0  0  0  0  0  0  # atno 17342 bound_to 10162
  139.9276  144.6761  150.8396 LP  0  0  0  0  0  0  0  0  0  0  0  0  # atno 17343 bound_to 10162
  156.0144  130.3820  150.2160 LP  0  0  0  0  0  0  0  0  0  0  0  0  # atno 17370 bound_to 10713
  157.0347  131.0017  151.3301 LP  0  0  0  0  0  0  0  0  0  0  0  0  # atno 17371 bound_to 10713
  139.8825  134.9023  156.2829 LP  0  0  0  0  0  0  0  0  0  0  0  0  # atno 17394 bound_to 11000
  140.9915  133.7206  156.0821 LP  0  0  0  0  0  0  0  0  0  0  0  0  # atno 17395 bound_to 11000

$$$$
