#       Name:                AV-unprocessed.smi:2561
#       Creating user name   scv26
#       Creation time:       Fri Mar 27 14:08:48 2020


#       File generated by GOLD software.
#

@<TRIPOS>MOLECULE
AV-unprocessed.smi:2561
    36    37     1
SMALL
NO_CHARGES


@<TRIPOS>ATOM
      1 ****        -6.2377   1.5964   0.0952 C.3            1 S1                 0.0000
      2 ****        -5.1069   0.6809   0.1133 N.am           1 S1                 0.0000
      3 ****        -3.8252   1.0695   0.1125 C.2            1 S1                 0.0000
      4 ****        -3.4757   2.2495   0.0945 O.2            1 S1                 0.0000
      5 ****        -2.9946   0.0123   0.1154 N.am           1 S1                 0.0000
      6 ****        -1.5733   0.0060   0.1092 C.ar           1 S1                 0.0000
      7 ****        -0.9218  -1.1750  -0.3072 C.ar           1 S1                 0.0000
      8 ****         0.4870  -1.2310  -0.3193 C.ar           1 S1                 0.0000
      9 ****         1.2296  -0.1019   0.0983 C.ar           1 S1                 0.0000
     10 ****         2.6306  -0.0529   0.1233 N.3            1 S1                 0.0000
     11 ****         3.2697  -1.0561   0.9587 C.3            1 S1                 0.0000
     12 ****         4.7351  -1.0839   0.5164 C.3            1 S1                 0.0000
     13 ****         4.7304  -0.4951  -0.8995 C.3            1 S1                 0.0000
     14 ****         3.2635  -0.1580  -1.1806 C.3            1 S1                 0.0000
     15 ****         0.5694   1.0053   0.5014 N.pl3          1 S1                 1.0000
     16 ****        -0.7778   1.1011   0.5266 C.ar           1 S1                 0.0000
     17 ****        -7.1713   1.0340   0.1092 H              1 S1                 0.0000
     18 ****        -6.2242   2.2132  -0.8044 H              1 S1                 0.0000
     19 ****        -6.2210   2.2517   0.9670 H              1 S1                 0.0000
     20 ****        -5.3146  -0.3071   0.1239 H              1 S1                 0.0000
     21 ****        -3.4338  -0.8948   0.0572 H              1 S1                 0.0000
     22 ****        -1.4956  -2.0339  -0.6238 H              1 S1                 0.0000
     23 ****         0.9846  -2.1319  -0.6474 H              1 S1                 0.0000
     24 ****         3.1749  -0.8048   2.0155 H              1 S1                 0.0000
     25 ****         2.8141  -2.0346   0.8038 H              1 S1                 0.0000
     26 ****         5.3418  -0.4608   1.1750 H              1 S1                 0.0000
     27 ****         5.1446  -2.0942   0.5456 H              1 S1                 0.0000
     28 ****         5.3404   0.4087  -0.9272 H              1 S1                 0.0000
     29 ****         5.1314  -1.1883  -1.6394 H              1 S1                 0.0000
     30 ****         2.8007  -0.9531  -1.7670 H              1 S1                 0.0000
     31 ****         3.1664   0.7724  -1.7410 H              1 S1                 0.0000
     32 ****        -1.1575   2.0444   0.8888 H              1 S1                 0.0000
     33 ****         1.1163   1.8113   0.8055 H              1 S1                 0.0000
     34 ****        -4.1641   2.9747   0.0795 LP             1 S1                 0.0000
     35 ****        -2.5033   2.4831   0.0949 LP             1 S1                 0.0000
     36 ****         2.7722   0.8576   0.5119 LP             1 S1                 0.0000
@<TRIPOS>BOND
    1    1    2 1     
    2    1   17 1     
    3    1   18 1     
    4    1   19 1     
    5    2    3 am    
    6    2   20 1     
    7    3    4 2     
    8    3    5 am    
    9    5    6 1     
   10    5   21 1     
   11    6   16 ar    
   12    6    7 ar    
   13    7    8 ar    
   14    7   22 1     
   15    8    9 ar    
   16    8   23 1     
   17    9   10 1     
   18    9   15 ar    
   19   10   14 1     
   20   10   11 1     
   21   11   12 1     
   22   11   24 1     
   23   11   25 1     
   24   12   13 1     
   25   12   26 1     
   26   12   27 1     
   27   13   14 1     
   28   13   28 1     
   29   13   29 1     
   30   14   30 1     
   31   14   31 1     
   32   15   16 ar    
   33   15   33 1     
   34   16   32 1     
   35    4   34 1     
   36    4   35 1     
   37   10   36 1     
@<TRIPOS>SUBSTRUCTURE
      1 S1             1
@<TRIPOS>SET
LONE_PAIRS      STATIC     ATOMS    <user>   **** ""
3 34 35 36
DONOR_HYDROGENS      STATIC     ATOMS    <user>   **** ""
3 20 21 33
ATOM$BLUE        STATIC     ATOMS    COLORGROUP SYSTEM
3 34 35 36
ATOM$RED        STATIC     ATOMS    COLORGROUP SYSTEM
3 20 21 33
