AV-unprocessed.smi:3027|AV-procd|sdf|11515|dock1
  -GOLD-   2272016453D 1   1.00000     0.00000
 Structure written by MMmdl.
 37 38  0  0  0  0  0  0  0  0  2 V2000
  153.1326  142.6327  162.4168 C   0  0  0  0  0  0  0  0  0  0  0  0
  152.5532  143.2339  161.1689 C   0  0  0  0  0  0  0  0  0  0  0  0
  151.9146  144.4982  161.0224 C   0  0  0  0  0  0  0  0  0  0  0  0
  151.5093  144.7291  159.7842 N   0  0  0  0  0  0  0  0  0  0  0  0
  151.8759  143.6259  159.0983 N   0  0  0  0  0  0  0  0  0  0  0  0
  151.5844  143.5231  157.6801 C   0  0  0  0  0  0  0  0  0  0  0  0
  150.7399  142.2778  157.3301 C   0  0  2  0  0  0  0  0  0  0  0  0
  151.5505  140.9739  157.4170 C   0  0  0  0  0  0  0  0  0  0  0  0
  150.1653  142.4054  155.9710 N   0  3  0  0  0  0  0  0  0  0  0  0
  149.2750  141.3041  155.5386 C   0  0  0  0  0  0  0  0  0  0  0  0
  150.0583  140.1295  154.9518 C   0  0  0  0  0  0  0  0  0  0  0  0
  149.0282  139.3457  154.1308 C   0  0  0  0  0  0  0  0  0  0  0  0
  147.9141  140.3433  153.7752 C   0  0  0  0  0  0  0  0  0  0  0  0
  148.3194  141.6812  154.4036 C   0  0  0  0  0  0  0  0  0  0  0  0
  152.5056  142.7064  159.9097 C   0  0  0  0  0  0  0  0  0  0  0  0
  153.3772  143.3943  163.1576 H   0  0  0  0  0  0  0  0  0  0  0  0
  154.0494  142.0801  162.2107 H   0  0  0  0  0  0  0  0  0  0  0  0
  152.4367  141.9383  162.8877 H   0  0  0  0  0  0  0  0  0  0  0  0
  151.7340  145.2502  161.7763 H   0  0  0  0  0  0  0  0  0  0  0  0
  151.0712  144.4375  157.3856 H   0  0  0  0  0  0  0  0  0  0  0  0
  152.5249  143.5091  157.1263 H   0  0  0  0  0  0  0  0  0  0  0  0
  149.9230  142.1942  158.0488 H   0  0  0  0  0  0  0  0  0  0  0  0
  151.9128  140.7928  158.4291 H   0  0  0  0  0  0  0  0  0  0  0  0
  152.4156  140.9994  156.7538 H   0  0  0  0  0  0  0  0  0  0  0  0
  150.9416  140.1139  157.1362 H   0  0  0  0  0  0  0  0  0  0  0  0
  149.6799  143.2876  155.8945 H   0  0  0  0  0  0  0  0  0  0  0  0
  148.7011  140.9441  156.3944 H   0  0  0  0  0  0  0  0  0  0  0  0
  150.8423  140.4976  154.2880 H   0  0  0  0  0  0  0  0  0  0  0  0
  150.5348  139.5162  155.7177 H   0  0  0  0  0  0  0  0  0  0  0  0
  149.4802  138.9047  153.2418 H   0  0  0  0  0  0  0  0  0  0  0  0
  148.6154  138.5296  154.7253 H   0  0  0  0  0  0  0  0  0  0  0  0
  147.7777  140.4362  152.6972 H   0  0  0  0  0  0  0  0  0  0  0  0
  146.9668  140.0023  154.1946 H   0  0  0  0  0  0  0  0  0  0  0  0
  147.4566  142.2507  154.7507 H   0  0  0  0  0  0  0  0  0  0  0  0
  148.8414  142.2843  153.6590 H   0  0  0  0  0  0  0  0  0  0  0  0
  152.8644  141.7618  159.5278 H   0  0  0  0  0  0  0  0  0  0  0  0
  150.9420  142.4162  155.3250 H   0  0  0  0  0  0  0  0  0  0  0  0
  1  2  1  0  0  0  0
  1 16  1  0  0  0  0
  1 17  1  0  0  0  0
  1 18  1  0  0  0  0
  2 15  2  0  0  0  0
  2  3  1  0  0  0  0
  3  4  2  0  0  0  0
  3 19  1  0  0  0  0
  4  5  1  0  0  0  0
  5  6  1  0  0  0  0
  5 15  1  0  0  0  0
  6  7  1  0  0  0  0
  6 20  1  0  0  0  0
  6 21  1  0  0  0  0
  7  8  1  0  0  0  0
  7  9  1  0  0  0  0
  7 22  1  0  0  0  0
  8 23  1  0  0  0  0
  8 24  1  0  0  0  0
  8 25  1  0  0  0  0
  9 10  1  0  0  0  0
  9 26  1  0  0  0  0
  9 37  1  0  0  0  0
 10 14  1  0  0  0  0
 10 11  1  0  0  0  0
 10 27  1  0  0  0  0
 11 12  1  0  0  0  0
 11 28  1  0  0  0  0
 11 29  1  0  0  0  0
 12 13  1  0  0  0  0
 12 30  1  0  0  0  0
 12 31  1  0  0  0  0
 13 14  1  0  0  0  0
 13 32  1  0  0  0  0
 13 33  1  0  0  0  0
 14 34  1  0  0  0  0
 14 35  1  0  0  0  0
 15 36  1  0  0  0  0
M  CHG  1   9   1
M  END
> <s_m_source_file>
AV-unprocessed.smi

> <i_m_source_file_index>
3027

> <i_lp_mmshare_version>
43012

> <i_f3d_flags>
0

> <s_epik_input>
W0NIM11jMVtjSF1ubihbY0hdMSlbQ0gyXVtDQEhdKFtDSDNdKVtOSF1bQ0hdMltDSDJdW0NIMl1bQ0gyXVtDSDJdMg==

> <s_epik_cmdline>
J2VwaWtfcHl0aG9uJywgJy1waCcsICc3LjAnLCAnLXRuJywgJzgnLCAnLW1hJywgJzIwMCcsICctbWV0YWxfYmluZGluZycsICctaW1hZScsICc8aW5maWxlLm1hZT4nLCAnLW9tYWUnLCAnPG91dGZpbGUubWFlPic=

> <r_lp_tautomer_probability>
1

> <r_epik_Ionization_Penalty>
0.00150056

> <r_epik_Ionization_Penalty_Charging>
0.00149132

> <r_epik_Ionization_Penalty_Neutral>
9.24096e-06

> <r_epik_State_Penalty>
0.00099871

> <r_epik_Charging_Adjusted_Penalty>
0.00249003

> <i_epik_Tot_Q>
1

> <i_epik_Tot_abs_Q>
1

> <r_epik_Metal_State_Penalty>
-0

> <b_epik_Metal_Only>
0

> <s_lp_Force_Field>
OPLS_2005

> <r_lp_Energy>
26.7441

> <b_lp_Chiralities_Consistent>
1

> <s_lp_Variant>
AV-unprocessed.smi:3027-1

> <Gold.Version>
5.8.1

> <Gold.Id.Protein>
6NUR|6NUR_protein|mol2

> <Gold.PLP.Fitness>
46.1471

> <Gold.PLP.PLP>
-40.7436

> <Gold.PLP.part.hbond>
-1.0000

> <Gold.PLP.part.metal>
0.0000

> <Gold.PLP.part.buried>
-3.3587

> <Gold.PLP.part.nonpolar>
-36.9757

> <Gold.PLP.part.repulsive>
0.2137

> <Gold.PLP.ligand.clash>
0.0000

> <Gold.PLP.ligand.torsion>
0.3510

> <Gold.PLP.Chemscore.Hbond>
2.0000

> <Gold.PLP.Chemscore.CHOScore>
0.0000

> <Gold.PLP.Chemscore.Metal>
0.0000

> <Gold.Chemscore.Hbonds>
donor molecule, donor type, donor heavy atom, donor atom, acceptor molecule, acceptor atom, score
      L1  H     9    26       P1  8028  2.00

> <Gold.PLP.Chemscore.Internal.Correction>
0.1055

> <Gold.Rescore>
     Score         DG    S(hbond)    S(metal)    S(lipo)     H(rot)  DE(clash)    DE(int)     intcor
     16.73     -17.30       0.99        0.00     103.26       1.40       0.04       0.53       ----

> <Gold.Chemscore.Fitness>
16.7255

> <Gold.Chemscore.DG>
-17.2993

> <Gold.Chemscore.ZeroCoef>
-5.4800

> <Gold.Chemscore.Hbond>
0.9937

> <Gold.Chemscore.Metal>
0.0000

> <Gold.Chemscore.Lipo>
103.2644

> <Gold.Chemscore.Internal_Hbond>
0.0000

> <Gold.Chemscore.DEClash>
0.0440

> <Gold.Chemscore.DEInternal>
0.5297

> <Gold.Chemscore.Rot>
1.3991

> <Gold.Chemscore.Internal.Correction>
   9.000000E+99

> <Gold.Chemscore.Hbonds>
donor molecule, donor type, donor heavy atom, donor atom, acceptor molecule, acceptor atom, score
      L1  H     9    26       P1  8028  1.00

> <Gold.Chemscore.Hbond.Weighted>
-3.3191

> <Gold.Chemscore.Metal.Weighted>
-0.0000

> <Gold.Chemscore.Lipo.Weighted>
-12.0819

> <Gold.Chemscore.Internal_Hbond.Weighted>
0.0000

> <Gold.Chemscore.DEClash.Weighted>
0.0440

> <Gold.Chemscore.DEInternal.Weighted>
0.5297

> <Gold.Chemscore.Rot.Weighted>
3.5818

> <Gold.Chemscore.Internal.Correction.Weighted>
   9.000000E+99

> <Gold.Protein.RotatedTorsions>
[ 6907 6896 6895 6894 ] final   40.31 input  -60.11 | X-H torsion
[ 7974 7965 7964 7962 ] final  125.21 input  175.53 | X-H torsion
[ 8008 7997 7996 7995 ] final -132.17 input   59.86 | X-H torsion
[ 10167 10162 10161 10158 ] final -121.81 input  -65.29 | X-H torsion
[ 10718 10713 10712 10709 ] final -165.53 input   66.30 | X-H torsion
[ 10763 10752 10751 10750 ] final  -66.94 input  -60.55 | X-H torsion
[ 11005 11000 10999 10996 ] final -175.22 input  -57.11 | X-H torsion

> <Gold.Protein.ActiveResidues>
 VAL166  LYS551  ARG553  GLY616  TRP617  ASP618  TYR619  PRO620  LYS621  CYS622 
 ASP623  PHE694  ASN695  SER759  ASP760  ASP761  ALA762  ILE779  LEU786  VAL792 
 PHE793  MET794  SER795  GLU796  ALA797  LYS798  CYS799  TRP800  GLU811  SER814 

> <Gold.Protein.RotatedAtoms>
  152.1808  134.8755  160.0526 H   0  0  0  0  0  0  0  0  0  0  0  0  # atno 6907 bound_to 6896
  151.9680  133.3711  159.4068 H   0  0  0  0  0  0  0  0  0  0  0  0  # atno 6908 bound_to 6896
  150.6917  134.4093  159.5198 H   0  0  0  0  0  0  0  0  0  0  0  0  # atno 6909 bound_to 6896
  145.0756  139.3696  143.4935 H   0  0  0  0  0  0  0  0  0  0  0  0  # atno 7974 bound_to 7965
  155.3244  140.0464  157.3040 H   0  0  0  0  0  0  0  0  0  0  0  0  # atno 8008 bound_to 7997
  154.5362  140.2273  155.8684 H   0  0  0  0  0  0  0  0  0  0  0  0  # atno 8009 bound_to 7997
  156.1837  140.3067  155.9204 H   0  0  0  0  0  0  0  0  0  0  0  0  # atno 8010 bound_to 7997
  140.0210  143.5344  152.2220 H   0  0  0  0  0  0  0  0  0  0  0  0  # atno 10167 bound_to 10162
  156.6548  130.9022  151.3019 H   0  0  0  0  0  0  0  0  0  0  0  0  # atno 10718 bound_to 10713
  154.3672  135.6103  153.5721 H   0  0  0  0  0  0  0  0  0  0  0  0  # atno 10763 bound_to 10752
  152.9791  135.5829  154.4565 H   0  0  0  0  0  0  0  0  0  0  0  0  # atno 10764 bound_to 10752
  154.4312  135.2848  155.1888 H   0  0  0  0  0  0  0  0  0  0  0  0  # atno 10765 bound_to 10752
  140.4657  134.6212  157.4861 H   0  0  0  0  0  0  0  0  0  0  0  0  # atno 11005 bound_to 11000
  146.3530  140.0522  142.8635 LP  0  0  0  0  0  0  0  0  0  0  0  0  # atno 17320 bound_to 7965
  145.1239  140.9479  143.4584 LP  0  0  0  0  0  0  0  0  0  0  0  0  # atno 17321 bound_to 7965
  139.6139  144.7615  151.2889 LP  0  0  0  0  0  0  0  0  0  0  0  0  # atno 17342 bound_to 10162
  140.7342  143.6772  150.8031 LP  0  0  0  0  0  0  0  0  0  0  0  0  # atno 17343 bound_to 10162
  157.7129  130.9462  150.1152 LP  0  0  0  0  0  0  0  0  0  0  0  0  # atno 17370 bound_to 10713
  156.2056  130.3663  149.8733 LP  0  0  0  0  0  0  0  0  0  0  0  0  # atno 17371 bound_to 10713
  139.9917  134.6975  155.9679 LP  0  0  0  0  0  0  0  0  0  0  0  0  # atno 17394 bound_to 11000
  141.1600  133.6539  156.4288 LP  0  0  0  0  0  0  0  0  0  0  0  0  # atno 17395 bound_to 11000

$$$$
