#       Name:                AV-unprocessed.smi:2837
#       Creating user name   scv26
#       Creation time:       Fri Mar 27 15:37:28 2020


#       File generated by GOLD software.
#

@<TRIPOS>MOLECULE
AV-unprocessed.smi:2837
    37    39     1
SMALL
NO_CHARGES


@<TRIPOS>ATOM
      1 ****        -5.5775   2.3110  -0.5322 F              1 S1                 0.0000
      2 ****        -5.5131   1.3162   0.3863 C.3            1 S1                 0.0000
      3 ****        -6.7777   0.8875   0.6139 F              1 S1                 0.0000
      4 ****        -4.7570   0.2871  -0.0806 O.3            1 S1                 0.0000
      5 ****        -3.3995   0.2908   0.1461 C.ar           1 S1                 0.0000
      6 ****        -2.7216  -0.9457   0.1707 C.ar           1 S1                 0.0000
      7 ****        -1.3290  -0.9801   0.3880 C.ar           1 S1                 0.0000
      8 ****        -0.6235   0.2331   0.5693 C.ar           1 S1                 0.0000
      9 ****         0.7573   0.3247   0.7923 N.pl3          1 S1                 0.0000
     10 ****         1.5951  -0.8673   0.8555 C.3            1 S1                 0.0000
     11 ****         3.0360  -0.5653   1.2748 C.3            1 S1                 0.0000
     12 ****         3.8388  -1.2265   0.1457 C.3            1 S1                 0.0000
     13 ****         3.7783  -0.4014  -1.1458 C.3            1 S1                 0.0000
     14 ****         2.3439  -0.6516  -1.6066 C.3            1 S1                 0.0000
     15 ****         1.8087  -1.5747  -0.4982 C.3            1 S1                 0.0000
     16 ****         2.9853  -2.3057  -0.1978 O.3            1 S1                 0.0000
     17 ****        -1.3074   1.3978   0.5284 N.pl3          1 S1                 1.0000
     18 ****        -2.6409   1.4726   0.3249 C.ar           1 S1                 0.0000
     19 ****        -5.1211   1.7107   1.3241 H              1 S1                 0.0000
     20 ****        -3.2688  -1.8660   0.0269 H              1 S1                 0.0000
     21 ****        -0.8271  -1.9357   0.4120 H              1 S1                 0.0000
     22 ****         1.2117   1.2242   0.7263 H              1 S1                 0.0000
     23 ****         1.1717  -1.5695   1.5746 H              1 S1                 0.0000
     24 ****         3.2571   0.4996   1.3618 H              1 S1                 0.0000
     25 ****         3.2556  -1.0344   2.2346 H              1 S1                 0.0000
     26 ****         4.8475  -1.5231   0.4341 H              1 S1                 0.0000
     27 ****         3.9921   0.6545  -0.9762 H              1 S1                 0.0000
     28 ****         4.4877  -0.7801  -1.8826 H              1 S1                 0.0000
     29 ****         1.7657   0.2657  -1.7186 H              1 S1                 0.0000
     30 ****         2.3417  -1.1678  -2.5671 H              1 S1                 0.0000
     31 ****         0.9712  -2.1974  -0.8127 H              1 S1                 0.0000
     32 ****        -3.0489   2.4728   0.3074 H              1 S1                 0.0000
     33 ****        -0.7911   2.2688   0.6545 H              1 S1                 0.0000
     34 ****        -4.8870   0.2559  -1.0716 LP             1 S1                 0.0000
     35 ****        -5.1188  -0.5501   0.3295 LP             1 S1                 0.0000
     36 ****         2.8502  -2.9347   0.5678 LP             1 S1                 0.0000
     37 ****         3.3235  -2.8131  -0.9904 LP             1 S1                 0.0000
@<TRIPOS>BOND
    1    1    2 1     
    2    2    3 1     
    3    2    4 1     
    4    2   19 1     
    5    4    5 1     
    6    5   18 ar    
    7    5    6 ar    
    8    6    7 ar    
    9    6   20 1     
   10    7    8 ar    
   11    7   21 1     
   12    8    9 1     
   13    8   17 ar    
   14    9   10 1     
   15    9   22 1     
   16   10   15 1     
   17   10   11 1     
   18   10   23 1     
   19   11   12 1     
   20   11   24 1     
   21   11   25 1     
   22   12   16 1     
   23   12   13 1     
   24   12   26 1     
   25   13   14 1     
   26   13   27 1     
   27   13   28 1     
   28   14   15 1     
   29   14   29 1     
   30   14   30 1     
   31   15   16 1     
   32   15   31 1     
   33   17   18 ar    
   34   17   33 1     
   35   18   32 1     
   36    4   34 1     
   37    4   35 1     
   38   16   36 1     
   39   16   37 1     
@<TRIPOS>SUBSTRUCTURE
      1 S1             1
@<TRIPOS>SET
LONE_PAIRS      STATIC     ATOMS    <user>   **** ""
4 34 35 36 37
DONOR_HYDROGENS      STATIC     ATOMS    <user>   **** ""
2 22 33
ATOM$BLUE        STATIC     ATOMS    COLORGROUP SYSTEM
4 34 35 36 37
ATOM$RED        STATIC     ATOMS    COLORGROUP SYSTEM
2 22 33
