AV-unprocessed.smi:33|AV-procd|sdf|208|dock2
  -GOLD-   2262015503D 1   1.00000     0.00000
 Structure written by MMmdl.
 67 72  0  0  0  0  0  0  0  0  1 V2000
  151.0338  142.7443  156.3653 O   0  0  0  0  0  0  0  0  0  0  0  0
  151.3549  142.2704  157.4571 C   0  0  0  0  0  0  0  0  0  0  0  0
  151.5180  140.9514  157.6815 O   0  0  0  0  0  0  0  0  0  0  0  0
  151.7394  140.0627  156.5975 C   0  0  0  0  0  0  0  0  0  0  0  0
  152.4246  138.7915  157.1245 C   0  0  1  0  0  0  0  0  0  0  0  0
  151.5233  138.1136  158.0061 O   0  0  0  0  0  0  0  0  0  0  0  0
  151.1230  136.8867  157.4691 C   0  0  1  0  0  0  0  0  0  0  0  0
  149.6597  136.6735  157.7123 N   0  0  0  0  0  0  0  0  0  0  0  0
  148.6746  137.6357  157.7423 C   0  0  0  0  0  0  0  0  0  0  0  0
  147.4664  137.1971  157.9721 N   0  0  0  0  0  0  0  0  0  0  0  0
  147.6295  135.8252  158.1100 C   0  0  0  0  0  0  0  0  0  0  0  0
  146.7420  134.7459  158.3681 C   0  0  0  0  0  0  0  0  0  0  0  0
  145.4088  134.9120  158.5317 N   0  0  0  0  0  0  0  0  0  0  0  0
  144.9102  134.9892  159.9128 C   0  0  0  0  0  0  0  0  0  0  0  0
  143.7351  134.7059  160.1528 O   0  0  0  0  0  0  0  0  0  0  0  0
  145.8321  135.3691  161.0366 C   0  0  0  0  0  0  0  0  0  0  0  0
  146.0439  136.7302  161.3476 C   0  0  0  0  0  0  0  0  0  0  0  0
  146.9175  137.0923  162.3914 C   0  0  0  0  0  0  0  0  0  0  0  0
  147.5999  136.0972  163.1169 C   0  0  0  0  0  0  0  0  0  0  0  0
  147.4153  134.7396  162.7927 C   0  0  0  0  0  0  0  0  0  0  0  0
  146.5405  134.3764  161.7506 C   0  0  0  0  0  0  0  0  0  0  0  0
  144.5889  135.0129  157.3153 C   0  0  0  0  0  0  0  0  0  0  0  0
  143.5123  135.6116  157.3572 O   0  0  0  0  0  0  0  0  0  0  0  0
  145.0794  134.4441  156.0136 C   0  0  0  0  0  0  0  0  0  0  0  0
  144.8026  135.1132  154.8011 C   0  0  0  0  0  0  0  0  0  0  0  0
  145.2504  134.5792  153.5771 C   0  0  0  0  0  0  0  0  0  0  0  0
  145.9605  133.3636  153.5558 C   0  0  0  0  0  0  0  0  0  0  0  0
  146.2140  132.6764  154.7579 C   0  0  0  0  0  0  0  0  0  0  0  0
  145.7673  133.2100  155.9822 C   0  0  0  0  0  0  0  0  0  0  0  0
  147.2633  133.4945  158.4486 N   0  0  0  0  0  0  0  0  0  0  0  0
  148.5761  133.3122  158.2816 C   0  0  0  0  0  0  0  0  0  0  0  0
  149.5187  134.2232  158.0316 N   0  0  0  0  0  0  0  0  0  0  0  0
  149.0010  135.4828  157.9525 C   0  0  0  0  0  0  0  0  0  0  0  0
  151.4977  136.8887  155.9822 C   0  0  1  0  0  0  0  0  0  0  0  0
  150.4861  137.4237  155.1463 O   0  0  0  0  0  0  0  0  0  0  0  0
  152.7378  137.7608  156.0336 C   0  0  1  0  0  0  0  0  0  0  0  0
  153.0859  138.2732  154.8519 F   0  0  0  0  0  0  0  0  0  0  0  0
  151.5897  143.0987  158.6746 C   0  0  0  0  0  0  0  0  0  0  0  0
  152.1572  142.4976  159.8224 C   0  0  0  0  0  0  0  0  0  0  0  0
  152.3955  143.2554  160.9855 C   0  0  0  0  0  0  0  0  0  0  0  0
  152.0678  144.6233  161.0157 C   0  0  0  0  0  0  0  0  0  0  0  0
  151.5017  145.2328  159.8809 C   0  0  0  0  0  0  0  0  0  0  0  0
  151.2642  144.4770  158.7162 C   0  0  0  0  0  0  0  0  0  0  0  0
  150.8050  139.8121  156.0959 H   0  0  0  0  0  0  0  0  0  0  0  0
  152.3755  140.5613  155.8657 H   0  0  0  0  0  0  0  0  0  0  0  0
  153.3365  139.0633  157.6574 H   0  0  0  0  0  0  0  0  0  0  0  0
  151.6174  136.0857  158.0209 H   0  0  0  0  0  0  0  0  0  0  0  0
  148.8829  138.6844  157.5870 H   0  0  0  0  0  0  0  0  0  0  0  0
  145.5251  137.5021  160.7975 H   0  0  0  0  0  0  0  0  0  0  0  0
  147.0648  138.1341  162.6344 H   0  0  0  0  0  0  0  0  0  0  0  0
  148.2699  136.3759  163.9167 H   0  0  0  0  0  0  0  0  0  0  0  0
  147.9460  133.9762  163.3422 H   0  0  0  0  0  0  0  0  0  0  0  0
  146.4107  133.3317  161.5070 H   0  0  0  0  0  0  0  0  0  0  0  0
  144.2589  136.0470  154.8053 H   0  0  0  0  0  0  0  0  0  0  0  0
  145.0482  135.1025  152.6543 H   0  0  0  0  0  0  0  0  0  0  0  0
  146.3043  132.9553  152.6169 H   0  0  0  0  0  0  0  0  0  0  0  0
  146.7505  131.7392  154.7420 H   0  0  0  0  0  0  0  0  0  0  0  0
  145.9643  132.6713  156.8981 H   0  0  0  0  0  0  0  0  0  0  0  0
  148.9213  132.2915  158.3578 H   0  0  0  0  0  0  0  0  0  0  0  0
  151.7200  135.8725  155.6551 H   0  0  0  0  0  0  0  0  0  0  0  0
  149.6497  137.0960  155.4403 H   0  0  0  0  0  0  0  0  0  0  0  0
  153.5818  137.1513  156.3599 H   0  0  0  0  0  0  0  0  0  0  0  0
  152.4190  141.4493  159.8224 H   0  0  0  0  0  0  0  0  0  0  0  0
  152.8312  142.7861  161.8552 H   0  0  0  0  0  0  0  0  0  0  0  0
  152.2506  145.2041  161.9077 H   0  0  0  0  0  0  0  0  0  0  0  0
  151.2500  146.2827  159.9030 H   0  0  0  0  0  0  0  0  0  0  0  0
  150.8292  144.9762  157.8627 H   0  0  0  0  0  0  0  0  0  0  0  0
  1  2  2  0  0  0  0
  2  3  1  0  0  0  0
  2 38  1  0  0  0  0
  3  4  1  0  0  0  0
  4  5  1  0  0  0  0
  4 44  1  0  0  0  0
  4 45  1  0  0  0  0
  5 36  1  0  0  0  0
  5  6  1  0  0  0  0
  5 46  1  0  0  0  0
  6  7  1  0  0  0  0
  7  8  1  0  0  0  0
  7 34  1  0  0  0  0
  7 47  1  0  0  0  0
  8 33  1  0  0  0  0
  8  9  1  0  0  0  0
  9 10  2  0  0  0  0
  9 48  1  0  0  0  0
 10 11  1  0  0  0  0
 11 33  2  0  0  0  0
 11 12  1  0  0  0  0
 12 13  1  0  0  0  0
 12 30  2  0  0  0  0
 13 14  1  0  0  0  0
 13 22  1  0  0  0  0
 14 15  2  0  0  0  0
 14 16  1  0  0  0  0
 16 21  1  0  0  0  0
 16 17  2  0  0  0  0
 17 18  1  0  0  0  0
 17 49  1  0  0  0  0
 18 19  2  0  0  0  0
 18 50  1  0  0  0  0
 19 20  1  0  0  0  0
 19 51  1  0  0  0  0
 20 21  2  0  0  0  0
 20 52  1  0  0  0  0
 21 53  1  0  0  0  0
 22 23  2  0  0  0  0
 22 24  1  0  0  0  0
 24 29  1  0  0  0  0
 24 25  2  0  0  0  0
 25 26  1  0  0  0  0
 25 54  1  0  0  0  0
 26 27  2  0  0  0  0
 26 55  1  0  0  0  0
 27 28  1  0  0  0  0
 27 56  1  0  0  0  0
 28 29  2  0  0  0  0
 28 57  1  0  0  0  0
 29 58  1  0  0  0  0
 30 31  1  0  0  0  0
 31 32  2  0  0  0  0
 31 59  1  0  0  0  0
 32 33  1  0  0  0  0
 34 35  1  0  0  0  0
 34 36  1  0  0  0  0
 34 60  1  0  0  0  0
 35 61  1  0  0  0  0
 36 37  1  0  0  0  0
 36 62  1  0  0  0  0
 38 43  1  0  0  0  0
 38 39  2  0  0  0  0
 39 40  1  0  0  0  0
 39 63  1  0  0  0  0
 40 41  2  0  0  0  0
 40 64  1  0  0  0  0
 41 42  1  0  0  0  0
 41 65  1  0  0  0  0
 42 43  2  0  0  0  0
 42 66  1  0  0  0  0
 43 67  1  0  0  0  0
M  END
> <s_m_source_file>
AV-unprocessed.smi

> <i_m_source_file_index>
33

> <i_lp_mmshare_version>
43012

> <i_f3d_flags>
0

> <s_epik_input>
W2NIXTFbY0hdW2NIXVtjSF1bY0hdYzFDKD1PKU9bQ0gyXVtDQEBIXTJPW0NASF0oW0NAQEhdKFtPSF0pW0NAQEhdMkYpbihbY0hdbjMpYyhjMzQpbltjSF1uYzROKEMoPU8pYzVbY0hdW2NIXVtjSF1bY0hdW2NIXTUpQyg9TyljNltjSF1bY0hdW2NIXVtjSF1bY0hdNg==

> <s_epik_cmdline>
J2VwaWtfcHl0aG9uJywgJy1waCcsICc3LjAnLCAnLXRuJywgJzgnLCAnLW1hJywgJzIwMCcsICctbWV0YWxfYmluZGluZycsICctaW1hZScsICc8aW5maWxlLm1hZT4nLCAnLW9tYWUnLCAnPG91dGZpbGUubWFlPic=

> <r_lp_tautomer_probability>
1

> <r_epik_Ionization_Penalty>
0.00067664

> <r_epik_Ionization_Penalty_Charging>
0

> <r_epik_Ionization_Penalty_Neutral>
0.00067664

> <r_epik_State_Penalty>
0.000428095

> <r_epik_Charging_Adjusted_Penalty>
0.000428095

> <i_epik_Tot_Q>
0

> <i_epik_Tot_abs_Q>
0

> <r_epik_Metal_State_Penalty>
-0

> <b_epik_Metal_Only>
0

> <s_epik_Chemistry_Notes>
This compound has an ester and may undergo hydrolysis at high or low pH. This compound contains an acetal/aminal-like group ( X-CH(R)-Y where X, Y are N, S, or O) that may be acid/base labile, releasing an aldehyde.

> <s_lp_Force_Field>
OPLS_2005

> <r_lp_Energy>
79.915

> <b_lp_Chiralities_Consistent>
1

> <s_lp_Variant>
AV-unprocessed.smi:33-10

> <Gold.Version>
5.8.1

> <Gold.Id.Protein>
6NUR|6NUR_protein|mol2

> <Gold.PLP.Fitness>
53.4486

> <Gold.PLP.PLP>
-56.1150

> <Gold.PLP.part.hbond>
-1.0000

> <Gold.PLP.part.metal>
0.0000

> <Gold.PLP.part.buried>
-7.6675

> <Gold.PLP.part.nonpolar>
-48.8168

> <Gold.PLP.part.repulsive>
1.6857

> <Gold.PLP.ligand.clash>
0.0000

> <Gold.PLP.ligand.torsion>
5.1410

> <Gold.PLP.Chemscore.Hbond>
1.0000

> <Gold.PLP.Chemscore.CHOScore>
0.0000

> <Gold.PLP.Chemscore.Metal>
0.0000

> <Gold.Chemscore.Hbonds>
donor molecule, donor type, donor heavy atom, donor atom, acceptor molecule, acceptor atom, score
      P1  H  6896  6909       L1    32  1.00

> <Gold.PLP.Chemscore.Internal.Correction>
4.6157

> <Gold.Rescore>
     Score         DG    S(hbond)    S(metal)    S(lipo)     H(rot)  DE(clash)    DE(int)     intcor
     10.50     -18.40       0.72        0.00     144.96       2.52       0.03       7.86       ----

> <Gold.Chemscore.Fitness>
10.5026

> <Gold.Chemscore.DG>
-18.3953

> <Gold.Chemscore.ZeroCoef>
-5.4800

> <Gold.Chemscore.Hbond>
0.7242

> <Gold.Chemscore.Metal>
0.0000

> <Gold.Chemscore.Lipo>
144.9559

> <Gold.Chemscore.Internal_Hbond>
0.0000

> <Gold.Chemscore.DEClash>
0.0319

> <Gold.Chemscore.DEInternal>
7.8608

> <Gold.Chemscore.Rot>
2.5247

> <Gold.Chemscore.Internal.Correction>
   9.000000E+99

> <Gold.Chemscore.Hbonds>
donor molecule, donor type, donor heavy atom, donor atom, acceptor molecule, acceptor atom, score
      P1  H  6896  6909       L1    32  0.41

> <Gold.Chemscore.Hbond.Weighted>
-2.4187

> <Gold.Chemscore.Metal.Weighted>
-0.0000

> <Gold.Chemscore.Lipo.Weighted>
-16.9598

> <Gold.Chemscore.Internal_Hbond.Weighted>
0.0000

> <Gold.Chemscore.DEClash.Weighted>
0.0319

> <Gold.Chemscore.DEInternal.Weighted>
7.8608

> <Gold.Chemscore.Rot.Weighted>
6.4633

> <Gold.Chemscore.Internal.Correction.Weighted>
   9.000000E+99

> <Gold.Protein.RotatedTorsions>
[ 6907 6896 6895 6894 ] final   10.02 input  -60.11 | X-H torsion
[ 7974 7965 7964 7962 ] final  177.59 input  175.53 | X-H torsion
[ 8008 7997 7996 7995 ] final  -37.04 input   59.86 | X-H torsion
[ 10167 10162 10161 10158 ] final -123.15 input  -65.29 | X-H torsion
[ 10718 10713 10712 10709 ] final  -16.64 input   66.30 | X-H torsion
[ 10763 10752 10751 10750 ] final   -8.25 input  -60.55 | X-H torsion
[ 11005 11000 10999 10996 ] final  145.91 input  -57.11 | X-H torsion

> <Gold.Protein.ActiveResidues>
 VAL166  LYS551  ARG553  GLY616  TRP617  ASP618  TYR619  PRO620  LYS621  CYS622 
 ASP623  PHE694  ASN695  SER759  ASP760  ASP761  ALA762  ILE779  LEU786  VAL792 
 PHE793  MET794  SER795  GLU796  ALA797  LYS798  CYS799  TRP800  GLU811  SER814 

> <Gold.Protein.RotatedAtoms>
  151.7316  135.0873  160.0300 H   0  0  0  0  0  0  0  0  0  0  0  0  # atno 6907 bound_to 6896
  152.3538  133.6207  159.5972 H   0  0  0  0  0  0  0  0  0  0  0  0  # atno 6908 bound_to 6896
  150.7557  133.9449  159.3509 H   0  0  0  0  0  0  0  0  0  0  0  0  # atno 6909 bound_to 6896
  144.7167  140.0270  143.6439 H   0  0  0  0  0  0  0  0  0  0  0  0  # atno 7974 bound_to 7965
  154.4061  140.1615  156.2472 H   0  0  0  0  0  0  0  0  0  0  0  0  # atno 8008 bound_to 7997
  155.9150  140.3425  155.6106 H   0  0  0  0  0  0  0  0  0  0  0  0  # atno 8009 bound_to 7997
  155.7290  140.0778  157.2288 H   0  0  0  0  0  0  0  0  0  0  0  0  # atno 8010 bound_to 7997
  140.0066  143.5485  152.2281 H   0  0  0  0  0  0  0  0  0  0  0  0  # atno 10167 bound_to 10162
  156.5848  130.4783  149.6304 H   0  0  0  0  0  0  0  0  0  0  0  0  # atno 10718 bound_to 10713
  153.4378  135.7013  153.6189 H   0  0  0  0  0  0  0  0  0  0  0  0  # atno 10763 bound_to 10752
  153.4576  135.3743  155.2320 H   0  0  0  0  0  0  0  0  0  0  0  0  # atno 10764 bound_to 10752
  154.8727  135.4012  154.3771 H   0  0  0  0  0  0  0  0  0  0  0  0  # atno 10765 bound_to 10752
  140.0751  134.9130  157.1409 H   0  0  0  0  0  0  0  0  0  0  0  0  # atno 11005 bound_to 11000
  146.0134  139.3189  143.0857 LP  0  0  0  0  0  0  0  0  0  0  0  0  # atno 17320 bound_to 7965
  145.8655  140.9450  143.0678 LP  0  0  0  0  0  0  0  0  0  0  0  0  # atno 17321 bound_to 7965
  139.6234  144.7633  151.2691 LP  0  0  0  0  0  0  0  0  0  0  0  0  # atno 17342 bound_to 10162
  140.7398  143.6607  150.8166 LP  0  0  0  0  0  0  0  0  0  0  0  0  # atno 17343 bound_to 10162
  156.2600  130.6957  151.1722 LP  0  0  0  0  0  0  0  0  0  0  0  0  # atno 17370 bound_to 10713
  157.7318  131.0605  150.5661 LP  0  0  0  0  0  0  0  0  0  0  0  0  # atno 17371 bound_to 10713
  140.3570  134.2536  155.7191 LP  0  0  0  0  0  0  0  0  0  0  0  0  # atno 17394 bound_to 11000
  141.2026  133.7933  157.0381 LP  0  0  0  0  0  0  0  0  0  0  0  0  # atno 17395 bound_to 11000

$$$$
