AV-unprocessed.smi:2721|AV-procd|sdf|10503|dock6
  -GOLD-   2272014543D 1   1.00000     0.00000
 Structure written by MMmdl.
 29 30  0  0  0  0  0  0  0  0  2 V2000
  149.0774  140.6818  154.4137 C   0  0  0  0  0  0  0  0  0  0  0  0
  150.1310  140.7843  155.4005 N   0  0  0  0  0  0  0  0  0  0  0  0
  150.3670  141.7963  156.3057 C   0  0  0  0  0  0  0  0  0  0  0  0
  151.4724  141.4488  157.0313 C   0  0  0  0  0  0  0  0  0  0  0  0
  152.1618  142.2155  158.1295 C   0  0  2  0  0  0  0  0  0  0  0  0
  152.1205  141.4668  159.3431 O   0  0  0  0  0  0  0  0  0  0  0  0
  152.8330  142.0663  160.4200 C   0  0  0  0  0  0  0  0  0  0  0  0
  152.1969  143.4184  160.7711 C   0  0  0  0  0  0  0  0  0  0  0  0
  152.1672  144.3241  159.5365 C   0  0  0  0  0  0  0  0  0  0  0  0
  151.4946  143.5934  158.3643 C   0  0  1  0  0  0  0  0  0  0  0  0
  151.5366  144.4306  157.1501 N   0  3  0  0  0  0  0  0  0  0  0  0
  151.8430  140.1877  156.4822 C   0  0  0  0  0  0  0  0  0  0  0  0
  151.0403  139.7942  155.5079 N   0  0  0  0  0  0  0  0  0  0  0  0
  153.2101  142.3666  157.8645 H   0  0  0  0  0  0  0  0  0  0  0  0
  150.4434  143.4369  158.6119 H   0  0  0  0  0  0  0  0  0  0  0  0
  148.5612  141.6374  154.3174 H   0  0  0  0  0  0  0  0  0  0  0  0
  148.3603  139.9196  154.7198 H   0  0  0  0  0  0  0  0  0  0  0  0
  149.4990  140.4092  153.4456 H   0  0  0  0  0  0  0  0  0  0  0  0
  149.7369  142.6723  156.3584 H   0  0  0  0  0  0  0  0  0  0  0  0
  152.7946  141.3995  161.2814 H   0  0  0  0  0  0  0  0  0  0  0  0
  153.8849  142.1848  160.1558 H   0  0  0  0  0  0  0  0  0  0  0  0
  151.1815  143.2601  161.1369 H   0  0  0  0  0  0  0  0  0  0  0  0
  152.7498  143.8982  161.5791 H   0  0  0  0  0  0  0  0  0  0  0  0
  151.6393  145.2506  159.7656 H   0  0  0  0  0  0  0  0  0  0  0  0
  153.1874  144.6021  159.2674 H   0  0  0  0  0  0  0  0  0  0  0  0
  152.2072  144.0493  156.4980 H   0  0  0  0  0  0  0  0  0  0  0  0
  151.8061  145.3719  157.3980 H   0  0  0  0  0  0  0  0  0  0  0  0
  152.6712  139.5526  156.7592 H   0  0  0  0  0  0  0  0  0  0  0  0
  150.6220  144.4457  156.7214 H   0  0  0  0  0  0  0  0  0  0  0  0
  1  2  1  0  0  0  0
  1 16  1  0  0  0  0
  1 17  1  0  0  0  0
  1 18  1  0  0  0  0
  2 13  1  0  0  0  0
  2  3  1  0  0  0  0
  3  4  2  0  0  0  0
  3 19  1  0  0  0  0
  4  5  1  0  0  0  0
  4 12  1  0  0  0  0
  5 14  1  0  0  0  0
  5 10  1  0  0  0  0
  5  6  1  0  0  0  0
  6  7  1  0  0  0  0
  7  8  1  0  0  0  0
  7 20  1  0  0  0  0
  7 21  1  0  0  0  0
  8  9  1  0  0  0  0
  8 22  1  0  0  0  0
  8 23  1  0  0  0  0
  9 10  1  0  0  0  0
  9 24  1  0  0  0  0
  9 25  1  0  0  0  0
 10 15  1  0  0  0  0
 10 11  1  0  0  0  0
 11 26  1  0  0  0  0
 11 27  1  0  0  0  0
 11 29  1  0  0  0  0
 12 13  2  0  0  0  0
 12 28  1  0  0  0  0
M  CHG  1  11   1
M  END
> <s_m_source_file>
AV-unprocessed.smi

> <i_m_source_file_index>
2721

> <i_lp_mmshare_version>
43012

> <i_f3d_flags>
0

> <s_epik_input>
W0NIM11uMVtjSF1jKFtjSF1uMSlbQ0BIXTJPW0NIMl1bQ0gyXVtDSDJdW0NAQEhdMltOSDJd

> <s_epik_cmdline>
J2VwaWtfcHl0aG9uJywgJy1waCcsICc3LjAnLCAnLXRuJywgJzgnLCAnLW1hJywgJzIwMCcsICctbWV0YWxfYmluZGluZycsICctaW1hZScsICc8aW5maWxlLm1hZT4nLCAnLW9tYWUnLCAnPG91dGZpbGUubWFlPic=

> <r_lp_tautomer_probability>
1

> <r_epik_Ionization_Penalty>
0.0061467

> <r_epik_Ionization_Penalty_Charging>
0.00611941

> <r_epik_Ionization_Penalty_Neutral>
2.72888e-05

> <r_epik_State_Penalty>
0.00451057

> <r_epik_Charging_Adjusted_Penalty>
0.01063

> <i_epik_Tot_Q>
1

> <i_epik_Tot_abs_Q>
1

> <r_epik_Metal_State_Penalty>
-0

> <b_epik_Metal_Only>
0

> <s_lp_Force_Field>
OPLS_2005

> <r_lp_Energy>
11.0235

> <b_lp_Chiralities_Consistent>
1

> <s_lp_Variant>
AV-unprocessed.smi:2721-4

> <Gold.Version>
5.8.1

> <Gold.Id.Protein>
6NUR|6NUR_protein|mol2

> <Gold.PLP.Fitness>
38.8874

> <Gold.PLP.PLP>
-29.9168

> <Gold.PLP.part.hbond>
-1.0000

> <Gold.PLP.part.metal>
0.0000

> <Gold.PLP.part.buried>
-3.6962

> <Gold.PLP.part.nonpolar>
-24.2683

> <Gold.PLP.part.repulsive>
0.0601

> <Gold.PLP.ligand.clash>
0.0000

> <Gold.PLP.ligand.torsion>
0.0165

> <Gold.PLP.Chemscore.Hbond>
2.0000

> <Gold.PLP.Chemscore.CHOScore>
1.0000

> <Gold.PLP.Chemscore.Metal>
0.0000

> <Gold.Chemscore.Hbonds>
donor molecule, donor type, donor heavy atom, donor atom, acceptor molecule, acceptor atom, score
      L1  H    11    29       P1  8028  2.00
      L1  C     3    19       P1  8028  1.00

> <Gold.PLP.Chemscore.Internal.Correction>
0.0037

> <Gold.Rescore>
     Score         DG    S(hbond)    S(metal)    S(lipo)     H(rot)  DE(clash)    DE(int)     intcor
     15.30     -15.83       0.99        0.00      81.98       1.00       0.17       0.35       ----

> <Gold.Chemscore.Fitness>
15.3044

> <Gold.Chemscore.DG>
-15.8273

> <Gold.Chemscore.ZeroCoef>
-5.4800

> <Gold.Chemscore.Hbond>
0.9926

> <Gold.Chemscore.Metal>
0.0000

> <Gold.Chemscore.Lipo>
81.9815

> <Gold.Chemscore.Internal_Hbond>
0.0000

> <Gold.Chemscore.DEClash>
0.1743

> <Gold.Chemscore.DEInternal>
0.3485

> <Gold.Chemscore.Rot>
1.0000

> <Gold.Chemscore.Internal.Correction>
   9.000000E+99

> <Gold.Chemscore.Hbonds>
donor molecule, donor type, donor heavy atom, donor atom, acceptor molecule, acceptor atom, score
      L1  H    11    29       P1  8028  0.92

> <Gold.Chemscore.Hbond.Weighted>
-3.3154

> <Gold.Chemscore.Metal.Weighted>
-0.0000

> <Gold.Chemscore.Lipo.Weighted>
-9.5918

> <Gold.Chemscore.Internal_Hbond.Weighted>
0.0000

> <Gold.Chemscore.DEClash.Weighted>
0.1743

> <Gold.Chemscore.DEInternal.Weighted>
0.3485

> <Gold.Chemscore.Rot.Weighted>
2.5600

> <Gold.Chemscore.Internal.Correction.Weighted>
   9.000000E+99

> <Gold.Protein.RotatedTorsions>
[ 6907 6896 6895 6894 ] final  -91.45 input  -60.11 | X-H torsion
[ 7974 7965 7964 7962 ] final  -36.07 input  175.53 | X-H torsion
[ 8008 7997 7996 7995 ] final  -11.85 input   59.86 | X-H torsion
[ 10167 10162 10161 10158 ] final  -77.43 input  -65.29 | X-H torsion
[ 10718 10713 10712 10709 ] final  -27.48 input   66.30 | X-H torsion
[ 10763 10752 10751 10750 ] final  119.35 input  -60.55 | X-H torsion
[ 11005 11000 10999 10996 ] final  -20.81 input  -57.11 | X-H torsion

> <Gold.Protein.ActiveResidues>
 VAL166  LYS551  ARG553  GLY616  TRP617  ASP618  TYR619  PRO620  LYS621  CYS622 
 ASP623  PHE694  ASN695  SER759  ASP760  ASP761  ALA762  ILE779  LEU786  VAL792 
 PHE793  MET794  SER795  GLU796  ALA797  LYS798  CYS799  TRP800  GLU811  SER814 

> <Gold.Protein.RotatedAtoms>
  150.6893  134.2275  159.4421 H   0  0  0  0  0  0  0  0  0  0  0  0  # atno 6907 bound_to 6896
  152.0228  134.9810  160.0580 H   0  0  0  0  0  0  0  0  0  0  0  0  # atno 6908 bound_to 6896
  152.1381  133.4412  159.4790 H   0  0  0  0  0  0  0  0  0  0  0  0  # atno 6909 bound_to 6896
  146.0692  140.6235  142.8960 H   0  0  0  0  0  0  0  0  0  0  0  0  # atno 7974 bound_to 7965
  154.5429  140.2292  155.8612 H   0  0  0  0  0  0  0  0  0  0  0  0  # atno 8008 bound_to 7997
  156.1875  140.3085  155.9229 H   0  0  0  0  0  0  0  0  0  0  0  0  # atno 8009 bound_to 7997
  155.3222  140.0441  157.3030 H   0  0  0  0  0  0  0  0  0  0  0  0  # atno 8010 bound_to 7997
  140.4770  143.2412  151.8117 H   0  0  0  0  0  0  0  0  0  0  0  0  # atno 10167 bound_to 10162
  156.4377  130.4458  149.7074 H   0  0  0  0  0  0  0  0  0  0  0  0  # atno 10718 bound_to 10713
  153.5816  135.3483  155.2877 H   0  0  0  0  0  0  0  0  0  0  0  0  # atno 10763 bound_to 10752
  154.8667  135.4183  154.2614 H   0  0  0  0  0  0  0  0  0  0  0  0  # atno 10764 bound_to 10752
  153.3402  135.7049  153.6944 H   0  0  0  0  0  0  0  0  0  0  0  0  # atno 10765 bound_to 10752
  140.8501  133.7863  155.9956 H   0  0  0  0  0  0  0  0  0  0  0  0  # atno 11005 bound_to 11000
  144.7221  140.4408  143.7000 LP  0  0  0  0  0  0  0  0  0  0  0  0  # atno 17320 bound_to 7965
  145.6421  139.1551  143.2909 LP  0  0  0  0  0  0  0  0  0  0  0  0  # atno 17321 bound_to 7965
  139.4827  144.4820  151.9294 LP  0  0  0  0  0  0  0  0  0  0  0  0  # atno 17342 bound_to 10162
  140.3905  144.2621  150.5900 LP  0  0  0  0  0  0  0  0  0  0  0  0  # atno 17343 bound_to 10162
  156.3951  130.7647  151.2651 LP  0  0  0  0  0  0  0  0  0  0  0  0  # atno 17370 bound_to 10713
  157.7507  131.0256  150.3927 LP  0  0  0  0  0  0  0  0  0  0  0  0  # atno 17371 bound_to 10713
  140.8800  134.2623  157.5149 LP  0  0  0  0  0  0  0  0  0  0  0  0  # atno 17394 bound_to 11000
  139.8704  134.9610  156.4382 LP  0  0  0  0  0  0  0  0  0  0  0  0  # atno 17395 bound_to 11000

$$$$
