AV-unprocessed.smi:954|AV-procd|sdf|4258|dock4
  -GOLD-   22720 2163D 1   1.00000     0.00000
 Structure written by MMmdl.
 24 24  0  0  0  0  0  0  0  0  1 V2000
  152.3765  144.3173  159.2148 C   0  0  0  0  0  0  0  0  0  0  0  0
  151.9376  144.2784  157.7451 C   0  0  0  0  0  0  0  0  0  0  0  0
  150.7821  143.4096  157.5520 N   0  0  0  0  0  0  0  0  0  0  0  0
  150.8024  142.0701  157.6260 C   0  0  0  0  0  0  0  0  0  0  0  0
  151.8246  141.4262  157.8691 O   0  0  0  0  0  0  0  0  0  0  0  0
  149.4574  141.3709  157.3894 C   0  0  0  0  0  0  0  0  0  0  0  0
  149.2036  141.0897  155.9854 N   0  0  0  0  0  0  0  0  0  0  0  0
  148.4021  141.7896  155.1028 C   0  0  0  0  0  0  0  0  0  0  0  0
  148.4646  141.1525  153.8959 C   0  0  0  0  0  0  0  0  0  0  0  0
  149.3428  140.0662  154.1562 C   0  0  0  0  0  0  0  0  0  0  0  0
  149.7029  139.1296  153.1911 N   0  0  0  0  0  0  0  0  0  0  0  0
  149.7901  140.0221  155.3976 N   0  0  0  0  0  0  0  0  0  0  0  0
  153.2540  144.9519  159.3392 H   0  0  0  0  0  0  0  0  0  0  0  0
  152.6329  143.3214  159.5769 H   0  0  0  0  0  0  0  0  0  0  0  0
  151.5884  144.7152  159.8549 H   0  0  0  0  0  0  0  0  0  0  0  0
  151.7183  145.2857  157.3871 H   0  0  0  0  0  0  0  0  0  0  0  0
  152.7537  143.9016  157.1283 H   0  0  0  0  0  0  0  0  0  0  0  0
  149.9020  143.8603  157.3471 H   0  0  0  0  0  0  0  0  0  0  0  0
  149.4377  140.4285  157.9378 H   0  0  0  0  0  0  0  0  0  0  0  0
  148.6507  141.9907  157.7842 H   0  0  0  0  0  0  0  0  0  0  0  0
  147.8569  142.6710  155.4066 H   0  0  0  0  0  0  0  0  0  0  0  0
  147.9613  141.4210  152.9790 H   0  0  0  0  0  0  0  0  0  0  0  0
  149.3496  139.1815  152.2465 H   0  0  0  0  0  0  0  0  0  0  0  0
  150.3056  138.3508  153.4147 H   0  0  0  0  0  0  0  0  0  0  0  0
  1  2  1  0  0  0  0
  1 13  1  0  0  0  0
  1 14  1  0  0  0  0
  1 15  1  0  0  0  0
  2  3  1  0  0  0  0
  2 16  1  0  0  0  0
  2 17  1  0  0  0  0
  3  4  1  0  0  0  0
  3 18  1  0  0  0  0
  4  5  2  0  0  0  0
  4  6  1  0  0  0  0
  6  7  1  0  0  0  0
  6 19  1  0  0  0  0
  6 20  1  0  0  0  0
  7 12  1  0  0  0  0
  7  8  1  0  0  0  0
  8  9  2  0  0  0  0
  8 21  1  0  0  0  0
  9 10  1  0  0  0  0
  9 22  1  0  0  0  0
 10 11  1  0  0  0  0
 10 12  2  0  0  0  0
 11 23  1  0  0  0  0
 11 24  1  0  0  0  0
M  END
> <s_m_source_file>
AV-unprocessed.smi

> <i_m_source_file_index>
954

> <i_lp_mmshare_version>
43012

> <i_f3d_flags>
0

> <s_epik_input>
W0NIM11bQ0gyXVtOSF1DKD1PKVtDSDJdbjFbY0hdW2NIXWMobjEpW05IMl0=

> <s_epik_cmdline>
J2VwaWtfcHl0aG9uJywgJy1waCcsICc3LjAnLCAnLXRuJywgJzgnLCAnLW1hJywgJzIwMCcsICctbWV0YWxfYmluZGluZycsICctaW1hZScsICc8aW5maWxlLm1hZT4nLCAnLW9tYWUnLCAnPG91dGZpbGUubWFlPic=

> <r_lp_tautomer_probability>
1

> <r_epik_Ionization_Penalty>
0.000257536

> <r_epik_Ionization_Penalty_Charging>
0

> <r_epik_Ionization_Penalty_Neutral>
0.000257536

> <r_epik_State_Penalty>
-0

> <r_epik_Charging_Adjusted_Penalty>
0

> <i_epik_Tot_Q>
0

> <i_epik_Tot_abs_Q>
0

> <r_epik_Metal_State_Penalty>
-0

> <b_epik_Metal_Only>
0

> <s_lp_Force_Field>
OPLS_2005

> <r_lp_Energy>
1.8316

> <b_lp_Chiralities_Consistent>
1

> <s_lp_Variant>
AV-unprocessed.smi:954-1

> <Gold.Version>
5.8.1

> <Gold.Id.Protein>
6NUR|6NUR_protein|mol2

> <Gold.PLP.Fitness>
31.9691

> <Gold.PLP.PLP>
-25.5560

> <Gold.PLP.part.hbond>
-2.6811

> <Gold.PLP.part.metal>
0.0000

> <Gold.PLP.part.buried>
-1.7947

> <Gold.PLP.part.nonpolar>
-20.9831

> <Gold.PLP.part.repulsive>
0.1203

> <Gold.PLP.ligand.clash>
0.0000

> <Gold.PLP.ligand.torsion>
0.6972

> <Gold.PLP.Chemscore.Hbond>
1.6240

> <Gold.PLP.Chemscore.CHOScore>
0.9784

> <Gold.PLP.Chemscore.Metal>
0.0000

> <Gold.Chemscore.Hbonds>
donor molecule, donor type, donor heavy atom, donor atom, acceptor molecule, acceptor atom, score
      L1  H     3    18       P1  8028  0.59
      L1  H    11    23       P1  7957  0.46
      L1  C     8    21       P1  8028  0.86

> <Gold.PLP.Chemscore.Internal.Correction>
0.0002

> <Gold.Rescore>
     Score         DG    S(hbond)    S(metal)    S(lipo)     H(rot)  DE(clash)    DE(int)     intcor
     10.91     -11.87       1.62        0.00      46.96       1.77       0.41       0.55       ----

> <Gold.Chemscore.Fitness>
10.9128

> <Gold.Chemscore.DG>
-11.8708

> <Gold.Chemscore.ZeroCoef>
-5.4800

> <Gold.Chemscore.Hbond>
1.6224

> <Gold.Chemscore.Metal>
0.0000

> <Gold.Chemscore.Lipo>
46.9561

> <Gold.Chemscore.Internal_Hbond>
0.0000

> <Gold.Chemscore.DEClash>
0.4071

> <Gold.Chemscore.DEInternal>
0.5509

> <Gold.Chemscore.Rot>
1.7664

> <Gold.Chemscore.Internal.Correction>
   9.000000E+99

> <Gold.Chemscore.Hbonds>
donor molecule, donor type, donor heavy atom, donor atom, acceptor molecule, acceptor atom, score
      L1  H     3    18       P1  8028  0.46
      L1  H    11    23       P1  7957  0.45

> <Gold.Chemscore.Hbond.Weighted>
-5.4188

> <Gold.Chemscore.Metal.Weighted>
-0.0000

> <Gold.Chemscore.Lipo.Weighted>
-5.4939

> <Gold.Chemscore.Internal_Hbond.Weighted>
0.0000

> <Gold.Chemscore.DEClash.Weighted>
0.4071

> <Gold.Chemscore.DEInternal.Weighted>
0.5509

> <Gold.Chemscore.Rot.Weighted>
4.5219

> <Gold.Chemscore.Internal.Correction.Weighted>
   9.000000E+99

> <Gold.Protein.RotatedTorsions>
[ 6907 6896 6895 6894 ] final -156.76 input  -60.11 | X-H torsion
[ 7974 7965 7964 7962 ] final  -31.97 input  175.53 | X-H torsion
[ 8008 7997 7996 7995 ] final -106.46 input   59.86 | X-H torsion
[ 10167 10162 10161 10158 ] final  137.61 input  -65.29 | X-H torsion
[ 10718 10713 10712 10709 ] final  160.73 input   66.30 | X-H torsion
[ 10763 10752 10751 10750 ] final  -39.98 input  -60.55 | X-H torsion
[ 11005 11000 10999 10996 ] final  -82.81 input  -57.11 | X-H torsion

> <Gold.Protein.ActiveResidues>
 VAL166  LYS551  ARG553  GLY616  TRP617  ASP618  TYR619  PRO620  LYS621  CYS622 
 ASP623  PHE694  ASN695  SER759  ASP760  ASP761  ALA762  ILE779  LEU786  VAL792 
 PHE793  MET794  SER795  GLU796  ALA797  LYS798  CYS799  TRP800  GLU811  SER814 

> <Gold.Protein.RotatedAtoms>
  151.2925  133.4159  159.2633 H   0  0  0  0  0  0  0  0  0  0  0  0  # atno 6907 bound_to 6896
  151.0265  134.9508  159.8098 H   0  0  0  0  0  0  0  0  0  0  0  0  # atno 6908 bound_to 6896
  152.5336  134.2887  159.9087 H   0  0  0  0  0  0  0  0  0  0  0  0  # atno 6909 bound_to 6896
  146.1026  140.5733  142.8814 H   0  0  0  0  0  0  0  0  0  0  0  0  # atno 7974 bound_to 7965
  154.9148  140.0409  157.1966 H   0  0  0  0  0  0  0  0  0  0  0  0  # atno 8008 bound_to 7997
  154.8312  140.2899  155.5699 H   0  0  0  0  0  0  0  0  0  0  0  0  # atno 8009 bound_to 7997
  156.2987  140.2500  156.3238 H   0  0  0  0  0  0  0  0  0  0  0  0  # atno 8010 bound_to 7997
  139.5138  144.6400  151.5595 H   0  0  0  0  0  0  0  0  0  0  0  0  # atno 10167 bound_to 10162
  157.1463  131.0553  151.2302 H   0  0  0  0  0  0  0  0  0  0  0  0  # atno 10718 bound_to 10713
  153.9383  135.6764  153.4744 H   0  0  0  0  0  0  0  0  0  0  0  0  # atno 10763 bound_to 10752
  153.0944  135.4858  154.8748 H   0  0  0  0  0  0  0  0  0  0  0  0  # atno 10764 bound_to 10752
  154.7391  135.3156  154.8718 H   0  0  0  0  0  0  0  0  0  0  0  0  # atno 10765 bound_to 10752
  141.1661  133.7263  156.8626 H   0  0  0  0  0  0  0  0  0  0  0  0  # atno 11005 bound_to 11000
  144.7445  140.5032  143.6845 LP  0  0  0  0  0  0  0  0  0  0  0  0  # atno 17320 bound_to 7965
  145.5823  139.1490  143.3228 LP  0  0  0  0  0  0  0  0  0  0  0  0  # atno 17321 bound_to 7965
  140.6163  143.9342  150.6491 LP  0  0  0  0  0  0  0  0  0  0  0  0  # atno 17342 bound_to 10162
  140.2601  143.3530  152.1330 LP  0  0  0  0  0  0  0  0  0  0  0  0  # atno 17343 bound_to 10162
  157.4261  130.7464  149.6952 LP  0  0  0  0  0  0  0  0  0  0  0  0  # atno 17370 bound_to 10713
  155.9779  130.4058  150.3684 LP  0  0  0  0  0  0  0  0  0  0  0  0  # atno 17371 bound_to 10713
  140.1837  134.9015  157.2979 LP  0  0  0  0  0  0  0  0  0  0  0  0  # atno 17394 bound_to 11000
  140.2366  134.3845  155.7498 LP  0  0  0  0  0  0  0  0  0  0  0  0  # atno 17395 bound_to 11000

$$$$
