AV-unprocessed.smi:3263|AV-procd|sdf|12489|dock2
  -GOLD-   2272018393D 1   1.00000     0.00000
 Structure written by MMmdl.
 41 43  0  0  0  0  0  0  0  0  1 V2000
  150.8874  140.2822  158.6582 O   0  0  0  0  0  0  0  0  0  0  0  0
  152.1160  140.3488  158.6152 C   0  0  0  0  0  0  0  0  0  0  0  0
  152.8466  141.5486  159.2271 C   0  0  0  0  0  0  0  0  0  0  0  0
  151.8794  142.6211  159.7773 C   0  0  1  0  0  0  0  0  0  0  0  0
  152.5553  143.8933  160.3367 C   0  0  0  0  0  0  0  0  0  0  0  0
  151.7825  145.0272  159.6372 C   0  0  1  0  0  0  0  0  0  0  0  0
  152.2232  145.1003  158.1639 C   0  0  0  0  0  0  0  0  0  0  0  0
  151.5630  143.8513  157.5521 C   0  0  0  0  0  0  0  0  0  0  0  0
  150.8640  143.2024  158.7649 C   0  0  2  0  0  0  0  0  0  0  0  0
  150.3806  144.4387  159.5178 C   0  0  0  0  0  0  0  0  0  0  0  0
  152.8851  139.4047  158.0518 N   0  0  0  0  0  0  0  0  0  0  0  0
  152.3911  138.1717  157.4499 C   0  0  0  0  0  0  0  0  0  0  0  0
  152.1523  138.3394  155.9398 C   0  0  0  0  0  0  0  0  0  0  0  0
  150.7784  138.9053  155.6335 C   0  0  0  0  0  0  0  0  0  0  0  0
  149.7536  138.0765  155.1283 C   0  0  0  0  0  0  0  0  0  0  0  0
  148.4973  138.6527  154.8571 C   0  0  0  0  0  0  0  0  0  0  0  0
  148.3154  140.0279  155.0989 C   0  0  0  0  0  0  0  0  0  0  0  0
  149.4027  140.7693  155.6029 C   0  0  0  0  0  0  0  0  0  0  0  0
  150.6110  140.2265  155.8669 N   0  0  0  0  0  0  0  0  0  0  0  0
  153.5134  141.1938  160.0131 H   0  0  0  0  0  0  0  0  0  0  0  0
  153.4803  141.9874  158.4557 H   0  0  0  0  0  0  0  0  0  0  0  0
  151.2960  142.1677  160.5813 H   0  0  0  0  0  0  0  0  0  0  0  0
  152.4339  143.9448  161.4195 H   0  0  0  0  0  0  0  0  0  0  0  0
  153.6238  143.9403  160.1219 H   0  0  0  0  0  0  0  0  0  0  0  0
  151.8407  145.9829  160.1587 H   0  0  0  0  0  0  0  0  0  0  0  0
  151.8451  146.0056  157.6875 H   0  0  0  0  0  0  0  0  0  0  0  0
  153.3085  145.0927  158.0554 H   0  0  0  0  0  0  0  0  0  0  0  0
  150.8248  144.1463  156.8049 H   0  0  0  0  0  0  0  0  0  0  0  0
  152.2756  143.1947  157.0552 H   0  0  0  0  0  0  0  0  0  0  0  0
  150.0753  142.5016  158.4896 H   0  0  0  0  0  0  0  0  0  0  0  0
  149.9232  144.2113  160.4822 H   0  0  0  0  0  0  0  0  0  0  0  0
  149.6977  145.0619  158.9375 H   0  0  0  0  0  0  0  0  0  0  0  0
  153.8856  139.5417  158.0567 H   0  0  0  0  0  0  0  0  0  0  0  0
  153.0889  137.3547  157.6412 H   0  0  0  0  0  0  0  0  0  0  0  0
  151.4573  137.9048  157.9450 H   0  0  0  0  0  0  0  0  0  0  0  0
  152.9131  138.9953  155.5142 H   0  0  0  0  0  0  0  0  0  0  0  0
  152.2573  137.3803  155.4307 H   0  0  0  0  0  0  0  0  0  0  0  0
  149.9241  137.0248  154.9516 H   0  0  0  0  0  0  0  0  0  0  0  0
  147.6880  138.0510  154.4702 H   0  0  0  0  0  0  0  0  0  0  0  0
  147.3663  140.5037  154.9023 H   0  0  0  0  0  0  0  0  0  0  0  0
  149.2992  141.8262  155.7984 H   0  0  0  0  0  0  0  0  0  0  0  0
  1  2  2  0  0  0  0
  2  3  1  0  0  0  0
  2 11  1  0  0  0  0
  3  4  1  0  0  0  0
  3 20  1  0  0  0  0
  3 21  1  0  0  0  0
  4  9  1  0  0  0  0
  4  5  1  0  0  0  0
  4 22  1  0  0  0  0
  5  6  1  0  0  0  0
  5 23  1  0  0  0  0
  5 24  1  0  0  0  0
  6 10  1  0  0  0  0
  6  7  1  0  0  0  0
  6 25  1  0  0  0  0
  7  8  1  0  0  0  0
  7 26  1  0  0  0  0
  7 27  1  0  0  0  0
  8  9  1  0  0  0  0
  8 28  1  0  0  0  0
  8 29  1  0  0  0  0
  9 10  1  0  0  0  0
  9 30  1  0  0  0  0
 10 31  1  0  0  0  0
 10 32  1  0  0  0  0
 11 12  1  0  0  0  0
 11 33  1  0  0  0  0
 12 13  1  0  0  0  0
 12 34  1  0  0  0  0
 12 35  1  0  0  0  0
 13 14  1  0  0  0  0
 13 36  1  0  0  0  0
 13 37  1  0  0  0  0
 14 19  1  0  0  0  0
 14 15  2  0  0  0  0
 15 16  1  0  0  0  0
 15 38  1  0  0  0  0
 16 17  2  0  0  0  0
 16 39  1  0  0  0  0
 17 18  1  0  0  0  0
 17 40  1  0  0  0  0
 18 19  2  0  0  0  0
 18 41  1  0  0  0  0
M  END
> <s_m_source_file>
AV-unprocessed.smi

> <i_m_source_file_index>
3263

> <i_lp_mmshare_version>
43012

> <i_f3d_flags>
0

> <s_epik_input>
W0NIMl0xW0NIMl1bQ0BASF0oW0NIMl0yKVtDQEBIXShbQ0gyXVtDQEhdMTIpW0NIMl1DKD1PKVtOSF1bQ0gyXVtDSDJdYzNbY0hdW2NIXVtjSF1bY0hdbjM=

> <s_epik_cmdline>
J2VwaWtfcHl0aG9uJywgJy1waCcsICc3LjAnLCAnLXRuJywgJzgnLCAnLW1hJywgJzIwMCcsICctbWV0YWxfYmluZGluZycsICctaW1hZScsICc8aW5maWxlLm1hZT4nLCAnLW9tYWUnLCAnPG91dGZpbGUubWFlPic=

> <r_epik_Ionization_Penalty>
0.0273541

> <r_epik_Ionization_Penalty_Charging>
0

> <r_epik_Ionization_Penalty_Neutral>
0.0273541

> <r_epik_State_Penalty>
0.0223838

> <r_epik_Charging_Adjusted_Penalty>
0.0223838

> <i_epik_Tot_Q>
0

> <i_epik_Tot_abs_Q>
0

> <r_epik_Metal_State_Penalty>
0.0213927

> <b_epik_Metal_Only>
0

> <s_lp_Force_Field>
OPLS_2005

> <r_lp_Energy>
45.4659

> <b_lp_Chiralities_Consistent>
1

> <s_lp_Variant>
AV-unprocessed.smi:3263-4

> <Gold.Version>
5.8.1

> <Gold.Id.Protein>
6NUR|6NUR_protein|mol2

> <Gold.PLP.Fitness>
46.9164

> <Gold.PLP.PLP>
-44.9173

> <Gold.PLP.part.hbond>
-1.0000

> <Gold.PLP.part.metal>
0.0000

> <Gold.PLP.part.buried>
-4.1315

> <Gold.PLP.part.nonpolar>
-40.1722

> <Gold.PLP.part.repulsive>
1.7279

> <Gold.PLP.ligand.clash>
0.0000

> <Gold.PLP.ligand.torsion>
0.5355

> <Gold.PLP.Chemscore.Hbond>
0.0000

> <Gold.PLP.Chemscore.CHOScore>
1.0000

> <Gold.PLP.Chemscore.Metal>
0.0000

> <Gold.Chemscore.Hbonds>
donor molecule, donor type, donor heavy atom, donor atom, acceptor molecule, acceptor atom, score
      L1  C    18    41       P1  8028  0.02

> <Gold.PLP.Chemscore.Internal.Correction>
0.0700

> <Gold.Rescore>
     Score         DG    S(hbond)    S(metal)    S(lipo)     H(rot)  DE(clash)    DE(int)     intcor
     14.23     -17.53       0.00        0.00     134.81       1.46       0.02       3.28       ----

> <Gold.Chemscore.Fitness>
14.2283

> <Gold.Chemscore.DG>
-17.5268

> <Gold.Chemscore.ZeroCoef>
-5.4800

> <Gold.Chemscore.Hbond>
0.0000

> <Gold.Chemscore.Metal>
0.0000

> <Gold.Chemscore.Lipo>
134.8107

> <Gold.Chemscore.Internal_Hbond>
0.0000

> <Gold.Chemscore.DEClash>
0.0202

> <Gold.Chemscore.DEInternal>
3.2783

> <Gold.Chemscore.Rot>
1.4555

> <Gold.Chemscore.Internal.Correction>
   9.000000E+99

> <Gold.Chemscore.Hbond.Weighted>
-0.0000

> <Gold.Chemscore.Metal.Weighted>
-0.0000

> <Gold.Chemscore.Lipo.Weighted>
-15.7729

> <Gold.Chemscore.Internal_Hbond.Weighted>
0.0000

> <Gold.Chemscore.DEClash.Weighted>
0.0202

> <Gold.Chemscore.DEInternal.Weighted>
3.2783

> <Gold.Chemscore.Rot.Weighted>
3.7260

> <Gold.Chemscore.Internal.Correction.Weighted>
   9.000000E+99

> <Gold.Protein.RotatedTorsions>
[ 6907 6896 6895 6894 ] final   43.80 input  -60.11 | X-H torsion
[ 7974 7965 7964 7962 ] final  -17.27 input  175.53 | X-H torsion
[ 8008 7997 7996 7995 ] final   35.18 input   59.86 | X-H torsion
[ 10167 10162 10161 10158 ] final  106.02 input  -65.29 | X-H torsion
[ 10718 10713 10712 10709 ] final  -92.83 input   66.30 | X-H torsion
[ 10763 10752 10751 10750 ] final  -77.18 input  -60.55 | X-H torsion
[ 11005 11000 10999 10996 ] final  142.86 input  -57.11 | X-H torsion

> <Gold.Protein.ActiveResidues>
 VAL166  LYS551  ARG553  GLY616  TRP617  ASP618  TYR619  PRO620  LYS621  CYS622 
 ASP623  PHE694  ASN695  SER759  ASP760  ASP761  ALA762  ILE779  LEU786  VAL792 
 PHE793  MET794  SER795  GLU796  ALA797  LYS798  CYS799  TRP800  GLU811  SER814 

> <Gold.Protein.RotatedAtoms>
  152.2247  134.8379  160.0481 H   0  0  0  0  0  0  0  0  0  0  0  0  # atno 6907 bound_to 6896
  151.9150  133.3566  159.3885 H   0  0  0  0  0  0  0  0  0  0  0  0  # atno 6908 bound_to 6896
  150.7009  134.4618  159.5428 H   0  0  0  0  0  0  0  0  0  0  0  0  # atno 6909 bound_to 6896
  146.1949  140.3755  142.8444 H   0  0  0  0  0  0  0  0  0  0  0  0  # atno 7974 bound_to 7965
  155.1669  140.3288  155.4400 H   0  0  0  0  0  0  0  0  0  0  0  0  # atno 8008 bound_to 7997
  156.2523  140.1950  156.6724 H   0  0  0  0  0  0  0  0  0  0  0  0  # atno 8009 bound_to 7997
  154.6365  140.0576  156.9781 H   0  0  0  0  0  0  0  0  0  0  0  0  # atno 8010 bound_to 7997
  139.7044  144.7089  151.1131 H   0  0  0  0  0  0  0  0  0  0  0  0  # atno 10167 bound_to 10162
  156.0006  130.5003  150.5685 H   0  0  0  0  0  0  0  0  0  0  0  0  # atno 10718 bound_to 10713
  154.5095  135.5773  153.6594 H   0  0  0  0  0  0  0  0  0  0  0  0  # atno 10763 bound_to 10752
  152.9894  135.6155  154.2897 H   0  0  0  0  0  0  0  0  0  0  0  0  # atno 10764 bound_to 10752
  154.2811  135.2851  155.2676 H   0  0  0  0  0  0  0  0  0  0  0  0  # atno 10765 bound_to 10752
  140.0509  134.9256  157.1015 H   0  0  0  0  0  0  0  0  0  0  0  0  # atno 11005 bound_to 11000
  144.8560  140.7071  143.6138 LP  0  0  0  0  0  0  0  0  0  0  0  0  # atno 17320 bound_to 7965
  145.3676  139.1666  143.4350 LP  0  0  0  0  0  0  0  0  0  0  0  0  # atno 17321 bound_to 7965
  140.7718  143.5379  150.9347 LP  0  0  0  0  0  0  0  0  0  0  0  0  # atno 17342 bound_to 10162
  139.9061  143.6776  152.3123 LP  0  0  0  0  0  0  0  0  0  0  0  0  # atno 17343 bound_to 10162
  157.3584  131.0745  151.1657 LP  0  0  0  0  0  0  0  0  0  0  0  0  # atno 17370 bound_to 10713
  157.2450  130.6587  149.5906 LP  0  0  0  0  0  0  0  0  0  0  0  0  # atno 17371 bound_to 10713
  140.3919  134.2176  155.7166 LP  0  0  0  0  0  0  0  0  0  0  0  0  # atno 17394 bound_to 11000
  141.1930  133.8161  157.0817 LP  0  0  0  0  0  0  0  0  0  0  0  0  # atno 17395 bound_to 11000

$$$$
