AV-unprocessed.smi:2973|AV-procd|sdf|11339|dock7
  -GOLD-   2272016253D 1   1.00000     0.00000
 Structure written by MMmdl.
 49 51  0  0  0  0  0  0  0  0  1 V2000
  152.2006  139.8819  158.8503 C   0  0  0  0  0  0  0  0  0  0  0  0
  152.3791  141.3298  158.3439 C   0  0  2  0  0  0  0  0  0  0  0  0
  152.7951  142.2537  159.5093 C   0  0  0  0  0  0  0  0  0  0  0  0
  153.0535  143.6939  159.0391 C   0  0  0  0  0  0  0  0  0  0  0  0
  151.8329  144.2718  158.3095 C   0  0  0  0  0  0  0  0  0  0  0  0
  151.4169  143.3699  157.1364 C   0  0  0  0  0  0  0  0  0  0  0  0
  151.1433  141.9167  157.5929 C   0  0  2  0  0  0  0  0  0  0  0  0
  149.9297  141.8424  158.3895 N   0  0  0  0  0  0  0  0  0  0  0  0
  148.9705  141.1080  157.8128 C   0  0  0  0  0  0  0  0  0  0  0  0
  147.8607  140.8880  158.2944 O   0  0  0  0  0  0  0  0  0  0  0  0
  149.4380  140.6483  156.6377 N   0  0  0  0  0  0  0  0  0  0  0  0
  148.6812  139.7695  155.7329 C   0  0  0  0  0  0  0  0  0  0  0  0
  148.3360  138.3848  156.3091 C   0  0  0  0  0  0  0  0  0  0  0  0
  148.4859  137.3901  155.6006 O   0  0  0  0  0  0  0  0  0  0  0  0
  147.8739  138.3147  157.5691 N   0  0  0  0  0  0  0  0  0  0  0  0
  147.4782  137.0925  158.2566 C   0  0  0  0  0  0  0  0  0  0  0  0
  148.5762  136.6117  159.2191 C   0  0  0  0  0  0  0  0  0  0  0  0
  148.0120  136.1530  160.5502 C   0  0  0  0  0  0  0  0  0  0  0  0
  147.9431  134.7798  160.8677 C   0  0  0  0  0  0  0  0  0  0  0  0
  147.4174  134.4062  162.1195 C   0  0  0  0  0  0  0  0  0  0  0  0
  146.9842  135.4148  163.0015 C   0  0  0  0  0  0  0  0  0  0  0  0
  147.0966  136.7581  162.5904 C   0  0  0  0  0  0  0  0  0  0  0  0
  147.5998  137.1272  161.3926 N   0  0  0  0  0  0  0  0  0  0  0  0
  150.6944  141.0597  156.4157 C   0  0  0  0  0  0  0  0  0  0  0  0
  151.4024  140.7961  155.4437 O   0  0  0  0  0  0  0  0  0  0  0  0
  151.3760  139.7992  159.5590 H   0  0  0  0  0  0  0  0  0  0  0  0
  153.1015  139.5348  159.3566 H   0  0  0  0  0  0  0  0  0  0  0  0
  152.0104  139.1867  158.0330 H   0  0  0  0  0  0  0  0  0  0  0  0
  153.2124  141.3138  157.6393 H   0  0  0  0  0  0  0  0  0  0  0  0
  152.0202  142.2554  160.2768 H   0  0  0  0  0  0  0  0  0  0  0  0
  153.6958  141.8662  159.9868 H   0  0  0  0  0  0  0  0  0  0  0  0
  153.3076  144.3231  159.8925 H   0  0  0  0  0  0  0  0  0  0  0  0
  153.9181  143.7112  158.3743 H   0  0  0  0  0  0  0  0  0  0  0  0
  151.0027  144.3794  159.0087 H   0  0  0  0  0  0  0  0  0  0  0  0
  152.0590  145.2740  157.9443 H   0  0  0  0  0  0  0  0  0  0  0  0
  150.5380  143.7917  156.6460 H   0  0  0  0  0  0  0  0  0  0  0  0
  152.2119  143.3766  156.3888 H   0  0  0  0  0  0  0  0  0  0  0  0
  149.8364  142.2978  159.2858 H   0  0  0  0  0  0  0  0  0  0  0  0
  147.7510  140.2593  155.4399 H   0  0  0  0  0  0  0  0  0  0  0  0
  149.2370  139.6235  154.8053 H   0  0  0  0  0  0  0  0  0  0  0  0
  147.7816  139.1767  158.0865 H   0  0  0  0  0  0  0  0  0  0  0  0
  146.5397  137.2475  158.7916 H   0  0  0  0  0  0  0  0  0  0  0  0
  147.2837  136.3304  157.5013 H   0  0  0  0  0  0  0  0  0  0  0  0
  149.1335  135.7889  158.7687 H   0  0  0  0  0  0  0  0  0  0  0  0
  149.2987  137.4095  159.3954 H   0  0  0  0  0  0  0  0  0  0  0  0
  148.2861  134.0294  160.1704 H   0  0  0  0  0  0  0  0  0  0  0  0
  147.3490  133.3651  162.3985 H   0  0  0  0  0  0  0  0  0  0  0  0
  146.5762  135.1652  163.9698 H   0  0  0  0  0  0  0  0  0  0  0  0
  146.7745  137.5572  163.2413 H   0  0  0  0  0  0  0  0  0  0  0  0
  1  2  1  0  0  0  0
  1 26  1  0  0  0  0
  1 27  1  0  0  0  0
  1 28  1  0  0  0  0
  2  7  1  0  0  0  0
  2  3  1  0  0  0  0
  2 29  1  0  0  0  0
  3  4  1  0  0  0  0
  3 30  1  0  0  0  0
  3 31  1  0  0  0  0
  4  5  1  0  0  0  0
  4 32  1  0  0  0  0
  4 33  1  0  0  0  0
  5  6  1  0  0  0  0
  5 34  1  0  0  0  0
  5 35  1  0  0  0  0
  6  7  1  0  0  0  0
  6 36  1  0  0  0  0
  6 37  1  0  0  0  0
  7 24  1  0  0  0  0
  7  8  1  0  0  0  0
  8  9  1  0  0  0  0
  8 38  1  0  0  0  0
  9 10  2  0  0  0  0
  9 11  1  0  0  0  0
 11 12  1  0  0  0  0
 11 24  1  0  0  0  0
 12 13  1  0  0  0  0
 12 39  1  0  0  0  0
 12 40  1  0  0  0  0
 13 14  2  0  0  0  0
 13 15  1  0  0  0  0
 15 16  1  0  0  0  0
 15 41  1  0  0  0  0
 16 17  1  0  0  0  0
 16 42  1  0  0  0  0
 16 43  1  0  0  0  0
 17 18  1  0  0  0  0
 17 44  1  0  0  0  0
 17 45  1  0  0  0  0
 18 23  1  0  0  0  0
 18 19  2  0  0  0  0
 19 20  1  0  0  0  0
 19 46  1  0  0  0  0
 20 21  2  0  0  0  0
 20 47  1  0  0  0  0
 21 22  1  0  0  0  0
 21 48  1  0  0  0  0
 22 23  2  0  0  0  0
 22 49  1  0  0  0  0
 24 25  2  0  0  0  0
M  END
> <s_m_source_file>
AV-unprocessed.smi

> <i_m_source_file_index>
2973

> <i_lp_mmshare_version>
43012

> <i_f3d_flags>
0

> <s_epik_input>
W0NIMl0xW0NIMl1bQ0gyXVtDSDJdW0NAQEhdKFtDSDNdKVtDQF0xMltOSF1DKD1PKU4oQzI9TylbQ0gyXUMoPU8pW05IXVtDSDJdW0NIMl1jM1tjSF1bY0hdW2NIXVtjSF1uMw==

> <s_epik_cmdline>
J2VwaWtfcHl0aG9uJywgJy1waCcsICc3LjAnLCAnLXRuJywgJzgnLCAnLW1hJywgJzIwMCcsICctbWV0YWxfYmluZGluZycsICctaW1hZScsICc8aW5maWxlLm1hZT4nLCAnLW9tYWUnLCAnPG91dGZpbGUubWFlPic=

> <r_lp_tautomer_probability>
1

> <r_epik_Ionization_Penalty>
0.0245152

> <r_epik_Ionization_Penalty_Charging>
0

> <r_epik_Ionization_Penalty_Neutral>
0.0245152

> <r_epik_State_Penalty>
0.0198648

> <r_epik_Charging_Adjusted_Penalty>
0.0198648

> <i_epik_Tot_Q>
0

> <i_epik_Tot_abs_Q>
0

> <r_epik_Metal_State_Penalty>
0.0400162

> <b_epik_Metal_Only>
0

> <s_lp_Force_Field>
OPLS_2005

> <r_lp_Energy>
21.7018

> <b_lp_Chiralities_Consistent>
1

> <s_lp_Variant>
AV-unprocessed.smi:2973-3

> <Gold.Version>
5.8.1

> <Gold.Id.Protein>
6NUR|6NUR_protein|mol2

> <Gold.PLP.Fitness>
51.4765

> <Gold.PLP.PLP>
-45.3849

> <Gold.PLP.part.hbond>
-4.0000

> <Gold.PLP.part.metal>
0.0000

> <Gold.PLP.part.buried>
-4.4857

> <Gold.PLP.part.nonpolar>
-37.2534

> <Gold.PLP.part.repulsive>
0.3278

> <Gold.PLP.ligand.clash>
0.0000

> <Gold.PLP.ligand.torsion>
0.8365

> <Gold.PLP.Chemscore.Hbond>
2.5760

> <Gold.PLP.Chemscore.CHOScore>
0.0000

> <Gold.PLP.Chemscore.Metal>
0.0000

> <Gold.Chemscore.Hbonds>
donor molecule, donor type, donor heavy atom, donor atom, acceptor molecule, acceptor atom, score
      P1  H  6931  6943       L1    23  0.99
      P1  H  6934  6947       L1    23  0.86
      P1  H  7989  7998       L1    25  0.72

> <Gold.PLP.Chemscore.Internal.Correction>
0.0365

> <Gold.Rescore>
     Score         DG    S(hbond)    S(metal)    S(lipo)     H(rot)  DE(clash)    DE(int)     intcor
     19.28     -21.01       1.86        0.00     120.20       1.86       0.27       1.45       ----

> <Gold.Chemscore.Fitness>
19.2840

> <Gold.Chemscore.DG>
-21.0065

> <Gold.Chemscore.ZeroCoef>
-5.4800

> <Gold.Chemscore.Hbond>
1.8603

> <Gold.Chemscore.Metal>
0.0000

> <Gold.Chemscore.Lipo>
120.1961

> <Gold.Chemscore.Internal_Hbond>
0.0000

> <Gold.Chemscore.DEClash>
0.2685

> <Gold.Chemscore.DEInternal>
1.4541

> <Gold.Chemscore.Rot>
1.8553

> <Gold.Chemscore.Internal.Correction>
   9.000000E+99

> <Gold.Chemscore.Hbonds>
donor molecule, donor type, donor heavy atom, donor atom, acceptor molecule, acceptor atom, score
      P1  H  6931  6943       L1    23  0.27
      P1  H  6934  6947       L1    23  0.70
      P1  H  7989  7998       L1    25  0.71

> <Gold.Chemscore.Hbond.Weighted>
-6.2133

> <Gold.Chemscore.Metal.Weighted>
-0.0000

> <Gold.Chemscore.Lipo.Weighted>
-14.0629

> <Gold.Chemscore.Internal_Hbond.Weighted>
0.0000

> <Gold.Chemscore.DEClash.Weighted>
0.2685

> <Gold.Chemscore.DEInternal.Weighted>
1.4541

> <Gold.Chemscore.Rot.Weighted>
4.7497

> <Gold.Chemscore.Internal.Correction.Weighted>
   9.000000E+99

> <Gold.Protein.RotatedTorsions>
[ 6907 6896 6895 6894 ] final -105.07 input  -60.11 | X-H torsion
[ 7974 7965 7964 7962 ] final  -62.41 input  175.53 | X-H torsion
[ 8008 7997 7996 7995 ] final   82.06 input   59.86 | X-H torsion
[ 10167 10162 10161 10158 ] final  106.96 input  -65.29 | X-H torsion
[ 10718 10713 10712 10709 ] final -105.90 input   66.30 | X-H torsion
[ 10763 10752 10751 10750 ] final -111.26 input  -60.55 | X-H torsion
[ 11005 11000 10999 10996 ] final   49.73 input  -57.11 | X-H torsion

> <Gold.Protein.ActiveResidues>
 VAL166  LYS551  ARG553  GLY616  TRP617  ASP618  TYR619  PRO620  LYS621  CYS622 
 ASP623  PHE694  ASN695  SER759  ASP760  ASP761  ALA762  ILE779  LEU786  VAL792 
 PHE793  MET794  SER795  GLU796  ALA797  LYS798  CYS799  TRP800  GLU811  SER814 

> <Gold.Protein.RotatedAtoms>
  150.7318  134.0183  159.3692 H   0  0  0  0  0  0  0  0  0  0  0  0  # atno 6907 bound_to 6896
  151.8146  135.0668  160.0426 H   0  0  0  0  0  0  0  0  0  0  0  0  # atno 6908 bound_to 6896
  152.3048  133.5655  159.5678 H   0  0  0  0  0  0  0  0  0  0  0  0  # atno 6909 bound_to 6896
  145.7917  140.8706  143.0277 H   0  0  0  0  0  0  0  0  0  0  0  0  # atno 7974 bound_to 7965
  155.9056  140.3430  155.6059 H   0  0  0  0  0  0  0  0  0  0  0  0  # atno 8008 bound_to 7997
  155.7449  140.0812  157.2247 H   0  0  0  0  0  0  0  0  0  0  0  0  # atno 8009 bound_to 7997
  154.4049  140.1564  156.2645 H   0  0  0  0  0  0  0  0  0  0  0  0  # atno 8010 bound_to 7997
  139.6966  144.7100  151.1256 H   0  0  0  0  0  0  0  0  0  0  0  0  # atno 10167 bound_to 10162
  156.0366  130.5586  150.7605 H   0  0  0  0  0  0  0  0  0  0  0  0  # atno 10718 bound_to 10713
  154.8291  135.4534  154.1012 H   0  0  0  0  0  0  0  0  0  0  0  0  # atno 10763 bound_to 10752
  153.2301  135.6904  153.7906 H   0  0  0  0  0  0  0  0  0  0  0  0  # atno 10764 bound_to 10752
  153.7292  135.3329  155.3259 H   0  0  0  0  0  0  0  0  0  0  0  0  # atno 10765 bound_to 10752
  140.1078  134.4995  155.8705 H   0  0  0  0  0  0  0  0  0  0  0  0  # atno 11005 bound_to 11000
  144.6781  140.0132  143.7484 LP  0  0  0  0  0  0  0  0  0  0  0  0  # atno 17320 bound_to 7965
  145.9970  139.3060  143.0950 LP  0  0  0  0  0  0  0  0  0  0  0  0  # atno 17321 bound_to 7965
  140.7698  143.5483  150.9234 LP  0  0  0  0  0  0  0  0  0  0  0  0  # atno 17342 bound_to 10162
  139.9163  143.6660  152.3105 LP  0  0  0  0  0  0  0  0  0  0  0  0  # atno 17343 bound_to 10162
  157.5125  131.0926  151.0180 LP  0  0  0  0  0  0  0  0  0  0  0  0  # atno 17370 bound_to 10713
  157.0531  130.5795  149.5373 LP  0  0  0  0  0  0  0  0  0  0  0  0  # atno 17371 bound_to 10713
  141.2122  133.6717  156.6645 LP  0  0  0  0  0  0  0  0  0  0  0  0  # atno 17394 bound_to 11000
  140.3132  134.8068  157.4193 LP  0  0  0  0  0  0  0  0  0  0  0  0  # atno 17395 bound_to 11000

$$$$
