AV-unprocessed.smi:38|AV-procd|sdf|348|dock8
  -GOLD-   2262016183D 1   1.00000     0.00000
 Structure written by MMmdl.
 27 28  0  0  0  0  0  0  0  0  2 V2000
  153.2686  135.7874  158.6876 O   0  0  0  0  0  0  0  0  0  0  0  0
  152.8460  136.6634  157.9344 C   0  0  0  0  0  0  0  0  0  0  0  0
  152.6376  136.4540  156.6018 N   0  5  0  0  0  0  0  0  0  0  0  0
  152.1653  137.4263  155.7674 C   0  0  0  0  0  0  0  0  0  0  0  0
  151.9978  137.2534  154.5600 O   0  0  0  0  0  0  0  0  0  0  0  0
  151.8583  138.7039  156.3086 N   0  0  0  0  0  0  0  0  0  0  0  0
  151.3474  139.7949  155.3991 C   0  0  2  0  0  0  0  0  0  0  0  0
  151.0516  141.0700  156.1814 C   0  0  0  0  0  0  0  0  0  0  0  0
  149.8867  141.6687  155.3993 C   0  0  2  0  0  0  0  0  0  0  0  0
  148.8483  142.0416  156.2866 O   0  0  0  0  0  0  0  0  0  0  0  0
  149.4848  140.5770  154.3786 C   0  0  2  0  0  0  0  0  0  0  0  0
  147.9752  140.3170  154.2181 C   0  0  0  0  0  0  0  0  0  0  0  0
  147.7480  139.3984  153.1704 O   0  0  0  0  0  0  0  0  0  0  0  0
  150.1346  139.4029  154.8481 O   0  0  0  0  0  0  0  0  0  0  0  0
  152.0787  138.9522  157.6527 C   0  0  0  0  0  0  0  0  0  0  0  0
  152.5529  137.9911  158.4715 C   0  0  0  0  0  0  0  0  0  0  0  0
  152.7588  138.2610  159.7723 F   0  0  0  0  0  0  0  0  0  0  0  0
  152.0751  139.9260  154.5958 H   0  0  0  0  0  0  0  0  0  0  0  0
  150.2092  142.5635  154.8660 H   0  0  0  0  0  0  0  0  0  0  0  0
  149.9209  140.8429  153.4134 H   0  0  0  0  0  0  0  0  0  0  0  0
  150.7565  140.8089  157.1996 H   0  0  0  0  0  0  0  0  0  0  0  0
  151.9322  141.7121  156.2214 H   0  0  0  0  0  0  0  0  0  0  0  0
  148.7348  142.9785  156.2397 H   0  0  0  0  0  0  0  0  0  0  0  0
  147.5350  139.9516  155.1465 H   0  0  0  0  0  0  0  0  0  0  0  0
  147.4565  141.2371  153.9485 H   0  0  0  0  0  0  0  0  0  0  0  0
  148.2456  139.6743  152.4160 H   0  0  0  0  0  0  0  0  0  0  0  0
  151.8763  139.9316  158.0602 H   0  0  0  0  0  0  0  0  0  0  0  0
  1  2  2  0  0  0  0
  2 16  1  0  0  0  0
  2  3  1  0  0  0  0
  3  4  1  0  0  0  0
  4  5  2  0  0  0  0
  4  6  1  0  0  0  0
  6  7  1  0  0  0  0
  6 15  1  0  0  0  0
  7 18  1  0  0  0  0
  7 14  1  0  0  0  0
  7  8  1  0  0  0  0
  8  9  1  0  0  0  0
  8 21  1  0  0  0  0
  8 22  1  0  0  0  0
  9 19  1  0  0  0  0
  9 10  1  0  0  0  0
  9 11  1  0  0  0  0
 10 23  1  0  0  0  0
 11 20  1  0  0  0  0
 11 12  1  0  0  0  0
 11 14  1  0  0  0  0
 12 13  1  0  0  0  0
 12 24  1  0  0  0  0
 12 25  1  0  0  0  0
 13 26  1  0  0  0  0
 15 16  2  0  0  0  0
 15 27  1  0  0  0  0
 16 17  1  0  0  0  0
M  CHG  1   3  -1
M  END
> <s_m_source_file>
AV-unprocessed.smi

> <i_m_source_file_index>
38

> <i_lp_mmshare_version>
43012

> <i_f3d_flags>
0

> <s_epik_input>
Tz1jMVtuSF1jKD1PKW4oW2NIXWMxRilbQ0BIXTJbQ0gyXVtDQEhdKFtPSF0pW0NASF0oTzIpW0NIMl1bT0hd

> <s_epik_cmdline>
J2VwaWtfcHl0aG9uJywgJy1waCcsICc3LjAnLCAnLXRuJywgJzgnLCAnLW1hJywgJzIwMCcsICctbWV0YWxfYmluZGluZycsICctaW1hZScsICc8aW5maWxlLm1hZT4nLCAnLW9tYWUnLCAnPG91dGZpbGUubWFlPic=

> <r_epik_Ionization_Penalty>
1.68146

> <r_epik_Ionization_Penalty_Charging>
3.4211e-08

> <r_epik_Ionization_Penalty_Neutral>
1.68146

> <r_epik_State_Penalty>
1.78593

> <r_epik_Charging_Adjusted_Penalty>
1.78593

> <i_epik_Tot_Q>
-1

> <i_epik_Tot_abs_Q>
1

> <r_epik_Metal_State_Penalty>
0.0113696

> <b_epik_Metal_Only>
0

> <s_epik_Chemistry_Notes>
This compound contains an acetal/aminal-like group ( X-CH(R)-Y where X, Y are N, S, or O) that may be acid/base labile, releasing an aldehyde.

> <s_lp_Force_Field>
OPLS_2005

> <r_lp_Energy>
42.0277

> <b_lp_Chiralities_Consistent>
1

> <s_lp_Variant>
AV-unprocessed.smi:38-14

> <Gold.Version>
5.8.1

> <Gold.Id.Protein>
6NUR|6NUR_protein|mol2

> <Gold.PLP.Fitness>
39.9284

> <Gold.PLP.PLP>
-24.8937

> <Gold.PLP.part.hbond>
-5.0000

> <Gold.PLP.part.metal>
0.0000

> <Gold.PLP.part.buried>
-0.8568

> <Gold.PLP.part.nonpolar>
-18.6058

> <Gold.PLP.part.repulsive>
0.2108

> <Gold.PLP.ligand.clash>
0.0000

> <Gold.PLP.ligand.torsion>
0.0339

> <Gold.PLP.Chemscore.Hbond>
5.0269

> <Gold.PLP.Chemscore.CHOScore>
0.0000

> <Gold.PLP.Chemscore.Metal>
0.0000

> <Gold.Chemscore.Hbonds>
donor molecule, donor type, donor heavy atom, donor atom, acceptor molecule, acceptor atom, score
      L1  H    10    23       P1  8028  1.00
      L1  H    13    26       P1  7957  1.00
      P1  H  6896  6908       L1     1  0.64
      P1  H 10752 10764       L1     5  0.29
      P1  H 10752 10765       L1     3  1.95

> <Gold.PLP.Chemscore.Internal.Correction>
0.0216

> <Gold.Rescore>
     Score         DG    S(hbond)    S(metal)    S(lipo)     H(rot)  DE(clash)    DE(int)     intcor
     12.04     -13.55       3.27        0.00      38.61       2.88       0.15       1.36       ----

> <Gold.Chemscore.Fitness>
12.0352

> <Gold.Chemscore.DG>
-13.5450

> <Gold.Chemscore.ZeroCoef>
-5.4800

> <Gold.Chemscore.Hbond>
3.2707

> <Gold.Chemscore.Metal>
0.0000

> <Gold.Chemscore.Lipo>
38.6103

> <Gold.Chemscore.Internal_Hbond>
0.0000

> <Gold.Chemscore.DEClash>
0.1524

> <Gold.Chemscore.DEInternal>
1.3573

> <Gold.Chemscore.Rot>
2.8815

> <Gold.Chemscore.Internal.Correction>
   9.000000E+99

> <Gold.Chemscore.Hbonds>
donor molecule, donor type, donor heavy atom, donor atom, acceptor molecule, acceptor atom, score
      L1  H    10    23       P1  8028  0.99
      L1  H    13    26       P1  7957  1.00
      P1  H  6896  6908       L1     1  0.64
      P1  H 10752 10764       L1     5  0.24
      P1  H 10752 10765       L1     3  0.24

> <Gold.Chemscore.Hbond.Weighted>
-10.9241

> <Gold.Chemscore.Metal.Weighted>
-0.0000

> <Gold.Chemscore.Lipo.Weighted>
-4.5174

> <Gold.Chemscore.Internal_Hbond.Weighted>
0.0000

> <Gold.Chemscore.DEClash.Weighted>
0.1524

> <Gold.Chemscore.DEInternal.Weighted>
1.3573

> <Gold.Chemscore.Rot.Weighted>
7.3765

> <Gold.Chemscore.Internal.Correction.Weighted>
   9.000000E+99

> <Gold.Protein.RotatedTorsions>
[ 6907 6896 6895 6894 ] final  -68.53 input  -60.11 | X-H torsion
[ 7974 7965 7964 7962 ] final -123.49 input  175.53 | X-H torsion
[ 8008 7997 7996 7995 ] final   32.11 input   59.86 | X-H torsion
[ 10167 10162 10161 10158 ] final  -16.95 input  -65.29 | X-H torsion
[ 10718 10713 10712 10709 ] final -144.00 input   66.30 | X-H torsion
[ 10763 10752 10751 10750 ] final -117.37 input  -60.55 | X-H torsion
[ 11005 11000 10999 10996 ] final -138.16 input  -57.11 | X-H torsion

> <Gold.Protein.ActiveResidues>
 VAL166  LYS551  ARG553  GLY616  TRP617  ASP618  TYR619  PRO620  LYS621  CYS622 
 ASP623  PHE694  ASN695  SER759  ASP760  ASP761  ALA762  ILE779  LEU786  VAL792 
 PHE793  MET794  SER795  GLU796  ALA797  LYS798  CYS799  TRP800  GLU811  SER814 

> <Gold.Protein.RotatedAtoms>
  150.7351  134.5725  159.5897 H   0  0  0  0  0  0  0  0  0  0  0  0  # atno 6907 bound_to 6896
  152.3160  134.7436  160.0334 H   0  0  0  0  0  0  0  0  0  0  0  0  # atno 6908 bound_to 6896
  151.7967  133.3329  159.3551 H   0  0  0  0  0  0  0  0  0  0  0  0  # atno 6909 bound_to 6896
  145.0181  140.7964  143.4398 H   0  0  0  0  0  0  0  0  0  0  0  0  # atno 7974 bound_to 7965
  155.1172  140.3245  155.4506 H   0  0  0  0  0  0  0  0  0  0  0  0  # atno 8008 bound_to 7997
  156.2673  140.2033  156.6243 H   0  0  0  0  0  0  0  0  0  0  0  0  # atno 8009 bound_to 7997
  154.6711  140.0536  157.0153 H   0  0  0  0  0  0  0  0  0  0  0  0  # atno 8010 bound_to 7997
  140.7241  143.5064  150.9804 H   0  0  0  0  0  0  0  0  0  0  0  0  # atno 10167 bound_to 10162
  156.3648  130.7757  151.1930 H   0  0  0  0  0  0  0  0  0  0  0  0  # atno 10718 bound_to 10713
  154.8552  135.4312  154.1969 H   0  0  0  0  0  0  0  0  0  0  0  0  # atno 10763 bound_to 10752
  153.3024  135.6970  153.7196 H   0  0  0  0  0  0  0  0  0  0  0  0  # atno 10764 bound_to 10752
  153.6321  135.3483  155.3019 H   0  0  0  0  0  0  0  0  0  0  0  0  # atno 10765 bound_to 10752
  140.8642  134.2131  157.4689 H   0  0  0  0  0  0  0  0  0  0  0  0  # atno 11005 bound_to 11000
  145.1933  139.2290  143.5231 LP  0  0  0  0  0  0  0  0  0  0  0  0  # atno 17320 bound_to 7965
  146.3481  140.1733  142.8589 LP  0  0  0  0  0  0  0  0  0  0  0  0  # atno 17321 bound_to 7965
  139.8776  143.7113  152.3160 LP  0  0  0  0  0  0  0  0  0  0  0  0  # atno 17342 bound_to 10162
  139.7383  144.7566  151.0692 LP  0  0  0  0  0  0  0  0  0  0  0  0  # atno 17343 bound_to 10162
  157.7477  131.0389  150.4527 LP  0  0  0  0  0  0  0  0  0  0  0  0  # atno 17370 bound_to 10713
  156.4744  130.4060  149.6499 LP  0  0  0  0  0  0  0  0  0  0  0  0  # atno 17371 bound_to 10713
  139.8708  134.9744  156.4844 LP  0  0  0  0  0  0  0  0  0  0  0  0  # atno 17394 bound_to 11000
  140.8648  133.8032  155.9302 LP  0  0  0  0  0  0  0  0  0  0  0  0  # atno 17395 bound_to 11000

$$$$
