AV-unprocessed.smi:698|AV-procd|sdf|3397|dock3
  -GOLD-   22720 0373D 1   1.00000     0.00000
 Structure written by MMmdl.
 33 34  0  0  0  0  0  0  0  0  1 V2000
  154.6387  140.4317  161.3363 C   0  0  0  0  0  0  0  0  0  0  0  0
  153.6999  141.1092  160.3352 C   0  0  0  0  0  0  0  0  0  0  0  0
  153.3438  142.3940  160.8373 O   0  0  0  0  0  0  0  0  0  0  0  0
  152.4808  143.1735  160.0944 C   0  0  0  0  0  0  0  0  0  0  0  0
  152.2156  144.4875  160.5245 C   0  0  0  0  0  0  0  0  0  0  0  0
  151.3355  145.2777  159.7640 C   0  0  0  0  0  0  0  0  0  0  0  0
  150.7544  144.7261  158.6063 C   0  0  0  0  0  0  0  0  0  0  0  0
  151.0679  143.3992  158.2380 C   0  0  0  0  0  0  0  0  0  0  0  0
  150.4315  142.9325  157.0579 N   0  0  0  0  0  0  0  0  0  0  0  0
  150.6561  141.7883  156.3831 C   0  0  0  0  0  0  0  0  0  0  0  0
  151.4759  140.9324  156.7177 O   0  0  0  0  0  0  0  0  0  0  0  0
  149.8019  141.5591  155.1290 C   0  0  2  0  0  0  0  0  0  0  0  0
  148.3051  141.4233  155.4112 C   0  0  0  0  0  0  0  0  0  0  0  0
  147.8342  140.6777  154.1818 C   0  0  0  0  0  0  0  0  0  0  0  0
  149.0072  139.7439  153.8863 C   0  0  0  0  0  0  0  0  0  0  0  0
  150.1544  140.3289  154.4986 O   0  0  0  0  0  0  0  0  0  0  0  0
  151.9187  142.6476  158.9788 N   0  0  0  0  0  0  0  0  0  0  0  0
  154.9294  139.4406  160.9876 H   0  0  0  0  0  0  0  0  0  0  0  0
  154.1571  140.3167  162.3076 H   0  0  0  0  0  0  0  0  0  0  0  0
  155.5476  141.0167  161.4785 H   0  0  0  0  0  0  0  0  0  0  0  0
  154.2002  141.2028  159.3701 H   0  0  0  0  0  0  0  0  0  0  0  0
  152.8097  140.4935  160.1959 H   0  0  0  0  0  0  0  0  0  0  0  0
  152.6780  144.8801  161.4179 H   0  0  0  0  0  0  0  0  0  0  0  0
  151.1091  146.2904  160.0631 H   0  0  0  0  0  0  0  0  0  0  0  0
  150.0760  145.3194  158.0103 H   0  0  0  0  0  0  0  0  0  0  0  0
  149.7281  143.5437  156.6692 H   0  0  0  0  0  0  0  0  0  0  0  0
  149.9745  142.3711  154.4208 H   0  0  0  0  0  0  0  0  0  0  0  0
  148.1255  140.8259  156.3068 H   0  0  0  0  0  0  0  0  0  0  0  0
  147.8069  142.3856  155.5334 H   0  0  0  0  0  0  0  0  0  0  0  0
  146.8945  140.1467  154.3358 H   0  0  0  0  0  0  0  0  0  0  0  0
  147.6976  141.3772  153.3558 H   0  0  0  0  0  0  0  0  0  0  0  0
  148.8415  138.7626  154.3319 H   0  0  0  0  0  0  0  0  0  0  0  0
  149.1589  139.6074  152.8154 H   0  0  0  0  0  0  0  0  0  0  0  0
  1  2  1  0  0  0  0
  1 18  1  0  0  0  0
  1 19  1  0  0  0  0
  1 20  1  0  0  0  0
  2  3  1  0  0  0  0
  2 21  1  0  0  0  0
  2 22  1  0  0  0  0
  3  4  1  0  0  0  0
  4 17  1  0  0  0  0
  4  5  2  0  0  0  0
  5  6  1  0  0  0  0
  5 23  1  0  0  0  0
  6  7  2  0  0  0  0
  6 24  1  0  0  0  0
  7  8  1  0  0  0  0
  7 25  1  0  0  0  0
  8  9  1  0  0  0  0
  8 17  2  0  0  0  0
  9 10  1  0  0  0  0
  9 26  1  0  0  0  0
 10 11  2  0  0  0  0
 10 12  1  0  0  0  0
 12 16  1  0  0  0  0
 12 13  1  0  0  0  0
 12 27  1  0  0  0  0
 13 14  1  0  0  0  0
 13 28  1  0  0  0  0
 13 29  1  0  0  0  0
 14 15  1  0  0  0  0
 14 30  1  0  0  0  0
 14 31  1  0  0  0  0
 15 16  1  0  0  0  0
 15 32  1  0  0  0  0
 15 33  1  0  0  0  0
M  END
> <s_m_source_file>
AV-unprocessed.smi

> <i_m_source_file_index>
698

> <i_lp_mmshare_version>
43012

> <i_f3d_flags>
0

> <s_epik_input>
W0NIM11bQ0gyXU9jMVtjSF1bY0hdW2NIXWMobjEpW05IXUMoPU8pW0NAQEhdMltDSDJdW0NIMl1bQ0gyXU8y

> <s_epik_cmdline>
J2VwaWtfcHl0aG9uJywgJy1waCcsICc3LjAnLCAnLXRuJywgJzgnLCAnLW1hJywgJzIwMCcsICctbWV0YWxfYmluZGluZycsICctaW1hZScsICc8aW5maWxlLm1hZT4nLCAnLW9tYWUnLCAnPG91dGZpbGUubWFlPic=

> <r_lp_tautomer_probability>
1

> <r_epik_Ionization_Penalty>
3.42089e-05

> <r_epik_Ionization_Penalty_Charging>
0

> <r_epik_Ionization_Penalty_Neutral>
3.42089e-05

> <r_epik_State_Penalty>
-0

> <r_epik_Charging_Adjusted_Penalty>
0

> <i_epik_Tot_Q>
0

> <i_epik_Tot_abs_Q>
0

> <r_epik_Metal_State_Penalty>
-0

> <b_epik_Metal_Only>
0

> <s_lp_Force_Field>
OPLS_2005

> <r_lp_Energy>
21.1038

> <b_lp_Chiralities_Consistent>
1

> <s_lp_Variant>
AV-unprocessed.smi:698-1

> <Gold.Version>
5.8.1

> <Gold.Id.Protein>
6NUR|6NUR_protein|mol2

> <Gold.PLP.Fitness>
43.3759

> <Gold.PLP.PLP>
-37.4862

> <Gold.PLP.part.hbond>
-2.0000

> <Gold.PLP.part.metal>
0.0000

> <Gold.PLP.part.buried>
-4.3716

> <Gold.PLP.part.nonpolar>
-31.5976

> <Gold.PLP.part.repulsive>
0.1276

> <Gold.PLP.ligand.clash>
0.0000

> <Gold.PLP.ligand.torsion>
0.0691

> <Gold.PLP.Chemscore.Hbond>
2.0000

> <Gold.PLP.Chemscore.CHOScore>
0.0000

> <Gold.PLP.Chemscore.Metal>
0.0000

> <Gold.Chemscore.Hbonds>
donor molecule, donor type, donor heavy atom, donor atom, acceptor molecule, acceptor atom, score
      L1  H     9    26       P1  8028  1.00
      P1  H  7989  7998       L1    16  0.99

> <Gold.PLP.Chemscore.Internal.Correction>
0.0279

> <Gold.Rescore>
     Score         DG    S(hbond)    S(metal)    S(lipo)     H(rot)  DE(clash)    DE(int)     intcor
     13.62     -15.28       1.28        0.00      78.20       1.42       0.25       1.41       ----

> <Gold.Chemscore.Fitness>
13.6177

> <Gold.Chemscore.DG>
-15.2797

> <Gold.Chemscore.ZeroCoef>
-5.4800

> <Gold.Chemscore.Hbond>
1.2820

> <Gold.Chemscore.Metal>
0.0000

> <Gold.Chemscore.Lipo>
78.1989

> <Gold.Chemscore.Internal_Hbond>
0.0000

> <Gold.Chemscore.DEClash>
0.2527

> <Gold.Chemscore.DEInternal>
1.4092

> <Gold.Chemscore.Rot>
1.4185

> <Gold.Chemscore.Internal.Correction>
   9.000000E+99

> <Gold.Chemscore.Hbonds>
donor molecule, donor type, donor heavy atom, donor atom, acceptor molecule, acceptor atom, score
      L1  H     9    26       P1  8028  1.00
      P1  H  7989  7998       L1    16  0.24

> <Gold.Chemscore.Hbond.Weighted>
-4.2817

> <Gold.Chemscore.Metal.Weighted>
-0.0000

> <Gold.Chemscore.Lipo.Weighted>
-9.1493

> <Gold.Chemscore.Internal_Hbond.Weighted>
0.0000

> <Gold.Chemscore.DEClash.Weighted>
0.2527

> <Gold.Chemscore.DEInternal.Weighted>
1.4092

> <Gold.Chemscore.Rot.Weighted>
3.6313

> <Gold.Chemscore.Internal.Correction.Weighted>
   9.000000E+99

> <Gold.Protein.RotatedTorsions>
[ 6907 6896 6895 6894 ] final -133.10 input  -60.11 | X-H torsion
[ 7974 7965 7964 7962 ] final   58.38 input  175.53 | X-H torsion
[ 8008 7997 7996 7995 ] final -178.43 input   59.86 | X-H torsion
[ 10167 10162 10161 10158 ] final -112.37 input  -65.29 | X-H torsion
[ 10718 10713 10712 10709 ] final  -60.69 input   66.30 | X-H torsion
[ 10763 10752 10751 10750 ] final  -53.85 input  -60.55 | X-H torsion
[ 11005 11000 10999 10996 ] final  151.31 input  -57.11 | X-H torsion

> <Gold.Protein.ActiveResidues>
 VAL166  LYS551  ARG553  GLY616  TRP617  ASP618  TYR619  PRO620  LYS621  CYS622 
 ASP623  PHE694  ASN695  SER759  ASP760  ASP761  ALA762  ILE779  LEU786  VAL792 
 PHE793  MET794  SER795  GLU796  ALA797  LYS798  CYS799  TRP800  GLU811  SER814 

> <Gold.Protein.RotatedAtoms>
  150.9701  133.6353  159.2739 H   0  0  0  0  0  0  0  0  0  0  0  0  # atno 6907 bound_to 6896
  151.3644  135.0909  159.9455 H   0  0  0  0  0  0  0  0  0  0  0  0  # atno 6908 bound_to 6896
  152.5180  133.9268  159.7616 H   0  0  0  0  0  0  0  0  0  0  0  0  # atno 6909 bound_to 6896
  145.9188  139.3713  143.0491 H   0  0  0  0  0  0  0  0  0  0  0  0  # atno 7974 bound_to 7965
  156.0188  140.1256  157.0379 H   0  0  0  0  0  0  0  0  0  0  0  0  # atno 8008 bound_to 7997
  154.4303  140.1073  156.6004 H   0  0  0  0  0  0  0  0  0  0  0  0  # atno 8009 bound_to 7997
  155.5975  140.3470  155.4586 H   0  0  0  0  0  0  0  0  0  0  0  0  # atno 8010 bound_to 7997
  140.1234  143.4423  152.1676 H   0  0  0  0  0  0  0  0  0  0  0  0  # atno 10167 bound_to 10162
  156.0973  130.4191  150.0890 H   0  0  0  0  0  0  0  0  0  0  0  0  # atno 10718 bound_to 10713
  154.1654  135.6468  153.4996 H   0  0  0  0  0  0  0  0  0  0  0  0  # atno 10763 bound_to 10752
  153.0099  135.5371  154.6667 H   0  0  0  0  0  0  0  0  0  0  0  0  # atno 10764 bound_to 10752
  154.5992  135.2942  155.0525 H   0  0  0  0  0  0  0  0  0  0  0  0  # atno 10765 bound_to 10752
  140.1208  134.8865  157.2069 H   0  0  0  0  0  0  0  0  0  0  0  0  # atno 11005 bound_to 11000
  145.8577  140.9493  143.0716 LP  0  0  0  0  0  0  0  0  0  0  0  0  # atno 17320 bound_to 7965
  144.6750  140.0489  143.7479 LP  0  0  0  0  0  0  0  0  0  0  0  0  # atno 17321 bound_to 7965
  139.5557  144.7370  151.4302 LP  0  0  0  0  0  0  0  0  0  0  0  0  # atno 17342 bound_to 10162
  140.6859  143.7975  150.7185 LP  0  0  0  0  0  0  0  0  0  0  0  0  # atno 17343 bound_to 10162
  156.8886  130.9581  151.3591 LP  0  0  0  0  0  0  0  0  0  0  0  0  # atno 17370 bound_to 10713
  157.6136  130.8601  149.8992 LP  0  0  0  0  0  0  0  0  0  0  0  0  # atno 17371 bound_to 10713
  140.2968  134.3177  155.7300 LP  0  0  0  0  0  0  0  0  0  0  0  0  # atno 17394 bound_to 11000
  141.2151  133.7568  156.9583 LP  0  0  0  0  0  0  0  0  0  0  0  0  # atno 17395 bound_to 11000

$$$$
