#       Name:                AV-unprocessed.smi:2092
#       Creating user name   scv26
#       Creation time:       Fri Mar 27 11:26:40 2020


#       File generated by GOLD software.
#

@<TRIPOS>MOLECULE
AV-unprocessed.smi:2092
    52    53     1
SMALL
NO_CHARGES


@<TRIPOS>ATOM
      1 ****        -3.8453  -3.7926  -0.9617 C.3            1 S1                 0.0000
      2 ****        -3.3099  -2.9971   0.2383 C.3            1 S1                 0.0000
      3 ****        -3.6572  -3.7160   1.4194 O.3            1 S1                 0.0000
      4 ****        -3.4868  -3.0096   2.6446 C.3            1 S1                 0.0000
      5 ****        -4.0473  -3.8500   3.7980 C.3            1 S1                 0.0000
      6 ****        -3.8945  -3.1837   4.9418 F              1 S1                 0.0000
      7 ****        -5.3458  -4.0824   3.6091 F              1 S1                 0.0000
      8 ****        -3.3931  -5.0076   3.8866 F              1 S1                 0.0000
      9 ****        -1.7868  -2.8061   0.1509 C.2            1 S1                 0.0000
     10 ****        -1.0548  -3.7630  -0.1025 O.2            1 S1                 0.0000
     11 ****        -1.3310  -1.5647   0.3773 N.am           1 S1                 0.0000
     12 ****         0.0667  -1.1461   0.3253 C.3            1 S1                 0.0000
     13 ****         0.3029   0.0842  -0.5373 C.ar           1 S1                 0.0000
     14 ****        -0.5435   0.4159  -1.6171 C.ar           1 S1                 0.0000
     15 ****        -0.2556   1.5749  -2.3616 C.ar           1 S1                 0.0000
     16 ****         0.7930   2.3825  -2.0994 N.ar           1 S1                 0.0000
     17 ****         1.6231   2.0651  -1.0755 C.ar           1 S1                 0.0000
     18 ****         2.7234   2.9099  -0.8176 N.3            1 S1                 0.0000
     19 ****         4.0267   2.2514  -0.7947 C.3            1 S1                 0.0000
     20 ****         5.0915   3.1940  -0.2079 C.3            1 S1                 0.0000
     21 ****         5.1043   4.4189  -0.9339 O.3            1 S1                 0.0000
     22 ****         3.8548   5.0968  -0.8513 C.3            1 S1                 0.0000
     23 ****         2.7487   4.2206  -1.4635 C.3            1 S1                 0.0000
     24 ****         1.4059   0.9212  -0.2711 C.ar           1 S1                 0.0000
     25 ****        -3.5904  -3.3083  -1.9051 H              1 S1                 0.0000
     26 ****        -4.9315  -3.8745  -0.9169 H              1 S1                 0.0000
     27 ****        -3.4413  -4.8054  -0.9844 H              1 S1                 0.0000
     28 ****        -3.8035  -2.0233   0.2490 H              1 S1                 0.0000
     29 ****        -2.4327  -2.7984   2.8282 H              1 S1                 0.0000
     30 ****        -4.0094  -2.0530   2.6001 H              1 S1                 0.0000
     31 ****        -2.0089  -0.8450   0.5822 H              1 S1                 0.0000
     32 ****         0.3909  -0.9362   1.3452 H              1 S1                 0.0000
     33 ****         0.7121  -1.9431  -0.0469 H              1 S1                 0.0000
     34 ****        -1.3941  -0.1960  -1.8790 H              1 S1                 0.0000
     35 ****        -0.8839   1.8609  -3.1921 H              1 S1                 0.0000
     36 ****         4.0041   1.3324  -0.2105 H              1 S1                 0.0000
     37 ****         4.2965   1.9727  -1.8143 H              1 S1                 0.0000
     38 ****         4.8991   3.3865   0.8489 H              1 S1                 0.0000
     39 ****         6.0769   2.7328  -0.2727 H              1 S1                 0.0000
     40 ****         3.6285   5.3396   0.1882 H              1 S1                 0.0000
     41 ****         3.9268   6.0414  -1.3905 H              1 S1                 0.0000
     42 ****         2.9227   4.0945  -2.5330 H              1 S1                 0.0000
     43 ****         1.7850   4.7176  -1.3448 H              1 S1                 0.0000
     44 ****         2.0646   0.6900   0.5531 H              1 S1                 0.0000
     45 ****        -3.0891  -4.5381   1.4570 LP             1 S1                 0.0000
     46 ****        -4.6194  -3.9789   1.3474 LP             1 S1                 0.0000
     47 ****        -1.4503  -4.6692  -0.2525 LP             1 S1                 0.0000
     48 ****        -0.0647  -3.6342  -0.1584 LP             1 S1                 0.0000
     49 ****         0.9551   3.2009  -2.6507 LP             1 S1                 0.0000
     50 ****         2.5208   3.1481   0.1322 LP             1 S1                 0.0000
     51 ****         5.3036   4.2237  -1.8942 LP             1 S1                 0.0000
     52 ****         5.8184   5.0099  -0.5587 LP             1 S1                 0.0000
@<TRIPOS>BOND
    1    1    2 1     
    2    1   25 1     
    3    1   26 1     
    4    1   27 1     
    5    2    3 1     
    6    2    9 1     
    7    2   28 1     
    8    3    4 1     
    9    4    5 1     
   10    4   29 1     
   11    4   30 1     
   12    5    6 1     
   13    5    7 1     
   14    5    8 1     
   15    9   10 2     
   16    9   11 am    
   17   11   12 1     
   18   11   31 1     
   19   12   13 1     
   20   12   32 1     
   21   12   33 1     
   22   13   24 ar    
   23   13   14 ar    
   24   14   15 ar    
   25   14   34 1     
   26   15   16 ar    
   27   15   35 1     
   28   16   17 ar    
   29   17   18 1     
   30   17   24 ar    
   31   18   23 1     
   32   18   19 1     
   33   19   20 1     
   34   19   36 1     
   35   19   37 1     
   36   20   21 1     
   37   20   38 1     
   38   20   39 1     
   39   21   22 1     
   40   22   23 1     
   41   22   40 1     
   42   22   41 1     
   43   23   42 1     
   44   23   43 1     
   45   24   44 1     
   46    3   45 1     
   47    3   46 1     
   48   10   47 1     
   49   10   48 1     
   50   16   49 1     
   51   18   50 1     
   52   21   51 1     
   53   21   52 1     
@<TRIPOS>SUBSTRUCTURE
      1 S1             1
@<TRIPOS>SET
LONE_PAIRS      STATIC     ATOMS    <user>   **** ""
8 45 46 47 48 49 50 51 52
DONOR_HYDROGENS      STATIC     ATOMS    <user>   **** ""
1 31
ATOM$BLUE        STATIC     ATOMS    COLORGROUP SYSTEM
8 45 46 47 48 49 50 51 52
ATOM$RED        STATIC     ATOMS    COLORGROUP SYSTEM
1 31
