#       Name:                AV-unprocessed.smi:1198
#       Creating user name   scv26
#       Creation time:       Fri Mar 27 04:02:45 2020


#       File generated by GOLD software.
#

@<TRIPOS>MOLECULE
AV-unprocessed.smi:1198
    45    46     1
SMALL
NO_CHARGES


@<TRIPOS>ATOM
      1 ****        -7.3978  -0.3236  -0.1878 C.3            1 S1                 0.0000
      2 ****        -6.6759  -1.5494  -0.1380 O.3            1 S1                 0.0000
      3 ****        -5.3224  -1.5019   0.1253 C.ar           1 S1                 0.0000
      4 ****        -4.6019  -2.7110   0.1740 C.ar           1 S1                 0.0000
      5 ****        -3.2208  -2.6660   0.4411 C.ar           1 S1                 0.0000
      6 ****        -2.5967  -1.4194   0.6505 C.ar           1 S1                 0.0000
      7 ****        -1.1998  -1.4238   0.9213 N.am           1 S1                 0.0000
      8 ****        -0.3512  -0.3903   1.0605 C.2            1 S1                 0.0000
      9 ****        -0.6490   0.8003   0.9769 O.2            1 S1                 0.0000
     10 ****         0.8966  -0.8209   1.2970 N.am           1 S1                 0.0000
     11 ****         2.0623   0.0339   1.5037 C.3            1 S1                 0.0000
     12 ****         2.8450   0.2755   0.1983 C.3            1 S1                 0.0000
     13 ****         2.0911   1.0458  -0.8864 C.3            1 S1                 0.0000
     14 ****         3.2181   1.5569  -1.7783 C.3            1 S1                 0.0000
     15 ****         4.3272   1.8795  -0.8561 N.4            1 S1                 1.0000
     16 ****         5.6720   1.7383  -1.4526 C.3            1 S1                 0.0000
     17 ****         4.1231   1.1058   0.3917 C.3            1 S1                 0.0000
     18 ****        -3.4104  -0.2607   0.5859 C.ar           1 S1                 0.0000
     19 ****        -4.7353  -0.2973   0.3292 N.ar           1 S1                 0.0000
     20 ****        -8.4456  -0.5308  -0.4048 H              1 S1                 0.0000
     21 ****        -7.0200   0.3304  -0.9752 H              1 S1                 0.0000
     22 ****        -7.3559   0.2033   0.7666 H              1 S1                 0.0000
     23 ****        -5.0992  -3.6554   0.0097 H              1 S1                 0.0000
     24 ****        -2.6492  -3.5819   0.4831 H              1 S1                 0.0000
     25 ****        -0.7867  -2.3415   1.0014 H              1 S1                 0.0000
     26 ****         1.0509  -1.8174   1.3480 H              1 S1                 0.0000
     27 ****         1.7705   0.9821   1.9588 H              1 S1                 0.0000
     28 ****         2.7091  -0.4624   2.2276 H              1 S1                 0.0000
     29 ****         3.1359  -0.6898  -0.2200 H              1 S1                 0.0000
     30 ****         1.3737   0.4285  -1.4282 H              1 S1                 0.0000
     31 ****         1.5521   1.8881  -0.4499 H              1 S1                 0.0000
     32 ****         3.5226   0.7655  -2.4655 H              1 S1                 0.0000
     33 ****         2.9245   2.4230  -2.3720 H              1 S1                 0.0000
     34 ****         5.8635   0.7068  -1.7513 H              1 S1                 0.0000
     35 ****         6.4392   2.0369  -0.7377 H              1 S1                 0.0000
     36 ****         5.7660   2.3743  -2.3335 H              1 S1                 0.0000
     37 ****         4.0071   1.8179   1.2096 H              1 S1                 0.0000
     38 ****         4.9744   0.4674   0.6333 H              1 S1                 0.0000
     39 ****        -3.0228   0.7320   0.7449 H              1 S1                 0.0000
     40 ****         4.2149   2.8507  -0.6016 H              1 S1                 0.0000
     41 ****        -6.7892  -1.9958  -1.0256 LP             1 S1                 0.0000
     42 ****        -7.0963  -2.1117   0.5741 LP             1 S1                 0.0000
     43 ****        -1.5944   1.0673   0.7901 LP             1 S1                 0.0000
     44 ****         0.0543   1.5012   1.0958 LP             1 S1                 0.0000
     45 ****        -5.2717   0.5458   0.2904 LP             1 S1                 0.0000
@<TRIPOS>BOND
    1    1    2 1     
    2    1   20 1     
    3    1   21 1     
    4    1   22 1     
    5    2    3 1     
    6    3   19 ar    
    7    3    4 ar    
    8    4    5 ar    
    9    4   23 1     
   10    5    6 ar    
   11    5   24 1     
   12    6    7 1     
   13    6   18 ar    
   14    7    8 am    
   15    7   25 1     
   16    8    9 2     
   17    8   10 am    
   18   10   11 1     
   19   10   26 1     
   20   11   12 1     
   21   11   27 1     
   22   11   28 1     
   23   12   17 1     
   24   12   13 1     
   25   12   29 1     
   26   13   14 1     
   27   13   30 1     
   28   13   31 1     
   29   14   15 1     
   30   14   32 1     
   31   14   33 1     
   32   15   16 1     
   33   15   17 1     
   34   15   40 1     
   35   16   34 1     
   36   16   35 1     
   37   16   36 1     
   38   17   37 1     
   39   17   38 1     
   40   18   19 ar    
   41   18   39 1     
   42    2   41 1     
   43    2   42 1     
   44    9   43 1     
   45    9   44 1     
   46   19   45 1     
@<TRIPOS>SUBSTRUCTURE
      1 S1             1
@<TRIPOS>SET
LONE_PAIRS      STATIC     ATOMS    <user>   **** ""
5 41 42 43 44 45
DONOR_HYDROGENS      STATIC     ATOMS    <user>   **** ""
3 25 26 40
ATOM$BLUE        STATIC     ATOMS    COLORGROUP SYSTEM
5 41 42 43 44 45
ATOM$RED        STATIC     ATOMS    COLORGROUP SYSTEM
3 25 26 40
