AV-unprocessed.smi:3133|AV-procd|sdf|11940|dock8
  -GOLD-   2272017333D 1   1.00000     0.00000
 Structure written by MMmdl.
 32 33  0  0  0  0  0  0  0  0  1 V2000
  151.7972  137.8326  158.9004 C   0  0  0  0  0  0  0  0  0  0  0  0
  151.8616  139.2935  158.4103 C   0  0  1  0  0  0  0  0  0  0  0  0
  152.9746  140.0944  159.1029 C   0  0  0  0  0  0  0  0  0  0  0  0
  154.1553  139.7698  158.9711 O   0  0  0  0  0  0  0  0  0  0  0  0
  152.5817  141.1474  159.8367 N   0  0  0  0  0  0  0  0  0  0  0  0
  153.4730  142.0441  160.5633 C   0  0  0  0  0  0  0  0  0  0  0  0
  152.9603  143.4938  160.5471 C   0  0  1  0  0  0  0  0  0  0  0  0
  152.7726  144.0642  159.1445 C   0  0  0  0  0  0  0  0  0  0  0  0
  151.8148  145.2040  159.4102 C   0  0  0  0  0  0  0  0  0  0  0  0
  150.9209  144.6316  160.5101 C   0  0  0  0  0  0  0  0  0  0  0  0
  151.6625  143.5801  161.1262 O   0  0  0  0  0  0  0  0  0  0  0  0
  152.0040  139.3890  156.9623 N   0  0  0  0  0  0  0  0  0  0  0  0
  151.2206  139.9886  156.0628 C   0  0  0  0  0  0  0  0  0  0  0  0
  151.6783  139.9241  154.8203 N   0  0  0  0  0  0  0  0  0  0  0  0
  152.8365  139.2342  155.0400 C   0  0  0  0  0  0  0  0  0  0  0  0
  153.0858  138.8996  156.3058 N   0  0  0  0  0  0  0  0  0  0  0  0
  151.6395  137.7874  159.9786 H   0  0  0  0  0  0  0  0  0  0  0  0
  152.7128  137.2827  158.6790 H   0  0  0  0  0  0  0  0  0  0  0  0
  150.9711  137.3010  158.4275 H   0  0  0  0  0  0  0  0  0  0  0  0
  150.9084  139.7591  158.6671 H   0  0  0  0  0  0  0  0  0  0  0  0
  151.5929  141.3414  159.8995 H   0  0  0  0  0  0  0  0  0  0  0  0
  153.5874  141.6950  161.5910 H   0  0  0  0  0  0  0  0  0  0  0  0
  154.4619  141.9904  160.1069 H   0  0  0  0  0  0  0  0  0  0  0  0
  153.6305  144.1469  161.1089 H   0  0  0  0  0  0  0  0  0  0  0  0
  153.7080  144.3879  158.6867 H   0  0  0  0  0  0  0  0  0  0  0  0
  152.3049  143.3287  158.4882 H   0  0  0  0  0  0  0  0  0  0  0  0
  152.3632  146.0693  159.7856 H   0  0  0  0  0  0  0  0  0  0  0  0
  151.2578  145.5118  158.5251 H   0  0  0  0  0  0  0  0  0  0  0  0
  150.6379  145.3915  161.2388 H   0  0  0  0  0  0  0  0  0  0  0  0
  150.0076  144.2117  160.0880 H   0  0  0  0  0  0  0  0  0  0  0  0
  150.2982  140.4867  156.3233 H   0  0  0  0  0  0  0  0  0  0  0  0
  153.5200  138.9768  154.2441 H   0  0  0  0  0  0  0  0  0  0  0  0
  1  2  1  0  0  0  0
  1 17  1  0  0  0  0
  1 18  1  0  0  0  0
  1 19  1  0  0  0  0
  2  3  1  0  0  0  0
  2 12  1  0  0  0  0
  2 20  1  0  0  0  0
  3  4  2  0  0  0  0
  3  5  1  0  0  0  0
  5  6  1  0  0  0  0
  5 21  1  0  0  0  0
  6  7  1  0  0  0  0
  6 22  1  0  0  0  0
  6 23  1  0  0  0  0
  7 11  1  0  0  0  0
  7  8  1  0  0  0  0
  7 24  1  0  0  0  0
  8  9  1  0  0  0  0
  8 25  1  0  0  0  0
  8 26  1  0  0  0  0
  9 10  1  0  0  0  0
  9 27  1  0  0  0  0
  9 28  1  0  0  0  0
 10 11  1  0  0  0  0
 10 29  1  0  0  0  0
 10 30  1  0  0  0  0
 12 16  1  0  0  0  0
 12 13  1  0  0  0  0
 13 14  2  0  0  0  0
 13 31  1  0  0  0  0
 14 15  1  0  0  0  0
 15 16  2  0  0  0  0
 15 32  1  0  0  0  0
M  END
> <s_m_source_file>
AV-unprocessed.smi

> <i_m_source_file_index>
3133

> <i_lp_mmshare_version>
43012

> <i_f3d_flags>
0

> <s_epik_input>
bjFbY0hdbltjSF1uMVtDQEhdKFtDSDNdKUMoPU8pW05IXVtDSDJdW0NAQEhdMltDSDJdW0NIMl1bQ0gyXU8y

> <s_epik_cmdline>
J2VwaWtfcHl0aG9uJywgJy1waCcsICc3LjAnLCAnLXRuJywgJzgnLCAnLW1hJywgJzIwMCcsICctbWV0YWxfYmluZGluZycsICctaW1hZScsICc8aW5maWxlLm1hZT4nLCAnLW9tYWUnLCAnPG91dGZpbGUubWFlPic=

> <r_lp_tautomer_probability>
1

> <r_epik_Ionization_Penalty>
1.2027e-05

> <r_epik_Ionization_Penalty_Charging>
0

> <r_epik_Ionization_Penalty_Neutral>
1.2027e-05

> <r_epik_State_Penalty>
-0

> <r_epik_Charging_Adjusted_Penalty>
0

> <i_epik_Tot_Q>
0

> <i_epik_Tot_abs_Q>
0

> <r_epik_Metal_State_Penalty>
-0

> <b_epik_Metal_Only>
0

> <s_lp_Force_Field>
OPLS_2005

> <r_lp_Energy>
22.8462

> <b_lp_Chiralities_Consistent>
1

> <s_lp_Variant>
AV-unprocessed.smi:3133-4

> <Gold.Version>
5.8.1

> <Gold.Id.Protein>
6NUR|6NUR_protein|mol2

> <Gold.PLP.Fitness>
42.8429

> <Gold.PLP.PLP>
-37.2021

> <Gold.PLP.part.hbond>
-3.2270

> <Gold.PLP.part.metal>
0.0000

> <Gold.PLP.part.buried>
-5.3463

> <Gold.PLP.part.nonpolar>
-29.0907

> <Gold.PLP.part.repulsive>
0.3214

> <Gold.PLP.ligand.clash>
0.0000

> <Gold.PLP.ligand.torsion>
0.2322

> <Gold.PLP.Chemscore.Hbond>
2.0000

> <Gold.PLP.Chemscore.CHOScore>
0.0000

> <Gold.PLP.Chemscore.Metal>
0.0000

> <Gold.Chemscore.Hbonds>
donor molecule, donor type, donor heavy atom, donor atom, acceptor molecule, acceptor atom, score
      P1  H  7989  7998       L1    14  1.00
      P1  H  7997  8009       L1     4  1.00

> <Gold.PLP.Chemscore.Internal.Correction>
0.1052

> <Gold.Rescore>
     Score         DG    S(hbond)    S(metal)    S(lipo)     H(rot)  DE(clash)    DE(int)     intcor
     13.73     -14.28       1.94        0.00      69.24       2.26       0.00       0.55       ----

> <Gold.Chemscore.Fitness>
13.7265

> <Gold.Chemscore.DG>
-14.2754

> <Gold.Chemscore.ZeroCoef>
-5.4800

> <Gold.Chemscore.Hbond>
1.9367

> <Gold.Chemscore.Metal>
0.0000

> <Gold.Chemscore.Lipo>
69.2429

> <Gold.Chemscore.Internal_Hbond>
0.0000

> <Gold.Chemscore.DEClash>
0.0000

> <Gold.Chemscore.DEInternal>
0.5489

> <Gold.Chemscore.Rot>
2.2558

> <Gold.Chemscore.Internal.Correction>
   9.000000E+99

> <Gold.Chemscore.Hbonds>
donor molecule, donor type, donor heavy atom, donor atom, acceptor molecule, acceptor atom, score
      P1  H  7989  7998       L1    14  0.89
      P1  H  7997  8009       L1     4  0.94

> <Gold.Chemscore.Hbond.Weighted>
-6.4687

> <Gold.Chemscore.Metal.Weighted>
-0.0000

> <Gold.Chemscore.Lipo.Weighted>
-8.1014

> <Gold.Chemscore.Internal_Hbond.Weighted>
0.0000

> <Gold.Chemscore.DEClash.Weighted>
0.0000

> <Gold.Chemscore.DEInternal.Weighted>
0.5489

> <Gold.Chemscore.Rot.Weighted>
5.7747

> <Gold.Chemscore.Internal.Correction.Weighted>
   9.000000E+99

> <Gold.Protein.RotatedTorsions>
[ 6907 6896 6895 6894 ] final  -73.90 input  -60.11 | X-H torsion
[ 7974 7965 7964 7962 ] final   70.93 input  175.53 | X-H torsion
[ 8008 7997 7996 7995 ] final  131.55 input   59.86 | X-H torsion
[ 10167 10162 10161 10158 ] final   75.86 input  -65.29 | X-H torsion
[ 10718 10713 10712 10709 ] final -169.23 input   66.30 | X-H torsion
[ 10763 10752 10751 10750 ] final  -28.47 input  -60.55 | X-H torsion
[ 11005 11000 10999 10996 ] final    1.21 input  -57.11 | X-H torsion

> <Gold.Protein.ActiveResidues>
 VAL166  LYS551  ARG553  GLY616  TRP617  ASP618  TYR619  PRO620  LYS621  CYS622 
 ASP623  PHE694  ASN695  SER759  ASP760  ASP761  ALA762  ILE779  LEU786  VAL792 
 PHE793  MET794  SER795  GLU796  ALA797  LYS798  CYS799  TRP800  GLU811  SER814 

> <Gold.Protein.RotatedAtoms>
  150.7113  134.4948  159.5532 H   0  0  0  0  0  0  0  0  0  0  0  0  # atno 6907 bound_to 6896
  152.2558  134.8083  160.0448 H   0  0  0  0  0  0  0  0  0  0  0  0  # atno 6908 bound_to 6896
  151.8814  133.3461  159.3804 H   0  0  0  0  0  0  0  0  0  0  0  0  # atno 6909 bound_to 6896
  145.7721  139.2848  143.1315 H   0  0  0  0  0  0  0  0  0  0  0  0  # atno 7974 bound_to 7965
  156.2971  140.2568  156.2944 H   0  0  0  0  0  0  0  0  0  0  0  0  # atno 8008 bound_to 7997
  154.9478  140.0395  157.2148 H   0  0  0  0  0  0  0  0  0  0  0  0  # atno 8009 bound_to 7997
  154.8065  140.2837  155.5888 H   0  0  0  0  0  0  0  0  0  0  0  0  # atno 8010 bound_to 7997
  139.9984  144.5704  150.7758 H   0  0  0  0  0  0  0  0  0  0  0  0  # atno 10167 bound_to 10162
  156.7086  130.9224  151.3087 H   0  0  0  0  0  0  0  0  0  0  0  0  # atno 10718 bound_to 10713
  153.7488  135.6927  153.4950 H   0  0  0  0  0  0  0  0  0  0  0  0  # atno 10763 bound_to 10752
  153.2018  135.4434  155.0274 H   0  0  0  0  0  0  0  0  0  0  0  0  # atno 10764 bound_to 10752
  154.8195  135.3415  154.7010 H   0  0  0  0  0  0  0  0  0  0  0  0  # atno 10765 bound_to 10752
  140.6179  133.9688  155.8210 H   0  0  0  0  0  0  0  0  0  0  0  0  # atno 11005 bound_to 11000
  146.0159  140.8392  142.9947 LP  0  0  0  0  0  0  0  0  0  0  0  0  # atno 17320 bound_to 7965
  144.6811  140.2558  143.7325 LP  0  0  0  0  0  0  0  0  0  0  0  0  # atno 17321 bound_to 7965
  140.7428  143.2837  151.3524 LP  0  0  0  0  0  0  0  0  0  0  0  0  # atno 17342 bound_to 10162
  139.6289  144.0759  152.2459 LP  0  0  0  0  0  0  0  0  0  0  0  0  # atno 17343 bound_to 10162
  157.6945  130.9268  150.0606 LP  0  0  0  0  0  0  0  0  0  0  0  0  # atno 17370 bound_to 10713
  156.1677  130.3645  149.9208 LP  0  0  0  0  0  0  0  0  0  0  0  0  # atno 17371 bound_to 10713
  141.0763  134.0130  157.3453 LP  0  0  0  0  0  0  0  0  0  0  0  0  # atno 17394 bound_to 11000
  139.9165  135.0197  156.7901 LP  0  0  0  0  0  0  0  0  0  0  0  0  # atno 17395 bound_to 11000

$$$$
