#       Name:                AV-unprocessed.smi:3303
#       Creating user name   scv26
#       Creation time:       Fri Mar 27 19:02:01 2020


#       File generated by GOLD software.
#

@<TRIPOS>MOLECULE
AV-unprocessed.smi:3303
    46    47     1
SMALL
NO_CHARGES


@<TRIPOS>ATOM
      1 ****        -0.9001  -0.3659  -2.6315 C.3            1 S1                 0.0000
      2 ****        -1.2073  -1.1710  -1.3565 C.3            1 S1                 0.0000
      3 ****        -2.7281  -1.4303  -1.2547 C.3            1 S1                 0.0000
      4 ****        -3.1016  -2.1701  -0.0220 N.4            1 S1                 1.0000
      5 ****        -2.7415  -3.6096  -0.0805 C.3            1 S1                 0.0000
      6 ****        -2.6576  -1.4455   1.2029 C.3            1 S1                 0.0000
      7 ****        -3.1357  -2.1158   2.5026 C.3            1 S1                 0.0000
      8 ****        -1.1351  -1.2077   1.1885 C.3            1 S1                 0.0000
      9 ****        -0.6908  -0.4595  -0.0830 C.3            1 S1                 0.0000
     10 ****         0.7670  -0.4364  -0.0939 N.3            1 S1                 0.0000
     11 ****         1.2769   0.9250  -0.0422 C.3            1 S1                 0.0000
     12 ****         2.8103   0.9026  -0.1028 C.3            1 S1                 0.0000
     13 ****         3.4066   2.2968  -0.0614 C.ar           1 S1                 0.0000
     14 ****         3.9582   2.8097   1.1320 C.ar           1 S1                 0.0000
     15 ****         4.4985   4.1102   1.1168 C.ar           1 S1                 0.0000
     16 ****         4.4648   4.8448  -0.0840 C.ar           1 S1                 0.0000
     17 ****         3.8906   4.2432  -1.2216 C.ar           1 S1                 0.0000
     18 ****         3.3706   2.9966  -1.2180 N.ar           1 S1                 0.0000
     19 ****        -1.3570   0.6236  -2.5950 H              1 S1                 0.0000
     20 ****        -1.2802  -0.8749  -3.5177 H              1 S1                 0.0000
     21 ****         0.1725  -0.2310  -2.7726 H              1 S1                 0.0000
     22 ****        -0.7030  -2.1342  -1.4471 H              1 S1                 0.0000
     23 ****        -3.2619  -0.4787  -1.2557 H              1 S1                 0.0000
     24 ****        -3.0825  -1.9751  -2.1307 H              1 S1                 0.0000
     25 ****        -1.6640  -3.7660  -0.0324 H              1 S1                 0.0000
     26 ****        -3.1013  -4.0539  -1.0089 H              1 S1                 0.0000
     27 ****        -3.2035  -4.1673   0.7336 H              1 S1                 0.0000
     28 ****        -3.1407  -0.4675   1.1678 H              1 S1                 0.0000
     29 ****        -2.9296  -1.4779   3.3625 H              1 S1                 0.0000
     30 ****        -2.6337  -3.0667   2.6818 H              1 S1                 0.0000
     31 ****        -4.2106  -2.2984   2.4810 H              1 S1                 0.0000
     32 ****        -0.8478  -0.6300   2.0684 H              1 S1                 0.0000
     33 ****        -0.6106  -2.1608   1.2705 H              1 S1                 0.0000
     34 ****        -1.0991   0.5526  -0.0542 H              1 S1                 0.0000
     35 ****         1.1276  -0.9647   0.6879 H              1 S1                 0.0000
     36 ****         0.8779   1.4977  -0.8806 H              1 S1                 0.0000
     37 ****         0.9427   1.4078   0.8770 H              1 S1                 0.0000
     38 ****         3.2098   0.3181   0.7272 H              1 S1                 0.0000
     39 ****         3.1427   0.4058  -1.0158 H              1 S1                 0.0000
     40 ****         3.9687   2.2225   2.0386 H              1 S1                 0.0000
     41 ****         4.9310   4.5362   2.0099 H              1 S1                 0.0000
     42 ****         4.8694   5.8450  -0.1320 H              1 S1                 0.0000
     43 ****         3.8479   4.7772  -2.1593 H              1 S1                 0.0000
     44 ****        -4.1114  -2.1571   0.0031 H              1 S1                 0.0000
     45 ****         1.0734  -0.8525  -0.9500 LP             1 S1                 0.0000
     46 ****         2.9710   2.6030  -2.0458 LP             1 S1                 0.0000
@<TRIPOS>BOND
    1    1    2 1     
    2    1   19 1     
    3    1   20 1     
    4    1   21 1     
    5    2    9 1     
    6    2    3 1     
    7    2   22 1     
    8    3    4 1     
    9    3   23 1     
   10    3   24 1     
   11    4    5 1     
   12    4    6 1     
   13    4   44 1     
   14    5   25 1     
   15    5   26 1     
   16    5   27 1     
   17    6    7 1     
   18    6    8 1     
   19    6   28 1     
   20    7   29 1     
   21    7   30 1     
   22    7   31 1     
   23    8    9 1     
   24    8   32 1     
   25    8   33 1     
   26    9   10 1     
   27    9   34 1     
   28   10   11 1     
   29   10   35 1     
   30   11   12 1     
   31   11   36 1     
   32   11   37 1     
   33   12   13 1     
   34   12   38 1     
   35   12   39 1     
   36   13   18 ar    
   37   13   14 ar    
   38   14   15 ar    
   39   14   40 1     
   40   15   16 ar    
   41   15   41 1     
   42   16   17 ar    
   43   16   42 1     
   44   17   18 ar    
   45   17   43 1     
   46   10   45 1     
   47   18   46 1     
@<TRIPOS>SUBSTRUCTURE
      1 S1             1
@<TRIPOS>SET
LONE_PAIRS      STATIC     ATOMS    <user>   **** ""
2 45 46
DONOR_HYDROGENS      STATIC     ATOMS    <user>   **** ""
2 44 35
ATOM$BLUE        STATIC     ATOMS    COLORGROUP SYSTEM
2 45 46
ATOM$RED        STATIC     ATOMS    COLORGROUP SYSTEM
2 44 35
