#       Name:                AV-unprocessed.smi:1426
#       Creating user name   scv26
#       Creation time:       Fri Mar 27 05:45:52 2020


#       File generated by GOLD software.
#

@<TRIPOS>MOLECULE
AV-unprocessed.smi:1426
    49    51     1
SMALL
NO_CHARGES


@<TRIPOS>ATOM
      1 ****         1.6201   1.9090   0.1643 O.2            1 S1                 0.0000
      2 ****         1.0537   0.8250   0.2993 C.2            1 S1                 0.0000
      3 ****         1.7066  -0.3388   0.4293 N.am           1 S1                 0.0000
      4 ****         3.1571  -0.5021   0.4136 C.3            1 S1                 0.0000
      5 ****         3.6623  -0.9792  -0.9606 C.3            1 S1                 0.0000
      6 ****         5.1632  -1.1756  -1.0264 C.3            1 S1                 0.0000
      7 ****         5.4184  -1.1793  -2.5309 C.3            1 S1                 0.0000
      8 ****         4.4145  -0.3435  -3.1005 O.3            1 S1                 0.0000
      9 ****         3.4499   0.0054  -2.1122 C.3            1 S1                 0.0000
     10 ****        -0.2763   0.6374   0.3472 N.am           1 S1                 0.0000
     11 ****        -1.3313   1.5946   0.2768 C.ar           1 S1                 0.0000
     12 ****        -1.1518   2.8892  -0.2724 C.ar           1 S1                 0.0000
     13 ****        -2.2297   3.7912  -0.2831 C.ar           1 S1                 0.0000
     14 ****        -3.4565   3.3686   0.2537 C.ar           1 S1                 0.0000
     15 ****        -3.6510   2.1354   0.7607 N.ar           1 S1                 0.0000
     16 ****        -2.6249   1.2493   0.7651 C.ar           1 S1                 0.0000
     17 ****        -2.8966  -0.0389   1.2800 N.3            1 S1                 0.0000
     18 ****        -4.0839  -0.2747   2.0953 C.3            1 S1                 0.0000
     19 ****        -4.2586  -1.7904   2.1079 C.3            1 S1                 0.0000
     20 ****        -3.8132  -2.1773   0.7013 C.3            1 S1                 0.0000
     21 ****        -2.6947  -1.1778   0.3887 C.3            1 S1                 0.0000
     22 ****         1.1583  -1.1790   0.5426 H              1 S1                 0.0000
     23 ****         3.6589   0.4214   0.7082 H              1 S1                 0.0000
     24 ****         3.4149  -1.2414   1.1724 H              1 S1                 0.0000
     25 ****         3.1796  -1.9243  -1.2158 H              1 S1                 0.0000
     26 ****         5.6783  -0.3323  -0.5638 H              1 S1                 0.0000
     27 ****         5.4993  -2.0902  -0.5371 H              1 S1                 0.0000
     28 ****         6.4194  -0.8286  -2.7833 H              1 S1                 0.0000
     29 ****         5.3008  -2.1857  -2.9346 H              1 S1                 0.0000
     30 ****         2.4374  -0.0332  -2.5150 H              1 S1                 0.0000
     31 ****         3.6455   1.0281  -1.7872 H              1 S1                 0.0000
     32 ****        -0.5766  -0.3085   0.5319 H              1 S1                 0.0000
     33 ****        -0.2133   3.2118  -0.6940 H              1 S1                 0.0000
     34 ****        -2.1165   4.7845  -0.6914 H              1 S1                 0.0000
     35 ****        -4.3070   4.0339   0.2683 H              1 S1                 0.0000
     36 ****        -3.9619   0.1279   3.1011 H              1 S1                 0.0000
     37 ****        -4.9649   0.1852   1.6457 H              1 S1                 0.0000
     38 ****        -3.5929  -2.2381   2.8474 H              1 S1                 0.0000
     39 ****        -5.2790  -2.0999   2.3351 H              1 S1                 0.0000
     40 ****        -3.4888  -3.2153   0.6256 H              1 S1                 0.0000
     41 ****        -4.6399  -2.0320   0.0046 H              1 S1                 0.0000
     42 ****        -2.7042  -0.8851  -0.6623 H              1 S1                 0.0000
     43 ****        -1.7252  -1.6266   0.6063 H              1 S1                 0.0000
     44 ****         2.6190   1.9525   0.1473 LP             1 S1                 0.0000
     45 ****         1.0815   2.7464   0.0715 LP             1 S1                 0.0000
     46 ****         3.9619  -0.8317  -3.8468 LP             1 S1                 0.0000
     47 ****         4.8397   0.4888  -3.4562 LP             1 S1                 0.0000
     48 ****        -4.5434   1.8763   1.1300 LP             1 S1                 0.0000
     49 ****        -2.1397   0.0085   1.9318 LP             1 S1                 0.0000
@<TRIPOS>BOND
    1    1    2 2     
    2    2    3 am    
    3    2   10 am    
    4    3    4 1     
    5    3   22 1     
    6    4    5 1     
    7    4   23 1     
    8    4   24 1     
    9    5    9 1     
   10    5    6 1     
   11    5   25 1     
   12    6    7 1     
   13    6   26 1     
   14    6   27 1     
   15    7    8 1     
   16    7   28 1     
   17    7   29 1     
   18    8    9 1     
   19    9   30 1     
   20    9   31 1     
   21   10   11 1     
   22   10   32 1     
   23   11   16 ar    
   24   11   12 ar    
   25   12   13 ar    
   26   12   33 1     
   27   13   14 ar    
   28   13   34 1     
   29   14   15 ar    
   30   14   35 1     
   31   15   16 ar    
   32   16   17 1     
   33   17   21 1     
   34   17   18 1     
   35   18   19 1     
   36   18   36 1     
   37   18   37 1     
   38   19   20 1     
   39   19   38 1     
   40   19   39 1     
   41   20   21 1     
   42   20   40 1     
   43   20   41 1     
   44   21   42 1     
   45   21   43 1     
   46    1   44 1     
   47    1   45 1     
   48    8   46 1     
   49    8   47 1     
   50   15   48 1     
   51   17   49 1     
@<TRIPOS>SUBSTRUCTURE
      1 S1             1
@<TRIPOS>SET
LONE_PAIRS      STATIC     ATOMS    <user>   **** ""
6 44 45 46 47 48 49
DONOR_HYDROGENS      STATIC     ATOMS    <user>   **** ""
2 22 32
ATOM$BLUE        STATIC     ATOMS    COLORGROUP SYSTEM
6 44 45 46 47 48 49
ATOM$RED        STATIC     ATOMS    COLORGROUP SYSTEM
2 22 32
