#       Name:                AV-unprocessed.smi:820
#       Creating user name   scv26
#       Creation time:       Fri Mar 27 01:28:09 2020


#       File generated by GOLD software.
#

@<TRIPOS>MOLECULE
AV-unprocessed.smi:820
    39    40     1
SMALL
NO_CHARGES


@<TRIPOS>ATOM
      1 ****        -6.7360   1.0806  -0.8762 C.3            1 S1                 0.0000
      2 ****        -5.2098   0.9663  -0.8337 C.3            1 S1                 0.0000
      3 ****        -4.6160   0.6070   0.8442 S.3            1 S1                 0.0000
      4 ****        -2.8540   0.4804   0.7653 C.ar           1 S1                 0.0000
      5 ****        -2.1114   0.1757   1.9205 C.ar           1 S1                 0.0000
      6 ****        -0.7116   0.0873   1.8027 C.ar           1 S1                 0.0000
      7 ****        -0.0980   0.3000   0.5476 C.ar           1 S1                 0.0000
      8 ****         1.2344   0.2316   0.3986 N.pl3          1 S1                -1.0000
      9 ****         1.8337  -0.9390   0.0597 C.2            1 S1                 0.0000
     10 ****         1.2243  -1.9938  -0.1404 O.2            1 S1                 0.0000
     11 ****         3.2889  -0.8908  -0.0577 C.2            1 S1                 0.0000
     12 ****         3.9789  -1.9984  -0.4212 C.2            1 S1                 0.0000
     13 ****         5.3476  -2.0491  -0.5146 O.3            1 S1                 0.0000
     14 ****         6.0213  -0.9278   0.0437 C.3            1 S1                 0.0000
     15 ****         5.2776   0.3689  -0.3056 C.3            1 S1                 0.0000
     16 ****         3.9362   0.3054   0.1643 O.3            1 S1                 0.0000
     17 ****        -0.9527   0.6037  -0.5383 C.ar           1 S1                 0.0000
     18 ****        -2.2970   0.6930  -0.4447 N.ar           1 S1                 0.0000
     19 ****        -7.0807   1.2979  -1.8872 H              1 S1                 0.0000
     20 ****        -7.0886   1.8802  -0.2242 H              1 S1                 0.0000
     21 ****        -7.2083   0.1519  -0.5552 H              1 S1                 0.0000
     22 ****        -4.8773   0.1745  -1.5053 H              1 S1                 0.0000
     23 ****        -4.7575   1.8960  -1.1796 H              1 S1                 0.0000
     24 ****        -2.5975   0.0139   2.8709 H              1 S1                 0.0000
     25 ****        -0.1132  -0.1445   2.6718 H              1 S1                 0.0000
     26 ****         3.5345  -2.9601  -0.6335 H              1 S1                 0.0000
     27 ****         6.0854  -1.0497   1.1258 H              1 S1                 0.0000
     28 ****         7.0421  -0.8977  -0.3374 H              1 S1                 0.0000
     29 ****         5.7736   1.2275   0.1468 H              1 S1                 0.0000
     30 ****         5.2743   0.5299  -1.3845 H              1 S1                 0.0000
     31 ****        -0.5422   0.7807  -1.5219 H              1 S1                 0.0000
     32 ****         1.7910   1.0505   0.5385 LP             1 S1                 0.0000
     33 ****         0.2282  -2.0197  -0.0555 LP             1 S1                 0.0000
     34 ****         1.7267  -2.8224  -0.3875 LP             1 S1                 0.0000
     35 ****         5.5921  -2.1098  -1.4824 LP             1 S1                 0.0000
     36 ****         5.6624  -2.8706  -0.0392 LP             1 S1                 0.0000
     37 ****         3.9462   0.4725   1.1502 LP             1 S1                 0.0000
     38 ****         3.4151   1.0274  -0.2909 LP             1 S1                 0.0000
     39 ****        -2.8590   0.9088  -1.2432 LP             1 S1                 0.0000
@<TRIPOS>BOND
    1    1    2 1     
    2    1   19 1     
    3    1   20 1     
    4    1   21 1     
    5    2    3 1     
    6    2   22 1     
    7    2   23 1     
    8    3    4 1     
    9    4   18 ar    
   10    4    5 ar    
   11    5    6 ar    
   12    5   24 1     
   13    6    7 ar    
   14    6   25 1     
   15    7    8 1     
   16    7   17 ar    
   17    8    9 1     
   18    9   10 2     
   19    9   11 1     
   20   11   16 1     
   21   11   12 2     
   22   12   13 1     
   23   12   26 1     
   24   13   14 1     
   25   14   15 1     
   26   14   27 1     
   27   14   28 1     
   28   15   16 1     
   29   15   29 1     
   30   15   30 1     
   31   17   18 ar    
   32   17   31 1     
   33    8   32 1     
   34   10   33 1     
   35   10   34 1     
   36   13   35 1     
   37   13   36 1     
   38   16   37 1     
   39   16   38 1     
   40   18   39 1     
@<TRIPOS>SUBSTRUCTURE
      1 S1             1
@<TRIPOS>SET
LONE_PAIRS      STATIC     ATOMS    <user>   **** ""
8 32 33 34 35 36 37 38 39
ATOM$BLUE        STATIC     ATOMS    COLORGROUP SYSTEM
8 32 33 34 35 36 37 38 39
