AV-unprocessed.smi:3251|AV-procd|sdf|12438|dock1
  -GOLD-   2272018333D 1   1.00000     0.00000
 Structure written by MMmdl.
 40 41  0  0  0  0  0  0  0  0  1 V2000
  145.8011  131.9261  150.8400 C   0  0  0  0  0  0  0  0  0  0  0  0
  145.4211  133.3783  150.8808 C   0  0  0  0  0  0  0  0  0  0  0  0
  144.2139  133.9809  150.4247 C   0  0  0  0  0  0  0  0  0  0  0  0
  144.1930  135.2912  150.6047 N   0  0  0  0  0  0  0  0  0  0  0  0
  145.3811  135.5713  151.1808 N   0  0  0  0  0  0  0  0  0  0  0  0
  145.7095  136.9406  151.5272 C   0  0  0  0  0  0  0  0  0  0  0  0
  145.7781  137.1399  153.0483 C   0  0  0  0  0  0  0  0  0  0  0  0
  145.8340  138.5673  153.3446 N   0  0  0  0  0  0  0  0  0  0  0  0
  147.0541  139.2261  152.8414 C   0  0  1  0  0  0  0  0  0  0  0  0
  146.8107  139.7305  151.4106 C   0  0  0  0  0  0  0  0  0  0  0  0
  147.5386  140.3935  153.7319 C   0  0  0  0  0  0  0  0  0  0  0  0
  146.8264  141.3933  153.8401 O   0  0  0  0  0  0  0  0  0  0  0  0
  148.7272  140.2971  154.3669 N   0  0  0  0  0  0  0  0  0  0  0  0
  149.6081  139.1369  154.2397 C   0  0  0  0  0  0  0  0  0  0  0  0
  150.9197  139.5315  154.9183 C   0  0  0  0  0  0  0  0  0  0  0  0
  150.5086  140.5937  155.9271 C   0  0  0  0  0  0  0  0  0  0  0  0
  149.3116  141.2849  155.2740 C   0  0  0  0  0  0  0  0  0  0  0  0
  146.1422  134.4357  151.3590 C   0  0  0  0  0  0  0  0  0  0  0  0
  144.9635  131.2959  150.5402 H   0  0  0  0  0  0  0  0  0  0  0  0
  146.1378  131.5702  151.8137 H   0  0  0  0  0  0  0  0  0  0  0  0
  146.6099  131.7430  150.1326 H   0  0  0  0  0  0  0  0  0  0  0  0
  143.3567  133.5067  149.9699 H   0  0  0  0  0  0  0  0  0  0  0  0
  146.6649  137.1932  151.0650 H   0  0  0  0  0  0  0  0  0  0  0  0
  144.9596  137.5999  151.0867 H   0  0  0  0  0  0  0  0  0  0  0  0
  144.9099  136.6766  153.5182 H   0  0  0  0  0  0  0  0  0  0  0  0
  146.6669  136.6484  153.4467 H   0  0  0  0  0  0  0  0  0  0  0  0
  145.0024  139.0137  152.9859 H   0  0  0  0  0  0  0  0  0  0  0  0
  147.8232  138.4563  152.7879 H   0  0  0  0  0  0  0  0  0  0  0  0
  147.7075  140.1886  150.9917 H   0  0  0  0  0  0  0  0  0  0  0  0
  146.0126  140.4736  151.3785 H   0  0  0  0  0  0  0  0  0  0  0  0
  146.5265  138.9111  150.7497 H   0  0  0  0  0  0  0  0  0  0  0  0
  149.1523  138.2881  154.7518 H   0  0  0  0  0  0  0  0  0  0  0  0
  149.7707  138.8572  153.1976 H   0  0  0  0  0  0  0  0  0  0  0  0
  151.4299  138.6847  155.3783 H   0  0  0  0  0  0  0  0  0  0  0  0
  151.5952  139.9696  154.1824 H   0  0  0  0  0  0  0  0  0  0  0  0
  150.1922  140.1128  156.8538 H   0  0  0  0  0  0  0  0  0  0  0  0
  151.3168  141.2847  156.1681 H   0  0  0  0  0  0  0  0  0  0  0  0
  149.6420  142.1483  154.6946 H   0  0  0  0  0  0  0  0  0  0  0  0
  148.6012  141.6274  156.0275 H   0  0  0  0  0  0  0  0  0  0  0  0
  147.1243  134.4733  151.8070 H   0  0  0  0  0  0  0  0  0  0  0  0
  1  2  1  0  0  0  0
  1 19  1  0  0  0  0
  1 20  1  0  0  0  0
  1 21  1  0  0  0  0
  2 18  2  0  0  0  0
  2  3  1  0  0  0  0
  3  4  2  0  0  0  0
  3 22  1  0  0  0  0
  4  5  1  0  0  0  0
  5  6  1  0  0  0  0
  5 18  1  0  0  0  0
  6  7  1  0  0  0  0
  6 23  1  0  0  0  0
  6 24  1  0  0  0  0
  7  8  1  0  0  0  0
  7 25  1  0  0  0  0
  7 26  1  0  0  0  0
  8  9  1  0  0  0  0
  8 27  1  0  0  0  0
  9 10  1  0  0  0  0
  9 11  1  0  0  0  0
  9 28  1  0  0  0  0
 10 29  1  0  0  0  0
 10 30  1  0  0  0  0
 10 31  1  0  0  0  0
 11 12  2  0  0  0  0
 11 13  1  0  0  0  0
 13 17  1  0  0  0  0
 13 14  1  0  0  0  0
 14 15  1  0  0  0  0
 14 32  1  0  0  0  0
 14 33  1  0  0  0  0
 15 16  1  0  0  0  0
 15 34  1  0  0  0  0
 15 35  1  0  0  0  0
 16 17  1  0  0  0  0
 16 36  1  0  0  0  0
 16 37  1  0  0  0  0
 17 38  1  0  0  0  0
 17 39  1  0  0  0  0
 18 40  1  0  0  0  0
M  END
> <s_m_source_file>
AV-unprocessed.smi

> <i_m_source_file_index>
3251

> <i_lp_mmshare_version>
43012

> <i_f3d_flags>
0

> <s_epik_input>
W0NIM11jMVtjSF1ubihbY0hdMSlbQ0gyXVtDSDJdW05IXVtDQEhdKFtDSDNdKUMoPU8pTjJbQ0gyXVtDSDJdW0NIMl1bQ0gyXTI=

> <s_epik_cmdline>
J2VwaWtfcHl0aG9uJywgJy1waCcsICc3LjAnLCAnLXRuJywgJzgnLCAnLW1hJywgJzIwMCcsICctbWV0YWxfYmluZGluZycsICctaW1hZScsICc8aW5maWxlLm1hZT4nLCAnLW9tYWUnLCAnPG91dGZpbGUubWFlPic=

> <r_lp_tautomer_probability>
1

> <r_epik_Ionization_Penalty>
0.734676

> <r_epik_Ionization_Penalty_Charging>
0

> <r_epik_Ionization_Penalty_Neutral>
0.734676

> <r_epik_State_Penalty>
0.75825

> <r_epik_Charging_Adjusted_Penalty>
0.75825

> <i_epik_Tot_Q>
0

> <i_epik_Tot_abs_Q>
0

> <r_epik_Metal_State_Penalty>
0.756914

> <b_epik_Metal_Only>
0

> <s_lp_Force_Field>
OPLS_2005

> <r_lp_Energy>
31.4715

> <b_lp_Chiralities_Consistent>
1

> <s_lp_Variant>
AV-unprocessed.smi:3251-4

> <Gold.Version>
5.8.1

> <Gold.Id.Protein>
6NUR|6NUR_protein|mol2

> <Gold.PLP.Fitness>
42.2065

> <Gold.PLP.PLP>
-34.2101

> <Gold.PLP.part.hbond>
-1.0000

> <Gold.PLP.part.metal>
0.0000

> <Gold.PLP.part.buried>
1.4700

> <Gold.PLP.part.nonpolar>
-36.1761

> <Gold.PLP.part.repulsive>
0.4271

> <Gold.PLP.ligand.clash>
0.0000

> <Gold.PLP.ligand.torsion>
0.5242

> <Gold.PLP.Chemscore.Hbond>
1.0000

> <Gold.PLP.Chemscore.CHOScore>
2.0000

> <Gold.PLP.Chemscore.Metal>
0.0000

> <Gold.Chemscore.Hbonds>
donor molecule, donor type, donor heavy atom, donor atom, acceptor molecule, acceptor atom, score
      L1  H     8    27       P1 10175  1.00
      L1  C     3    22       P1 10186  0.93
      L1  C    18    40       P1  7948  1.00

> <Gold.PLP.Chemscore.Internal.Correction>
0.0449

> <Gold.Rescore>
     Score         DG    S(hbond)    S(metal)    S(lipo)     H(rot)  DE(clash)    DE(int)     intcor
     12.19     -14.50       0.96        0.00      86.85       1.70       1.63       0.68       ----

> <Gold.Chemscore.Fitness>
12.1853

> <Gold.Chemscore.DG>
-14.4961

> <Gold.Chemscore.ZeroCoef>
-5.4800

> <Gold.Chemscore.Hbond>
0.9565

> <Gold.Chemscore.Metal>
0.0000

> <Gold.Chemscore.Lipo>
86.8467

> <Gold.Chemscore.Internal_Hbond>
0.0000

> <Gold.Chemscore.DEClash>
1.6304

> <Gold.Chemscore.DEInternal>
0.6804

> <Gold.Chemscore.Rot>
1.6951

> <Gold.Chemscore.Internal.Correction>
   9.000000E+99

> <Gold.Chemscore.Hbonds>
donor molecule, donor type, donor heavy atom, donor atom, acceptor molecule, acceptor atom, score
      L1  H     8    27       P1 10175  0.93

> <Gold.Chemscore.Hbond.Weighted>
-3.1946

> <Gold.Chemscore.Metal.Weighted>
-0.0000

> <Gold.Chemscore.Lipo.Weighted>
-10.1611

> <Gold.Chemscore.Internal_Hbond.Weighted>
0.0000

> <Gold.Chemscore.DEClash.Weighted>
1.6304

> <Gold.Chemscore.DEInternal.Weighted>
0.6804

> <Gold.Chemscore.Rot.Weighted>
4.3395

> <Gold.Chemscore.Internal.Correction.Weighted>
   9.000000E+99

> <Gold.Protein.RotatedTorsions>
[ 6907 6896 6895 6894 ] final  -17.62 input  -60.11 | X-H torsion
[ 7974 7965 7964 7962 ] final -101.80 input  175.53 | X-H torsion
[ 8008 7997 7996 7995 ] final  150.55 input   59.86 | X-H torsion
[ 10167 10162 10161 10158 ] final -104.05 input  -65.29 | X-H torsion
[ 10718 10713 10712 10709 ] final -119.10 input   66.30 | X-H torsion
[ 10763 10752 10751 10750 ] final -107.80 input  -60.55 | X-H torsion
[ 11005 11000 10999 10996 ] final  -47.95 input  -57.11 | X-H torsion

> <Gold.Protein.ActiveResidues>
 VAL166  LYS551  ARG553  GLY616  TRP617  ASP618  TYR619  PRO620  LYS621  CYS622 
 ASP623  PHE694  ASN695  SER759  ASP760  ASP761  ALA762  ILE779  LEU786  VAL792 
 PHE793  MET794  SER795  GLU796  ALA797  LYS798  CYS799  TRP800  GLU811  SER814 

> <Gold.Protein.RotatedAtoms>
  151.2906  135.0740  159.9202 H   0  0  0  0  0  0  0  0  0  0  0  0  # atno 6907 bound_to 6896
  152.5317  133.9936  159.7872 H   0  0  0  0  0  0  0  0  0  0  0  0  # atno 6908 bound_to 6896
  151.0205  133.5830  159.2702 H   0  0  0  0  0  0  0  0  0  0  0  0  # atno 6909 bound_to 6896
  145.2770  140.9315  143.2954 H   0  0  0  0  0  0  0  0  0  0  0  0  # atno 7974 bound_to 7965
  156.2711  140.2072  156.6035 H   0  0  0  0  0  0  0  0  0  0  0  0  # atno 8008 bound_to 7997
  154.6888  140.0532  157.0365 H   0  0  0  0  0  0  0  0  0  0  0  0  # atno 8009 bound_to 7997
  155.0896  140.3195  155.4580 H   0  0  0  0  0  0  0  0  0  0  0  0  # atno 8010 bound_to 7997
  140.2134  143.3729  152.1031 H   0  0  0  0  0  0  0  0  0  0  0  0  # atno 10167 bound_to 10162
  156.1155  130.6282  150.9374 H   0  0  0  0  0  0  0  0  0  0  0  0  # atno 10718 bound_to 10713
  154.8097  135.4661  154.0485 H   0  0  0  0  0  0  0  0  0  0  0  0  # atno 10763 bound_to 10752
  153.1925  135.6857  153.8340 H   0  0  0  0  0  0  0  0  0  0  0  0  # atno 10764 bound_to 10752
  153.7853  135.3251  155.3348 H   0  0  0  0  0  0  0  0  0  0  0  0  # atno 10765 bound_to 10752
  141.0672  133.6690  156.3371 H   0  0  0  0  0  0  0  0  0  0  0  0  # atno 11005 bound_to 11000
  144.9286  139.4326  143.6506 LP  0  0  0  0  0  0  0  0  0  0  0  0  # atno 17320 bound_to 7965
  146.3228  139.8185  142.8931 LP  0  0  0  0  0  0  0  0  0  0  0  0  # atno 17321 bound_to 7965
  139.5171  144.6987  151.5556 LP  0  0  0  0  0  0  0  0  0  0  0  0  # atno 17342 bound_to 10162
  140.6307  143.9082  150.6603 LP  0  0  0  0  0  0  0  0  0  0  0  0  # atno 17343 bound_to 10162
  157.6338  131.0918  150.8388 LP  0  0  0  0  0  0  0  0  0  0  0  0  # atno 17370 bound_to 10713
  156.8492  130.5074  149.5313 LP  0  0  0  0  0  0  0  0  0  0  0  0  # atno 17371 bound_to 10713
  140.5749  134.5803  157.5466 LP  0  0  0  0  0  0  0  0  0  0  0  0  # atno 17394 bound_to 11000
  139.9487  134.7655  156.0499 LP  0  0  0  0  0  0  0  0  0  0  0  0  # atno 17395 bound_to 11000

$$$$
