AV-unprocessed.smi:2822|AV-procd|sdf|10868|dock5
  -GOLD-   2272015313D 1   1.00000     0.00000
 Structure written by MMmdl.
 40 42  0  0  0  0  0  0  0  0  2 V2000
  152.0880  144.1203  161.0143 Cl  0  0  0  0  0  0  0  0  0  0  0  0
  153.0967  142.7292  160.8182 C   0  0  0  0  0  0  0  0  0  0  0  0
  154.0091  142.3784  161.8342 C   0  0  0  0  0  0  0  0  0  0  0  0
  154.8314  141.3111  161.7590 N   0  0  0  0  0  0  0  0  0  0  0  0
  154.7686  140.5467  160.6492 C   0  0  0  0  0  0  0  0  0  0  0  0
  153.8939  140.8074  159.5753 C   0  0  0  0  0  0  0  0  0  0  0  0
  153.0323  141.9269  159.6557 C   0  0  0  0  0  0  0  0  0  0  0  0
  152.1277  142.2601  158.6360 N   0  0  0  0  0  0  0  0  0  0  0  0
  151.8034  141.3124  157.5808 C   0  0  0  0  0  0  0  0  0  0  0  0
  150.6819  141.8418  156.6762 C   0  0  2  0  0  0  0  0  0  0  0  0
  149.3278  141.8810  157.4079 C   0  0  0  0  0  0  0  0  0  0  0  0
  148.2536  142.3304  156.4921 N   0  3  2  0  0  0  0  0  0  0  0  0
  146.9342  142.4226  157.1674 C   0  0  0  0  0  0  0  0  0  0  0  0
  145.8637  142.9815  156.2161 C   0  0  0  0  0  0  0  0  0  0  0  0
  145.7725  142.1363  154.9390 C   0  0  0  0  0  0  0  0  0  0  0  0
  147.1532  142.0333  154.2770 C   0  0  0  0  0  0  0  0  0  0  0  0
  148.2074  141.4920  155.2632 C   0  0  1  0  0  0  0  0  0  0  0  0
  149.6038  141.4327  154.6138 C   0  0  0  0  0  0  0  0  0  0  0  0
  150.5583  140.9677  155.5593 O   0  0  0  0  0  0  0  0  0  0  0  0
  154.0810  142.9723  162.7335 H   0  0  0  0  0  0  0  0  0  0  0  0
  155.4366  139.6987  160.6152 H   0  0  0  0  0  0  0  0  0  0  0  0
  153.8997  140.1494  158.7197 H   0  0  0  0  0  0  0  0  0  0  0  0
  151.8700  143.2290  158.5113 H   0  0  0  0  0  0  0  0  0  0  0  0
  152.6948  141.0960  156.9906 H   0  0  0  0  0  0  0  0  0  0  0  0
  151.4837  140.3779  158.0433 H   0  0  0  0  0  0  0  0  0  0  0  0
  150.9401  142.8467  156.3351 H   0  0  0  0  0  0  0  0  0  0  0  0
  149.0832  140.8927  157.8012 H   0  0  0  0  0  0  0  0  0  0  0  0
  149.3858  142.5594  158.2602 H   0  0  0  0  0  0  0  0  0  0  0  0
  146.6373  141.4359  157.5262 H   0  0  0  0  0  0  0  0  0  0  0  0
  147.0160  143.0676  158.0432 H   0  0  0  0  0  0  0  0  0  0  0  0
  144.8951  143.0054  156.7166 H   0  0  0  0  0  0  0  0  0  0  0  0
  146.1044  144.0134  155.9572 H   0  0  0  0  0  0  0  0  0  0  0  0
  145.4037  141.1387  155.1817 H   0  0  0  0  0  0  0  0  0  0  0  0
  145.0539  142.5752  154.2460 H   0  0  0  0  0  0  0  0  0  0  0  0
  147.0928  141.3865  153.4010 H   0  0  0  0  0  0  0  0  0  0  0  0
  147.4559  143.0168  153.9143 H   0  0  0  0  0  0  0  0  0  0  0  0
  147.9235  140.4796  155.5563 H   0  0  0  0  0  0  0  0  0  0  0  0
  149.5946  140.7491  153.7643 H   0  0  0  0  0  0  0  0  0  0  0  0
  149.9036  142.4099  154.2311 H   0  0  0  0  0  0  0  0  0  0  0  0
  148.4950  143.2657  156.1967 H   0  0  0  0  0  0  0  0  0  0  0  0
  1  2  1  0  0  0  0
  2  7  1  0  0  0  0
  2  3  2  0  0  0  0
  3  4  1  0  0  0  0
  3 20  1  0  0  0  0
  4  5  2  0  0  0  0
  5  6  1  0  0  0  0
  5 21  1  0  0  0  0
  6  7  2  0  0  0  0
  6 22  1  0  0  0  0
  7  8  1  0  0  0  0
  8  9  1  0  0  0  0
  8 23  1  0  0  0  0
  9 10  1  0  0  0  0
  9 24  1  0  0  0  0
  9 25  1  0  0  0  0
 10 19  1  0  0  0  0
 10 11  1  0  0  0  0
 10 26  1  0  0  0  0
 11 12  1  0  0  0  0
 11 27  1  0  0  0  0
 11 28  1  0  0  0  0
 12 17  1  0  0  0  0
 12 13  1  0  0  0  0
 12 40  1  0  0  0  0
 13 14  1  0  0  0  0
 13 29  1  0  0  0  0
 13 30  1  0  0  0  0
 14 15  1  0  0  0  0
 14 31  1  0  0  0  0
 14 32  1  0  0  0  0
 15 16  1  0  0  0  0
 15 33  1  0  0  0  0
 15 34  1  0  0  0  0
 16 17  1  0  0  0  0
 16 35  1  0  0  0  0
 16 36  1  0  0  0  0
 17 18  1  0  0  0  0
 17 37  1  0  0  0  0
 18 19  1  0  0  0  0
 18 38  1  0  0  0  0
 18 39  1  0  0  0  0
M  CHG  1  12   1
M  END
> <s_m_source_file>
AV-unprocessed.smi

> <i_m_source_file_index>
2822

> <i_lp_mmshare_version>
43012

> <i_f3d_flags>
0

> <s_epik_input>
Q2xjMVtjSF1uW2NIXVtjSF1jMVtOSF1bQ0gyXVtDQEhdKFtDSDJdMilPW0NIMl1bQ0BASF0oTjIzKVtDSDJdW0NIMl1bQ0gyXVtDSDJdMw==

> <s_epik_cmdline>
J2VwaWtfcHl0aG9uJywgJy1waCcsICc3LjAnLCAnLXRuJywgJzgnLCAnLW1hJywgJzIwMCcsICctbWV0YWxfYmluZGluZycsICctaW1hZScsICc8aW5maWxlLm1hZT4nLCAnLW9tYWUnLCAnPG91dGZpbGUubWFlPic=

> <r_lp_tautomer_probability>
0.999999

> <r_epik_Ionization_Penalty>
0.88937

> <r_epik_Ionization_Penalty_Charging>
0.0803403

> <r_epik_Ionization_Penalty_Neutral>
0.80903

> <r_epik_State_Penalty>
0.931884

> <r_epik_Charging_Adjusted_Penalty>
1.01222

> <i_epik_Tot_Q>
1

> <i_epik_Tot_abs_Q>
1

> <r_epik_Metal_State_Penalty>
0.0782275

> <b_epik_Metal_Only>
0

> <s_lp_Force_Field>
OPLS_2005

> <r_lp_Energy>
28.742

> <b_lp_Chiralities_Consistent>
1

> <s_lp_Variant>
AV-unprocessed.smi:2822-9

> <Gold.Version>
5.8.1

> <Gold.Id.Protein>
6NUR|6NUR_protein|mol2

> <Gold.PLP.Fitness>
47.1962

> <Gold.PLP.PLP>
-41.4114

> <Gold.PLP.part.hbond>
-2.0154

> <Gold.PLP.part.metal>
0.0000

> <Gold.PLP.part.buried>
-5.2548

> <Gold.PLP.part.nonpolar>
-33.7179

> <Gold.PLP.part.repulsive>
0.1439

> <Gold.PLP.ligand.clash>
0.0000

> <Gold.PLP.ligand.torsion>
0.1077

> <Gold.PLP.Chemscore.Hbond>
2.0000

> <Gold.PLP.Chemscore.CHOScore>
0.0000

> <Gold.PLP.Chemscore.Metal>
0.0000

> <Gold.Chemscore.Hbonds>
donor molecule, donor type, donor heavy atom, donor atom, acceptor molecule, acceptor atom, score
      L1  H    12    40       P1  8028  2.00

> <Gold.PLP.Chemscore.Internal.Correction>
0.0003

> <Gold.Rescore>
     Score         DG    S(hbond)    S(metal)    S(lipo)     H(rot)  DE(clash)    DE(int)     intcor
     17.68     -18.49       0.97        0.00     109.00       1.17       0.67       0.14       ----

> <Gold.Chemscore.Fitness>
17.6821

> <Gold.Chemscore.DG>
-18.4895

> <Gold.Chemscore.ZeroCoef>
-5.4800

> <Gold.Chemscore.Hbond>
0.9729

> <Gold.Chemscore.Metal>
0.0000

> <Gold.Chemscore.Lipo>
109.0042

> <Gold.Chemscore.Internal_Hbond>
0.0000

> <Gold.Chemscore.DEClash>
0.6668

> <Gold.Chemscore.DEInternal>
0.1406

> <Gold.Chemscore.Rot>
1.1693

> <Gold.Chemscore.Internal.Correction>
   9.000000E+99

> <Gold.Chemscore.Hbonds>
donor molecule, donor type, donor heavy atom, donor atom, acceptor molecule, acceptor atom, score
      L1  H    12    40       P1  8028  0.84

> <Gold.Chemscore.Hbond.Weighted>
-3.2494

> <Gold.Chemscore.Metal.Weighted>
-0.0000

> <Gold.Chemscore.Lipo.Weighted>
-12.7535

> <Gold.Chemscore.Internal_Hbond.Weighted>
0.0000

> <Gold.Chemscore.DEClash.Weighted>
0.6668

> <Gold.Chemscore.DEInternal.Weighted>
0.1406

> <Gold.Chemscore.Rot.Weighted>
2.9934

> <Gold.Chemscore.Internal.Correction.Weighted>
   9.000000E+99

> <Gold.Protein.RotatedTorsions>
[ 6907 6896 6895 6894 ] final -163.59 input  -60.11 | X-H torsion
[ 7974 7965 7964 7962 ] final  -41.79 input  175.53 | X-H torsion
[ 8008 7997 7996 7995 ] final  166.99 input   59.86 | X-H torsion
[ 10167 10162 10161 10158 ] final -137.37 input  -65.29 | X-H torsion
[ 10718 10713 10712 10709 ] final  157.97 input   66.30 | X-H torsion
[ 10763 10752 10751 10750 ] final   15.25 input  -60.55 | X-H torsion
[ 11005 11000 10999 10996 ] final   -6.08 input  -57.11 | X-H torsion

> <Gold.Protein.ActiveResidues>
 VAL166  LYS551  ARG553  GLY616  TRP617  ASP618  TYR619  PRO620  LYS621  CYS622 
 ASP623  PHE694  ASN695  SER759  ASP760  ASP761  ALA762  ILE779  LEU786  VAL792 
 PHE793  MET794  SER795  GLU796  ALA797  LYS798  CYS799  TRP800  GLU811  SER814 

> <Gold.Protein.RotatedAtoms>
  151.3985  133.3765  159.2729 H   0  0  0  0  0  0  0  0  0  0  0  0  # atno 6907 bound_to 6896
  150.9451  134.8858  159.7647 H   0  0  0  0  0  0  0  0  0  0  0  0  # atno 6908 bound_to 6896
  152.5088  134.3937  159.9445 H   0  0  0  0  0  0  0  0  0  0  0  0  # atno 6909 bound_to 6896
  146.0178  140.6887  142.9193 H   0  0  0  0  0  0  0  0  0  0  0  0  # atno 7974 bound_to 7965
  156.1671  140.1628  156.8512 H   0  0  0  0  0  0  0  0  0  0  0  0  # atno 8008 bound_to 7997
  154.5219  140.0776  156.8222 H   0  0  0  0  0  0  0  0  0  0  0  0  # atno 8009 bound_to 7997
  155.3588  140.3394  155.4242 H   0  0  0  0  0  0  0  0  0  0  0  0  # atno 8010 bound_to 7997
  139.8584  143.7108  152.2652 H   0  0  0  0  0  0  0  0  0  0  0  0  # atno 10167 bound_to 10162
  157.1842  131.0639  151.2115 H   0  0  0  0  0  0  0  0  0  0  0  0  # atno 10718 bound_to 10713
  153.1543  135.6784  153.8835 H   0  0  0  0  0  0  0  0  0  0  0  0  # atno 10763 bound_to 10752
  153.8251  135.3125  155.3415 H   0  0  0  0  0  0  0  0  0  0  0  0  # atno 10764 bound_to 10752
  154.7886  135.4848  154.0089 H   0  0  0  0  0  0  0  0  0  0  0  0  # atno 10765 bound_to 10752
  140.6981  133.9013  155.8664 H   0  0  0  0  0  0  0  0  0  0  0  0  # atno 11005 bound_to 11000
  144.6978  140.3512  143.7181 LP  0  0  0  0  0  0  0  0  0  0  0  0  # atno 17320 bound_to 7965
  145.7241  139.1718  143.2468 LP  0  0  0  0  0  0  0  0  0  0  0  0  # atno 17321 bound_to 7965
  139.7397  144.7562  151.0672 LP  0  0  0  0  0  0  0  0  0  0  0  0  # atno 17342 bound_to 10162
  140.7778  143.4987  150.9799 LP  0  0  0  0  0  0  0  0  0  0  0  0  # atno 17343 bound_to 10162
  157.3923  130.7288  149.6706 LP  0  0  0  0  0  0  0  0  0  0  0  0  # atno 17370 bound_to 10713
  155.9720  130.4143  150.4126 LP  0  0  0  0  0  0  0  0  0  0  0  0  # atno 17371 bound_to 10713
  141.0186  134.0921  157.4145 LP  0  0  0  0  0  0  0  0  0  0  0  0  # atno 17394 bound_to 11000
  139.8904  135.0112  156.6735 LP  0  0  0  0  0  0  0  0  0  0  0  0  # atno 17395 bound_to 11000

$$$$
