AV-unprocessed.smi:2674|AV-procd|sdf|10358|dock4
  -GOLD-   2272014383D 1   1.00000     0.00000
 Structure written by MMmdl.
 45 46  0  0  0  0  0  0  0  0  2 V2000
  146.8794  141.8801  154.1034 C   0  0  0  0  0  0  0  0  0  0  0  0
  147.8495  140.9486  153.4730 N   0  3  2  0  0  0  0  0  0  0  0  0
  147.1512  139.9676  152.5988 C   0  0  0  0  0  0  0  0  0  0  0  0
  146.5730  138.7989  153.4170 C   0  0  0  0  0  0  0  0  0  0  0  0
  146.8171  137.5148  152.7701 N   0  0  0  0  0  0  0  0  0  0  0  0
  145.8614  136.6453  152.4115 C   0  0  0  0  0  0  0  0  0  0  0  0
  144.6603  136.8541  152.5853 O   0  0  0  0  0  0  0  0  0  0  0  0
  146.3884  135.5430  151.8498 N   0  0  0  0  0  0  0  0  0  0  0  0
  145.7057  134.4092  151.3335 C   0  0  0  0  0  0  0  0  0  0  0  0
  146.5399  133.3917  150.8173 C   0  0  0  0  0  0  0  0  0  0  0  0
  145.9598  132.2266  150.2794 C   0  0  0  0  0  0  0  0  0  0  0  0
  144.5587  132.1089  150.2711 C   0  0  0  0  0  0  0  0  0  0  0  0
  143.8012  133.1680  150.8037 C   0  0  0  0  0  0  0  0  0  0  0  0
  144.3549  134.2859  151.3198 N   0  0  0  0  0  0  0  0  0  0  0  0
  148.8225  140.3046  154.4120 C   0  0  0  0  0  0  0  0  0  0  0  0
  149.7289  141.3116  155.1697 C   0  0  0  0  0  0  0  0  0  0  0  0
  150.7327  140.6037  156.0949 C   0  0  0  0  0  0  0  0  0  0  0  0
  151.5987  139.6021  155.3206 C   0  0  0  0  0  0  0  0  0  0  0  0
  150.7213  138.5923  154.5700 C   0  0  0  0  0  0  0  0  0  0  0  0
  149.7231  139.3040  153.6437 C   0  0  0  0  0  0  0  0  0  0  0  0
  146.3098  141.3796  154.8874 H   0  0  0  0  0  0  0  0  0  0  0  0
  146.1703  142.2638  153.3699 H   0  0  0  0  0  0  0  0  0  0  0  0
  147.3788  142.7488  154.5319 H   0  0  0  0  0  0  0  0  0  0  0  0
  146.3397  140.4450  152.0511 H   0  0  0  0  0  0  0  0  0  0  0  0
  147.8338  139.5993  151.8309 H   0  0  0  0  0  0  0  0  0  0  0  0
  147.0255  138.7635  154.4076 H   0  0  0  0  0  0  0  0  0  0  0  0
  145.5012  138.9367  153.5716 H   0  0  0  0  0  0  0  0  0  0  0  0
  147.7796  137.2667  152.5926 H   0  0  0  0  0  0  0  0  0  0  0  0
  147.3948  135.5092  151.7828 H   0  0  0  0  0  0  0  0  0  0  0  0
  147.6151  133.4979  150.8313 H   0  0  0  0  0  0  0  0  0  0  0  0
  146.5800  131.4375  149.8802 H   0  0  0  0  0  0  0  0  0  0  0  0
  144.0772  131.2305  149.8673 H   0  0  0  0  0  0  0  0  0  0  0  0
  142.7225  133.1171  150.8159 H   0  0  0  0  0  0  0  0  0  0  0  0
  148.2468  139.7606  155.1634 H   0  0  0  0  0  0  0  0  0  0  0  0
  150.2729  141.9327  154.4565 H   0  0  0  0  0  0  0  0  0  0  0  0
  149.1342  141.9858  155.7861 H   0  0  0  0  0  0  0  0  0  0  0  0
  151.3690  141.3404  156.5858 H   0  0  0  0  0  0  0  0  0  0  0  0
  150.1944  140.0840  156.8886 H   0  0  0  0  0  0  0  0  0  0  0  0
  152.2340  140.1359  154.6124 H   0  0  0  0  0  0  0  0  0  0  0  0
  152.2680  139.0796  156.0046 H   0  0  0  0  0  0  0  0  0  0  0  0
  151.3496  137.9163  153.9897 H   0  0  0  0  0  0  0  0  0  0  0  0
  150.1790  137.9727  155.2854 H   0  0  0  0  0  0  0  0  0  0  0  0
  149.1325  138.5460  153.1306 H   0  0  0  0  0  0  0  0  0  0  0  0
  150.2725  139.8332  152.8636 H   0  0  0  0  0  0  0  0  0  0  0  0
  148.4150  141.5177  152.8592 H   0  0  0  0  0  0  0  0  0  0  0  0
  1  2  1  0  0  0  0
  1 21  1  0  0  0  0
  1 22  1  0  0  0  0
  1 23  1  0  0  0  0
  2  3  1  0  0  0  0
  2 15  1  0  0  0  0
  2 45  1  0  0  0  0
  3  4  1  0  0  0  0
  3 24  1  0  0  0  0
  3 25  1  0  0  0  0
  4  5  1  0  0  0  0
  4 26  1  0  0  0  0
  4 27  1  0  0  0  0
  5  6  1  0  0  0  0
  5 28  1  0  0  0  0
  6  7  2  0  0  0  0
  6  8  1  0  0  0  0
  8  9  1  0  0  0  0
  8 29  1  0  0  0  0
  9 14  1  0  0  0  0
  9 10  2  0  0  0  0
 10 11  1  0  0  0  0
 10 30  1  0  0  0  0
 11 12  2  0  0  0  0
 11 31  1  0  0  0  0
 12 13  1  0  0  0  0
 12 32  1  0  0  0  0
 13 14  2  0  0  0  0
 13 33  1  0  0  0  0
 15 20  1  0  0  0  0
 15 16  1  0  0  0  0
 15 34  1  0  0  0  0
 16 17  1  0  0  0  0
 16 35  1  0  0  0  0
 16 36  1  0  0  0  0
 17 18  1  0  0  0  0
 17 37  1  0  0  0  0
 17 38  1  0  0  0  0
 18 19  1  0  0  0  0
 18 39  1  0  0  0  0
 18 40  1  0  0  0  0
 19 20  1  0  0  0  0
 19 41  1  0  0  0  0
 19 42  1  0  0  0  0
 20 43  1  0  0  0  0
 20 44  1  0  0  0  0
M  CHG  1   2   1
M  END
> <s_m_source_file>
AV-unprocessed.smi

> <i_m_source_file_index>
2674

> <i_lp_mmshare_version>
43012

> <i_f3d_flags>
0

> <s_epik_input>
W0NIMl0xW0NIMl1bQ0gyXVtDSDJdW0NIMl1bQ0hdMU4oW0NIM10pW0NIMl1bQ0gyXVtOSF1DKD1PKVtOSF1jMltjSF1bY0hdW2NIXVtjSF1uMg==

> <s_epik_cmdline>
J2VwaWtfcHl0aG9uJywgJy1waCcsICc3LjAnLCAnLXRuJywgJzgnLCAnLW1hJywgJzIwMCcsICctbWV0YWxfYmluZGluZycsICctaW1hZScsICc8aW5maWxlLm1hZT4nLCAnLW9tYWUnLCAnPG91dGZpbGUubWFlPic=

> <r_epik_Ionization_Penalty>
0.00206741

> <r_epik_Ionization_Penalty_Charging>
0.00203269

> <r_epik_Ionization_Penalty_Neutral>
3.47205e-05

> <r_epik_State_Penalty>
0.00139005

> <r_epik_Charging_Adjusted_Penalty>
0.00342273

> <i_epik_Tot_Q>
1

> <i_epik_Tot_abs_Q>
1

> <r_epik_Metal_State_Penalty>
-0

> <b_epik_Metal_Only>
0

> <s_lp_Force_Field>
OPLS_2005

> <r_lp_Energy>
21.2235

> <b_lp_Chiralities_Consistent>
1

> <s_lp_Variant>
AV-unprocessed.smi:2674-1

> <Gold.Version>
5.8.1

> <Gold.Id.Protein>
6NUR|6NUR_protein|mol2

> <Gold.PLP.Fitness>
46.8900

> <Gold.PLP.PLP>
-38.8150

> <Gold.PLP.part.hbond>
-3.0000

> <Gold.PLP.part.metal>
0.0000

> <Gold.PLP.part.buried>
1.2537

> <Gold.PLP.part.nonpolar>
-37.7927

> <Gold.PLP.part.repulsive>
0.5606

> <Gold.PLP.ligand.clash>
0.0000

> <Gold.PLP.ligand.torsion>
0.5096

> <Gold.PLP.Chemscore.Hbond>
2.0000

> <Gold.PLP.Chemscore.CHOScore>
1.0000

> <Gold.PLP.Chemscore.Metal>
0.0000

> <Gold.Chemscore.Hbonds>
donor molecule, donor type, donor heavy atom, donor atom, acceptor molecule, acceptor atom, score
      L1  H     5    28       P1  7948  1.00
      L1  H     8    29       P1  7948  1.00
      L1  C    13    33       P1 10186  1.00

> <Gold.PLP.Chemscore.Internal.Correction>
0.0943

> <Gold.Rescore>
     Score         DG    S(hbond)    S(metal)    S(lipo)     H(rot)  DE(clash)    DE(int)     intcor
     15.89     -18.21       1.94        0.00      90.85       1.70       0.58       1.75       ----

> <Gold.Chemscore.Fitness>
15.8885

> <Gold.Chemscore.DG>
-18.2141

> <Gold.Chemscore.ZeroCoef>
-5.4800

> <Gold.Chemscore.Hbond>
1.9355

> <Gold.Chemscore.Metal>
0.0000

> <Gold.Chemscore.Lipo>
90.8470

> <Gold.Chemscore.Internal_Hbond>
0.0000

> <Gold.Chemscore.DEClash>
0.5791

> <Gold.Chemscore.DEInternal>
1.7466

> <Gold.Chemscore.Rot>
1.7030

> <Gold.Chemscore.Internal.Correction>
   9.000000E+99

> <Gold.Chemscore.Hbonds>
donor molecule, donor type, donor heavy atom, donor atom, acceptor molecule, acceptor atom, score
      L1  H     5    28       P1  7948  0.94
      L1  H     8    29       P1  7948  0.97

> <Gold.Chemscore.Hbond.Weighted>
-6.4647

> <Gold.Chemscore.Metal.Weighted>
-0.0000

> <Gold.Chemscore.Lipo.Weighted>
-10.6291

> <Gold.Chemscore.Internal_Hbond.Weighted>
0.0000

> <Gold.Chemscore.DEClash.Weighted>
0.5791

> <Gold.Chemscore.DEInternal.Weighted>
1.7466

> <Gold.Chemscore.Rot.Weighted>
4.3597

> <Gold.Chemscore.Internal.Correction.Weighted>
   9.000000E+99

> <Gold.Protein.RotatedTorsions>
[ 6907 6896 6895 6894 ] final  -80.24 input  -60.11 | X-H torsion
[ 7974 7965 7964 7962 ] final  158.97 input  175.53 | X-H torsion
[ 8008 7997 7996 7995 ] final -112.82 input   59.86 | X-H torsion
[ 10167 10162 10161 10158 ] final  -91.89 input  -65.29 | X-H torsion
[ 10718 10713 10712 10709 ] final  -53.70 input   66.30 | X-H torsion
[ 10763 10752 10751 10750 ] final   18.03 input  -60.55 | X-H torsion
[ 11005 11000 10999 10996 ] final -112.43 input  -57.11 | X-H torsion

> <Gold.Protein.ActiveResidues>
 VAL166  LYS551  ARG553  GLY616  TRP617  ASP618  TYR619  PRO620  LYS621  CYS622 
 ASP623  PHE694  ASN695  SER759  ASP760  ASP761  ALA762  ILE779  LEU786  VAL792 
 PHE793  MET794  SER795  GLU796  ALA797  LYS798  CYS799  TRP800  GLU811  SER814 

> <Gold.Protein.RotatedAtoms>
  150.6933  134.3999  159.5113 H   0  0  0  0  0  0  0  0  0  0  0  0  # atno 6907 bound_to 6896
  152.1774  134.8780  160.0538 H   0  0  0  0  0  0  0  0  0  0  0  0  # atno 6908 bound_to 6896
  151.9783  133.3714  159.4134 H   0  0  0  0  0  0  0  0  0  0  0  0  # atno 6909 bound_to 6896
  144.7816  139.7552  143.6257 H   0  0  0  0  0  0  0  0  0  0  0  0  # atno 7974 bound_to 7965
  155.0112  140.0393  157.2400 H   0  0  0  0  0  0  0  0  0  0  0  0  # atno 8008 bound_to 7997
  154.7459  140.2757  155.6310 H   0  0  0  0  0  0  0  0  0  0  0  0  # atno 8009 bound_to 7997
  156.2874  140.2656  156.2199 H   0  0  0  0  0  0  0  0  0  0  0  0  # atno 8010 bound_to 7997
  140.3403  143.2946  151.9842 H   0  0  0  0  0  0  0  0  0  0  0  0  # atno 10167 bound_to 10162
  156.1513  130.4151  149.9941 H   0  0  0  0  0  0  0  0  0  0  0  0  # atno 10718 bound_to 10713
  153.1285  135.6735  153.9216 H   0  0  0  0  0  0  0  0  0  0  0  0  # atno 10763 bound_to 10752
  153.8710  135.3069  155.3443 H   0  0  0  0  0  0  0  0  0  0  0  0  # atno 10764 bound_to 10752
  154.7687  135.4951  153.9686 H   0  0  0  0  0  0  0  0  0  0  0  0  # atno 10765 bound_to 10752
  141.0675  133.9434  157.2549 H   0  0  0  0  0  0  0  0  0  0  0  0  # atno 11005 bound_to 11000
  146.2027  139.5331  142.9733 LP  0  0  0  0  0  0  0  0  0  0  0  0  # atno 17320 bound_to 7965
  145.6035  141.0351  143.2005 LP  0  0  0  0  0  0  0  0  0  0  0  0  # atno 17321 bound_to 7965
  139.4841  144.6162  151.7342 LP  0  0  0  0  0  0  0  0  0  0  0  0  # atno 17342 bound_to 10162
  140.5315  144.0723  150.6055 LP  0  0  0  0  0  0  0  0  0  0  0  0  # atno 17343 bound_to 10162
  156.7797  130.9217  151.3646 LP  0  0  0  0  0  0  0  0  0  0  0  0  # atno 17370 bound_to 10713
  157.6659  130.9007  149.9931 LP  0  0  0  0  0  0  0  0  0  0  0  0  # atno 17371 bound_to 10713
  139.9491  135.0179  156.8940 LP  0  0  0  0  0  0  0  0  0  0  0  0  # atno 17394 bound_to 11000
  140.5742  134.0414  155.7441 LP  0  0  0  0  0  0  0  0  0  0  0  0  # atno 17395 bound_to 11000

$$$$
