#       Name:                AV-unprocessed.smi:1784
#       Creating user name   scv26
#       Creation time:       Fri Mar 27 08:44:05 2020


#       File generated by GOLD software.
#

@<TRIPOS>MOLECULE
AV-unprocessed.smi:1784
    49    51     1
SMALL
NO_CHARGES


@<TRIPOS>ATOM
      1 ****         1.5100   1.7230   1.1126 O.2            1 S1                 0.0000
      2 ****         1.0004   0.6033   1.1582 C.2            1 S1                 0.0000
      3 ****         1.7059  -0.5359   1.1877 N.am           1 S1                 0.0000
      4 ****         3.1607  -0.6209   1.1245 C.3            1 S1                 0.0000
      5 ****         3.6477  -0.7778  -0.3255 C.3            1 S1                 0.0000
      6 ****         5.1584  -0.9741  -0.4465 C.3            1 S1                 0.0000
      7 ****         5.4208  -0.4739  -1.8484 C.3            1 S1                 0.0000
      8 ****         4.4699   0.7155  -1.9328 C.3            1 S1                 0.0000
      9 ****         3.3662   0.3922  -1.0917 O.3            1 S1                 0.0000
     10 ****        -0.3203   0.3583   1.1607 N.am           1 S1                 0.0000
     11 ****        -1.3806   1.3038   1.0764 C.ar           1 S1                 0.0000
     12 ****        -1.2786   2.5734   1.7010 C.ar           1 S1                 0.0000
     13 ****        -2.3317   3.5000   1.5866 C.ar           1 S1                 0.0000
     14 ****        -3.4749   3.1419   0.8525 C.ar           1 S1                 0.0000
     15 ****        -3.5504   1.9195   0.2868 N.pl3          1 S1                 1.0000
     16 ****        -2.5770   0.9783   0.3729 C.ar           1 S1                 0.0000
     17 ****        -2.8040  -0.2627  -0.2654 N.3            1 S1                 0.0000
     18 ****        -3.9586  -0.4456  -1.1371 C.3            1 S1                 0.0000
     19 ****        -4.0529  -1.9528  -1.3572 C.3            1 S1                 0.0000
     20 ****        -3.5933  -2.5105  -0.0134 C.3            1 S1                 0.0000
     21 ****        -2.5402  -1.5020   0.4587 C.3            1 S1                 0.0000
     22 ****         1.2029  -1.4102   1.2258 H              1 S1                 0.0000
     23 ****         3.6252   0.2469   1.5963 H              1 S1                 0.0000
     24 ****         3.4672  -1.4889   1.7084 H              1 S1                 0.0000
     25 ****         3.1425  -1.6185  -0.8040 H              1 S1                 0.0000
     26 ****         5.6885  -0.3505   0.2750 H              1 S1                 0.0000
     27 ****         5.4666  -2.0091  -0.2960 H              1 S1                 0.0000
     28 ****         6.4621  -0.2012  -2.0213 H              1 S1                 0.0000
     29 ****         5.1391  -1.2353  -2.5771 H              1 S1                 0.0000
     30 ****         4.9485   1.6143  -1.5424 H              1 S1                 0.0000
     31 ****         4.1473   0.9197  -2.9540 H              1 S1                 0.0000
     32 ****        -0.5919  -0.6116   1.0959 H              1 S1                 0.0000
     33 ****        -0.4052   2.8496   2.2725 H              1 S1                 0.0000
     34 ****        -2.2611   4.4713   2.0542 H              1 S1                 0.0000
     35 ****        -4.3292   3.7873   0.7075 H              1 S1                 0.0000
     36 ****        -4.8657  -0.0894  -0.6468 H              1 S1                 0.0000
     37 ****        -3.8391   0.0943  -2.0770 H              1 S1                 0.0000
     38 ****        -5.0548  -2.2799  -1.6370 H              1 S1                 0.0000
     39 ****        -3.3621  -2.2599  -2.1440 H              1 S1                 0.0000
     40 ****        -4.4320  -2.5200   0.6843 H              1 S1                 0.0000
     41 ****        -3.2047  -3.5270  -0.0841 H              1 S1                 0.0000
     42 ****        -1.5428  -1.8563   0.1965 H              1 S1                 0.0000
     43 ****        -2.5806  -1.3637   1.5400 H              1 S1                 0.0000
     44 ****        -4.3970   1.6866  -0.2324 H              1 S1                 0.0000
     45 ****         2.5052   1.8190   1.0955 LP             1 S1                 0.0000
     46 ****         0.9287   2.5364   1.0926 LP             1 S1                 0.0000
     47 ****         3.1897   1.1568  -0.4719 LP             1 S1                 0.0000
     48 ****         2.5581   0.2284  -1.6576 LP             1 S1                 0.0000
     49 ****        -2.0254  -0.0953  -0.8701 LP             1 S1                 0.0000
@<TRIPOS>BOND
    1    1    2 2     
    2    2    3 am    
    3    2   10 am    
    4    3    4 1     
    5    3   22 1     
    6    4    5 1     
    7    4   23 1     
    8    4   24 1     
    9    5    9 1     
   10    5    6 1     
   11    5   25 1     
   12    6    7 1     
   13    6   26 1     
   14    6   27 1     
   15    7    8 1     
   16    7   28 1     
   17    7   29 1     
   18    8    9 1     
   19    8   30 1     
   20    8   31 1     
   21   10   11 1     
   22   10   32 1     
   23   11   16 ar    
   24   11   12 ar    
   25   12   13 ar    
   26   12   33 1     
   27   13   14 ar    
   28   13   34 1     
   29   14   15 ar    
   30   14   35 1     
   31   15   16 ar    
   32   15   44 1     
   33   16   17 1     
   34   17   21 1     
   35   17   18 1     
   36   18   19 1     
   37   18   36 1     
   38   18   37 1     
   39   19   20 1     
   40   19   38 1     
   41   19   39 1     
   42   20   21 1     
   43   20   40 1     
   44   20   41 1     
   45   21   42 1     
   46   21   43 1     
   47    1   45 1     
   48    1   46 1     
   49    9   47 1     
   50    9   48 1     
   51   17   49 1     
@<TRIPOS>SUBSTRUCTURE
      1 S1             1
@<TRIPOS>SET
LONE_PAIRS      STATIC     ATOMS    <user>   **** ""
5 45 46 47 48 49
DONOR_HYDROGENS      STATIC     ATOMS    <user>   **** ""
3 22 32 44
ATOM$BLUE        STATIC     ATOMS    COLORGROUP SYSTEM
5 45 46 47 48 49
ATOM$RED        STATIC     ATOMS    COLORGROUP SYSTEM
3 22 32 44
