AV-unprocessed.smi:2352|AV-procd|sdf|9379|dock3
  -GOLD-   2272013 03D 1   1.00000     0.00000
 Structure written by MMmdl.
 37 38  0  0  0  0  0  0  0  0  1 V2000
  145.0534  139.7127  155.4164 C   0  0  0  0  0  0  0  0  0  0  0  0
  146.5481  139.7499  155.1503 C   0  0  0  0  0  0  0  0  0  0  0  0
  147.2664  138.6317  155.5839 N   0  0  0  0  0  0  0  0  0  0  0  0
  148.5444  138.5743  155.3976 C   0  0  0  0  0  0  0  0  0  0  0  0
  149.2449  139.6128  154.7623 N   0  0  0  0  0  0  0  0  0  0  0  0
  150.6974  139.4227  154.6101 C   0  0  0  0  0  0  0  0  0  0  0  0
  151.3974  139.1428  155.9587 C   0  0  1  0  0  0  0  0  0  0  0  0
  152.6580  138.5558  155.7012 O   0  0  0  0  0  0  0  0  0  0  0  0
  151.5368  140.4189  156.7755 C   0  0  0  0  0  0  0  0  0  0  0  0
  151.0511  141.6393  156.2609 C   0  0  0  0  0  0  0  0  0  0  0  0
  151.1807  142.8270  157.0063 C   0  0  0  0  0  0  0  0  0  0  0  0
  151.7963  142.8102  158.2763 C   0  0  0  0  0  0  0  0  0  0  0  0
  151.9401  144.0981  159.0741 C   0  0  0  0  0  0  0  0  0  0  0  0
  152.6191  143.8918  160.2033 F   0  0  0  0  0  0  0  0  0  0  0  0
  152.5930  144.9978  158.3397 F   0  0  0  0  0  0  0  0  0  0  0  0
  150.7425  144.5906  159.3925 F   0  0  0  0  0  0  0  0  0  0  0  0
  152.2941  141.5909  158.7849 C   0  0  0  0  0  0  0  0  0  0  0  0
  152.1649  140.4028  158.0398 C   0  0  0  0  0  0  0  0  0  0  0  0
  148.6231  140.7432  154.3177 C   0  0  0  0  0  0  0  0  0  0  0  0
  149.2501  141.6555  153.7753 O   0  0  0  0  0  0  0  0  0  0  0  0
  147.1679  140.7928  154.5332 C   0  0  0  0  0  0  0  0  0  0  0  0
  146.4378  142.0358  154.0397 C   0  0  0  0  0  0  0  0  0  0  0  0
  144.4969  139.7719  154.4807 H   0  0  0  0  0  0  0  0  0  0  0  0
  144.7575  140.5474  156.0525 H   0  0  0  0  0  0  0  0  0  0  0  0
  144.7620  138.7903  155.9203 H   0  0  0  0  0  0  0  0  0  0  0  0
  149.1516  137.7273  155.7214 H   0  0  0  0  0  0  0  0  0  0  0  0
  150.9426  138.6462  153.8822 H   0  0  0  0  0  0  0  0  0  0  0  0
  151.1098  140.3358  154.1758 H   0  0  0  0  0  0  0  0  0  0  0  0
  150.8172  138.4282  156.5438 H   0  0  0  0  0  0  0  0  0  0  0  0
  153.1715  138.5909  156.4936 H   0  0  0  0  0  0  0  0  0  0  0  0
  150.5791  141.6704  155.2896 H   0  0  0  0  0  0  0  0  0  0  0  0
  150.8070  143.7539  156.5966 H   0  0  0  0  0  0  0  0  0  0  0  0
  152.7806  141.5599  159.7487 H   0  0  0  0  0  0  0  0  0  0  0  0
  152.5536  139.4787  158.4426 H   0  0  0  0  0  0  0  0  0  0  0  0
  146.8245  142.9231  154.5422 H   0  0  0  0  0  0  0  0  0  0  0  0
  145.3639  142.0012  154.2152 H   0  0  0  0  0  0  0  0  0  0  0  0
  146.5905  142.1605  152.9670 H   0  0  0  0  0  0  0  0  0  0  0  0
  1  2  1  0  0  0  0
  1 23  1  0  0  0  0
  1 24  1  0  0  0  0
  1 25  1  0  0  0  0
  2 21  2  0  0  0  0
  2  3  1  0  0  0  0
  3  4  2  0  0  0  0
  4  5  1  0  0  0  0
  4 26  1  0  0  0  0
  5  6  1  0  0  0  0
  5 19  1  0  0  0  0
  6  7  1  0  0  0  0
  6 27  1  0  0  0  0
  6 28  1  0  0  0  0
  7  8  1  0  0  0  0
  7  9  1  0  0  0  0
  7 29  1  0  0  0  0
  8 30  1  0  0  0  0
  9 18  1  0  0  0  0
  9 10  2  0  0  0  0
 10 11  1  0  0  0  0
 10 31  1  0  0  0  0
 11 12  2  0  0  0  0
 11 32  1  0  0  0  0
 12 13  1  0  0  0  0
 12 17  1  0  0  0  0
 13 14  1  0  0  0  0
 13 15  1  0  0  0  0
 13 16  1  0  0  0  0
 17 18  2  0  0  0  0
 17 33  1  0  0  0  0
 18 34  1  0  0  0  0
 19 20  2  0  0  0  0
 19 21  1  0  0  0  0
 21 22  1  0  0  0  0
 22 35  1  0  0  0  0
 22 36  1  0  0  0  0
 22 37  1  0  0  0  0
M  END
> <s_m_source_file>
AV-unprocessed.smi

> <i_m_source_file_index>
2352

> <i_lp_mmshare_version>
43012

> <i_f3d_flags>
0

> <s_epik_input>
W0NIM11jMW5bY0hdbihjKD1PKWMxW0NIM10pW0NIMl1bQ0BIXShbT0hdKWMyW2NIXVtjSF1jKEMoRikoRilGKVtjSF1bY0hdMg==

> <s_epik_cmdline>
J2VwaWtfcHl0aG9uJywgJy1waCcsICc3LjAnLCAnLXRuJywgJzgnLCAnLW1hJywgJzIwMCcsICctbWV0YWxfYmluZGluZycsICctaW1hZScsICc8aW5maWxlLm1hZT4nLCAnLW9tYWUnLCAnPG91dGZpbGUubWFlPic=

> <r_lp_tautomer_probability>
1

> <r_epik_Ionization_Penalty>
5.07001e-05

> <r_epik_Ionization_Penalty_Charging>
7.56727e-08

> <r_epik_Ionization_Penalty_Neutral>
5.06244e-05

> <r_epik_State_Penalty>
-0

> <r_epik_Charging_Adjusted_Penalty>
7.56727e-08

> <i_epik_Tot_Q>
0

> <i_epik_Tot_abs_Q>
0

> <r_epik_Metal_State_Penalty>
-0

> <b_epik_Metal_Only>
0

> <s_lp_Force_Field>
OPLS_2005

> <r_lp_Energy>
21.4472

> <b_lp_Chiralities_Consistent>
1

> <s_lp_Variant>
AV-unprocessed.smi:2352-2

> <Gold.Version>
5.8.1

> <Gold.Id.Protein>
6NUR|6NUR_protein|mol2

> <Gold.PLP.Fitness>
46.3961

> <Gold.PLP.PLP>
-44.8340

> <Gold.PLP.part.hbond>
-2.1429

> <Gold.PLP.part.metal>
0.0000

> <Gold.PLP.part.buried>
-4.0372

> <Gold.PLP.part.nonpolar>
-39.1773

> <Gold.PLP.part.repulsive>
0.2302

> <Gold.PLP.ligand.clash>
0.9974

> <Gold.PLP.ligand.torsion>
0.2022

> <Gold.PLP.Chemscore.Hbond>
0.6400

> <Gold.PLP.Chemscore.CHOScore>
0.0000

> <Gold.PLP.Chemscore.Metal>
0.0000

> <Gold.Chemscore.Hbonds>
donor molecule, donor type, donor heavy atom, donor atom, acceptor molecule, acceptor atom, score
      P1  H  8011  8017       L1    20  0.67

> <Gold.PLP.Chemscore.Internal.Correction>
1.0440

> <Gold.Rescore>
     Score         DG    S(hbond)    S(metal)    S(lipo)     H(rot)  DE(clash)    DE(int)     intcor
     12.31     -12.78       0.80        0.00      86.18       2.13       0.14       0.33       ----

> <Gold.Chemscore.Fitness>
12.3104

> <Gold.Chemscore.DG>
-12.7847

> <Gold.Chemscore.ZeroCoef>
-5.4800

> <Gold.Chemscore.Hbond>
0.8042

> <Gold.Chemscore.Metal>
0.0000

> <Gold.Chemscore.Lipo>
86.1839

> <Gold.Chemscore.Internal_Hbond>
0.0000

> <Gold.Chemscore.DEClash>
0.1406

> <Gold.Chemscore.DEInternal>
0.3337

> <Gold.Chemscore.Rot>
2.1347

> <Gold.Chemscore.Internal.Correction>
   9.000000E+99

> <Gold.Chemscore.Hbonds>
donor molecule, donor type, donor heavy atom, donor atom, acceptor molecule, acceptor atom, score
      P1  H  8011  8017       L1    20  0.68

> <Gold.Chemscore.Hbond.Weighted>
-2.6861

> <Gold.Chemscore.Metal.Weighted>
-0.0000

> <Gold.Chemscore.Lipo.Weighted>
-10.0835

> <Gold.Chemscore.Internal_Hbond.Weighted>
0.0000

> <Gold.Chemscore.DEClash.Weighted>
0.1406

> <Gold.Chemscore.DEInternal.Weighted>
0.3337

> <Gold.Chemscore.Rot.Weighted>
5.4649

> <Gold.Chemscore.Internal.Correction.Weighted>
   9.000000E+99

> <Gold.Protein.RotatedTorsions>
[ 6907 6896 6895 6894 ] final  -54.18 input  -60.11 | X-H torsion
[ 7974 7965 7964 7962 ] final -179.95 input  175.53 | X-H torsion
[ 8008 7997 7996 7995 ] final -104.87 input   59.86 | X-H torsion
[ 10167 10162 10161 10158 ] final   72.88 input  -65.29 | X-H torsion
[ 10718 10713 10712 10709 ] final  132.60 input   66.30 | X-H torsion
[ 10763 10752 10751 10750 ] final   58.52 input  -60.55 | X-H torsion
[ 11005 11000 10999 10996 ] final   37.06 input  -57.11 | X-H torsion

> <Gold.Protein.ActiveResidues>
 VAL166  LYS551  ARG553  GLY616  TRP617  ASP618  TYR619  PRO620  LYS621  CYS622 
 ASP623  PHE694  ASN695  SER759  ASP760  ASP761  ALA762  ILE779  LEU786  VAL792 
 PHE793  MET794  SER795  GLU796  ALA797  LYS798  CYS799  TRP800  GLU811  SER814 

> <Gold.Protein.RotatedAtoms>
  150.8360  134.7634  159.6893 H   0  0  0  0  0  0  0  0  0  0  0  0  # atno 6907 bound_to 6896
  152.4457  134.5496  159.9873 H   0  0  0  0  0  0  0  0  0  0  0  0  # atno 6908 bound_to 6896
  151.5646  133.3360  159.3013 H   0  0  0  0  0  0  0  0  0  0  0  0  # atno 6909 bound_to 6896
  144.7140  140.0641  143.6431 H   0  0  0  0  0  0  0  0  0  0  0  0  # atno 7974 bound_to 7965
  154.8916  140.0416  157.1841 H   0  0  0  0  0  0  0  0  0  0  0  0  # atno 8008 bound_to 7997
  154.8535  140.2933  155.5562 H   0  0  0  0  0  0  0  0  0  0  0  0  # atno 8009 bound_to 7997
  156.2996  140.2460  156.3498 H   0  0  0  0  0  0  0  0  0  0  0  0  # atno 8010 bound_to 7997
  140.0305  144.5470  150.7511 H   0  0  0  0  0  0  0  0  0  0  0  0  # atno 10167 bound_to 10162
  157.4855  131.1088  150.9625 H   0  0  0  0  0  0  0  0  0  0  0  0  # atno 10718 bound_to 10713
  152.9872  135.5604  154.5565 H   0  0  0  0  0  0  0  0  0  0  0  0  # atno 10763 bound_to 10752
  154.4992  135.2796  155.1436 H   0  0  0  0  0  0  0  0  0  0  0  0  # atno 10764 bound_to 10752
  154.2874  135.6333  153.5424 H   0  0  0  0  0  0  0  0  0  0  0  0  # atno 10765 bound_to 10752
  140.2263  134.3581  155.7983 H   0  0  0  0  0  0  0  0  0  0  0  0  # atno 11005 bound_to 11000
  145.9839  139.2962  143.1025 LP  0  0  0  0  0  0  0  0  0  0  0  0  # atno 17320 bound_to 7965
  145.8979  140.9262  143.0518 LP  0  0  0  0  0  0  0  0  0  0  0  0  # atno 17321 bound_to 7965
  140.7304  143.2683  151.3971 LP  0  0  0  0  0  0  0  0  0  0  0  0  # atno 17342 bound_to 10162
  139.6079  144.1158  152.2269 LP  0  0  0  0  0  0  0  0  0  0  0  0  # atno 17343 bound_to 10162
  157.0344  130.5724  149.5347 LP  0  0  0  0  0  0  0  0  0  0  0  0  # atno 17370 bound_to 10713
  156.0145  130.5238  150.8091 LP  0  0  0  0  0  0  0  0  0  0  0  0  # atno 17371 bound_to 10713
  141.2220  133.7221  156.8658 LP  0  0  0  0  0  0  0  0  0  0  0  0  # atno 17394 bound_to 11000
  140.1797  134.9042  157.2934 LP  0  0  0  0  0  0  0  0  0  0  0  0  # atno 17395 bound_to 11000

$$$$
