AV-unprocessed.smi:2453|AV-procd|sdf|9691|dock2
  -GOLD-   2272013333D 1   1.00000     0.00000
 Structure written by MMmdl.
 41 42  0  0  0  0  0  0  0  0  2 V2000
  150.3526  139.0464  154.3951 C   0  0  0  0  0  0  0  0  0  0  0  0
  149.1553  139.9793  154.3368 C   0  0  0  0  0  0  0  0  0  0  0  0
  149.3033  141.3261  154.7348 C   0  0  0  0  0  0  0  0  0  0  0  0
  148.2496  142.1679  154.6845 N   0  3  0  0  0  0  0  0  0  0  0  0
  147.0283  141.7836  154.2591 C   0  0  0  0  0  0  0  0  0  0  0  0
  146.8140  140.4529  153.8484 C   0  0  0  0  0  0  0  0  0  0  0  0
  147.8857  139.5245  153.8959 C   0  0  0  0  0  0  0  0  0  0  0  0
  147.7544  138.1709  153.4741 N   0  0  0  0  0  0  0  0  0  0  0  0
  146.7113  137.3388  153.6377 C   0  0  0  0  0  0  0  0  0  0  0  0
  145.6787  137.6090  154.2502 O   0  0  0  0  0  0  0  0  0  0  0  0
  146.9440  136.1534  153.0547 N   0  0  0  0  0  0  0  0  0  0  0  0
  146.0256  135.0151  153.0258 C   0  0  2  0  0  0  0  0  0  0  0  0
  146.7290  133.8001  153.6637 C   0  0  0  0  0  0  0  0  0  0  0  0
  145.8549  132.5403  153.6067 C   0  0  0  0  0  0  0  0  0  0  0  0
  145.4394  132.2319  152.1632 C   0  0  0  0  0  0  0  0  0  0  0  0
  144.7149  133.4295  151.5324 C   0  0  0  0  0  0  0  0  0  0  0  0
  145.5688  134.7178  151.5726 C   0  0  1  0  0  0  0  0  0  0  0  0
  144.8029  135.9062  150.9486 C   0  0  0  0  0  0  0  0  0  0  0  0
  144.4618  135.6371  149.6049 O   0  0  0  0  0  0  0  0  0  0  0  0
  151.2389  139.5611  154.7675 H   0  0  0  0  0  0  0  0  0  0  0  0
  150.5814  138.6574  153.4025 H   0  0  0  0  0  0  0  0  0  0  0  0
  150.1483  138.2053  155.0582 H   0  0  0  0  0  0  0  0  0  0  0  0
  150.2295  141.7561  155.0882 H   0  0  0  0  0  0  0  0  0  0  0  0
  146.2652  142.5481  154.2523 H   0  0  0  0  0  0  0  0  0  0  0  0
  145.8346  140.1742  153.4911 H   0  0  0  0  0  0  0  0  0  0  0  0
  148.5724  137.7735  153.0361 H   0  0  0  0  0  0  0  0  0  0  0  0
  147.8269  136.0253  152.5820 H   0  0  0  0  0  0  0  0  0  0  0  0
  145.1344  135.2331  153.6171 H   0  0  0  0  0  0  0  0  0  0  0  0
  147.6716  133.6061  153.1494 H   0  0  0  0  0  0  0  0  0  0  0  0
  146.9840  134.0191  154.7014 H   0  0  0  0  0  0  0  0  0  0  0  0
  146.3949  131.6923  154.0286 H   0  0  0  0  0  0  0  0  0  0  0  0
  144.9665  132.6810  154.2237 H   0  0  0  0  0  0  0  0  0  0  0  0
  146.3210  131.9826  151.5711 H   0  0  0  0  0  0  0  0  0  0  0  0
  144.7935  131.3537  152.1417 H   0  0  0  0  0  0  0  0  0  0  0  0
  144.4520  133.1826  150.5034 H   0  0  0  0  0  0  0  0  0  0  0  0
  143.7731  133.5977  152.0564 H   0  0  0  0  0  0  0  0  0  0  0  0
  146.4646  134.5445  150.9731 H   0  0  0  0  0  0  0  0  0  0  0  0
  143.8965  136.1221  151.5152 H   0  0  0  0  0  0  0  0  0  0  0  0
  145.4056  136.8140  150.9542 H   0  0  0  0  0  0  0  0  0  0  0  0
  145.2331  135.3274  149.1550 H   0  0  0  0  0  0  0  0  0  0  0  0
  148.3831  143.1370  154.9747 H   0  0  0  0  0  0  0  0  0  0  0  0
  1  2  1  0  0  0  0
  1 20  1  0  0  0  0
  1 21  1  0  0  0  0
  1 22  1  0  0  0  0
  2  7  1  0  0  0  0
  2  3  2  0  0  0  0
  3  4  1  0  0  0  0
  3 23  1  0  0  0  0
  4  5  2  0  0  0  0
  4 41  1  0  0  0  0
  5  6  1  0  0  0  0
  5 24  1  0  0  0  0
  6  7  2  0  0  0  0
  6 25  1  0  0  0  0
  7  8  1  0  0  0  0
  8  9  1  0  0  0  0
  8 26  1  0  0  0  0
  9 10  2  0  0  0  0
  9 11  1  0  0  0  0
 11 12  1  0  0  0  0
 11 27  1  0  0  0  0
 12 17  1  0  0  0  0
 12 13  1  0  0  0  0
 12 28  1  0  0  0  0
 13 14  1  0  0  0  0
 13 29  1  0  0  0  0
 13 30  1  0  0  0  0
 14 15  1  0  0  0  0
 14 31  1  0  0  0  0
 14 32  1  0  0  0  0
 15 16  1  0  0  0  0
 15 33  1  0  0  0  0
 15 34  1  0  0  0  0
 16 17  1  0  0  0  0
 16 35  1  0  0  0  0
 16 36  1  0  0  0  0
 17 18  1  0  0  0  0
 17 37  1  0  0  0  0
 18 19  1  0  0  0  0
 18 38  1  0  0  0  0
 18 39  1  0  0  0  0
 19 40  1  0  0  0  0
M  CHG  1   4   1
M  END
> <s_m_source_file>
AV-unprocessed.smi

> <i_m_source_file_index>
2453

> <i_lp_mmshare_version>
43012

> <i_f3d_flags>
0

> <s_epik_input>
W0NIM11jMVtjSF1uW2NIXVtjSF1jMVtOSF1DKD1PKVtOSF1bQ0BASF0yW0NIMl1bQ0gyXVtDSDJdW0NIMl1bQ0BIXTJbQ0gyXVtPSF0=

> <s_epik_cmdline>
J2VwaWtfcHl0aG9uJywgJy1waCcsICc3LjAnLCAnLXRuJywgJzgnLCAnLW1hJywgJzIwMCcsICctbWV0YWxfYmluZGluZycsICctaW1hZScsICc8aW5maWxlLm1hZT4nLCAnLW9tYWUnLCAnPG91dGZpbGUubWFlPic=

> <r_epik_Ionization_Penalty>
0.71493

> <r_epik_Ionization_Penalty_Charging>
0.714909

> <r_epik_Ionization_Penalty_Neutral>
2.10174e-05

> <r_epik_State_Penalty>
0.738815

> <r_epik_Charging_Adjusted_Penalty>
1.45372

> <i_epik_Tot_Q>
1

> <i_epik_Tot_abs_Q>
1

> <r_epik_Metal_State_Penalty>
0.896004

> <b_epik_Metal_Only>
0

> <s_lp_Force_Field>
OPLS_2005

> <r_lp_Energy>
24.2673

> <b_lp_Chiralities_Consistent>
1

> <s_lp_Variant>
AV-unprocessed.smi:2453-5

> <Gold.Version>
5.8.1

> <Gold.Id.Protein>
6NUR|6NUR_protein|mol2

> <Gold.PLP.Fitness>
42.8141

> <Gold.PLP.PLP>
-30.3474

> <Gold.PLP.part.hbond>
-4.4023

> <Gold.PLP.part.metal>
0.0000

> <Gold.PLP.part.buried>
-3.0675

> <Gold.PLP.part.nonpolar>
-24.6063

> <Gold.PLP.part.repulsive>
0.3302

> <Gold.PLP.ligand.clash>
0.0000

> <Gold.PLP.ligand.torsion>
0.2899

> <Gold.PLP.Chemscore.Hbond>
4.3453

> <Gold.PLP.Chemscore.CHOScore>
0.0000

> <Gold.PLP.Chemscore.Metal>
0.0000

> <Gold.Chemscore.Hbonds>
donor molecule, donor type, donor heavy atom, donor atom, acceptor molecule, acceptor atom, score
      L1  H     4    41       P1  8028  2.00
      L1  H     8    26       P1  7948  0.75
      L1  H    11    27       P1  7948  0.54
      L1  H    19    40       P1  7921  1.00

> <Gold.PLP.Chemscore.Internal.Correction>
0.0106

> <Gold.Rescore>
     Score         DG    S(hbond)    S(metal)    S(lipo)     H(rot)  DE(clash)    DE(int)     intcor
     20.80     -21.32       3.66        0.00      69.79       1.77       0.22       0.30       ----

> <Gold.Chemscore.Fitness>
20.8019

> <Gold.Chemscore.DG>
-21.3186

> <Gold.Chemscore.ZeroCoef>
-5.4800

> <Gold.Chemscore.Hbond>
3.6574

> <Gold.Chemscore.Metal>
0.0000

> <Gold.Chemscore.Lipo>
69.7859

> <Gold.Chemscore.Internal_Hbond>
0.0000

> <Gold.Chemscore.DEClash>
0.2176

> <Gold.Chemscore.DEInternal>
0.2991

> <Gold.Chemscore.Rot>
1.7742

> <Gold.Chemscore.Internal.Correction>
   9.000000E+99

> <Gold.Chemscore.Hbonds>
donor molecule, donor type, donor heavy atom, donor atom, acceptor molecule, acceptor atom, score
      L1  H     4    41       P1  8028  1.00
      L1  H     8    26       P1  7948  0.73
      L1  H    11    27       P1  7948  0.54
      L1  H    19    40       P1  7921  0.96

> <Gold.Chemscore.Hbond.Weighted>
-12.2156

> <Gold.Chemscore.Metal.Weighted>
-0.0000

> <Gold.Chemscore.Lipo.Weighted>
-8.1649

> <Gold.Chemscore.Internal_Hbond.Weighted>
0.0000

> <Gold.Chemscore.DEClash.Weighted>
0.2176

> <Gold.Chemscore.DEInternal.Weighted>
0.2991

> <Gold.Chemscore.Rot.Weighted>
4.5419

> <Gold.Chemscore.Internal.Correction.Weighted>
   9.000000E+99

> <Gold.Protein.RotatedTorsions>
[ 6907 6896 6895 6894 ] final  145.48 input  -60.11 | X-H torsion
[ 7974 7965 7964 7962 ] final   94.46 input  175.53 | X-H torsion
[ 8008 7997 7996 7995 ] final -129.06 input   59.86 | X-H torsion
[ 10167 10162 10161 10158 ] final    0.01 input  -65.29 | X-H torsion
[ 10718 10713 10712 10709 ] final   51.63 input   66.30 | X-H torsion
[ 10763 10752 10751 10750 ] final  -99.69 input  -60.55 | X-H torsion
[ 11005 11000 10999 10996 ] final  142.64 input  -57.11 | X-H torsion

> <Gold.Protein.ActiveResidues>
 VAL166  LYS551  ARG553  GLY616  TRP617  ASP618  TYR619  PRO620  LYS621  CYS622 
 ASP623  PHE694  ASN695  SER759  ASP760  ASP761  ALA762  ILE779  LEU786  VAL792 
 PHE793  MET794  SER795  GLU796  ALA797  LYS798  CYS799  TRP800  GLU811  SER814 

> <Gold.Protein.RotatedAtoms>
  152.1803  133.4703  159.4954 H   0  0  0  0  0  0  0  0  0  0  0  0  # atno 6907 bound_to 6896
  150.6933  134.1841  159.4269 H   0  0  0  0  0  0  0  0  0  0  0  0  # atno 6908 bound_to 6896
  151.9752  135.0056  160.0605 H   0  0  0  0  0  0  0  0  0  0  0  0  # atno 6909 bound_to 6896
  145.4653  139.2284  143.2965 H   0  0  0  0  0  0  0  0  0  0  0  0  # atno 7974 bound_to 7965
  155.2729  140.0441  157.3008 H   0  0  0  0  0  0  0  0  0  0  0  0  # atno 8008 bound_to 7997
  154.5642  140.2355  155.8257 H   0  0  0  0  0  0  0  0  0  0  0  0  # atno 8009 bound_to 7997
  156.2072  140.3009  155.9660 H   0  0  0  0  0  0  0  0  0  0  0  0  # atno 8010 bound_to 7997
  140.6748  143.6948  150.7999 H   0  0  0  0  0  0  0  0  0  0  0  0  # atno 10167 bound_to 10162
  157.4999  130.8431  149.8304 H   0  0  0  0  0  0  0  0  0  0  0  0  # atno 10718 bound_to 10713
  154.7518  135.4963  153.9303 H   0  0  0  0  0  0  0  0  0  0  0  0  # atno 10763 bound_to 10752
  153.1152  135.6719  153.9438 H   0  0  0  0  0  0  0  0  0  0  0  0  # atno 10764 bound_to 10752
  153.9186  135.3091  155.3427 H   0  0  0  0  0  0  0  0  0  0  0  0  # atno 10765 bound_to 10752
  140.0493  134.9264  157.0987 H   0  0  0  0  0  0  0  0  0  0  0  0  # atno 11005 bound_to 11000
  146.2428  140.5426  142.8927 LP  0  0  0  0  0  0  0  0  0  0  0  0  # atno 17320 bound_to 7965
  144.7978  140.6155  143.6498 LP  0  0  0  0  0  0  0  0  0  0  0  0  # atno 17321 bound_to 7965
  140.0639  143.5128  152.2614 LP  0  0  0  0  0  0  0  0  0  0  0  0  # atno 17342 bound_to 10162
  139.6034  144.7589  151.3118 LP  0  0  0  0  0  0  0  0  0  0  0  0  # atno 17343 bound_to 10162
  156.0223  130.3791  150.1926 LP  0  0  0  0  0  0  0  0  0  0  0  0  # atno 17370 bound_to 10713
  157.0115  130.9952  151.3364 LP  0  0  0  0  0  0  0  0  0  0  0  0  # atno 17371 bound_to 10713
  140.3943  134.2150  155.7165 LP  0  0  0  0  0  0  0  0  0  0  0  0  # atno 17394 bound_to 11000
  141.1922  133.8178  157.0848 LP  0  0  0  0  0  0  0  0  0  0  0  0  # atno 17395 bound_to 11000

$$$$
