AV-unprocessed.smi:287|AV-procd|sdf|2197|dock7
  -GOLD-   2262022 03D 1   1.00000     0.00000
 Structure written by MMmdl.
 55 58  0  0  0  0  0  0  0  0  1 V2000
  150.2070  123.5090  145.8829 C   0  0  0  0  0  0  0  0  0  0  0  0
  149.5176  123.6333  147.1982 C   0  0  0  0  0  0  0  0  0  0  0  0
  149.9083  124.0672  148.4312 C   0  0  0  0  0  0  0  0  0  0  0  0
  148.7867  123.9389  149.3039 C   0  0  0  0  0  0  0  0  0  0  0  0
  148.7627  124.3002  150.7833 C   0  0  1  0  0  0  0  0  0  0  0  0
  147.5927  123.5842  151.4786 C   0  0  0  0  0  0  0  0  0  0  0  0
  149.9220  123.8761  151.4739 O   0  0  0  0  0  0  0  0  0  0  0  0
  148.6634  125.8254  151.0117 C   0  0  0  0  0  0  0  0  0  0  0  0
  148.7145  126.1913  152.4214 N   0  0  0  0  0  0  0  0  0  0  0  0
  148.2339  127.3768  152.8509 C   0  0  0  0  0  0  0  0  0  0  0  0
  148.6450  127.7586  154.0836 N   0  0  0  0  0  0  0  0  0  0  0  0
  148.2302  128.9176  154.6021 C   0  0  0  0  0  0  0  0  0  0  0  0
  147.4158  129.8275  154.0647 N   0  0  0  0  0  0  0  0  0  0  0  0
  146.9952  129.4488  152.8230 C   0  0  0  0  0  0  0  0  0  0  0  0
  147.3534  128.2492  152.1441 C   0  0  0  0  0  0  0  0  0  0  0  0
  146.7260  128.2237  150.9029 N   0  0  0  0  0  0  0  0  0  0  0  0
  146.0471  129.3377  150.8577 C   0  0  0  0  0  0  0  0  0  0  0  0
  146.1566  130.1385  151.9740 N   0  0  0  0  0  0  0  0  0  0  0  0
  145.5225  131.4688  152.2626 C   0  0  2  0  0  0  0  0  0  0  0  0
  144.5122  131.6694  151.3237 O   0  0  0  0  0  0  0  0  0  0  0  0
  144.9218  132.5668  150.2866 C   0  0  1  0  0  0  0  0  0  0  0  0
  143.9544  133.7679  150.3488 C   0  0  0  0  0  0  0  0  0  0  0  0
  144.3975  134.7836  149.4742 O   0  0  0  0  0  0  0  0  0  0  0  0
  146.4012  132.8887  150.5932 C   0  0  1  0  0  0  0  0  0  0  0  0
  146.7750  134.2169  150.2812 O   0  0  0  0  0  0  0  0  0  0  0  0
  146.5172  132.6244  152.0843 C   0  0  2  0  0  0  0  0  0  0  0  0
  147.8482  132.3030  152.4461 O   0  0  0  0  0  0  0  0  0  0  0  0
  147.7822  123.4362  148.5118 C   0  0  0  0  0  0  0  0  0  0  0  0
  146.3564  123.0638  148.7537 C   0  0  0  0  0  0  0  0  0  0  0  0
  148.2178  123.2470  147.2349 O   0  0  0  0  0  0  0  0  0  0  0  0
  145.1199  131.3734  153.2715 H   0  0  0  0  0  0  0  0  0  0  0  0
  144.8492  132.0832  149.3115 H   0  0  0  0  0  0  0  0  0  0  0  0
  147.0404  132.1993  150.0391 H   0  0  0  0  0  0  0  0  0  0  0  0
  146.1553  133.4752  152.6636 H   0  0  0  0  0  0  0  0  0  0  0  0
  151.2890  123.5587  146.0055 H   0  0  0  0  0  0  0  0  0  0  0  0
  149.9047  124.3131  145.2119 H   0  0  0  0  0  0  0  0  0  0  0  0
  149.9653  122.5591  145.4053 H   0  0  0  0  0  0  0  0  0  0  0  0
  150.8934  124.4316  148.6829 H   0  0  0  0  0  0  0  0  0  0  0  0
  146.6358  123.8715  151.0410 H   0  0  0  0  0  0  0  0  0  0  0  0
  147.5505  123.8262  152.5414 H   0  0  0  0  0  0  0  0  0  0  0  0
  147.6817  122.5006  151.3893 H   0  0  0  0  0  0  0  0  0  0  0  0
  150.3270  124.6316  151.8713 H   0  0  0  0  0  0  0  0  0  0  0  0
  149.5155  126.3026  150.5257 H   0  0  0  0  0  0  0  0  0  0  0  0
  147.7640  126.2294  150.5449 H   0  0  0  0  0  0  0  0  0  0  0  0
  149.1761  125.5280  153.0274 H   0  0  0  0  0  0  0  0  0  0  0  0
  148.6055  129.1488  155.5880 H   0  0  0  0  0  0  0  0  0  0  0  0
  145.4455  129.6007  150.0004 H   0  0  0  0  0  0  0  0  0  0  0  0
  142.9335  133.4733  150.1036 H   0  0  0  0  0  0  0  0  0  0  0  0
  143.9358  134.2098  151.3449 H   0  0  0  0  0  0  0  0  0  0  0  0
  145.2027  134.5005  149.0685 H   0  0  0  0  0  0  0  0  0  0  0  0
  146.6399  134.3529  149.3555 H   0  0  0  0  0  0  0  0  0  0  0  0
  148.2989  131.9862  151.6778 H   0  0  0  0  0  0  0  0  0  0  0  0
  145.7967  123.9122  149.1475 H   0  0  0  0  0  0  0  0  0  0  0  0
  146.2879  122.2480  149.4735 H   0  0  0  0  0  0  0  0  0  0  0  0
  145.8704  122.7398  147.8330 H   0  0  0  0  0  0  0  0  0  0  0  0
  1  2  1  0  0  0  0
  1 35  1  0  0  0  0
  1 36  1  0  0  0  0
  1 37  1  0  0  0  0
  2 30  1  0  0  0  0
  2  3  2  0  0  0  0
  3  4  1  0  0  0  0
  3 38  1  0  0  0  0
  4  5  1  0  0  0  0
  4 28  2  0  0  0  0
  5  6  1  0  0  0  0
  5  7  1  0  0  0  0
  5  8  1  0  0  0  0
  6 39  1  0  0  0  0
  6 40  1  0  0  0  0
  6 41  1  0  0  0  0
  7 42  1  0  0  0  0
  8  9  1  0  0  0  0
  8 43  1  0  0  0  0
  8 44  1  0  0  0  0
  9 10  1  0  0  0  0
  9 45  1  0  0  0  0
 10 15  1  0  0  0  0
 10 11  2  0  0  0  0
 11 12  1  0  0  0  0
 12 13  2  0  0  0  0
 12 46  1  0  0  0  0
 13 14  1  0  0  0  0
 14 18  1  0  0  0  0
 14 15  2  0  0  0  0
 15 16  1  0  0  0  0
 16 17  2  0  0  0  0
 17 18  1  0  0  0  0
 17 47  1  0  0  0  0
 18 19  1  0  0  0  0
 19 31  1  0  0  0  0
 19 26  1  0  0  0  0
 19 20  1  0  0  0  0
 20 21  1  0  0  0  0
 21 32  1  0  0  0  0
 21 22  1  0  0  0  0
 21 24  1  0  0  0  0
 22 23  1  0  0  0  0
 22 48  1  0  0  0  0
 22 49  1  0  0  0  0
 23 50  1  0  0  0  0
 24 33  1  0  0  0  0
 24 25  1  0  0  0  0
 24 26  1  0  0  0  0
 25 51  1  0  0  0  0
 26 34  1  0  0  0  0
 26 27  1  0  0  0  0
 27 52  1  0  0  0  0
 28 29  1  0  0  0  0
 28 30  1  0  0  0  0
 29 53  1  0  0  0  0
 29 54  1  0  0  0  0
 29 55  1  0  0  0  0
M  END
> <s_m_source_file>
AV-unprocessed.smi

> <i_m_source_file_index>
287

> <i_lp_mmshare_version>
43012

> <i_f3d_flags>
0

> <s_epik_input>
W0NIM11jMVtjSF1jKGMobzEpW0NIM10pW0NAQF0oW0NIM10pKFtPSF0pW0NIMl1bTkhdYyhuW2NIXW4yKWMoYzIzKW5bY0hdbjNbQ0BASF00T1tDQEhdKFtDSDJdW09IXSlbQ0BASF0oW09IXSlbQ0BIXTRbT0hd

> <s_epik_cmdline>
J2VwaWtfcHl0aG9uJywgJy1waCcsICc3LjAnLCAnLXRuJywgJzgnLCAnLW1hJywgJzIwMCcsICctbWV0YWxfYmluZGluZycsICctaW1hZScsICc8aW5maWxlLm1hZT4nLCAnLW9tYWUnLCAnPG91dGZpbGUubWFlPic=

> <r_lp_tautomer_probability>
1

> <r_epik_Ionization_Penalty>
0.000992612

> <r_epik_Ionization_Penalty_Charging>
0

> <r_epik_Ionization_Penalty_Neutral>
0.000992612

> <r_epik_State_Penalty>
-0

> <r_epik_Charging_Adjusted_Penalty>
0

> <i_epik_Tot_Q>
0

> <i_epik_Tot_abs_Q>
0

> <r_epik_Metal_State_Penalty>
-0

> <b_epik_Metal_Only>
0

> <s_epik_Chemistry_Notes>
This compound contains an acetal/aminal-like group ( X-CH(R)-Y where X, Y are N, S, or O) that may be acid/base labile, releasing an aldehyde.

> <s_lp_Force_Field>
OPLS_2005

> <r_lp_Energy>
44.9714

> <b_lp_Chiralities_Consistent>
1

> <s_lp_Variant>
AV-unprocessed.smi:287-21

> <Gold.Version>
5.8.1

> <Gold.Id.Protein>
6NUR|6NUR_protein|mol2

> <Gold.PLP.Fitness>
49.9467

> <Gold.PLP.PLP>
-44.3923

> <Gold.PLP.part.hbond>
-6.2354

> <Gold.PLP.part.metal>
0.0000

> <Gold.PLP.part.buried>
1.0959

> <Gold.PLP.part.nonpolar>
-39.0707

> <Gold.PLP.part.repulsive>
0.7040

> <Gold.PLP.ligand.clash>
0.0000

> <Gold.PLP.ligand.torsion>
1.3908

> <Gold.PLP.Chemscore.Hbond>
2.7511

> <Gold.PLP.Chemscore.CHOScore>
0.0000

> <Gold.PLP.Chemscore.Metal>
0.0000

> <Gold.Chemscore.Hbonds>
donor molecule, donor type, donor heavy atom, donor atom, acceptor molecule, acceptor atom, score
      L1  H    23    50       P1  7921  0.78
      L1  H    25    51       P1  7921  0.30
      L1  H    27    52       P1 10747  1.00

> <Gold.PLP.Chemscore.Internal.Correction>
0.0827

> <Gold.Rescore>
     Score         DG    S(hbond)    S(metal)    S(lipo)     H(rot)  DE(clash)    DE(int)     intcor
      1.70      -8.75       1.89        0.00      89.34       5.27       3.31       3.74       ----

> <Gold.Chemscore.Fitness>
1.7036

> <Gold.Chemscore.DG>
-8.7510

> <Gold.Chemscore.ZeroCoef>
-5.4800

> <Gold.Chemscore.Hbond>
1.8870

> <Gold.Chemscore.Metal>
0.0000

> <Gold.Chemscore.Lipo>
89.3355

> <Gold.Chemscore.Internal_Hbond>
0.0000

> <Gold.Chemscore.DEClash>
3.3072

> <Gold.Chemscore.DEInternal>
3.7402

> <Gold.Chemscore.Rot>
5.2672

> <Gold.Chemscore.Internal.Correction>
   9.000000E+99

> <Gold.Chemscore.Hbonds>
donor molecule, donor type, donor heavy atom, donor atom, acceptor molecule, acceptor atom, score
      L1  H    23    50       P1  7921  0.78
      L1  H    27    52       P1 10747  1.00

> <Gold.Chemscore.Hbond.Weighted>
-6.3027

> <Gold.Chemscore.Metal.Weighted>
-0.0000

> <Gold.Chemscore.Lipo.Weighted>
-10.4523

> <Gold.Chemscore.Internal_Hbond.Weighted>
0.0000

> <Gold.Chemscore.DEClash.Weighted>
3.3072

> <Gold.Chemscore.DEInternal.Weighted>
3.7402

> <Gold.Chemscore.Rot.Weighted>
13.4839

> <Gold.Chemscore.Internal.Correction.Weighted>
   9.000000E+99

> <Gold.Protein.RotatedTorsions>
[ 6907 6896 6895 6894 ] final  -96.51 input  -60.11 | X-H torsion
[ 7974 7965 7964 7962 ] final   25.23 input  175.53 | X-H torsion
[ 8008 7997 7996 7995 ] final  176.54 input   59.86 | X-H torsion
[ 10167 10162 10161 10158 ] final -131.44 input  -65.29 | X-H torsion
[ 10718 10713 10712 10709 ] final  172.85 input   66.30 | X-H torsion
[ 10763 10752 10751 10750 ] final   23.54 input  -60.55 | X-H torsion
[ 11005 11000 10999 10996 ] final  -97.80 input  -57.11 | X-H torsion

> <Gold.Protein.ActiveResidues>
 VAL166  LYS551  ARG553  GLY616  TRP617  ASP618  TYR619  PRO620  LYS621  CYS622 
 ASP623  PHE694  ASN695  SER759  ASP760  ASP761  ALA762  ILE779  LEU786  VAL792 
 PHE793  MET794  SER795  GLU796  ALA797  LYS798  CYS799  TRP800  GLU811  SER814 

> <Gold.Protein.RotatedAtoms>
  150.6991  134.1492  159.4133 H   0  0  0  0  0  0  0  0  0  0  0  0  # atno 6907 bound_to 6896
  151.9475  135.0182  160.0549 H   0  0  0  0  0  0  0  0  0  0  0  0  # atno 6908 bound_to 6896
  152.2040  133.4827  159.5110 H   0  0  0  0  0  0  0  0  0  0  0  0  # atno 6909 bound_to 6896
  146.1899  139.7495  142.8839 H   0  0  0  0  0  0  0  0  0  0  0  0  # atno 7974 bound_to 7965
  156.0754  140.1381  156.9778 H   0  0  0  0  0  0  0  0  0  0  0  0  # atno 8008 bound_to 7997
  154.4554  140.0963  156.6793 H   0  0  0  0  0  0  0  0  0  0  0  0  # atno 8009 bound_to 7997
  155.5162  140.3455  155.4400 H   0  0  0  0  0  0  0  0  0  0  0  0  # atno 8010 bound_to 7997
  139.9189  143.6405  152.2558 H   0  0  0  0  0  0  0  0  0  0  0  0  # atno 10167 bound_to 10162
  156.9728  131.0095  151.2901 H   0  0  0  0  0  0  0  0  0  0  0  0  # atno 10718 bound_to 10713
  153.0831  135.6625  154.0004 H   0  0  0  0  0  0  0  0  0  0  0  0  # atno 10763 bound_to 10752
  153.9621  135.2973  155.3434 H   0  0  0  0  0  0  0  0  0  0  0  0  # atno 10764 bound_to 10752
  154.7234  135.5155  153.8920 H   0  0  0  0  0  0  0  0  0  0  0  0  # atno 10765 bound_to 10752
  141.1367  133.8198  157.0754 H   0  0  0  0  0  0  0  0  0  0  0  0  # atno 11005 bound_to 11000
  145.3825  141.0360  143.3169 LP  0  0  0  0  0  0  0  0  0  0  0  0  # atno 17320 bound_to 7965
  144.8467  139.5386  143.6875 LP  0  0  0  0  0  0  0  0  0  0  0  0  # atno 17321 bound_to 7965
  139.6878  144.7650  151.1492 LP  0  0  0  0  0  0  0  0  0  0  0  0  # atno 17342 bound_to 10162
  140.7667  143.5632  150.9076 LP  0  0  0  0  0  0  0  0  0  0  0  0  # atno 17343 bound_to 10162
  157.5580  130.8227  149.8229 LP  0  0  0  0  0  0  0  0  0  0  0  0  # atno 17370 bound_to 10713
  156.0276  130.3774  150.1780 LP  0  0  0  0  0  0  0  0  0  0  0  0  # atno 17371 bound_to 10713
  140.0485  134.9818  157.1092 LP  0  0  0  0  0  0  0  0  0  0  0  0  # atno 17394 bound_to 11000
  140.4026  134.2066  155.7163 LP  0  0  0  0  0  0  0  0  0  0  0  0  # atno 17395 bound_to 11000

$$$$
