AV-unprocessed.smi:2217|AV-procd|sdf|8972|dock7
  -GOLD-   2272012183D 1   1.00000     0.00000
 Structure written by MMmdl.
 45 48  0  0  0  0  0  0  0  0  1 V2000
  143.7854  132.4187  149.6701 C   0  0  0  0  0  0  0  0  0  0  0  0
  144.6098  133.2989  150.5856 C   0  0  0  0  0  0  0  0  0  0  0  0
  145.7989  132.8292  151.1740 C   0  0  0  0  0  0  0  0  0  0  0  0
  146.5279  133.6935  152.0132 C   0  0  0  0  0  0  0  0  0  0  0  0
  146.0545  135.0041  152.2497 C   0  0  0  0  0  0  0  0  0  0  0  0
  146.8837  135.7855  153.1078 N   0  0  0  0  0  0  0  0  0  0  0  0
  146.9083  137.1113  153.3629 C   0  0  0  0  0  0  0  0  0  0  0  0
  146.1197  137.8784  152.8131 O   0  0  0  0  0  0  0  0  0  0  0  0
  147.8333  137.5303  154.2403 N   0  0  0  0  0  0  0  0  0  0  0  0
  148.0029  138.9106  154.6781 C   0  0  2  0  0  0  0  0  0  0  0  0
  147.9316  139.9064  153.5097 C   0  0  1  0  0  0  0  0  0  0  0  0
  146.8007  140.8956  153.4392 C   0  0  0  0  0  0  0  0  0  0  0  0
  147.4008  142.1459  154.0881 C   0  0  0  0  0  0  0  0  0  0  0  0
  148.4777  141.6569  154.8848 O   0  0  0  0  0  0  0  0  0  0  0  0
  149.1159  140.6147  154.1505 C   0  0  1  0  0  0  0  0  0  0  0  0
  149.4713  139.3290  154.9277 C   0  0  0  0  0  0  0  0  0  0  0  0
  150.6089  138.4960  154.3293 C   0  0  0  0  0  0  0  0  0  0  0  0
  151.8996  139.0024  154.9732 C   0  0  0  0  0  0  0  0  0  0  0  0
  151.4821  139.5457  156.3428 C   0  0  0  0  0  0  0  0  0  0  0  0
  149.9501  139.4893  156.3687 C   0  0  0  0  0  0  0  0  0  0  0  0
  144.9068  135.4458  151.6744 N   0  0  0  0  0  0  0  0  0  0  0  0
  144.2083  134.6181  150.8692 C   0  0  0  0  0  0  0  0  0  0  0  0
  144.1350  131.3861  149.6942 H   0  0  0  0  0  0  0  0  0  0  0  0
  143.8506  132.7790  148.6433 H   0  0  0  0  0  0  0  0  0  0  0  0
  142.7381  132.4301  149.9733 H   0  0  0  0  0  0  0  0  0  0  0  0
  146.1514  131.8254  150.9873 H   0  0  0  0  0  0  0  0  0  0  0  0
  147.4443  133.3478  152.4697 H   0  0  0  0  0  0  0  0  0  0  0  0
  147.6068  135.2595  153.5764 H   0  0  0  0  0  0  0  0  0  0  0  0
  148.4467  136.8385  154.6479 H   0  0  0  0  0  0  0  0  0  0  0  0
  147.3472  139.2020  155.5019 H   0  0  0  0  0  0  0  0  0  0  0  0
  148.2051  139.4547  152.5540 H   0  0  0  0  0  0  0  0  0  0  0  0
  146.4758  141.0901  152.4168 H   0  0  0  0  0  0  0  0  0  0  0  0
  145.9380  140.5413  154.0043 H   0  0  0  0  0  0  0  0  0  0  0  0
  147.7990  142.8186  153.3271 H   0  0  0  0  0  0  0  0  0  0  0  0
  146.6768  142.6985  154.6869 H   0  0  0  0  0  0  0  0  0  0  0  0
  149.8615  140.9727  153.4391 H   0  0  0  0  0  0  0  0  0  0  0  0
  150.4864  137.4418  154.5798 H   0  0  0  0  0  0  0  0  0  0  0  0
  150.6514  138.5608  153.2416 H   0  0  0  0  0  0  0  0  0  0  0  0
  152.6541  138.2187  155.0480 H   0  0  0  0  0  0  0  0  0  0  0  0
  152.3208  139.8094  154.3723 H   0  0  0  0  0  0  0  0  0  0  0  0
  151.9060  138.9557  157.1561 H   0  0  0  0  0  0  0  0  0  0  0  0
  151.8332  140.5712  156.4629 H   0  0  0  0  0  0  0  0  0  0  0  0
  149.5311  140.3701  156.8555 H   0  0  0  0  0  0  0  0  0  0  0  0
  149.6310  138.6293  156.9587 H   0  0  0  0  0  0  0  0  0  0  0  0
  143.3041  135.0228  150.4384 H   0  0  0  0  0  0  0  0  0  0  0  0
  1  2  1  0  0  0  0
  1 23  1  0  0  0  0
  1 24  1  0  0  0  0
  1 25  1  0  0  0  0
  2 22  1  0  0  0  0
  2  3  2  0  0  0  0
  3  4  1  0  0  0  0
  3 26  1  0  0  0  0
  4  5  2  0  0  0  0
  4 27  1  0  0  0  0
  5  6  1  0  0  0  0
  5 21  1  0  0  0  0
  6  7  1  0  0  0  0
  6 28  1  0  0  0  0
  7  8  2  0  0  0  0
  7  9  1  0  0  0  0
  9 10  1  0  0  0  0
  9 29  1  0  0  0  0
 10 16  1  0  0  0  0
 10 11  1  0  0  0  0
 10 30  1  0  0  0  0
 11 15  1  0  0  0  0
 11 12  1  0  0  0  0
 11 31  1  0  0  0  0
 12 13  1  0  0  0  0
 12 32  1  0  0  0  0
 12 33  1  0  0  0  0
 13 14  1  0  0  0  0
 13 34  1  0  0  0  0
 13 35  1  0  0  0  0
 14 15  1  0  0  0  0
 15 16  1  0  0  0  0
 15 36  1  0  0  0  0
 16 20  1  0  0  0  0
 16 17  1  0  0  0  0
 17 18  1  0  0  0  0
 17 37  1  0  0  0  0
 17 38  1  0  0  0  0
 18 19  1  0  0  0  0
 18 39  1  0  0  0  0
 18 40  1  0  0  0  0
 19 20  1  0  0  0  0
 19 41  1  0  0  0  0
 19 42  1  0  0  0  0
 20 43  1  0  0  0  0
 20 44  1  0  0  0  0
 21 22  2  0  0  0  0
 22 45  1  0  0  0  0
M  END
> <s_m_source_file>
AV-unprocessed.smi

> <i_m_source_file_index>
2217

> <i_lp_mmshare_version>
43012

> <i_f3d_flags>
0

> <s_epik_input>
W0NIM11jMVtjSF1bY0hdYyhuW2NIXTEpW05IXUMoPU8pW05IXVtDQEBIXTJbQ0BASF0oW0NIMl1bQ0gyXU8zKVtDQEhdM0MyNFtDSDJdW0NIMl1bQ0gyXVtDSDJdNA==

> <s_epik_cmdline>
J2VwaWtfcHl0aG9uJywgJy1waCcsICc3LjAnLCAnLXRuJywgJzgnLCAnLW1hJywgJzIwMCcsICctbWV0YWxfYmluZGluZycsICctaW1hZScsICc8aW5maWxlLm1hZT4nLCAnLW9tYWUnLCAnPG91dGZpbGUubWFlPic=

> <r_lp_tautomer_probability>
1

> <r_epik_Ionization_Penalty>
6.14796e-05

> <r_epik_Ionization_Penalty_Charging>
0

> <r_epik_Ionization_Penalty_Neutral>
6.14796e-05

> <r_epik_State_Penalty>
-0

> <r_epik_Charging_Adjusted_Penalty>
0

> <i_epik_Tot_Q>
0

> <i_epik_Tot_abs_Q>
0

> <r_epik_Metal_State_Penalty>
-0

> <b_epik_Metal_Only>
0

> <s_lp_Force_Field>
OPLS_2005

> <r_lp_Energy>
58.5561

> <b_lp_Chiralities_Consistent>
1

> <s_lp_Variant>
AV-unprocessed.smi:2217-5

> <Gold.Version>
5.8.1

> <Gold.Id.Protein>
6NUR|6NUR_protein|mol2

> <Gold.PLP.Fitness>
36.5141

> <Gold.PLP.PLP>
-33.9606

> <Gold.PLP.part.hbond>
-1.6557

> <Gold.PLP.part.metal>
0.0000

> <Gold.PLP.part.buried>
0.9893

> <Gold.PLP.part.nonpolar>
-34.3791

> <Gold.PLP.part.repulsive>
0.5648

> <Gold.PLP.ligand.clash>
0.0000

> <Gold.PLP.ligand.torsion>
0.3153

> <Gold.PLP.Chemscore.Hbond>
0.0000

> <Gold.PLP.Chemscore.CHOScore>
1.0000

> <Gold.PLP.Chemscore.Metal>
0.0000

> <Gold.Chemscore.Hbonds>
donor molecule, donor type, donor heavy atom, donor atom, acceptor molecule, acceptor atom, score
      L1  C    22    45       P1 10186  0.98

> <Gold.PLP.Chemscore.Internal.Correction>
0.1842

> <Gold.Rescore>
     Score         DG    S(hbond)    S(metal)    S(lipo)     H(rot)  DE(clash)    DE(int)     intcor
     10.11     -14.12       0.00        0.00      95.70       1.00       1.30       2.71       ----

> <Gold.Chemscore.Fitness>
10.1144

> <Gold.Chemscore.DG>
-14.1240

> <Gold.Chemscore.ZeroCoef>
-5.4800

> <Gold.Chemscore.Hbond>
0.0021

> <Gold.Chemscore.Metal>
0.0000

> <Gold.Chemscore.Lipo>
95.6999

> <Gold.Chemscore.Internal_Hbond>
0.0000

> <Gold.Chemscore.DEClash>
1.2978

> <Gold.Chemscore.DEInternal>
2.7118

> <Gold.Chemscore.Rot>
1.0000

> <Gold.Chemscore.Internal.Correction>
   9.000000E+99

> <Gold.Chemscore.Hbond.Weighted>
-0.0071

> <Gold.Chemscore.Metal.Weighted>
-0.0000

> <Gold.Chemscore.Lipo.Weighted>
-11.1969

> <Gold.Chemscore.Internal_Hbond.Weighted>
0.0000

> <Gold.Chemscore.DEClash.Weighted>
1.2978

> <Gold.Chemscore.DEInternal.Weighted>
2.7118

> <Gold.Chemscore.Rot.Weighted>
2.5600

> <Gold.Chemscore.Internal.Correction.Weighted>
   9.000000E+99

> <Gold.Protein.RotatedTorsions>
[ 6907 6896 6895 6894 ] final   97.45 input  -60.11 | X-H torsion
[ 7974 7965 7964 7962 ] final  -14.37 input  175.53 | X-H torsion
[ 8008 7997 7996 7995 ] final  -60.15 input   59.86 | X-H torsion
[ 10167 10162 10161 10158 ] final -101.55 input  -65.29 | X-H torsion
[ 10718 10713 10712 10709 ] final -175.70 input   66.30 | X-H torsion
[ 10763 10752 10751 10750 ] final   -6.81 input  -60.55 | X-H torsion
[ 11005 11000 10999 10996 ] final -100.99 input  -57.11 | X-H torsion

> <Gold.Protein.ActiveResidues>
 VAL166  LYS551  ARG553  GLY616  TRP617  ASP618  TYR619  PRO620  LYS621  CYS622 
 ASP623  PHE694  ASN695  SER759  ASP760  ASP761  ALA762  ILE779  LEU786  VAL792 
 PHE793  MET794  SER795  GLU796  ALA797  LYS798  CYS799  TRP800  GLU811  SER814 

> <Gold.Protein.RotatedAtoms>
  152.5423  134.0732  159.8202 H   0  0  0  0  0  0  0  0  0  0  0  0  # atno 6907 bound_to 6896
  151.0843  133.5358  159.2626 H   0  0  0  0  0  0  0  0  0  0  0  0  # atno 6908 bound_to 6896
  151.2173  135.0513  159.8989 H   0  0  0  0  0  0  0  0  0  0  0  0  # atno 6909 bound_to 6896
  146.2077  140.3339  142.8401 H   0  0  0  0  0  0  0  0  0  0  0  0  # atno 7974 bound_to 7965
  154.4385  140.1046  156.6228 H   0  0  0  0  0  0  0  0  0  0  0  0  # atno 8008 bound_to 7997
  155.5689  140.3489  155.4491 H   0  0  0  0  0  0  0  0  0  0  0  0  # atno 8009 bound_to 7997
  156.0405  140.1281  157.0150 H   0  0  0  0  0  0  0  0  0  0  0  0  # atno 8010 bound_to 7997
  140.2401  143.3545  152.0810 H   0  0  0  0  0  0  0  0  0  0  0  0  # atno 10167 bound_to 10162
  156.8038  130.9561  151.3118 H   0  0  0  0  0  0  0  0  0  0  0  0  # atno 10718 bound_to 10713
  153.4175  135.7009  153.6317 H   0  0  0  0  0  0  0  0  0  0  0  0  # atno 10763 bound_to 10752
  153.4785  135.3699  155.2430 H   0  0  0  0  0  0  0  0  0  0  0  0  # atno 10764 bound_to 10752
  154.8720  135.4060  154.3538 H   0  0  0  0  0  0  0  0  0  0  0  0  # atno 10765 bound_to 10752
  141.1249  133.8442  157.1173 H   0  0  0  0  0  0  0  0  0  0  0  0  # atno 11005 bound_to 11000
  144.8833  140.7429  143.5973 LP  0  0  0  0  0  0  0  0  0  0  0  0  # atno 17320 bound_to 7965
  145.3260  139.1774  143.4562 LP  0  0  0  0  0  0  0  0  0  0  0  0  # atno 17321 bound_to 7965
  139.5080  144.6842  151.5929 LP  0  0  0  0  0  0  0  0  0  0  0  0  # atno 17342 bound_to 10162
  140.6120  143.9418  150.6460 LP  0  0  0  0  0  0  0  0  0  0  0  0  # atno 17343 bound_to 10162
  157.6540  130.8909  149.9691 LP  0  0  0  0  0  0  0  0  0  0  0  0  # atno 17370 bound_to 10713
  156.1085  130.3651  150.0090 LP  0  0  0  0  0  0  0  0  0  0  0  0  # atno 17371 bound_to 10713
  140.0238  134.9933  157.0645 LP  0  0  0  0  0  0  0  0  0  0  0  0  # atno 17394 bound_to 11000
  140.4396  134.1695  155.7173 LP  0  0  0  0  0  0  0  0  0  0  0  0  # atno 17395 bound_to 11000

$$$$
