AV-unprocessed.smi:113|AV-procd|sdf|1105|dock8
  -GOLD-   2262018223D 1   1.00000     0.00000
 Structure written by MMmdl.
 53 56  0  0  0  0  0  0  0  0  2 V2000
  148.1965  129.5751  160.0911 C   0  0  0  0  0  0  0  0  0  0  0  0
  148.2121  131.0834  159.9605 C   0  0  0  0  0  0  0  0  0  0  0  0
  148.3418  131.7293  158.7157 C   0  0  0  0  0  0  0  0  0  0  0  0
  148.3467  133.1449  158.6505 C   0  0  0  0  0  0  0  0  0  0  0  0
  148.4864  133.8756  157.3106 C   0  0  0  0  0  0  0  0  0  0  0  0
  148.4622  133.0559  156.1073 N   0  0  0  0  0  0  0  0  0  0  0  0
  149.5974  132.2563  155.8293 C   0  0  0  0  0  0  0  0  0  0  0  0
  150.5779  132.2482  156.5766 O   0  0  0  0  0  0  0  0  0  0  0  0
  149.5005  131.4375  154.6186 C   0  0  0  0  0  0  0  0  0  0  0  0
  150.6807  130.5493  154.2575 C   0  0  0  0  0  0  0  0  0  0  0  0
  148.3771  131.4851  153.8626 C   0  0  0  0  0  0  0  0  0  0  0  0
  147.2830  132.2805  154.1541 N   0  0  0  0  0  0  0  0  0  0  0  0
  146.0549  132.2150  153.2730 C   0  0  2  0  0  0  0  0  0  0  0  0
  146.2195  131.2941  152.0510 C   0  0  0  0  0  0  0  0  0  0  0  0
  145.7268  132.1550  150.8921 C   0  0  2  0  0  0  0  0  0  0  0  0
  146.8045  132.5150  150.0491 O   0  0  0  0  0  0  0  0  0  0  0  0
  145.0752  133.3695  151.5787 C   0  0  2  0  0  0  0  0  0  0  0  0
  145.0813  134.7003  150.8057 C   0  0  0  0  0  0  0  0  0  0  0  0
  144.3116  134.5885  149.6274 O   0  0  0  0  0  0  0  0  0  0  0  0
  145.7806  133.4958  152.8034 O   0  0  0  0  0  0  0  0  0  0  0  0
  147.2880  133.0742  155.3221 C   0  0  0  0  0  0  0  0  0  0  0  0
  146.3014  133.7362  155.6503 O   0  0  0  0  0  0  0  0  0  0  0  0
  148.2169  133.8760  159.8635 C   0  0  0  0  0  0  0  0  0  0  0  0
  148.2083  135.2913  159.8941 C   0  0  0  0  0  0  0  0  0  0  0  0
  148.0789  135.9798  161.1164 C   0  0  0  0  0  0  0  0  0  0  0  0
  147.9566  135.2668  162.3236 C   0  0  0  0  0  0  0  0  0  0  0  0
  147.9621  133.8597  162.3115 C   0  0  0  0  0  0  0  0  0  0  0  0
  148.0906  133.1690  161.0898 C   0  0  0  0  0  0  0  0  0  0  0  0
  148.0929  131.8191  161.0843 N   0  3  0  0  0  0  0  0  0  0  0  0
  148.4838  129.0969  159.1543 H   0  0  0  0  0  0  0  0  0  0  0  0
  147.1977  129.2297  160.3586 H   0  0  0  0  0  0  0  0  0  0  0  0
  148.8928  129.2502  160.8649 H   0  0  0  0  0  0  0  0  0  0  0  0
  148.4345  131.1283  157.8237 H   0  0  0  0  0  0  0  0  0  0  0  0
  147.7009  134.6264  157.2086 H   0  0  0  0  0  0  0  0  0  0  0  0
  149.4125  134.4521  157.2905 H   0  0  0  0  0  0  0  0  0  0  0  0
  150.5022  129.9895  153.3389 H   0  0  0  0  0  0  0  0  0  0  0  0
  150.8747  129.8295  155.0537 H   0  0  0  0  0  0  0  0  0  0  0  0
  151.5795  131.1499  154.1117 H   0  0  0  0  0  0  0  0  0  0  0  0
  148.3372  130.8645  152.9787 H   0  0  0  0  0  0  0  0  0  0  0  0
  145.2318  131.8924  153.9118 H   0  0  0  0  0  0  0  0  0  0  0  0
  147.2477  130.9530  151.9243 H   0  0  0  0  0  0  0  0  0  0  0  0
  145.5907  130.4146  152.1917 H   0  0  0  0  0  0  0  0  0  0  0  0
  144.9974  131.6192  150.2839 H   0  0  0  0  0  0  0  0  0  0  0  0
  147.5472  131.9708  150.2634 H   0  0  0  0  0  0  0  0  0  0  0  0
  144.0458  133.1122  151.8367 H   0  0  0  0  0  0  0  0  0  0  0  0
  144.6502  135.4896  151.4219 H   0  0  0  0  0  0  0  0  0  0  0  0
  146.0952  135.0144  150.5568 H   0  0  0  0  0  0  0  0  0  0  0  0
  144.8465  134.8467  148.8923 H   0  0  0  0  0  0  0  0  0  0  0  0
  148.2993  135.8724  158.9890 H   0  0  0  0  0  0  0  0  0  0  0  0
  148.0732  137.0600  161.1268 H   0  0  0  0  0  0  0  0  0  0  0  0
  147.8577  135.7997  163.2583 H   0  0  0  0  0  0  0  0  0  0  0  0
  147.8670  133.3175  163.2413 H   0  0  0  0  0  0  0  0  0  0  0  0
  147.9993  131.3309  161.9747 H   0  0  0  0  0  0  0  0  0  0  0  0
  1  2  1  0  0  0  0
  1 30  1  0  0  0  0
  1 31  1  0  0  0  0
  1 32  1  0  0  0  0
  2 29  1  0  0  0  0
  2  3  2  0  0  0  0
  3  4  1  0  0  0  0
  3 33  1  0  0  0  0
  4  5  1  0  0  0  0
  4 23  2  0  0  0  0
  5  6  1  0  0  0  0
  5 34  1  0  0  0  0
  5 35  1  0  0  0  0
  6 21  1  0  0  0  0
  6  7  1  0  0  0  0
  7  8  2  0  0  0  0
  7  9  1  0  0  0  0
  9 10  1  0  0  0  0
  9 11  2  0  0  0  0
 10 36  1  0  0  0  0
 10 37  1  0  0  0  0
 10 38  1  0  0  0  0
 11 12  1  0  0  0  0
 11 39  1  0  0  0  0
 12 13  1  0  0  0  0
 12 21  1  0  0  0  0
 13 20  1  0  0  0  0
 13 14  1  0  0  0  0
 13 40  1  0  0  0  0
 14 15  1  0  0  0  0
 14 41  1  0  0  0  0
 14 42  1  0  0  0  0
 15 16  1  0  0  0  0
 15 17  1  0  0  0  0
 15 43  1  0  0  0  0
 16 44  1  0  0  0  0
 17 18  1  0  0  0  0
 17 20  1  0  0  0  0
 17 45  1  0  0  0  0
 18 19  1  0  0  0  0
 18 46  1  0  0  0  0
 18 47  1  0  0  0  0
 19 48  1  0  0  0  0
 21 22  2  0  0  0  0
 23 28  1  0  0  0  0
 23 24  1  0  0  0  0
 24 25  2  0  0  0  0
 24 49  1  0  0  0  0
 25 26  1  0  0  0  0
 25 50  1  0  0  0  0
 26 27  2  0  0  0  0
 26 51  1  0  0  0  0
 27 28  1  0  0  0  0
 27 52  1  0  0  0  0
 28 29  2  0  0  0  0
 29 53  1  0  0  0  0
M  CHG  1  29   1
M  END
> <s_m_source_file>
AV-unprocessed.smi

> <i_m_source_file_index>
113

> <i_lp_mmshare_version>
43012

> <i_f3d_flags>
0

> <s_epik_input>
W2NIXTFbY0hdW2NIXVtjSF1jKGMxMiluYyhbQ0gzXSlbY0hdYzJbQ0gyXW4zYyg9TyljKFtDSDNdKVtjSF1uKGMzPU8pW0NAQEhdNFtDSDJdW0NAQEhdKFtPSF0pW0NASF0oTzQpW0NIMl1bT0hd

> <s_epik_cmdline>
J2VwaWtfcHl0aG9uJywgJy1waCcsICc3LjAnLCAnLXRuJywgJzgnLCAnLW1hJywgJzIwMCcsICctbWV0YWxfYmluZGluZycsICctaW1hZScsICc8aW5maWxlLm1hZT4nLCAnLW9tYWUnLCAnPG91dGZpbGUubWFlPic=

> <r_lp_tautomer_probability>
1

> <r_epik_Ionization_Penalty>
0.705471

> <r_epik_Ionization_Penalty_Charging>
0.70547

> <r_epik_Ionization_Penalty_Neutral>
1.19947e-07

> <r_epik_State_Penalty>
0.728574

> <r_epik_Charging_Adjusted_Penalty>
1.43404

> <i_epik_Tot_Q>
1

> <i_epik_Tot_abs_Q>
1

> <r_epik_Metal_State_Penalty>
4.61665

> <b_epik_Metal_Only>
0

> <s_epik_Chemistry_Notes>
This compound contains an acetal/aminal-like group ( X-CH(R)-Y where X, Y are N, S, or O) that may be acid/base labile, releasing an aldehyde.

> <s_lp_Force_Field>
OPLS_2005

> <r_lp_Energy>
39.3678

> <b_lp_Chiralities_Consistent>
1

> <s_lp_Variant>
AV-unprocessed.smi:113-15

> <Gold.Version>
5.8.1

> <Gold.Id.Protein>
6NUR|6NUR_protein|mol2

> <Gold.PLP.Fitness>
46.3174

> <Gold.PLP.PLP>
-40.0544

> <Gold.PLP.part.hbond>
-2.2675

> <Gold.PLP.part.metal>
0.0000

> <Gold.PLP.part.buried>
-6.8639

> <Gold.PLP.part.nonpolar>
-29.8032

> <Gold.PLP.part.repulsive>
0.1563

> <Gold.PLP.ligand.clash>
0.0000

> <Gold.PLP.ligand.torsion>
0.2293

> <Gold.PLP.Chemscore.Hbond>
2.0000

> <Gold.PLP.Chemscore.CHOScore>
0.2320

> <Gold.PLP.Chemscore.Metal>
0.0000

> <Gold.Chemscore.Hbonds>
donor molecule, donor type, donor heavy atom, donor atom, acceptor molecule, acceptor atom, score
      L1  H    16    44       P1 10747  1.00
      L1  H    19    48       P1  7921  1.00
      L1  C    11    39       P1 10747  0.44

> <Gold.PLP.Chemscore.Internal.Correction>
0.0254

> <Gold.Rescore>
     Score         DG    S(hbond)    S(metal)    S(lipo)     H(rot)  DE(clash)    DE(int)     intcor
     14.30     -15.72       1.98        0.00      96.78       3.01       0.00       1.42       ----

> <Gold.Chemscore.Fitness>
14.3003

> <Gold.Chemscore.DG>
-15.7202

> <Gold.Chemscore.ZeroCoef>
-5.4800

> <Gold.Chemscore.Hbond>
1.9845

> <Gold.Chemscore.Metal>
0.0000

> <Gold.Chemscore.Lipo>
96.7755

> <Gold.Chemscore.Internal_Hbond>
0.0000

> <Gold.Chemscore.DEClash>
0.0000

> <Gold.Chemscore.DEInternal>
1.4199

> <Gold.Chemscore.Rot>
3.0120

> <Gold.Chemscore.Internal.Correction>
   9.000000E+99

> <Gold.Chemscore.Hbonds>
donor molecule, donor type, donor heavy atom, donor atom, acceptor molecule, acceptor atom, score
      L1  H    16    44       P1 10747  1.00
      L1  H    19    48       P1  7921  1.00

> <Gold.Chemscore.Hbond.Weighted>
-6.6283

> <Gold.Chemscore.Metal.Weighted>
-0.0000

> <Gold.Chemscore.Lipo.Weighted>
-11.3227

> <Gold.Chemscore.Internal_Hbond.Weighted>
0.0000

> <Gold.Chemscore.DEClash.Weighted>
0.0000

> <Gold.Chemscore.DEInternal.Weighted>
1.4199

> <Gold.Chemscore.Rot.Weighted>
7.7108

> <Gold.Chemscore.Internal.Correction.Weighted>
   9.000000E+99

> <Gold.Protein.RotatedTorsions>
[ 6907 6896 6895 6894 ] final   64.87 input  -60.11 | X-H torsion
[ 7974 7965 7964 7962 ] final  -51.81 input  175.53 | X-H torsion
[ 8008 7997 7996 7995 ] final  -69.34 input   59.86 | X-H torsion
[ 10167 10162 10161 10158 ] final   -2.56 input  -65.29 | X-H torsion
[ 10718 10713 10712 10709 ] final -148.93 input   66.30 | X-H torsion
[ 10763 10752 10751 10750 ] final -157.86 input  -60.55 | X-H torsion
[ 11005 11000 10999 10996 ] final  -81.83 input  -57.11 | X-H torsion

> <Gold.Protein.ActiveResidues>
 VAL166  LYS551  ARG553  GLY616  TRP617  ASP618  TYR619  PRO620  LYS621  CYS622 
 ASP623  PHE694  ASN695  SER759  ASP760  ASP761  ALA762  ILE779  LEU786  VAL792 
 PHE793  MET794  SER795  GLU796  ALA797  LYS798  CYS799  TRP800  GLU811  SER814 

> <Gold.Protein.RotatedAtoms>
  152.4365  134.5676  159.9911 H   0  0  0  0  0  0  0  0  0  0  0  0  # atno 6907 bound_to 6896
  151.5785  133.3375  159.3011 H   0  0  0  0  0  0  0  0  0  0  0  0  # atno 6908 bound_to 6896
  150.8264  134.7532  159.6881 H   0  0  0  0  0  0  0  0  0  0  0  0  # atno 6909 bound_to 6896
  145.9149  140.7884  142.9677 H   0  0  0  0  0  0  0  0  0  0  0  0  # atno 7974 bound_to 7965
  154.4931  140.0855  156.7638 H   0  0  0  0  0  0  0  0  0  0  0  0  # atno 8008 bound_to 7997
  155.4181  140.3444  155.4251 H   0  0  0  0  0  0  0  0  0  0  0  0  # atno 8009 bound_to 7997
  156.1357  140.1514  156.8985 H   0  0  0  0  0  0  0  0  0  0  0  0  # atno 8010 bound_to 7997
  140.6856  143.6642  150.8240 H   0  0  0  0  0  0  0  0  0  0  0  0  # atno 10167 bound_to 10162
  156.4266  130.8055  151.2280 H   0  0  0  0  0  0  0  0  0  0  0  0  # atno 10718 bound_to 10713
  154.7603  135.3116  154.8391 H   0  0  0  0  0  0  0  0  0  0  0  0  # atno 10763 bound_to 10752
  153.9154  135.6801  153.4753 H   0  0  0  0  0  0  0  0  0  0  0  0  # atno 10764 bound_to 10752
  153.1203  135.4825  154.9115 H   0  0  0  0  0  0  0  0  0  0  0  0  # atno 10765 bound_to 10752
  141.1665  133.7215  156.8482 H   0  0  0  0  0  0  0  0  0  0  0  0  # atno 11005 bound_to 11000
  144.6747  140.1883  143.7399 LP  0  0  0  0  0  0  0  0  0  0  0  0  # atno 17320 bound_to 7965
  145.8625  139.2230  143.1708 LP  0  0  0  0  0  0  0  0  0  0  0  0  # atno 17321 bound_to 7965
  140.0349  143.5406  152.2744 LP  0  0  0  0  0  0  0  0  0  0  0  0  # atno 17342 bound_to 10162
  139.6212  144.7629  151.2737 LP  0  0  0  0  0  0  0  0  0  0  0  0  # atno 17343 bound_to 10162
  157.7508  131.0211  150.3738 LP  0  0  0  0  0  0  0  0  0  0  0  0  # atno 17370 bound_to 10713
  156.4066  130.3926  149.6921 LP  0  0  0  0  0  0  0  0  0  0  0  0  # atno 17371 bound_to 10713
  140.1935  134.8949  157.3087 LP  0  0  0  0  0  0  0  0  0  0  0  0  # atno 17394 bound_to 11000
  140.2265  134.3961  155.7541 LP  0  0  0  0  0  0  0  0  0  0  0  0  # atno 17395 bound_to 11000

$$$$
