AV-unprocessed.smi:134|AV-procd|sdf|1167|dock4
  -GOLD-   2262018313D 1   1.00000     0.00000
 Structure written by MMmdl.
 51 54  0  0  0  0  0  0  0  0  1 V2000
  150.2517  136.7619  159.3670 O   0  0  0  0  0  0  0  0  0  0  0  0
  150.0737  136.8507  158.1512 C   0  0  0  0  0  0  0  0  0  0  0  0
  150.7749  137.9492  157.3365 C   0  0  0  0  0  0  0  0  0  0  0  0
  151.4437  138.9677  158.1760 N   0  0  0  0  0  0  0  0  0  0  0  0
  152.6087  138.5934  158.8904 C   0  0  0  0  0  0  0  0  0  0  0  0
  153.0473  137.4435  158.8398 O   0  0  0  0  0  0  0  0  0  0  0  0
  153.2405  139.6547  159.6647 C   0  0  0  0  0  0  0  0  0  0  0  0
  154.3599  139.3948  160.3614 F   0  0  0  0  0  0  0  0  0  0  0  0
  152.7202  140.8987  159.6901 C   0  0  0  0  0  0  0  0  0  0  0  0
  151.5713  141.2477  159.0072 N   0  0  0  0  0  0  0  0  0  0  0  0
  151.0974  142.6842  159.0617 C   0  0  2  0  0  0  0  0  0  0  0  0
  151.1609  143.4101  157.7095 C   0  0  0  0  0  0  0  0  0  0  0  0
  151.5171  144.8140  158.1478 C   0  0  0  0  0  0  0  0  0  0  0  0
  152.4295  144.5509  159.3412 C   0  0  0  0  0  0  0  0  0  0  0  0
  151.8860  143.3943  159.9724 O   0  0  0  0  0  0  0  0  0  0  0  0
  150.9203  140.2831  158.2024 C   0  0  0  0  0  0  0  0  0  0  0  0
  149.9294  140.5762  157.5322 O   0  0  0  0  0  0  0  0  0  0  0  0
  149.2739  136.0343  157.4431 N   0  0  0  0  0  0  0  0  0  0  0  0
  148.4748  134.9643  157.9300 C   0  0  0  0  0  0  0  0  0  0  0  0
  148.2392  134.7777  159.3136 C   0  0  0  0  0  0  0  0  0  0  0  0
  147.4605  133.6951  159.7651 C   0  0  0  0  0  0  0  0  0  0  0  0
  146.9178  132.7829  158.8417 C   0  0  0  0  0  0  0  0  0  0  0  0
  147.1601  132.9496  157.4657 C   0  0  0  0  0  0  0  0  0  0  0  0
  147.9391  134.0314  157.0083 C   0  0  0  0  0  0  0  0  0  0  0  0
  148.2107  134.2048  155.2691 S   0  0  0  0  0  0  0  0  0  0  0  0
  149.2404  132.8049  154.9759 C   0  0  0  0  0  0  0  0  0  0  0  0
  148.8042  131.7783  154.1151 C   0  0  0  0  0  0  0  0  0  0  0  0
  149.6345  130.6665  153.8727 C   0  0  0  0  0  0  0  0  0  0  0  0
  150.8978  130.5812  154.4913 C   0  0  0  0  0  0  0  0  0  0  0  0
  151.9156  129.2208  154.1917 Cl  0  0  0  0  0  0  0  0  0  0  0  0
  151.3301  131.6068  155.3551 C   0  0  0  0  0  0  0  0  0  0  0  0
  150.5008  132.7184  155.5993 C   0  0  0  0  0  0  0  0  0  0  0  0
  151.4800  137.4697  156.6560 H   0  0  0  0  0  0  0  0  0  0  0  0
  150.0473  138.4182  156.6719 H   0  0  0  0  0  0  0  0  0  0  0  0
  153.2311  141.6486  160.2762 H   0  0  0  0  0  0  0  0  0  0  0  0
  150.0801  142.6514  159.4538 H   0  0  0  0  0  0  0  0  0  0  0  0
  151.9394  143.0002  157.0678 H   0  0  0  0  0  0  0  0  0  0  0  0
  150.2068  143.3451  157.1862 H   0  0  0  0  0  0  0  0  0  0  0  0
  151.9973  145.3998  157.3637 H   0  0  0  0  0  0  0  0  0  0  0  0
  150.6204  145.3438  158.4719 H   0  0  0  0  0  0  0  0  0  0  0  0
  153.4454  144.3386  159.0070 H   0  0  0  0  0  0  0  0  0  0  0  0
  152.4726  145.3957  160.0287 H   0  0  0  0  0  0  0  0  0  0  0  0
  149.1315  136.2792  156.4738 H   0  0  0  0  0  0  0  0  0  0  0  0
  148.6599  135.4519  160.0446 H   0  0  0  0  0  0  0  0  0  0  0  0
  147.2840  133.5626  160.8222 H   0  0  0  0  0  0  0  0  0  0  0  0
  146.3207  131.9525  159.1888 H   0  0  0  0  0  0  0  0  0  0  0  0
  146.7451  132.2449  156.7602 H   0  0  0  0  0  0  0  0  0  0  0  0
  147.8381  131.8435  153.6364 H   0  0  0  0  0  0  0  0  0  0  0  0
  149.3015  129.8808  153.2107 H   0  0  0  0  0  0  0  0  0  0  0  0
  152.2975  131.5424  155.8308 H   0  0  0  0  0  0  0  0  0  0  0  0
  150.8349  133.5020  156.2624 H   0  0  0  0  0  0  0  0  0  0  0  0
  1  2  2  0  0  0  0
  2  3  1  0  0  0  0
  2 18  1  0  0  0  0
  3  4  1  0  0  0  0
  3 33  1  0  0  0  0
  3 34  1  0  0  0  0
  4 16  1  0  0  0  0
  4  5  1  0  0  0  0
  5  6  2  0  0  0  0
  5  7  1  0  0  0  0
  7  8  1  0  0  0  0
  7  9  2  0  0  0  0
  9 10  1  0  0  0  0
  9 35  1  0  0  0  0
 10 11  1  0  0  0  0
 10 16  1  0  0  0  0
 11 15  1  0  0  0  0
 11 12  1  0  0  0  0
 11 36  1  0  0  0  0
 12 13  1  0  0  0  0
 12 37  1  0  0  0  0
 12 38  1  0  0  0  0
 13 14  1  0  0  0  0
 13 39  1  0  0  0  0
 13 40  1  0  0  0  0
 14 15  1  0  0  0  0
 14 41  1  0  0  0  0
 14 42  1  0  0  0  0
 16 17  2  0  0  0  0
 18 19  1  0  0  0  0
 18 43  1  0  0  0  0
 19 24  1  0  0  0  0
 19 20  2  0  0  0  0
 20 21  1  0  0  0  0
 20 44  1  0  0  0  0
 21 22  2  0  0  0  0
 21 45  1  0  0  0  0
 22 23  1  0  0  0  0
 22 46  1  0  0  0  0
 23 24  2  0  0  0  0
 23 47  1  0  0  0  0
 24 25  1  0  0  0  0
 25 26  1  0  0  0  0
 26 32  1  0  0  0  0
 26 27  2  0  0  0  0
 27 28  1  0  0  0  0
 27 48  1  0  0  0  0
 28 29  2  0  0  0  0
 28 49  1  0  0  0  0
 29 30  1  0  0  0  0
 29 31  1  0  0  0  0
 31 32  2  0  0  0  0
 31 50  1  0  0  0  0
 32 51  1  0  0  0  0
M  END
> <s_m_source_file>
AV-unprocessed.smi

> <i_m_source_file_index>
134

> <i_lp_mmshare_version>
43012

> <i_f3d_flags>
0

> <s_epik_input>
TzFbQ0gyXVtDSDJdW0NIMl1bQ0BIXTFuKGMyPU8pW2NIXWMoRiljKD1PKW4yW0NIMl1DKD1PKVtOSF1jM1tjSF1bY0hdW2NIXVtjSF1jM1NjNFtjSF1bY0hdYyhDbClbY0hdW2NIXTQ=

> <s_epik_cmdline>
J2VwaWtfcHl0aG9uJywgJy1waCcsICc3LjAnLCAnLXRuJywgJzgnLCAnLW1hJywgJzIwMCcsICctbWV0YWxfYmluZGluZycsICctaW1hZScsICc8aW5maWxlLm1hZT4nLCAnLW9tYWUnLCAnPG91dGZpbGUubWFlPic=

> <r_lp_tautomer_probability>
1

> <r_epik_Ionization_Penalty>
2.01717e-06

> <r_epik_Ionization_Penalty_Charging>
3.88729e-08

> <r_epik_Ionization_Penalty_Neutral>
1.9783e-06

> <r_epik_State_Penalty>
-0

> <r_epik_Charging_Adjusted_Penalty>
3.88729e-08

> <i_epik_Tot_Q>
0

> <i_epik_Tot_abs_Q>
0

> <r_epik_Metal_State_Penalty>
-0

> <b_epik_Metal_Only>
0

> <s_epik_Chemistry_Notes>
This compound contains an acetal/aminal-like group ( X-CH(R)-Y where X, Y are N, S, or O) that may be acid/base labile, releasing an aldehyde.

> <s_lp_Force_Field>
OPLS_2005

> <r_lp_Energy>
29.8469

> <b_lp_Chiralities_Consistent>
1

> <s_lp_Variant>
AV-unprocessed.smi:134-1

> <Gold.Version>
5.8.1

> <Gold.Id.Protein>
6NUR|6NUR_protein|mol2

> <Gold.PLP.Fitness>
49.3862

> <Gold.PLP.PLP>
-47.1847

> <Gold.PLP.part.hbond>
-1.0000

> <Gold.PLP.part.metal>
0.0000

> <Gold.PLP.part.buried>
-7.4098

> <Gold.PLP.part.nonpolar>
-39.1316

> <Gold.PLP.part.repulsive>
0.0868

> <Gold.PLP.ligand.clash>
0.0000

> <Gold.PLP.ligand.torsion>
0.3389

> <Gold.PLP.Chemscore.Hbond>
0.9500

> <Gold.PLP.Chemscore.CHOScore>
0.0000

> <Gold.PLP.Chemscore.Metal>
0.0000

> <Gold.Chemscore.Hbonds>
donor molecule, donor type, donor heavy atom, donor atom, acceptor molecule, acceptor atom, score
      P1  H  6896  6908       L1     1  1.00

> <Gold.PLP.Chemscore.Internal.Correction>
0.0292

> <Gold.Rescore>
     Score         DG    S(hbond)    S(metal)    S(lipo)     H(rot)  DE(clash)    DE(int)     intcor
     13.63     -15.72       0.74        0.00     109.29       1.95       0.00       2.09       ----

> <Gold.Chemscore.Fitness>
13.6256

> <Gold.Chemscore.DG>
-15.7231

> <Gold.Chemscore.ZeroCoef>
-5.4800

> <Gold.Chemscore.Hbond>
0.7369

> <Gold.Chemscore.Metal>
0.0000

> <Gold.Chemscore.Lipo>
109.2855

> <Gold.Chemscore.Internal_Hbond>
0.0000

> <Gold.Chemscore.DEClash>
0.0038

> <Gold.Chemscore.DEInternal>
2.0936

> <Gold.Chemscore.Rot>
1.9549

> <Gold.Chemscore.Internal.Correction>
   9.000000E+99

> <Gold.Chemscore.Hbonds>
donor molecule, donor type, donor heavy atom, donor atom, acceptor molecule, acceptor atom, score
      P1  H  6896  6908       L1     1  0.51

> <Gold.Chemscore.Hbond.Weighted>
-2.4613

> <Gold.Chemscore.Metal.Weighted>
-0.0000

> <Gold.Chemscore.Lipo.Weighted>
-12.7864

> <Gold.Chemscore.Internal_Hbond.Weighted>
0.0000

> <Gold.Chemscore.DEClash.Weighted>
0.0038

> <Gold.Chemscore.DEInternal.Weighted>
2.0936

> <Gold.Chemscore.Rot.Weighted>
5.0046

> <Gold.Chemscore.Internal.Correction.Weighted>
   9.000000E+99

> <Gold.Protein.RotatedTorsions>
[ 6907 6896 6895 6894 ] final -170.73 input  -60.11 | X-H torsion
[ 7974 7965 7964 7962 ] final   79.90 input  175.53 | X-H torsion
[ 8008 7997 7996 7995 ] final -163.10 input   59.86 | X-H torsion
[ 10167 10162 10161 10158 ] final   13.64 input  -65.29 | X-H torsion
[ 10718 10713 10712 10709 ] final   81.37 input   66.30 | X-H torsion
[ 10763 10752 10751 10750 ] final   30.17 input  -60.55 | X-H torsion
[ 11005 11000 10999 10996 ] final  -45.79 input  -57.11 | X-H torsion

> <Gold.Protein.ActiveResidues>
 VAL166  LYS551  ARG553  GLY616  TRP617  ASP618  TYR619  PRO620  LYS621  CYS622 
 ASP623  PHE694  ASN695  SER759  ASP760  ASP761  ALA762  ILE779  LEU786  VAL792 
 PHE793  MET794  SER795  GLU796  ALA797  LYS798  CYS799  TRP800  GLU811  SER814 

> <Gold.Protein.RotatedAtoms>
  151.5125  133.3482  159.2887 H   0  0  0  0  0  0  0  0  0  0  0  0  # atno 6907 bound_to 6896
  150.8703  134.8078  159.7161 H   0  0  0  0  0  0  0  0  0  0  0  0  # atno 6908 bound_to 6896
  152.4694  134.5008  159.9776 H   0  0  0  0  0  0  0  0  0  0  0  0  # atno 6909 bound_to 6896
  145.6582  139.2464  143.1937 H   0  0  0  0  0  0  0  0  0  0  0  0  # atno 7974 bound_to 7965
  155.8163  140.0913  157.1875 H   0  0  0  0  0  0  0  0  0  0  0  0  # atno 8008 bound_to 7997
  154.3979  140.1445  156.3507 H   0  0  0  0  0  0  0  0  0  0  0  0  # atno 8009 bound_to 7997
  155.8312  140.3442  155.5576 H   0  0  0  0  0  0  0  0  0  0  0  0  # atno 8010 bound_to 7997
  140.5989  143.8644  150.6945 H   0  0  0  0  0  0  0  0  0  0  0  0  # atno 10167 bound_to 10162
  157.6831  131.0001  150.2217 H   0  0  0  0  0  0  0  0  0  0  0  0  # atno 10718 bound_to 10713
  153.0387  135.6471  154.1004 H   0  0  0  0  0  0  0  0  0  0  0  0  # atno 10763 bound_to 10752
  154.0714  135.2880  155.3309 H   0  0  0  0  0  0  0  0  0  0  0  0  # atno 10764 bound_to 10752
  154.6591  135.5398  153.8061 H   0  0  0  0  0  0  0  0  0  0  0  0  # atno 10765 bound_to 10752
  141.0538  133.6733  156.3062 H   0  0  0  0  0  0  0  0  0  0  0  0  # atno 11005 bound_to 11000
  146.1147  140.7384  142.9486 LP  0  0  0  0  0  0  0  0  0  0  0  0  # atno 17320 bound_to 7965
  144.7098  140.3995  143.7089 LP  0  0  0  0  0  0  0  0  0  0  0  0  # atno 17321 bound_to 7965
  140.2186  143.3827  152.1661 LP  0  0  0  0  0  0  0  0  0  0  0  0  # atno 17342 bound_to 10162
  139.5277  144.7123  151.5168 LP  0  0  0  0  0  0  0  0  0  0  0  0  # atno 17343 bound_to 10162
  156.2867  130.3740  149.7881 LP  0  0  0  0  0  0  0  0  0  0  0  0  # atno 17370 bound_to 10713
  156.5553  130.8360  151.3312 LP  0  0  0  0  0  0  0  0  0  0  0  0  # atno 17371 bound_to 10713
  140.6004  134.5560  157.5516 LP  0  0  0  0  0  0  0  0  0  0  0  0  # atno 17394 bound_to 11000
  139.9372  134.7853  156.0771 LP  0  0  0  0  0  0  0  0  0  0  0  0  # atno 17395 bound_to 11000

$$$$
