AV-unprocessed.smi:559|AV-procd|sdf|2924|dock5
  -GOLD-   2262023413D 1   1.00000     0.00000
 Structure written by MMmdl.
 41 42  0  0  0  0  0  0  0  0  1 V2000
  147.6479  137.3346  158.1228 C   0  0  0  0  0  0  0  0  0  0  0  0
  147.5133  136.4570  159.3341 C   0  0  0  0  0  0  0  0  0  0  0  0
  147.4321  137.0123  160.5316 N   0  0  0  0  0  0  0  0  0  0  0  0
  147.3355  135.9747  161.3867 N   0  0  0  0  0  0  0  0  0  0  0  0
  147.2406  136.2314  162.8104 C   0  0  0  0  0  0  0  0  0  0  0  0
  147.3523  134.7613  160.7276 C   0  0  0  0  0  0  0  0  0  0  0  0
  147.2682  133.4592  161.4564 C   0  0  0  0  0  0  0  0  0  0  0  0
  147.4744  135.0327  159.3905 C   0  0  0  0  0  0  0  0  0  0  0  0
  147.5730  134.0648  158.2361 C   0  0  0  0  0  0  0  0  0  0  0  0
  148.9447  134.2016  157.5747 C   0  0  0  0  0  0  0  0  0  0  0  0
  149.9226  133.6371  158.0641 O   0  0  0  0  0  0  0  0  0  0  0  0
  149.0064  134.9852  156.4862 N   0  0  0  0  0  0  0  0  0  0  0  0
  150.2305  135.4088  155.8155 C   0  0  0  0  0  0  0  0  0  0  0  0
  150.2290  136.9301  155.5688 C   0  0  2  0  0  0  0  0  0  0  0  0
  151.2401  137.3549  154.4866 C   0  0  0  0  0  0  0  0  0  0  0  0
  151.3492  138.8833  154.4925 C   0  0  0  0  0  0  0  0  0  0  0  0
  151.1335  139.3875  156.2399 S   0  0  0  0  0  0  0  0  0  0  0  0
  152.4498  139.6431  156.8439 O   0  0  0  0  0  0  0  0  0  0  0  0
  150.0558  140.3848  156.3220 O   0  0  0  0  0  0  0  0  0  0  0  0
  150.5143  137.7675  156.8286 C   0  0  0  0  0  0  0  0  0  0  0  0
  148.6396  137.2370  157.6812 H   0  0  0  0  0  0  0  0  0  0  0  0
  147.4938  138.3866  158.3654 H   0  0  0  0  0  0  0  0  0  0  0  0
  146.9168  137.0628  157.3614 H   0  0  0  0  0  0  0  0  0  0  0  0
  146.3398  135.7648  163.2091 H   0  0  0  0  0  0  0  0  0  0  0  0
  147.1982  137.3034  163.0074 H   0  0  0  0  0  0  0  0  0  0  0  0
  148.1122  135.8144  163.3148 H   0  0  0  0  0  0  0  0  0  0  0  0
  147.2590  132.6178  160.7639 H   0  0  0  0  0  0  0  0  0  0  0  0
  146.3595  133.4072  162.0561 H   0  0  0  0  0  0  0  0  0  0  0  0
  148.1222  133.3338  162.1224 H   0  0  0  0  0  0  0  0  0  0  0  0
  147.4345  133.0361  158.5708 H   0  0  0  0  0  0  0  0  0  0  0  0
  146.8021  134.2468  157.4871 H   0  0  0  0  0  0  0  0  0  0  0  0
  148.1450  135.3967  156.1570 H   0  0  0  0  0  0  0  0  0  0  0  0
  151.1144  135.1134  156.3832 H   0  0  0  0  0  0  0  0  0  0  0  0
  150.2903  134.8820  154.8630 H   0  0  0  0  0  0  0  0  0  0  0  0
  149.2389  137.2156  155.2100 H   0  0  0  0  0  0  0  0  0  0  0  0
  152.2172  136.9311  154.7224 H   0  0  0  0  0  0  0  0  0  0  0  0
  150.9596  136.9809  153.5017 H   0  0  0  0  0  0  0  0  0  0  0  0
  152.3026  139.2464  154.1081 H   0  0  0  0  0  0  0  0  0  0  0  0
  150.5435  139.3309  153.9106 H   0  0  0  0  0  0  0  0  0  0  0  0
  149.6322  137.9105  157.4526 H   0  0  0  0  0  0  0  0  0  0  0  0
  151.2980  137.3122  157.4347 H   0  0  0  0  0  0  0  0  0  0  0  0
  1  2  1  0  0  0  0
  1 21  1  0  0  0  0
  1 22  1  0  0  0  0
  1 23  1  0  0  0  0
  2  8  1  0  0  0  0
  2  3  2  0  0  0  0
  3  4  1  0  0  0  0
  4  5  1  0  0  0  0
  4  6  1  0  0  0  0
  5 24  1  0  0  0  0
  5 25  1  0  0  0  0
  5 26  1  0  0  0  0
  6  7  1  0  0  0  0
  6  8  2  0  0  0  0
  7 27  1  0  0  0  0
  7 28  1  0  0  0  0
  7 29  1  0  0  0  0
  8  9  1  0  0  0  0
  9 10  1  0  0  0  0
  9 30  1  0  0  0  0
  9 31  1  0  0  0  0
 10 11  2  0  0  0  0
 10 12  1  0  0  0  0
 12 13  1  0  0  0  0
 12 32  1  0  0  0  0
 13 14  1  0  0  0  0
 13 33  1  0  0  0  0
 13 34  1  0  0  0  0
 14 20  1  0  0  0  0
 14 15  1  0  0  0  0
 14 35  1  0  0  0  0
 15 16  1  0  0  0  0
 15 36  1  0  0  0  0
 15 37  1  0  0  0  0
 16 17  1  0  0  0  0
 16 38  1  0  0  0  0
 16 39  1  0  0  0  0
 17 18  2  0  0  0  0
 17 19  2  0  0  0  0
 17 20  1  0  0  0  0
 20 40  1  0  0  0  0
 20 41  1  0  0  0  0
M  END
> <s_m_source_file>
AV-unprocessed.smi

> <i_m_source_file_index>
559

> <i_lp_mmshare_version>
43012

> <i_f3d_flags>
0

> <s_epik_input>
W0NIM11jMW5uKFtDSDNdKWMoW0NIM10pYzFbQ0gyXUMoPU8pW05IXVtDSDJdW0NAQEhdKFtDSDJdMilbQ0gyXVtDSDJdUzIoPU8pPU8=

> <s_epik_cmdline>
J2VwaWtfcHl0aG9uJywgJy1waCcsICc3LjAnLCAnLXRuJywgJzgnLCAnLW1hJywgJzIwMCcsICctbWV0YWxfYmluZGluZycsICctaW1hZScsICc8aW5maWxlLm1hZT4nLCAnLW9tYWUnLCAnPG91dGZpbGUubWFlPic=

> <r_lp_tautomer_probability>
1

> <r_epik_Ionization_Penalty>
0.00301269

> <r_epik_Ionization_Penalty_Charging>
0

> <r_epik_Ionization_Penalty_Neutral>
0.00301269

> <r_epik_State_Penalty>
0.00211587

> <r_epik_Charging_Adjusted_Penalty>
0.00211587

> <i_epik_Tot_Q>
0

> <i_epik_Tot_abs_Q>
0

> <r_epik_Metal_State_Penalty>
-0

> <b_epik_Metal_Only>
0

> <s_lp_Force_Field>
OPLS_2005

> <r_lp_Energy>
-3.01738

> <b_lp_Chiralities_Consistent>
1

> <s_lp_Variant>
AV-unprocessed.smi:559-1

> <Gold.Version>
5.8.1

> <Gold.Id.Protein>
6NUR|6NUR_protein|mol2

> <Gold.PLP.Fitness>
41.8475

> <Gold.PLP.PLP>
-31.7622

> <Gold.PLP.part.hbond>
-4.0000

> <Gold.PLP.part.metal>
0.0000

> <Gold.PLP.part.buried>
-3.8589

> <Gold.PLP.part.nonpolar>
-23.5556

> <Gold.PLP.part.repulsive>
0.0450

> <Gold.PLP.ligand.clash>
0.0000

> <Gold.PLP.ligand.torsion>
0.5333

> <Gold.PLP.Chemscore.Hbond>
3.7120

> <Gold.PLP.Chemscore.CHOScore>
0.0000

> <Gold.PLP.Chemscore.Metal>
0.0000

> <Gold.Chemscore.Hbonds>
donor molecule, donor type, donor heavy atom, donor atom, acceptor molecule, acceptor atom, score
      P1  H  6896  6907       L1    11  0.88
      P1  H  6934  6947       L1     3  0.93
      P1  H  7997  8008       L1    18  1.00

> <Gold.PLP.Chemscore.Internal.Correction>
0.0158

> <Gold.Rescore>
     Score         DG    S(hbond)    S(metal)    S(lipo)     H(rot)  DE(clash)    DE(int)     intcor
     18.42     -18.95       3.13        0.00      61.74       1.64       0.00       0.52       ----

> <Gold.Chemscore.Fitness>
18.4247

> <Gold.Chemscore.DG>
-18.9451

> <Gold.Chemscore.ZeroCoef>
-5.4800

> <Gold.Chemscore.Hbond>
3.1254

> <Gold.Chemscore.Metal>
0.0000

> <Gold.Chemscore.Lipo>
61.7417

> <Gold.Chemscore.Internal_Hbond>
0.0000

> <Gold.Chemscore.DEClash>
0.0000

> <Gold.Chemscore.DEInternal>
0.5205

> <Gold.Chemscore.Rot>
1.6396

> <Gold.Chemscore.Internal.Correction>
   9.000000E+99

> <Gold.Chemscore.Hbonds>
donor molecule, donor type, donor heavy atom, donor atom, acceptor molecule, acceptor atom, score
      P1  H  6896  6907       L1    11  0.85
      P1  H  6934  6947       L1     3  0.86
      P1  H  7997  8008       L1    18  0.97

> <Gold.Chemscore.Hbond.Weighted>
-10.4388

> <Gold.Chemscore.Metal.Weighted>
-0.0000

> <Gold.Chemscore.Lipo.Weighted>
-7.2238

> <Gold.Chemscore.Internal_Hbond.Weighted>
0.0000

> <Gold.Chemscore.DEClash.Weighted>
0.0000

> <Gold.Chemscore.DEInternal.Weighted>
0.5205

> <Gold.Chemscore.Rot.Weighted>
4.1974

> <Gold.Chemscore.Internal.Correction.Weighted>
   9.000000E+99

> <Gold.Protein.RotatedTorsions>
[ 6907 6896 6895 6894 ] final -113.87 input  -60.11 | X-H torsion
[ 7974 7965 7964 7962 ] final   75.94 input  175.53 | X-H torsion
[ 8008 7997 7996 7995 ] final  -58.30 input   59.86 | X-H torsion
[ 10167 10162 10161 10158 ] final -169.95 input  -65.29 | X-H torsion
[ 10718 10713 10712 10709 ] final -117.70 input   66.30 | X-H torsion
[ 10763 10752 10751 10750 ] final  114.47 input  -60.55 | X-H torsion
[ 11005 11000 10999 10996 ] final  -46.86 input  -57.11 | X-H torsion

> <Gold.Protein.ActiveResidues>
 VAL166  LYS551  ARG553  GLY616  TRP617  ASP618  TYR619  PRO620  LYS621  CYS622 
 ASP623  PHE694  ASN695  SER759  ASP760  ASP761  ALA762  ILE779  LEU786  VAL792 
 PHE793  MET794  SER795  GLU796  ALA797  LYS798  CYS799  TRP800  GLU811  SER814 

> <Gold.Protein.RotatedAtoms>
  150.7861  133.8882  159.3305 H   0  0  0  0  0  0  0  0  0  0  0  0  # atno 6907 bound_to 6896
  151.6732  135.0971  160.0211 H   0  0  0  0  0  0  0  0  0  0  0  0  # atno 6908 bound_to 6896
  152.3925  133.6660  159.6284 H   0  0  0  0  0  0  0  0  0  0  0  0  # atno 6909 bound_to 6896
  145.7092  139.2609  143.1660 H   0  0  0  0  0  0  0  0  0  0  0  0  # atno 7974 bound_to 7965
  154.4303  140.1087  156.5934 H   0  0  0  0  0  0  0  0  0  0  0  0  # atno 8008 bound_to 7997
  155.5987  140.3493  155.4569 H   0  0  0  0  0  0  0  0  0  0  0  0  # atno 8009 bound_to 7997
  156.0190  140.1235  157.0366 H   0  0  0  0  0  0  0  0  0  0  0  0  # atno 8010 bound_to 7997
  139.5891  144.1252  152.1613 H   0  0  0  0  0  0  0  0  0  0  0  0  # atno 10167 bound_to 10162
  156.1053  130.6205  150.9197 H   0  0  0  0  0  0  0  0  0  0  0  0  # atno 10718 bound_to 10713
  153.5077  135.3624  155.2571 H   0  0  0  0  0  0  0  0  0  0  0  0  # atno 10763 bound_to 10752
  154.8744  135.4015  154.3404 H   0  0  0  0  0  0  0  0  0  0  0  0  # atno 10764 bound_to 10752
  153.4052  135.7076  153.6464 H   0  0  0  0  0  0  0  0  0  0  0  0  # atno 10765 bound_to 10752
  141.0605  133.6711  156.3215 H   0  0  0  0  0  0  0  0  0  0  0  0  # atno 11005 bound_to 11000
  146.0728  140.7850  142.9680 LP  0  0  0  0  0  0  0  0  0  0  0  0  # atno 17320 bound_to 7965
  144.6946  140.3368  143.7206 LP  0  0  0  0  0  0  0  0  0  0  0  0  # atno 17321 bound_to 7965
  140.0822  144.5691  150.7114 LP  0  0  0  0  0  0  0  0  0  0  0  0  # atno 17342 bound_to 10162
  140.7158  143.2543  151.4439 LP  0  0  0  0  0  0  0  0  0  0  0  0  # atno 17343 bound_to 10162
  157.6228  131.0928  150.8589 LP  0  0  0  0  0  0  0  0  0  0  0  0  # atno 17370 bound_to 10713
  156.8710  130.5146  149.5297 LP  0  0  0  0  0  0  0  0  0  0  0  0  # atno 17371 bound_to 10713
  140.5878  134.5681  157.5493 LP  0  0  0  0  0  0  0  0  0  0  0  0  # atno 17394 bound_to 11000
  139.9428  134.7756  156.0635 LP  0  0  0  0  0  0  0  0  0  0  0  0  # atno 17395 bound_to 11000

$$$$
