AV-unprocessed.smi:2031|AV-procd|sdf|8228|dock5
  -GOLD-   2272010503D 1   1.00000     0.00000
 Structure written by MMmdl.
 42 43  0  0  0  0  0  0  0  0  2 V2000
  153.4796  137.4311  156.8659 C   0  0  0  0  0  0  0  0  0  0  0  0
  152.5278  138.0818  155.9217 C   0  0  0  0  0  0  0  0  0  0  0  0
  151.3926  137.6452  155.2993 C   0  0  0  0  0  0  0  0  0  0  0  0
  150.9884  138.7812  154.5390 C   0  0  0  0  0  0  0  0  0  0  0  0
  149.8505  138.8672  153.6958 N   0  0  0  0  0  0  0  0  0  0  0  0
  148.5880  138.4894  153.9581 C   0  0  0  0  0  0  0  0  0  0  0  0
  148.1962  137.9881  155.0120 O   0  0  0  0  0  0  0  0  0  0  0  0
  147.7789  138.7333  152.9169 N   0  0  0  0  0  0  0  0  0  0  0  0
  146.3490  138.4464  152.8910 C   0  0  0  0  0  0  0  0  0  0  0  0
  145.9922  137.4701  151.7519 C   0  0  0  0  0  0  0  0  0  0  0  0
  146.1876  136.0424  152.1208 N   0  3  0  0  0  0  0  0  0  0  0  0
  145.4527  135.1191  151.2156 C   0  0  0  0  0  0  0  0  0  0  0  0
  146.3000  133.8764  150.8932 C   0  0  0  0  0  0  0  0  0  0  0  0
  146.3185  132.8131  151.9999 C   0  0  0  0  0  0  0  0  0  0  0  0
  146.7926  133.3322  153.3660 C   0  0  0  0  0  0  0  0  0  0  0  0
  145.7956  134.3189  153.9934 C   0  0  0  0  0  0  0  0  0  0  0  0
  145.9838  135.7920  153.5773 C   0  0  0  0  0  0  0  0  0  0  0  0
  151.8045  139.8084  154.6863 N   0  0  0  0  0  0  0  0  0  0  0  0
  152.7953  139.3688  155.5719 O   0  0  0  0  0  0  0  0  0  0  0  0
  153.0572  136.5116  157.2716 H   0  0  0  0  0  0  0  0  0  0  0  0
  153.7125  138.0928  157.7006 H   0  0  0  0  0  0  0  0  0  0  0  0
  154.4125  137.1806  156.3608 H   0  0  0  0  0  0  0  0  0  0  0  0
  150.9417  136.6684  155.3861 H   0  0  0  0  0  0  0  0  0  0  0  0
  150.0199  139.2704  152.7862 H   0  0  0  0  0  0  0  0  0  0  0  0
  148.1789  139.1451  152.0861 H   0  0  0  0  0  0  0  0  0  0  0  0
  146.0704  138.0153  153.8531 H   0  0  0  0  0  0  0  0  0  0  0  0
  145.8041  139.3867  152.7999 H   0  0  0  0  0  0  0  0  0  0  0  0
  144.9629  137.6165  151.4203 H   0  0  0  0  0  0  0  0  0  0  0  0
  146.6299  137.7139  150.9008 H   0  0  0  0  0  0  0  0  0  0  0  0
  144.4706  134.8598  151.6130 H   0  0  0  0  0  0  0  0  0  0  0  0
  145.2559  135.6165  150.2653 H   0  0  0  0  0  0  0  0  0  0  0  0
  145.9055  133.4111  149.9891 H   0  0  0  0  0  0  0  0  0  0  0  0
  147.3196  134.1777  150.6489 H   0  0  0  0  0  0  0  0  0  0  0  0
  145.3245  132.3753  152.1008 H   0  0  0  0  0  0  0  0  0  0  0  0
  146.9701  131.9967  151.6865 H   0  0  0  0  0  0  0  0  0  0  0  0
  146.8920  132.4743  154.0320 H   0  0  0  0  0  0  0  0  0  0  0  0
  147.7871  133.7746  153.2953 H   0  0  0  0  0  0  0  0  0  0  0  0
  144.7740  133.9945  153.7914 H   0  0  0  0  0  0  0  0  0  0  0  0
  145.8952  134.2699  155.0783 H   0  0  0  0  0  0  0  0  0  0  0  0
  146.8482  136.1886  154.1101 H   0  0  0  0  0  0  0  0  0  0  0  0
  145.1195  136.3586  153.9271 H   0  0  0  0  0  0  0  0  0  0  0  0
  147.1625  135.8505  151.9397 H   0  0  0  0  0  0  0  0  0  0  0  0
  1  2  1  0  0  0  0
  1 20  1  0  0  0  0
  1 21  1  0  0  0  0
  1 22  1  0  0  0  0
  2 19  1  0  0  0  0
  2  3  2  0  0  0  0
  3  4  1  0  0  0  0
  3 23  1  0  0  0  0
  4  5  1  0  0  0  0
  4 18  2  0  0  0  0
  5  6  1  0  0  0  0
  5 24  1  0  0  0  0
  6  7  2  0  0  0  0
  6  8  1  0  0  0  0
  8  9  1  0  0  0  0
  8 25  1  0  0  0  0
  9 10  1  0  0  0  0
  9 26  1  0  0  0  0
  9 27  1  0  0  0  0
 10 11  1  0  0  0  0
 10 28  1  0  0  0  0
 10 29  1  0  0  0  0
 11 17  1  0  0  0  0
 11 12  1  0  0  0  0
 11 42  1  0  0  0  0
 12 13  1  0  0  0  0
 12 30  1  0  0  0  0
 12 31  1  0  0  0  0
 13 14  1  0  0  0  0
 13 32  1  0  0  0  0
 13 33  1  0  0  0  0
 14 15  1  0  0  0  0
 14 34  1  0  0  0  0
 14 35  1  0  0  0  0
 15 16  1  0  0  0  0
 15 36  1  0  0  0  0
 15 37  1  0  0  0  0
 16 17  1  0  0  0  0
 16 38  1  0  0  0  0
 16 39  1  0  0  0  0
 17 40  1  0  0  0  0
 17 41  1  0  0  0  0
 18 19  1  0  0  0  0
M  CHG  1  11   1
M  END
> <s_m_source_file>
AV-unprocessed.smi

> <i_m_source_file_index>
2031

> <i_lp_mmshare_version>
43012

> <i_f3d_flags>
0

> <s_epik_input>
W0NIM11jMVtjSF1jKG5vMSlbTkhdQyg9TylbTkhdW0NIMl1bQ0gyXU4yW0NIMl1bQ0gyXVtDSDJdW0NIMl1bQ0gyXVtDSDJdMg==

> <s_epik_cmdline>
J2VwaWtfcHl0aG9uJywgJy1waCcsICc3LjAnLCAnLXRuJywgJzgnLCAnLW1hJywgJzIwMCcsICctbWV0YWxfYmluZGluZycsICctaW1hZScsICc8aW5maWxlLm1hZT4nLCAnLW9tYWUnLCAnPG91dGZpbGUubWFlPic=

> <r_epik_Ionization_Penalty>
0.00265971

> <r_epik_Ionization_Penalty_Charging>
0.00262393

> <r_epik_Ionization_Penalty_Neutral>
3.57846e-05

> <r_epik_State_Penalty>
0.00182566

> <r_epik_Charging_Adjusted_Penalty>
0.00444959

> <i_epik_Tot_Q>
1

> <i_epik_Tot_abs_Q>
1

> <r_epik_Metal_State_Penalty>
0.0216344

> <b_epik_Metal_Only>
0

> <s_lp_Force_Field>
OPLS_2005

> <r_lp_Energy>
20.9695

> <b_lp_Chiralities_Consistent>
1

> <s_lp_Variant>
AV-unprocessed.smi:2031-1

> <Gold.Version>
5.8.1

> <Gold.Id.Protein>
6NUR|6NUR_protein|mol2

> <Gold.PLP.Fitness>
45.9059

> <Gold.PLP.PLP>
-29.4670

> <Gold.PLP.part.hbond>
-5.8010

> <Gold.PLP.part.metal>
0.0000

> <Gold.PLP.part.buried>
-3.1851

> <Gold.PLP.part.nonpolar>
-20.8123

> <Gold.PLP.part.repulsive>
0.3419

> <Gold.PLP.ligand.clash>
0.0000

> <Gold.PLP.ligand.torsion>
0.8025

> <Gold.PLP.Chemscore.Hbond>
6.0000

> <Gold.PLP.Chemscore.CHOScore>
0.0000

> <Gold.PLP.Chemscore.Metal>
0.0000

> <Gold.Chemscore.Hbonds>
donor molecule, donor type, donor heavy atom, donor atom, acceptor molecule, acceptor atom, score
      L1  H     5    24       P1  7957  1.00
      L1  H     8    25       P1  7957  1.00
      L1  H    11    42       P1  7948  2.00
      P1  H  7989  7998       L1    18  1.00
      P1  H  7997  8009       L1    19  1.00

> <Gold.PLP.Chemscore.Internal.Correction>
0.0439

> <Gold.Rescore>
     Score         DG    S(hbond)    S(metal)    S(lipo)     H(rot)  DE(clash)    DE(int)     intcor
     22.91     -23.82       4.69        0.00      57.08       1.57       0.30       0.61       ----

> <Gold.Chemscore.Fitness>
22.9070

> <Gold.Chemscore.DG>
-23.8204

> <Gold.Chemscore.ZeroCoef>
-5.4800

> <Gold.Chemscore.Hbond>
4.6949

> <Gold.Chemscore.Metal>
0.0000

> <Gold.Chemscore.Lipo>
57.0755

> <Gold.Chemscore.Internal_Hbond>
0.0000

> <Gold.Chemscore.DEClash>
0.3044

> <Gold.Chemscore.DEInternal>
0.6090

> <Gold.Chemscore.Rot>
1.5697

> <Gold.Chemscore.Internal.Correction>
   9.000000E+99

> <Gold.Chemscore.Hbonds>
donor molecule, donor type, donor heavy atom, donor atom, acceptor molecule, acceptor atom, score
      L1  H     5    24       P1  7957  0.90
      L1  H     8    25       P1  7957  0.96
      L1  H    11    42       P1  7948  0.99
      P1  H  7989  7998       L1    18  0.77
      P1  H  7997  8009       L1    19  0.98

> <Gold.Chemscore.Hbond.Weighted>
-15.6811

> <Gold.Chemscore.Metal.Weighted>
-0.0000

> <Gold.Chemscore.Lipo.Weighted>
-6.6778

> <Gold.Chemscore.Internal_Hbond.Weighted>
0.0000

> <Gold.Chemscore.DEClash.Weighted>
0.3044

> <Gold.Chemscore.DEInternal.Weighted>
0.6090

> <Gold.Chemscore.Rot.Weighted>
4.0185

> <Gold.Chemscore.Internal.Correction.Weighted>
   9.000000E+99

> <Gold.Protein.RotatedTorsions>
[ 6907 6896 6895 6894 ] final  -47.00 input  -60.11 | X-H torsion
[ 7974 7965 7964 7962 ] final   36.18 input  175.53 | X-H torsion
[ 8008 7997 7996 7995 ] final -148.87 input   59.86 | X-H torsion
[ 10167 10162 10161 10158 ] final  -68.06 input  -65.29 | X-H torsion
[ 10718 10713 10712 10709 ] final  -74.85 input   66.30 | X-H torsion
[ 10763 10752 10751 10750 ] final -160.39 input  -60.55 | X-H torsion
[ 11005 11000 10999 10996 ] final -178.47 input  -57.11 | X-H torsion

> <Gold.Protein.ActiveResidues>
 VAL166  LYS551  ARG553  GLY616  TRP617  ASP618  TYR619  PRO620  LYS621  CYS622 
 ASP623  PHE694  ASN695  SER759  ASP760  ASP761  ALA762  ILE779  LEU786  VAL792 
 PHE793  MET794  SER795  GLU796  ALA797  LYS798  CYS799  TRP800  GLU811  SER814 

> <Gold.Protein.RotatedAtoms>
  150.9054  134.8469  159.7388 H   0  0  0  0  0  0  0  0  0  0  0  0  # atno 6907 bound_to 6896
  152.4915  134.4439  159.9562 H   0  0  0  0  0  0  0  0  0  0  0  0  # atno 6908 bound_to 6896
  151.4487  133.3584  159.2827 H   0  0  0  0  0  0  0  0  0  0  0  0  # atno 6909 bound_to 6896
  146.1230  139.6049  142.9277 H   0  0  0  0  0  0  0  0  0  0  0  0  # atno 7974 bound_to 7965
  155.5985  140.0659  157.2739 H   0  0  0  0  0  0  0  0  0  0  0  0  # atno 8008 bound_to 7997
  154.4285  140.1822  156.1196 H   0  0  0  0  0  0  0  0  0  0  0  0  # atno 8009 bound_to 7997
  156.0178  140.3320  155.7010 H   0  0  0  0  0  0  0  0  0  0  0  0  # atno 8010 bound_to 7997
  140.5536  143.2312  151.6864 H   0  0  0  0  0  0  0  0  0  0  0  0  # atno 10167 bound_to 10162
  156.0228  130.4427  150.2954 H   0  0  0  0  0  0  0  0  0  0  0  0  # atno 10718 bound_to 10713
  154.7394  135.3065  154.8754 H   0  0  0  0  0  0  0  0  0  0  0  0  # atno 10763 bound_to 10752
  153.9573  135.6757  153.4749 H   0  0  0  0  0  0  0  0  0  0  0  0  # atno 10764 bound_to 10752
  153.0994  135.4919  154.8763 H   0  0  0  0  0  0  0  0  0  0  0  0  # atno 10765 bound_to 10752
  140.4294  134.6533  157.4704 H   0  0  0  0  0  0  0  0  0  0  0  0  # atno 11005 bound_to 11000
  145.5426  141.0419  143.2322 LP  0  0  0  0  0  0  0  0  0  0  0  0  # atno 17320 bound_to 7965
  144.7615  139.6946  143.7232 LP  0  0  0  0  0  0  0  0  0  0  0  0  # atno 17321 bound_to 7965
  139.5038  144.3778  152.0406 LP  0  0  0  0  0  0  0  0  0  0  0  0  # atno 17342 bound_to 10162
  140.2897  144.3767  150.6092 LP  0  0  0  0  0  0  0  0  0  0  0  0  # atno 17343 bound_to 10162
  157.1057  131.0208  151.3068 LP  0  0  0  0  0  0  0  0  0  0  0  0  # atno 17370 bound_to 10713
  157.4744  130.7728  149.7354 LP  0  0  0  0  0  0  0  0  0  0  0  0  # atno 17371 bound_to 10713
  140.0145  134.6640  155.9331 LP  0  0  0  0  0  0  0  0  0  0  0  0  # atno 17394 bound_to 11000
  141.1752  133.6540  156.4800 LP  0  0  0  0  0  0  0  0  0  0  0  0  # atno 17395 bound_to 11000

$$$$
