#       Name:                AV-unprocessed.smi:1990
#       Creating user name   scv26
#       Creation time:       Fri Mar 27 10:27:19 2020


#       File generated by GOLD software.
#

@<TRIPOS>MOLECULE
AV-unprocessed.smi:1990
    52    53     1
SMALL
NO_CHARGES


@<TRIPOS>ATOM
      1 ****        -5.4964   1.0738  -2.0166 C.3            1 S1                 0.0000
      2 ****        -4.7937   0.5561  -0.7572 C.3            1 S1                 0.0000
      3 ****        -3.2681   0.7500  -0.8296 C.3            1 S1                 0.0000
      4 ****        -2.6470   0.3685   0.4347 N.3            1 S1                 0.0000
      5 ****        -1.2485   0.1807   0.4008 C.ar           1 S1                 0.0000
      6 ****        -0.6712  -0.6939  -0.5495 C.ar           1 S1                 0.0000
      7 ****         0.7257  -0.8701  -0.5658 C.ar           1 S1                 0.0000
      8 ****         1.5147  -0.1733   0.3782 C.ar           1 S1                 0.0000
      9 ****         2.9312  -0.2499   0.4501 N.am           1 S1                 0.0000
     10 ****         3.7411  -1.2319   0.0120 C.2            1 S1                 0.0000
     11 ****         3.3480  -2.2824  -0.4950 O.2            1 S1                 0.0000
     12 ****         5.2445  -0.9925   0.2095 C.3            1 S1                 0.0000
     13 ****         5.9616  -2.2494   0.7294 C.3            1 S1                 0.0000
     14 ****         6.0126  -0.4418  -1.3857 S.o2           1 S1                 0.0000
     15 ****         5.1377   1.1388  -1.7484 C.3            1 S1                 0.0000
     16 ****         7.4274  -0.1337  -1.1266 O.2            1 S1                 0.0000
     17 ****         5.6673  -1.4063  -2.4414 O.2            1 S1                 0.0000
     18 ****         0.8510   0.6840   1.2776 C.ar           1 S1                 0.0000
     19 ****        -0.4871   0.8541   1.2978 N.ar           1 S1                 0.0000
     20 ****        -3.2202   1.0585   1.5883 C.3            1 S1                 0.0000
     21 ****        -4.7529   0.8997   1.6235 C.3            1 S1                 0.0000
     22 ****        -5.2143  -0.4962   2.0791 C.3            1 S1                 0.0000
     23 ****        -5.3160   1.2697   0.3629 O.3            1 S1                 0.0000
     24 ****        -5.1443   0.5505  -2.9059 H              1 S1                 0.0000
     25 ****        -5.3143   2.1393  -2.1606 H              1 S1                 0.0000
     26 ****        -6.5746   0.9263  -1.9493 H              1 S1                 0.0000
     27 ****        -5.0231  -0.5050  -0.6566 H              1 S1                 0.0000
     28 ****        -2.8744   0.1712  -1.6641 H              1 S1                 0.0000
     29 ****        -3.0313   1.7954  -1.0318 H              1 S1                 0.0000
     30 ****        -1.2806  -1.2378  -1.2557 H              1 S1                 0.0000
     31 ****         1.1605  -1.5242  -1.3054 H              1 S1                 0.0000
     32 ****         3.3803   0.5113   0.9383 H              1 S1                 0.0000
     33 ****         5.3907  -0.1875   0.9305 H              1 S1                 0.0000
     34 ****         5.5080  -2.6131   1.6521 H              1 S1                 0.0000
     35 ****         7.0098  -2.0375   0.9413 H              1 S1                 0.0000
     36 ****         5.9327  -3.0590  -0.0010 H              1 S1                 0.0000
     37 ****         5.5788   1.5980  -2.6330 H              1 S1                 0.0000
     38 ****         5.2400   1.8172  -0.9019 H              1 S1                 0.0000
     39 ****         4.0824   0.9453  -1.9391 H              1 S1                 0.0000
     40 ****         1.4091   1.2488   2.0102 H              1 S1                 0.0000
     41 ****        -2.7914   0.6776   2.5161 H              1 S1                 0.0000
     42 ****        -2.9628   2.1168   1.5255 H              1 S1                 0.0000
     43 ****        -5.1430   1.6124   2.3505 H              1 S1                 0.0000
     44 ****        -4.8877  -0.6956   3.1000 H              1 S1                 0.0000
     45 ****        -4.8117  -1.2909   1.4516 H              1 S1                 0.0000
     46 ****        -6.3017  -0.5716   2.0604 H              1 S1                 0.0000
     47 ****        -2.9202  -0.5802   0.5941 LP             1 S1                 0.0000
     48 ****         2.3680  -2.4492  -0.6034 LP             1 S1                 0.0000
     49 ****         4.0087  -2.9690  -0.7985 LP             1 S1                 0.0000
     50 ****        -0.9108   1.4675   1.9642 LP             1 S1                 0.0000
     51 ****        -6.3020   1.1078   0.4029 LP             1 S1                 0.0000
     52 ****        -5.1437   2.2442   0.2190 LP             1 S1                 0.0000
@<TRIPOS>BOND
    1    1    2 1     
    2    1   24 1     
    3    1   25 1     
    4    1   26 1     
    5    2   23 1     
    6    2    3 1     
    7    2   27 1     
    8    3    4 1     
    9    3   28 1     
   10    3   29 1     
   11    4    5 1     
   12    4   20 1     
   13    5   19 ar    
   14    5    6 ar    
   15    6    7 ar    
   16    6   30 1     
   17    7    8 ar    
   18    7   31 1     
   19    8    9 1     
   20    8   18 ar    
   21    9   10 am    
   22    9   32 1     
   23   10   11 2     
   24   10   12 1     
   25   12   13 1     
   26   12   14 1     
   27   12   33 1     
   28   13   34 1     
   29   13   35 1     
   30   13   36 1     
   31   14   15 1     
   32   14   16 2     
   33   14   17 2     
   34   15   37 1     
   35   15   38 1     
   36   15   39 1     
   37   18   19 ar    
   38   18   40 1     
   39   20   21 1     
   40   20   41 1     
   41   20   42 1     
   42   21   22 1     
   43   21   23 1     
   44   21   43 1     
   45   22   44 1     
   46   22   45 1     
   47   22   46 1     
   48    4   47 1     
   49   11   48 1     
   50   11   49 1     
   51   19   50 1     
   52   23   51 1     
   53   23   52 1     
@<TRIPOS>SUBSTRUCTURE
      1 S1             1
@<TRIPOS>SET
LONE_PAIRS      STATIC     ATOMS    <user>   **** ""
8 47 48 49 16 17 50 51 52
DONOR_HYDROGENS      STATIC     ATOMS    <user>   **** ""
1 32
ATOM$BLUE        STATIC     ATOMS    COLORGROUP SYSTEM
8 47 48 49 16 17 50 51 52
ATOM$RED        STATIC     ATOMS    COLORGROUP SYSTEM
1 32
