AV-unprocessed.smi:1492|AV-procd|sdf|6045|dock2
  -GOLD-   22720 6153D 1   1.00000     0.00000
 Structure written by MMmdl.
 51 52  0  0  0  0  0  0  0  0  2 V2000
  145.1513  134.9660  150.7571 C   0  0  0  0  0  0  0  0  0  0  0  0
  145.4462  136.2094  151.6159 C   0  0  0  0  0  0  0  0  0  0  0  0
  144.9463  136.1727  153.0950 C   0  0  2  0  0  0  0  0  0  0  0  0
  145.3948  137.4808  153.8002 C   0  0  0  0  0  0  0  0  0  0  0  0
  145.6594  134.9978  153.8378 C   0  0  0  0  0  0  0  0  0  0  0  0
  147.0888  135.2415  154.0130 N   0  0  0  0  0  0  0  0  0  0  0  0
  147.8136  134.9788  155.1100 C   0  0  0  0  0  0  0  0  0  0  0  0
  147.3265  134.6335  156.1863 O   0  0  0  0  0  0  0  0  0  0  0  0
  149.3297  135.0895  154.9482 C   0  0  0  0  0  0  0  0  0  0  0  0
  150.1172  133.8818  155.4602 C   0  0  0  0  0  0  0  0  0  0  0  0
  150.0604  132.6509  154.8759 C   0  0  0  0  0  0  0  0  0  0  0  0
  149.1929  132.3499  153.6662 C   0  0  0  0  0  0  0  0  0  0  0  0
  150.8210  131.5766  155.3677 N   0  0  0  0  0  0  0  0  0  0  0  0
  151.5785  131.7537  156.3820 C   0  0  0  0  0  0  0  0  0  0  0  0
  152.3993  130.5879  156.8911 C   0  0  0  0  0  0  0  0  0  0  0  0
  151.7047  132.9529  157.0464 N   0  5  0  0  0  0  0  0  0  0  0  0
  151.0115  134.0465  156.6206 C   0  0  0  0  0  0  0  0  0  0  0  0
  151.1260  135.1440  157.1650 O   0  0  0  0  0  0  0  0  0  0  0  0
  143.4626  136.0305  153.1857 N   0  0  0  0  0  0  0  0  0  0  0  0
  142.9415  134.6746  152.9788 C   0  0  0  0  0  0  0  0  0  0  0  0
  141.4042  134.6517  152.9333 C   0  0  0  0  0  0  0  0  0  0  0  0
  140.8811  135.2089  154.1331 O   0  0  0  0  0  0  0  0  0  0  0  0
  141.3151  136.5473  154.3417 C   0  0  0  0  0  0  0  0  0  0  0  0
  142.8516  136.5898  154.3977 C   0  0  0  0  0  0  0  0  0  0  0  0
  145.5550  135.0977  149.7533 H   0  0  0  0  0  0  0  0  0  0  0  0
  144.0821  134.7870  150.6487 H   0  0  0  0  0  0  0  0  0  0  0  0
  145.6084  134.0667  151.1688 H   0  0  0  0  0  0  0  0  0  0  0  0
  146.5240  136.3664  151.5931 H   0  0  0  0  0  0  0  0  0  0  0  0
  145.0129  137.0658  151.0999 H   0  0  0  0  0  0  0  0  0  0  0  0
  146.4677  137.4975  153.9925 H   0  0  0  0  0  0  0  0  0  0  0  0
  144.8999  137.6050  154.7639 H   0  0  0  0  0  0  0  0  0  0  0  0
  145.1730  138.3655  153.2031 H   0  0  0  0  0  0  0  0  0  0  0  0
  145.2263  134.8477  154.8267 H   0  0  0  0  0  0  0  0  0  0  0  0
  145.5072  134.0508  153.3186 H   0  0  0  0  0  0  0  0  0  0  0  0
  147.5951  135.5229  153.1851 H   0  0  0  0  0  0  0  0  0  0  0  0
  149.5564  135.2860  153.8998 H   0  0  0  0  0  0  0  0  0  0  0  0
  149.6704  135.9795  155.4775 H   0  0  0  0  0  0  0  0  0  0  0  0
  149.4351  133.0198  152.8414 H   0  0  0  0  0  0  0  0  0  0  0  0
  148.1383  132.4704  153.9139 H   0  0  0  0  0  0  0  0  0  0  0  0
  149.3414  131.3270  153.3188 H   0  0  0  0  0  0  0  0  0  0  0  0
  153.1822  130.3389  156.1743 H   0  0  0  0  0  0  0  0  0  0  0  0
  151.7668  129.7108  157.0308 H   0  0  0  0  0  0  0  0  0  0  0  0
  152.8718  130.8222  157.8462 H   0  0  0  0  0  0  0  0  0  0  0  0
  143.3053  134.2546  152.0426 H   0  0  0  0  0  0  0  0  0  0  0  0
  143.2784  134.0129  153.7766 H   0  0  0  0  0  0  0  0  0  0  0  0
  141.0359  135.2105  152.0723 H   0  0  0  0  0  0  0  0  0  0  0  0
  141.0433  133.6286  152.8285 H   0  0  0  0  0  0  0  0  0  0  0  0
  140.9386  137.1894  153.5449 H   0  0  0  0  0  0  0  0  0  0  0  0
  140.8922  136.9171  155.2758 H   0  0  0  0  0  0  0  0  0  0  0  0
  143.1820  136.0363  155.2765 H   0  0  0  0  0  0  0  0  0  0  0  0
  143.1517  137.6256  154.5453 H   0  0  0  0  0  0  0  0  0  0  0  0
  1  2  1  0  0  0  0
  1 25  1  0  0  0  0
  1 26  1  0  0  0  0
  1 27  1  0  0  0  0
  2  3  1  0  0  0  0
  2 28  1  0  0  0  0
  2 29  1  0  0  0  0
  3  4  1  0  0  0  0
  3  5  1  0  0  0  0
  3 19  1  0  0  0  0
  4 30  1  0  0  0  0
  4 31  1  0  0  0  0
  4 32  1  0  0  0  0
  5  6  1  0  0  0  0
  5 33  1  0  0  0  0
  5 34  1  0  0  0  0
  6  7  1  0  0  0  0
  6 35  1  0  0  0  0
  7  8  2  0  0  0  0
  7  9  1  0  0  0  0
  9 10  1  0  0  0  0
  9 36  1  0  0  0  0
  9 37  1  0  0  0  0
 10 17  1  0  0  0  0
 10 11  2  0  0  0  0
 11 12  1  0  0  0  0
 11 13  1  0  0  0  0
 12 38  1  0  0  0  0
 12 39  1  0  0  0  0
 12 40  1  0  0  0  0
 13 14  2  0  0  0  0
 14 15  1  0  0  0  0
 14 16  1  0  0  0  0
 15 41  1  0  0  0  0
 15 42  1  0  0  0  0
 15 43  1  0  0  0  0
 16 17  1  0  0  0  0
 17 18  2  0  0  0  0
 19 24  1  0  0  0  0
 19 20  1  0  0  0  0
 20 21  1  0  0  0  0
 20 44  1  0  0  0  0
 20 45  1  0  0  0  0
 21 22  1  0  0  0  0
 21 46  1  0  0  0  0
 21 47  1  0  0  0  0
 22 23  1  0  0  0  0
 23 24  1  0  0  0  0
 23 48  1  0  0  0  0
 23 49  1  0  0  0  0
 24 50  1  0  0  0  0
 24 51  1  0  0  0  0
M  CHG  1  16  -1
M  END
> <s_m_source_file>
AV-unprocessed.smi

> <i_m_source_file_index>
1492

> <i_lp_mmshare_version>
43012

> <i_f3d_flags>
0

> <s_epik_input>
W0NIMl0xW0NIMl1PW0NIMl1bQ0gyXU4xW0NAQF0oW0NIM10pKFtDSDJdW0NIM10pW0NIMl1bTkhdQyg9TylbQ0gyXWMyYyhbQ0gzXSluYyhbQ0gzXSlbbkhdYzI9Tw==

> <s_epik_cmdline>
J2VwaWtfcHl0aG9uJywgJy1waCcsICc3LjAnLCAnLXRuJywgJzgnLCAnLW1hJywgJzIwMCcsICctbWV0YWxfYmluZGluZycsICctaW1hZScsICc8aW5maWxlLm1hZT4nLCAnLW9tYWUnLCAnPG91dGZpbGUubWFlPic=

> <r_lp_tautomer_probability>
0.839158

> <r_epik_Ionization_Penalty>
6.88574

> <r_epik_Ionization_Penalty_Charging>
6.74373e-08

> <r_epik_Ionization_Penalty_Neutral>
6.88574

> <r_epik_State_Penalty>
4.79448

> <r_epik_Charging_Adjusted_Penalty>
4.79448

> <i_epik_Tot_Q>
-1

> <i_epik_Tot_abs_Q>
1

> <r_epik_Metal_State_Penalty>
1.16421

> <b_epik_Metal_Only>
1

> <s_lp_Force_Field>
OPLS_2005

> <r_lp_Energy>
46.4707

> <b_lp_Chiralities_Consistent>
1

> <s_lp_Variant>
AV-unprocessed.smi:1492-10

> <Gold.Version>
5.8.1

> <Gold.Id.Protein>
6NUR|6NUR_protein|mol2

> <Gold.PLP.Fitness>
39.8549

> <Gold.PLP.PLP>
-31.5725

> <Gold.PLP.part.hbond>
-4.0000

> <Gold.PLP.part.metal>
0.0000

> <Gold.PLP.part.buried>
-5.2299

> <Gold.PLP.part.nonpolar>
-23.4400

> <Gold.PLP.part.repulsive>
0.2473

> <Gold.PLP.ligand.clash>
0.0000

> <Gold.PLP.ligand.torsion>
1.0836

> <Gold.PLP.Chemscore.Hbond>
3.4274

> <Gold.PLP.Chemscore.CHOScore>
0.0000

> <Gold.PLP.Chemscore.Metal>
0.0000

> <Gold.Chemscore.Hbonds>
donor molecule, donor type, donor heavy atom, donor atom, acceptor molecule, acceptor atom, score
      L1  H     6    35       P1  7948  1.00
      P1  H  6896  6909       L1    16  0.71
      P1  H 11000 11005       L1    22  1.00

> <Gold.PLP.Chemscore.Internal.Correction>
0.1674

> <Gold.Rescore>
     Score         DG    S(hbond)    S(metal)    S(lipo)     H(rot)  DE(clash)    DE(int)     intcor
     14.87     -15.95       2.35        0.00      67.34       2.05       0.01       1.07       ----

> <Gold.Chemscore.Fitness>
14.8745

> <Gold.Chemscore.DG>
-15.9542

> <Gold.Chemscore.ZeroCoef>
-5.4800

> <Gold.Chemscore.Hbond>
2.3454

> <Gold.Chemscore.Metal>
0.0000

> <Gold.Chemscore.Lipo>
67.3377

> <Gold.Chemscore.Internal_Hbond>
0.0000

> <Gold.Chemscore.DEClash>
0.0133

> <Gold.Chemscore.DEInternal>
1.0664

> <Gold.Chemscore.Rot>
2.0461

> <Gold.Chemscore.Internal.Correction>
   9.000000E+99

> <Gold.Chemscore.Hbonds>
donor molecule, donor type, donor heavy atom, donor atom, acceptor molecule, acceptor atom, score
      L1  H     6    35       P1  7948  0.95
      P1  H  6896  6909       L1    16  0.05
      P1  H 11000 11005       L1    22  0.89

> <Gold.Chemscore.Hbond.Weighted>
-7.8337

> <Gold.Chemscore.Metal.Weighted>
-0.0000

> <Gold.Chemscore.Lipo.Weighted>
-7.8785

> <Gold.Chemscore.Internal_Hbond.Weighted>
0.0000

> <Gold.Chemscore.DEClash.Weighted>
0.0133

> <Gold.Chemscore.DEInternal.Weighted>
1.0664

> <Gold.Chemscore.Rot.Weighted>
5.2381

> <Gold.Chemscore.Internal.Correction.Weighted>
   9.000000E+99

> <Gold.Protein.RotatedTorsions>
[ 6907 6896 6895 6894 ] final  -46.86 input  -60.11 | X-H torsion
[ 7974 7965 7964 7962 ] final   51.45 input  175.53 | X-H torsion
[ 8008 7997 7996 7995 ] final  -39.78 input   59.86 | X-H torsion
[ 10167 10162 10161 10158 ] final   38.71 input  -65.29 | X-H torsion
[ 10718 10713 10712 10709 ] final  -95.76 input   66.30 | X-H torsion
[ 10763 10752 10751 10750 ] final  -52.45 input  -60.55 | X-H torsion
[ 11005 11000 10999 10996 ] final   22.40 input  -57.11 | X-H torsion

> <Gold.Protein.ActiveResidues>
 VAL166  LYS551  ARG553  GLY616  TRP617  ASP618  TYR619  PRO620  LYS621  CYS622 
 ASP623  PHE694  ASN695  SER759  ASP760  ASP761  ALA762  ILE779  LEU786  VAL792 
 PHE793  MET794  SER795  GLU796  ALA797  LYS798  CYS799  TRP800  GLU811  SER814 

> <Gold.Protein.RotatedAtoms>
  150.9068  134.8483  159.7397 H   0  0  0  0  0  0  0  0  0  0  0  0  # atno 6907 bound_to 6896
  152.4922  134.4420  159.9556 H   0  0  0  0  0  0  0  0  0  0  0  0  # atno 6908 bound_to 6896
  151.4466  133.3589  159.2824 H   0  0  0  0  0  0  0  0  0  0  0  0  # atno 6909 bound_to 6896
  145.9912  139.4341  143.0072 H   0  0  0  0  0  0  0  0  0  0  0  0  # atno 7974 bound_to 7965
  154.4019  140.1542  156.2919 H   0  0  0  0  0  0  0  0  0  0  0  0  # atno 8008 bound_to 7997
  155.8777  140.3445  155.5844 H   0  0  0  0  0  0  0  0  0  0  0  0  # atno 8009 bound_to 7997
  155.7702  140.0829  157.2102 H   0  0  0  0  0  0  0  0  0  0  0  0  # atno 8010 bound_to 7997
  140.3910  144.1852  150.6131 H   0  0  0  0  0  0  0  0  0  0  0  0  # atno 10167 bound_to 10162
  156.0049  130.5123  150.6125 H   0  0  0  0  0  0  0  0  0  0  0  0  # atno 10718 bound_to 10713
  154.1430  135.6502  153.4946 H   0  0  0  0  0  0  0  0  0  0  0  0  # atno 10763 bound_to 10752
  153.0160  135.5320  154.6886 H   0  0  0  0  0  0  0  0  0  0  0  0  # atno 10764 bound_to 10752
  154.6152  135.2958  155.0358 H   0  0  0  0  0  0  0  0  0  0  0  0  # atno 10765 bound_to 10752
  140.3810  134.1921  155.7663 H   0  0  0  0  0  0  0  0  0  0  0  0  # atno 11005 bound_to 11000
  145.7627  140.9929  143.1191 LP  0  0  0  0  0  0  0  0  0  0  0  0  # atno 17320 bound_to 7965
  144.6889  139.9350  143.7473 LP  0  0  0  0  0  0  0  0  0  0  0  0  # atno 17321 bound_to 7965
  140.4839  143.2369  151.8915 LP  0  0  0  0  0  0  0  0  0  0  0  0  # atno 17342 bound_to 10162
  139.4789  144.5239  151.8762 LP  0  0  0  0  0  0  0  0  0  0  0  0  # atno 17343 bound_to 10162
  157.3955  131.0802  151.1356 LP  0  0  0  0  0  0  0  0  0  0  0  0  # atno 17370 bound_to 10713
  157.2034  130.6405  149.5747 LP  0  0  0  0  0  0  0  0  0  0  0  0  # atno 17371 bound_to 10713
  141.1923  133.8175  157.0843 LP  0  0  0  0  0  0  0  0  0  0  0  0  # atno 17394 bound_to 11000
  140.0479  134.9821  157.1082 LP  0  0  0  0  0  0  0  0  0  0  0  0  # atno 17395 bound_to 11000

$$$$
