AV-unprocessed.smi:22|AV-procd|sdf|172|dock5
  -GOLD-   2262015423D 1   1.00000     0.00000
 Structure written by MMmdl.
 56 59  0  0  0  0  0  0  0  0  2 V2000
  145.7739  129.8621  151.5197 C   0  0  0  0  0  0  0  0  0  0  0  0
  146.2602  131.2170  151.1480 N   0  3  1  0  0  0  0  0  0  0  0  0
  145.3635  131.8867  150.1586 C   0  0  0  0  0  0  0  0  0  0  0  0
  143.8676  131.8350  150.5252 C   0  0  0  0  0  0  0  0  0  0  0  0
  143.0739  132.0135  149.3707 O   0  0  0  0  0  0  0  0  0  0  0  0
  146.6039  132.0240  152.3648 C   0  0  0  0  0  0  0  0  0  0  0  0
  147.4604  133.2882  152.0963 C   0  0  0  0  0  0  0  0  0  0  0  0
  147.7969  134.0342  153.3979 C   0  0  0  0  0  0  0  0  0  0  0  0
  148.4502  133.1472  154.3571 N   0  0  0  0  0  0  0  0  0  0  0  0
  149.0720  133.7839  155.3832 C   0  0  0  0  0  0  0  0  0  0  0  0
  150.4299  133.8610  155.4099 N   0  0  0  0  0  0  0  0  0  0  0  0
  151.0529  134.4741  156.4205 C   0  0  0  0  0  0  0  0  0  0  0  0
  150.5214  135.0708  157.4885 N   0  0  0  0  0  0  0  0  0  0  0  0
  149.1596  135.0082  157.4640 C   0  0  0  0  0  0  0  0  0  0  0  0
  148.3623  134.3879  156.4603 C   0  0  0  0  0  0  0  0  0  0  0  0
  147.0156  134.5300  156.7741 N   0  0  0  0  0  0  0  0  0  0  0  0
  147.0177  135.1851  157.9030 C   0  0  0  0  0  0  0  0  0  0  0  0
  148.2627  135.5217  158.3848 N   0  0  0  0  0  0  0  0  0  0  0  0
  148.5616  136.2497  159.6092 C   0  0  0  0  0  0  0  0  0  0  0  0
  147.3499  136.3907  160.5628 C   0  0  2  0  0  0  0  0  0  0  0  0
  146.4103  137.2800  159.9873 O   0  0  0  0  0  0  0  0  0  0  0  0
  147.7514  136.9171  161.9429 C   0  0  0  0  0  0  0  0  0  0  0  0
  147.5745  135.7098  162.8559 C   0  0  0  0  0  0  0  0  0  0  0  0
  146.4605  135.0484  162.2842 O   0  0  0  0  0  0  0  0  0  0  0  0
  146.6523  135.0522  160.8771 C   0  0  0  0  0  0  0  0  0  0  0  0
  147.7002  131.9313  154.6701 C   0  0  0  0  0  0  0  0  0  0  0  0
  147.3607  131.1491  153.3917 C   0  0  0  0  0  0  0  0  0  0  0  0
  144.7504  129.9069  151.8939 H   0  0  0  0  0  0  0  0  0  0  0  0
  146.3871  129.4032  152.2933 H   0  0  0  0  0  0  0  0  0  0  0  0
  145.8011  129.1810  150.6702 H   0  0  0  0  0  0  0  0  0  0  0  0
  145.6762  132.9248  150.0359 H   0  0  0  0  0  0  0  0  0  0  0  0
  145.4543  131.4094  149.1836 H   0  0  0  0  0  0  0  0  0  0  0  0
  143.5926  130.9112  151.0329 H   0  0  0  0  0  0  0  0  0  0  0  0
  143.6372  132.6428  151.2204 H   0  0  0  0  0  0  0  0  0  0  0  0
  142.5097  132.7607  149.5044 H   0  0  0  0  0  0  0  0  0  0  0  0
  145.6685  132.3651  152.8128 H   0  0  0  0  0  0  0  0  0  0  0  0
  148.3889  133.0131  151.5937 H   0  0  0  0  0  0  0  0  0  0  0  0
  146.9352  133.9845  151.4424 H   0  0  0  0  0  0  0  0  0  0  0  0
  148.4202  134.8963  153.1634 H   0  0  0  0  0  0  0  0  0  0  0  0
  146.8841  134.4254  153.8490 H   0  0  0  0  0  0  0  0  0  0  0  0
  152.1314  134.4896  156.3649 H   0  0  0  0  0  0  0  0  0  0  0  0
  146.1030  135.4444  158.4160 H   0  0  0  0  0  0  0  0  0  0  0  0
  149.3815  135.7399  160.1168 H   0  0  0  0  0  0  0  0  0  0  0  0
  148.9406  137.2353  159.3355 H   0  0  0  0  0  0  0  0  0  0  0  0
  145.7759  136.7735  159.5033 H   0  0  0  0  0  0  0  0  0  0  0  0
  148.7653  137.3170  161.9784 H   0  0  0  0  0  0  0  0  0  0  0  0
  147.0775  137.7105  162.2712 H   0  0  0  0  0  0  0  0  0  0  0  0
  148.4498  135.0588  162.8202 H   0  0  0  0  0  0  0  0  0  0  0  0
  147.3913  135.9886  163.8937 H   0  0  0  0  0  0  0  0  0  0  0  0
  145.7115  134.9113  160.3433 H   0  0  0  0  0  0  0  0  0  0  0  0
  147.2975  134.2072  160.6351 H   0  0  0  0  0  0  0  0  0  0  0  0
  148.2838  131.2947  155.3367 H   0  0  0  0  0  0  0  0  0  0  0  0
  146.7829  132.1968  155.1976 H   0  0  0  0  0  0  0  0  0  0  0  0
  146.7826  130.2694  153.6707 H   0  0  0  0  0  0  0  0  0  0  0  0
  148.2828  130.7758  152.9432 H   0  0  0  0  0  0  0  0  0  0  0  0
  147.1340  131.0836  150.6583 H   0  0  0  0  0  0  0  0  0  0  0  0
  1  2  1  0  0  0  0
  1 28  1  0  0  0  0
  1 29  1  0  0  0  0
  1 30  1  0  0  0  0
  2  3  1  0  0  0  0
  2  6  1  0  0  0  0
  2 56  1  0  0  0  0
  3  4  1  0  0  0  0
  3 31  1  0  0  0  0
  3 32  1  0  0  0  0
  4  5  1  0  0  0  0
  4 33  1  0  0  0  0
  4 34  1  0  0  0  0
  5 35  1  0  0  0  0
  6 27  1  0  0  0  0
  6  7  1  0  0  0  0
  6 36  1  0  0  0  0
  7  8  1  0  0  0  0
  7 37  1  0  0  0  0
  7 38  1  0  0  0  0
  8  9  1  0  0  0  0
  8 39  1  0  0  0  0
  8 40  1  0  0  0  0
  9 10  1  0  0  0  0
  9 26  1  0  0  0  0
 10 15  1  0  0  0  0
 10 11  2  0  0  0  0
 11 12  1  0  0  0  0
 12 13  2  0  0  0  0
 12 41  1  0  0  0  0
 13 14  1  0  0  0  0
 14 18  1  0  0  0  0
 14 15  2  0  0  0  0
 15 16  1  0  0  0  0
 16 17  2  0  0  0  0
 17 18  1  0  0  0  0
 17 42  1  0  0  0  0
 18 19  1  0  0  0  0
 19 20  1  0  0  0  0
 19 43  1  0  0  0  0
 19 44  1  0  0  0  0
 20 25  1  0  0  0  0
 20 21  1  0  0  0  0
 20 22  1  0  0  0  0
 21 45  1  0  0  0  0
 22 23  1  0  0  0  0
 22 46  1  0  0  0  0
 22 47  1  0  0  0  0
 23 24  1  0  0  0  0
 23 48  1  0  0  0  0
 23 49  1  0  0  0  0
 24 25  1  0  0  0  0
 25 50  1  0  0  0  0
 25 51  1  0  0  0  0
 26 27  1  0  0  0  0
 26 52  1  0  0  0  0
 26 53  1  0  0  0  0
 27 54  1  0  0  0  0
 27 55  1  0  0  0  0
M  CHG  1   2   1
M  END
> <s_m_source_file>
AV-unprocessed.smi

> <i_m_source_file_index>
22

> <i_lp_mmshare_version>
43012

> <i_f3d_flags>
0

> <s_epik_input>
W09IXVtDSDJdW0NIMl1OKFtDSDNdKVtDSF0xW0NIMl1bQ0gyXU4oW0NIMl1bQ0gyXTEpYyhuW2NIXW4yKWMoYzIzKW5bY0hdbjNbQ0gyXVtDQEBdNChbT0hdKVtDSDJdW0NIMl1PW0NIMl00

> <s_epik_cmdline>
J2VwaWtfcHl0aG9uJywgJy1waCcsICc3LjAnLCAnLXRuJywgJzgnLCAnLW1hJywgJzIwMCcsICctbWV0YWxfYmluZGluZycsICctaW1hZScsICc8aW5maWxlLm1hZT4nLCAnLW9tYWUnLCAnPG91dGZpbGUubWFlPic=

> <r_lp_tautomer_probability>
1

> <r_epik_Ionization_Penalty>
0.00317524

> <r_epik_Ionization_Penalty_Charging>
0.00191487

> <r_epik_Ionization_Penalty_Neutral>
0.00126037

> <r_epik_State_Penalty>
-0

> <r_epik_Charging_Adjusted_Penalty>
0.00191487

> <i_epik_Tot_Q>
1

> <i_epik_Tot_abs_Q>
1

> <r_epik_Metal_State_Penalty>
-0

> <b_epik_Metal_Only>
0

> <s_lp_Force_Field>
OPLS_2005

> <r_lp_Energy>
50.3895

> <b_lp_Chiralities_Consistent>
1

> <s_lp_Variant>
AV-unprocessed.smi:22-4

> <Gold.Version>
5.8.1

> <Gold.Id.Protein>
6NUR|6NUR_protein|mol2

> <Gold.PLP.Fitness>
49.2369

> <Gold.PLP.PLP>
-38.7737

> <Gold.PLP.part.hbond>
-5.7486

> <Gold.PLP.part.metal>
0.0000

> <Gold.PLP.part.buried>
-2.8927

> <Gold.PLP.part.nonpolar>
-30.7047

> <Gold.PLP.part.repulsive>
0.1247

> <Gold.PLP.ligand.clash>
0.0190

> <Gold.PLP.ligand.torsion>
0.8193

> <Gold.PLP.Chemscore.Hbond>
3.8410

> <Gold.PLP.Chemscore.CHOScore>
0.0000

> <Gold.PLP.Chemscore.Metal>
0.0000

> <Gold.Chemscore.Hbonds>
donor molecule, donor type, donor heavy atom, donor atom, acceptor molecule, acceptor atom, score
      L1  H     2    56       P1 10747  1.00
      L1  H     5    35       P1 10186  0.49
      P1  H  6896  6908       L1    13  0.32
      P1  H  6934  6947       L1    21  0.64
      P1  H 10785 10796       L1     5  0.80

> <Gold.PLP.Chemscore.Internal.Correction>
0.5979

> <Gold.Rescore>
     Score         DG    S(hbond)    S(metal)    S(lipo)     H(rot)  DE(clash)    DE(int)     intcor
     11.96     -15.45       2.59        0.00      93.48       3.76       0.50       3.00       ----

> <Gold.Chemscore.Fitness>
11.9569

> <Gold.Chemscore.DG>
-15.4524

> <Gold.Chemscore.ZeroCoef>
-5.4800

> <Gold.Chemscore.Hbond>
2.5918

> <Gold.Chemscore.Metal>
0.0000

> <Gold.Chemscore.Lipo>
93.4788

> <Gold.Chemscore.Internal_Hbond>
0.0000

> <Gold.Chemscore.DEClash>
0.4991

> <Gold.Chemscore.DEInternal>
2.9964

> <Gold.Chemscore.Rot>
3.7583

> <Gold.Chemscore.Internal.Correction>
   9.000000E+99

> <Gold.Chemscore.Hbonds>
donor molecule, donor type, donor heavy atom, donor atom, acceptor molecule, acceptor atom, score
      L1  H     2    56       P1 10747  1.00
      L1  H     5    35       P1 10186  0.50
      P1  H  6896  6908       L1    13  0.03
      P1  H  6934  6947       L1    21  0.09
      P1  H 10785 10796       L1     5  0.12

> <Gold.Chemscore.Hbond.Weighted>
-8.6566

> <Gold.Chemscore.Metal.Weighted>
-0.0000

> <Gold.Chemscore.Lipo.Weighted>
-10.9370

> <Gold.Chemscore.Internal_Hbond.Weighted>
0.0000

> <Gold.Chemscore.DEClash.Weighted>
0.4991

> <Gold.Chemscore.DEInternal.Weighted>
2.9964

> <Gold.Chemscore.Rot.Weighted>
9.6213

> <Gold.Chemscore.Internal.Correction.Weighted>
   9.000000E+99

> <Gold.Protein.RotatedTorsions>
[ 6907 6896 6895 6894 ] final  144.60 input  -60.11 | X-H torsion
[ 7974 7965 7964 7962 ] final   46.69 input  175.53 | X-H torsion
[ 8008 7997 7996 7995 ] final  -71.82 input   59.86 | X-H torsion
[ 10167 10162 10161 10158 ] final   64.24 input  -65.29 | X-H torsion
[ 10718 10713 10712 10709 ] final  -61.03 input   66.30 | X-H torsion
[ 10763 10752 10751 10750 ] final  120.71 input  -60.55 | X-H torsion
[ 11005 11000 10999 10996 ] final   43.13 input  -57.11 | X-H torsion

> <Gold.Protein.ActiveResidues>
 VAL166  LYS551  ARG553  GLY616  TRP617  ASP618  TYR619  PRO620  LYS621  CYS622 
 ASP623  PHE694  ASN695  SER759  ASP760  ASP761  ALA762  ILE779  LEU786  VAL792 
 PHE793  MET794  SER795  GLU796  ALA797  LYS798  CYS799  TRP800  GLU811  SER814 

> <Gold.Protein.RotatedAtoms>
  152.1916  133.4777  159.5010 H   0  0  0  0  0  0  0  0  0  0  0  0  # atno 6907 bound_to 6896
  150.6952  134.1704  159.4219 H   0  0  0  0  0  0  0  0  0  0  0  0  # atno 6908 bound_to 6896
  151.9619  135.0119  160.0599 H   0  0  0  0  0  0  0  0  0  0  0  0  # atno 6909 bound_to 6896
  146.0367  139.4829  142.9804 H   0  0  0  0  0  0  0  0  0  0  0  0  # atno 7974 bound_to 7965
  154.5118  140.0808  156.8004 H   0  0  0  0  0  0  0  0  0  0  0  0  # atno 8008 bound_to 7997
  155.3769  140.3426  155.4227 H   0  0  0  0  0  0  0  0  0  0  0  0  # atno 8009 bound_to 7997
  156.1581  140.1580  156.8645 H   0  0  0  0  0  0  0  0  0  0  0  0  # atno 8010 bound_to 7997
  140.1243  144.4702  150.6902 H   0  0  0  0  0  0  0  0  0  0  0  0  # atno 10167 bound_to 10162
  156.0950  130.4194  150.0937 H   0  0  0  0  0  0  0  0  0  0  0  0  # atno 10718 bound_to 10713
  153.6027  135.3445  155.2951 H   0  0  0  0  0  0  0  0  0  0  0  0  # atno 10763 bound_to 10752
  154.8633  135.4231  154.2395 H   0  0  0  0  0  0  0  0  0  0  0  0  # atno 10764 bound_to 10752
  153.3227  135.7039  153.7088 H   0  0  0  0  0  0  0  0  0  0  0  0  # atno 10765 bound_to 10752
  140.1674  134.4265  155.8279 H   0  0  0  0  0  0  0  0  0  0  0  0  # atno 11005 bound_to 11000
  145.6952  141.0152  143.1533 LP  0  0  0  0  0  0  0  0  0  0  0  0  # atno 17320 bound_to 7965
  144.7055  139.8580  143.7431 LP  0  0  0  0  0  0  0  0  0  0  0  0  # atno 17321 bound_to 7965
  140.6854  143.2347  151.5274 LP  0  0  0  0  0  0  0  0  0  0  0  0  # atno 17342 bound_to 10162
  139.5552  144.2293  152.1600 LP  0  0  0  0  0  0  0  0  0  0  0  0  # atno 17343 bound_to 10162
  156.8938  130.9597  151.3585 LP  0  0  0  0  0  0  0  0  0  0  0  0  # atno 17370 bound_to 10713
  157.6108  130.8581  149.8949 LP  0  0  0  0  0  0  0  0  0  0  0  0  # atno 17371 bound_to 10713
  141.2215  133.6940  156.7702 LP  0  0  0  0  0  0  0  0  0  0  0  0  # atno 17394 bound_to 11000
  140.2418  134.8608  157.3581 LP  0  0  0  0  0  0  0  0  0  0  0  0  # atno 17395 bound_to 11000

$$$$
