AV-unprocessed.smi:2041|AV-procd|sdf|8291|dock2
  -GOLD-   2272010553D 1   1.00000     0.00000
 Structure written by MMmdl.
 31 32  0  0  0  0  0  0  0  0  1 V2000
  150.0849  140.9431  157.6791 O   0  0  0  0  0  0  0  0  0  0  0  0
  149.8994  142.0546  157.1825 C   0  0  0  0  0  0  0  0  0  0  0  0
  150.3379  143.2182  157.6940 N   0  0  0  0  0  0  0  0  0  0  0  0
  151.0862  143.4287  158.8817 C   0  0  0  0  0  0  0  0  0  0  0  0
  151.7823  142.4768  159.5146 N   0  0  0  0  0  0  0  0  0  0  0  0
  152.4221  142.9664  160.6562 C   0  0  0  0  0  0  0  0  0  0  0  0
  152.2001  144.3025  160.8794 C   0  0  0  0  0  0  0  0  0  0  0  0
  151.1736  145.0037  159.6570 S   0  0  0  0  0  0  0  0  0  0  0  0
  149.2190  142.2524  156.0439 N   0  0  0  0  0  0  0  0  0  0  0  0
  148.6210  141.2068  155.2119 C   0  0  1  0  0  0  0  0  0  0  0  0
  147.7956  141.8425  154.0705 C   0  0  0  0  0  0  0  0  0  0  0  0
  146.7159  140.9161  153.4884 C   0  0  0  0  0  0  0  0  0  0  0  0
  147.2517  139.6430  152.8168 C   0  0  0  0  0  0  0  0  0  0  0  0
  147.9467  138.6771  153.7915 C   0  0  0  0  0  0  0  0  0  0  0  0
  149.3092  139.0867  154.1091 N   0  0  0  0  0  0  0  0  0  0  0  0
  149.6936  140.2090  154.7360 C   0  0  0  0  0  0  0  0  0  0  0  0
  150.8879  140.4423  154.9217 O   0  0  0  0  0  0  0  0  0  0  0  0
  150.1078  144.0518  157.1735 H   0  0  0  0  0  0  0  0  0  0  0  0
  153.0173  142.2921  161.2541 H   0  0  0  0  0  0  0  0  0  0  0  0
  152.5774  144.9139  161.6855 H   0  0  0  0  0  0  0  0  0  0  0  0
  149.1214  143.1994  155.7073 H   0  0  0  0  0  0  0  0  0  0  0  0
  147.9437  140.6410  155.8545 H   0  0  0  0  0  0  0  0  0  0  0  0
  147.2888  142.7352  154.4398 H   0  0  0  0  0  0  0  0  0  0  0  0
  148.4585  142.1895  153.2765 H   0  0  0  0  0  0  0  0  0  0  0  0
  146.0095  140.6439  154.2738 H   0  0  0  0  0  0  0  0  0  0  0  0
  146.1392  141.4781  152.7532 H   0  0  0  0  0  0  0  0  0  0  0  0
  146.4074  139.1227  152.3633 H   0  0  0  0  0  0  0  0  0  0  0  0
  147.9203  139.8996  151.9939 H   0  0  0  0  0  0  0  0  0  0  0  0
  147.3641  138.5505  154.7052 H   0  0  0  0  0  0  0  0  0  0  0  0
  148.0102  137.6910  153.3312 H   0  0  0  0  0  0  0  0  0  0  0  0
  150.0411  138.4575  153.8120 H   0  0  0  0  0  0  0  0  0  0  0  0
  1  2  2  0  0  0  0
  2  3  1  0  0  0  0
  2  9  1  0  0  0  0
  3  4  1  0  0  0  0
  3 18  1  0  0  0  0
  4  8  1  0  0  0  0
  4  5  2  0  0  0  0
  5  6  1  0  0  0  0
  6  7  2  0  0  0  0
  6 19  1  0  0  0  0
  7  8  1  0  0  0  0
  7 20  1  0  0  0  0
  9 10  1  0  0  0  0
  9 21  1  0  0  0  0
 10 16  1  0  0  0  0
 10 11  1  0  0  0  0
 10 22  1  0  0  0  0
 11 12  1  0  0  0  0
 11 23  1  0  0  0  0
 11 24  1  0  0  0  0
 12 13  1  0  0  0  0
 12 25  1  0  0  0  0
 12 26  1  0  0  0  0
 13 14  1  0  0  0  0
 13 27  1  0  0  0  0
 13 28  1  0  0  0  0
 14 15  1  0  0  0  0
 14 29  1  0  0  0  0
 14 30  1  0  0  0  0
 15 16  1  0  0  0  0
 15 31  1  0  0  0  0
 16 17  2  0  0  0  0
M  END
> <s_m_source_file>
AV-unprocessed.smi

> <i_m_source_file_index>
2041

> <i_lp_mmshare_version>
43012

> <i_f3d_flags>
0

> <s_epik_input>
czFbY0hdW2NIXW5jMVtOSF1DKD1PKVtOSF1bQ0BASF0yW0NIMl1bQ0gyXVtDSDJdW0NIMl1bTkhdQzI9Tw==

> <s_epik_cmdline>
J2VwaWtfcHl0aG9uJywgJy1waCcsICc3LjAnLCAnLXRuJywgJzgnLCAnLW1hJywgJzIwMCcsICctbWV0YWxfYmluZGluZycsICctaW1hZScsICc8aW5maWxlLm1hZT4nLCAnLW9tYWUnLCAnPG91dGZpbGUubWFlPic=

> <r_lp_tautomer_probability>
1

> <r_epik_Ionization_Penalty>
0.000247973

> <r_epik_Ionization_Penalty_Charging>
0

> <r_epik_Ionization_Penalty_Neutral>
0.000247973

> <r_epik_State_Penalty>
-0

> <r_epik_Charging_Adjusted_Penalty>
0

> <i_epik_Tot_Q>
0

> <i_epik_Tot_abs_Q>
0

> <r_epik_Metal_State_Penalty>
0.011719

> <b_epik_Metal_Only>
0

> <s_lp_Force_Field>
OPLS_2005

> <r_lp_Energy>
8.61141

> <b_lp_Chiralities_Consistent>
1

> <s_lp_Variant>
AV-unprocessed.smi:2041-2

> <Gold.Version>
5.8.1

> <Gold.Id.Protein>
6NUR|6NUR_protein|mol2

> <Gold.PLP.Fitness>
40.7818

> <Gold.PLP.PLP>
-32.3729

> <Gold.PLP.part.hbond>
-3.6921

> <Gold.PLP.part.metal>
0.0000

> <Gold.PLP.part.buried>
-2.7923

> <Gold.PLP.part.nonpolar>
-26.8446

> <Gold.PLP.part.repulsive>
0.2835

> <Gold.PLP.ligand.clash>
0.0000

> <Gold.PLP.ligand.torsion>
0.0937

> <Gold.PLP.Chemscore.Hbond>
2.8564

> <Gold.PLP.Chemscore.CHOScore>
0.0000

> <Gold.PLP.Chemscore.Metal>
0.0000

> <Gold.Chemscore.Hbonds>
donor molecule, donor type, donor heavy atom, donor atom, acceptor molecule, acceptor atom, score
      L1  H     3    18       P1  8028  0.86
      L1  H     9    21       P1  8028  1.00
      P1  H  7989  7998       L1    17  1.00

> <Gold.PLP.Chemscore.Internal.Correction>
0.0270

> <Gold.Rescore>
     Score         DG    S(hbond)    S(metal)    S(lipo)     H(rot)  DE(clash)    DE(int)     intcor
     18.22     -19.67       2.84        0.00      62.15       1.00       0.01       1.44       ----

> <Gold.Chemscore.Fitness>
18.2199

> <Gold.Chemscore.DG>
-19.6672

> <Gold.Chemscore.ZeroCoef>
-5.4800

> <Gold.Chemscore.Hbond>
2.8370

> <Gold.Chemscore.Metal>
0.0000

> <Gold.Chemscore.Lipo>
62.1509

> <Gold.Chemscore.Internal_Hbond>
0.0000

> <Gold.Chemscore.DEClash>
0.0095

> <Gold.Chemscore.DEInternal>
1.4379

> <Gold.Chemscore.Rot>
1.0000

> <Gold.Chemscore.Internal.Correction>
   9.000000E+99

> <Gold.Chemscore.Hbonds>
donor molecule, donor type, donor heavy atom, donor atom, acceptor molecule, acceptor atom, score
      L1  H     3    18       P1  8028  0.67
      L1  H     9    21       P1  8028  0.93
      P1  H  7989  7998       L1    17  0.76

> <Gold.Chemscore.Hbond.Weighted>
-9.4756

> <Gold.Chemscore.Metal.Weighted>
-0.0000

> <Gold.Chemscore.Lipo.Weighted>
-7.2717

> <Gold.Chemscore.Internal_Hbond.Weighted>
0.0000

> <Gold.Chemscore.DEClash.Weighted>
0.0095

> <Gold.Chemscore.DEInternal.Weighted>
1.4379

> <Gold.Chemscore.Rot.Weighted>
2.5600

> <Gold.Chemscore.Internal.Correction.Weighted>
   9.000000E+99

> <Gold.Protein.RotatedTorsions>
[ 6907 6896 6895 6894 ] final  121.14 input  -60.11 | X-H torsion
[ 7974 7965 7964 7962 ] final  109.92 input  175.53 | X-H torsion
[ 8008 7997 7996 7995 ] final   46.69 input   59.86 | X-H torsion
[ 10167 10162 10161 10158 ] final   27.94 input  -65.29 | X-H torsion
[ 10718 10713 10712 10709 ] final -154.11 input   66.30 | X-H torsion
[ 10763 10752 10751 10750 ] final  -40.04 input  -60.55 | X-H torsion
[ 11005 11000 10999 10996 ] final   84.64 input  -57.11 | X-H torsion

> <Gold.Protein.ActiveResidues>
 VAL166  LYS551  ARG553  GLY616  TRP617  ASP618  TYR619  PRO620  LYS621  CYS622 
 ASP623  PHE694  ASN695  SER759  ASP760  ASP761  ALA762  ILE779  LEU786  VAL792 
 PHE793  MET794  SER795  GLU796  ALA797  LYS798  CYS799  TRP800  GLU811  SER814 

> <Gold.Protein.RotatedAtoms>
  152.4344  133.7335  159.6600 H   0  0  0  0  0  0  0  0  0  0  0  0  # atno 6907 bound_to 6896
  150.8226  133.8215  159.3138 H   0  0  0  0  0  0  0  0  0  0  0  0  # atno 6908 bound_to 6896
  151.5893  135.1056  160.0087 H   0  0  0  0  0  0  0  0  0  0  0  0  # atno 6909 bound_to 6896
  145.2616  139.2700  143.4014 H   0  0  0  0  0  0  0  0  0  0  0  0  # atno 7974 bound_to 7965
  155.3567  140.3416  155.4240 H   0  0  0  0  0  0  0  0  0  0  0  0  # atno 8008 bound_to 7997
  156.1735  140.1640  156.8439 H   0  0  0  0  0  0  0  0  0  0  0  0  # atno 8009 bound_to 7997
  154.5258  140.0756  156.8238 H   0  0  0  0  0  0  0  0  0  0  0  0  # atno 8010 bound_to 7997
  140.4895  144.0489  150.6292 H   0  0  0  0  0  0  0  0  0  0  0  0  # atno 10167 bound_to 10162
  156.4949  130.8364  151.2585 H   0  0  0  0  0  0  0  0  0  0  0  0  # atno 10718 bound_to 10713
  153.9394  135.6763  153.4744 H   0  0  0  0  0  0  0  0  0  0  0  0  # atno 10763 bound_to 10752
  153.0939  135.4861  154.8739 H   0  0  0  0  0  0  0  0  0  0  0  0  # atno 10764 bound_to 10752
  154.7385  135.3155  154.8727 H   0  0  0  0  0  0  0  0  0  0  0  0  # atno 10765 bound_to 10752
  139.8994  134.8230  156.2472 H   0  0  0  0  0  0  0  0  0  0  0  0  # atno 11005 bound_to 11000
  146.3273  140.3035  142.8622 LP  0  0  0  0  0  0  0  0  0  0  0  0  # atno 17320 bound_to 7965
  144.9413  140.8081  143.5628 LP  0  0  0  0  0  0  0  0  0  0  0  0  # atno 17321 bound_to 7965
  140.3754  143.2831  152.0230 LP  0  0  0  0  0  0  0  0  0  0  0  0  # atno 17342 bound_to 10162
  139.4848  144.6197  151.7279 LP  0  0  0  0  0  0  0  0  0  0  0  0  # atno 17343 bound_to 10162
  157.7469  131.0001  150.2914 LP  0  0  0  0  0  0  0  0  0  0  0  0  # atno 17370 bound_to 10713
  156.3390  130.3812  149.7425 LP  0  0  0  0  0  0  0  0  0  0  0  0  # atno 17371 bound_to 10713
  141.0247  133.7022  156.1327 LP  0  0  0  0  0  0  0  0  0  0  0  0  # atno 17394 bound_to 11000
  140.7183  134.4386  157.5577 LP  0  0  0  0  0  0  0  0  0  0  0  0  # atno 17395 bound_to 11000

$$$$
