#       Name:                AV-unprocessed.smi:3277
#       Creating user name   scv26
#       Creation time:       Fri Mar 27 18:45:26 2020


#       File generated by GOLD software.
#

@<TRIPOS>MOLECULE
AV-unprocessed.smi:3277
    38    40     1
SMALL
NO_CHARGES


@<TRIPOS>ATOM
      1 ****        -3.4519   0.7535   2.4030 C.3            1 S1                 0.0000
      2 ****        -2.0059   0.8617   2.5137 N.am           1 S1                 0.0000
      3 ****        -1.3510   1.9996   2.7900 C.2            1 S1                 0.0000
      4 ****        -1.9166   3.0736   2.9953 O.2            1 S1                 0.0000
      5 ****         0.1757   1.9161   2.8440 C.3            1 S1                 0.0000
      6 ****         0.6866   1.9323   1.4394 C.2            1 S1                 0.0000
      7 ****         0.8239   0.8335   0.6931 N.2            1 S1                 0.0000
      8 ****         1.2941   1.1015  -0.5977 C.2            1 S1                 0.0000
      9 ****         1.4769   0.0011  -1.6138 C.3            1 S1                 0.0000
     10 ****         2.2306  -1.2477  -1.1046 C.3            1 S1                 0.0000
     11 ****         1.3127  -2.3988  -1.5620 C.3            1 S1                 0.0000
     12 ****         0.0476  -2.4248  -0.6811 C.3            1 S1                 0.0000
     13 ****        -0.7545  -1.2158  -1.1991 C.3            1 S1                 0.0000
     14 ****         0.1969  -0.6016  -2.2462 C.3            1 S1                 0.0000
     15 ****         0.7639  -1.8681  -2.8826 C.3            1 S1                 0.0000
     16 ****         1.5327   2.4377  -0.8071 C.2            1 S1                 0.0000
     17 ****         1.1635   3.4009   0.5974 S.3            1 S1                 0.0000
     18 ****        -3.7286  -0.2675   2.1410 H              1 S1                 0.0000
     19 ****        -3.8328   1.4189   1.6275 H              1 S1                 0.0000
     20 ****        -3.9338   1.0068   3.3480 H              1 S1                 0.0000
     21 ****        -1.4652   0.0237   2.3536 H              1 S1                 0.0000
     22 ****         0.5861   2.7628   3.3951 H              1 S1                 0.0000
     23 ****         0.4953   1.0029   3.3479 H              1 S1                 0.0000
     24 ****         2.0662   0.4102  -2.4365 H              1 S1                 0.0000
     25 ****         3.2155  -1.3172  -1.5680 H              1 S1                 0.0000
     26 ****         2.3767  -1.2613  -0.0240 H              1 S1                 0.0000
     27 ****         1.8196  -3.3620  -1.6259 H              1 S1                 0.0000
     28 ****        -0.5142  -3.3479  -0.8283 H              1 S1                 0.0000
     29 ****         0.2833  -2.3421   0.3806 H              1 S1                 0.0000
     30 ****        -1.6709  -1.5568  -1.6827 H              1 S1                 0.0000
     31 ****        -1.0552  -0.5267  -0.4122 H              1 S1                 0.0000
     32 ****        -0.3044   0.0739  -2.9401 H              1 S1                 0.0000
     33 ****         1.5391  -1.6737  -3.6261 H              1 S1                 0.0000
     34 ****         0.0015  -2.5122  -3.3247 H              1 S1                 0.0000
     35 ****         1.8949   2.9147  -1.7057 H              1 S1                 0.0000
     36 ****        -2.9145   3.1279   2.9602 LP             1 S1                 0.0000
     37 ****        -1.3781   3.8917   3.1971 LP             1 S1                 0.0000
     38 ****         0.6125  -0.0867   1.0227 LP             1 S1                 0.0000
@<TRIPOS>BOND
    1    1    2 1     
    2    1   18 1     
    3    1   19 1     
    4    1   20 1     
    5    2    3 am    
    6    2   21 1     
    7    3    4 2     
    8    3    5 1     
    9    5    6 1     
   10    5   22 1     
   11    5   23 1     
   12    6   17 1     
   13    6    7 2     
   14    7    8 1     
   15    8    9 1     
   16    8   16 2     
   17    9   14 1     
   18    9   10 1     
   19    9   24 1     
   20   10   11 1     
   21   10   25 1     
   22   10   26 1     
   23   11   15 1     
   24   11   12 1     
   25   11   27 1     
   26   12   13 1     
   27   12   28 1     
   28   12   29 1     
   29   13   14 1     
   30   13   30 1     
   31   13   31 1     
   32   14   15 1     
   33   14   32 1     
   34   15   33 1     
   35   15   34 1     
   36   16   17 1     
   37   16   35 1     
   38    4   36 1     
   39    4   37 1     
   40    7   38 1     
@<TRIPOS>SUBSTRUCTURE
      1 S1             1
@<TRIPOS>SET
LONE_PAIRS      STATIC     ATOMS    <user>   **** ""
3 36 37 38
DONOR_HYDROGENS      STATIC     ATOMS    <user>   **** ""
1 21
ATOM$BLUE        STATIC     ATOMS    COLORGROUP SYSTEM
3 36 37 38
ATOM$RED        STATIC     ATOMS    COLORGROUP SYSTEM
1 21
