AV-unprocessed.smi:227|AV-procd|sdf|1729|dock8
  -GOLD-   2262020223D 1   1.00000     0.00000
 Structure written by MMmdl.
 54 58  0  0  0  0  0  0  0  0  1 V2000
  149.8639  138.5696  154.0294 O   0  0  0  0  0  0  0  0  0  0  0  0
  150.4741  139.4990  154.9003 C   0  0  0  0  0  0  0  0  0  0  0  0
  149.4293  140.2463  155.7686 C   0  0  2  0  0  0  0  0  0  0  0  0
  148.2653  140.7936  154.9032 C   0  0  0  0  0  0  0  0  0  0  0  0
  147.4636  139.7544  154.2804 N   0  0  0  0  0  0  0  0  0  0  0  0
  147.2190  139.5948  152.9363 C   0  0  0  0  0  0  0  0  0  0  0  0
  146.4610  138.5789  152.6289 N   0  0  0  0  0  0  0  0  0  0  0  0
  146.1515  137.9923  153.8515 C   0  0  0  0  0  0  0  0  0  0  0  0
  145.3788  136.8630  154.2554 C   0  0  0  0  0  0  0  0  0  0  0  0
  144.7176  136.0331  153.4008 N   0  0  0  0  0  0  0  0  0  0  0  0
  143.6003  135.2208  153.8555 C   0  0  1  0  0  0  0  0  0  0  0  0
  142.4492  136.2312  154.0288 C   0  0  0  0  0  0  0  0  0  0  0  0
  142.7411  137.2167  152.8859 C   0  0  0  0  0  0  0  0  0  0  0  0
  144.0015  136.5840  152.2565 C   0  0  2  0  0  0  0  0  0  0  0  0
  143.5839  135.3251  151.4680 C   0  0  1  0  0  0  0  0  0  0  0  0
  144.6700  134.8498  150.4862 C   0  0  0  0  0  0  0  0  0  0  0  0
  145.0419  135.9035  149.6231 O   0  0  0  0  0  0  0  0  0  0  0  0
  143.3211  134.3403  152.6260 C   0  0  0  0  0  0  0  0  0  0  0  0
  145.2832  136.6243  155.5909 N   0  0  0  0  0  0  0  0  0  0  0  0
  145.9129  137.4076  156.4702 C   0  0  0  0  0  0  0  0  0  0  0  0
  146.6769  138.4750  156.2372 N   0  0  0  0  0  0  0  0  0  0  0  0
  146.7667  138.7338  154.9019 C   0  0  0  0  0  0  0  0  0  0  0  0
  150.0634  141.3990  156.5948 C   0  0  2  0  0  0  0  0  0  0  0  0
  151.2459  141.0184  157.4694 C   0  0  0  0  0  0  0  0  0  0  0  0
  151.3205  142.1871  158.4452 C   0  0  0  0  0  0  0  0  0  0  0  0
  149.9786  142.6234  158.6235 O   0  0  0  0  0  0  0  0  0  0  0  0
  149.1364  142.0122  157.6517 C   0  0  0  0  0  0  0  0  0  0  0  0
  149.6565  139.0080  153.2182 H   0  0  0  0  0  0  0  0  0  0  0  0
  151.2051  138.9885  155.5278 H   0  0  0  0  0  0  0  0  0  0  0  0
  151.0322  140.1834  154.2633 H   0  0  0  0  0  0  0  0  0  0  0  0
  148.9996  139.5249  156.4656 H   0  0  0  0  0  0  0  0  0  0  0  0
  147.5885  141.4015  155.5034 H   0  0  0  0  0  0  0  0  0  0  0  0
  148.6549  141.4463  154.1208 H   0  0  0  0  0  0  0  0  0  0  0  0
  147.6281  140.2554  152.1859 H   0  0  0  0  0  0  0  0  0  0  0  0
  143.7814  134.6171  154.7425 H   0  0  0  0  0  0  0  0  0  0  0  0
  141.4661  135.7663  153.9488 H   0  0  0  0  0  0  0  0  0  0  0  0
  142.5100  136.7335  154.9951 H   0  0  0  0  0  0  0  0  0  0  0  0
  141.9141  137.3083  152.1812 H   0  0  0  0  0  0  0  0  0  0  0  0
  142.9553  138.2100  153.2819 H   0  0  0  0  0  0  0  0  0  0  0  0
  144.5726  137.2865  151.6480 H   0  0  0  0  0  0  0  0  0  0  0  0
  142.6682  135.5203  150.9075 H   0  0  0  0  0  0  0  0  0  0  0  0
  145.5558  134.5237  151.0320 H   0  0  0  0  0  0  0  0  0  0  0  0
  144.3254  134.0003  149.8957 H   0  0  0  0  0  0  0  0  0  0  0  0
  145.6274  135.5598  148.9657 H   0  0  0  0  0  0  0  0  0  0  0  0
  144.0140  133.4979  152.5991 H   0  0  0  0  0  0  0  0  0  0  0  0
  142.3073  133.9389  152.6173 H   0  0  0  0  0  0  0  0  0  0  0  0
  145.7863  137.1407  157.5091 H   0  0  0  0  0  0  0  0  0  0  0  0
  150.3833  142.1919  155.9164 H   0  0  0  0  0  0  0  0  0  0  0  0
  151.0392  140.0929  158.0088 H   0  0  0  0  0  0  0  0  0  0  0  0
  152.1731  140.8914  156.9106 H   0  0  0  0  0  0  0  0  0  0  0  0
  151.7815  141.9108  159.3937 H   0  0  0  0  0  0  0  0  0  0  0  0
  151.8966  143.0064  158.0135 H   0  0  0  0  0  0  0  0  0  0  0  0
  148.4436  142.7404  157.2296 H   0  0  0  0  0  0  0  0  0  0  0  0
  148.5508  141.2371  158.1482 H   0  0  0  0  0  0  0  0  0  0  0  0
  1  2  1  0  0  0  0
  1 28  1  0  0  0  0
  2  3  1  0  0  0  0
  2 29  1  0  0  0  0
  2 30  1  0  0  0  0
  3  4  1  0  0  0  0
  3 23  1  0  0  0  0
  3 31  1  0  0  0  0
  4  5  1  0  0  0  0
  4 32  1  0  0  0  0
  4 33  1  0  0  0  0
  5 22  1  0  0  0  0
  5  6  1  0  0  0  0
  6  7  2  0  0  0  0
  6 34  1  0  0  0  0
  7  8  1  0  0  0  0
  8 22  2  0  0  0  0
  8  9  1  0  0  0  0
  9 10  1  0  0  0  0
  9 19  2  0  0  0  0
 10 14  1  0  0  0  0
 10 11  1  0  0  0  0
 11 18  1  0  0  0  0
 11 12  1  0  0  0  0
 11 35  1  0  0  0  0
 12 13  1  0  0  0  0
 12 36  1  0  0  0  0
 12 37  1  0  0  0  0
 13 14  1  0  0  0  0
 13 38  1  0  0  0  0
 13 39  1  0  0  0  0
 14 15  1  0  0  0  0
 14 40  1  0  0  0  0
 15 16  1  0  0  0  0
 15 18  1  0  0  0  0
 15 41  1  0  0  0  0
 16 17  1  0  0  0  0
 16 42  1  0  0  0  0
 16 43  1  0  0  0  0
 17 44  1  0  0  0  0
 18 45  1  0  0  0  0
 18 46  1  0  0  0  0
 19 20  1  0  0  0  0
 20 21  2  0  0  0  0
 20 47  1  0  0  0  0
 21 22  1  0  0  0  0
 23 27  1  0  0  0  0
 23 24  1  0  0  0  0
 23 48  1  0  0  0  0
 24 25  1  0  0  0  0
 24 49  1  0  0  0  0
 24 50  1  0  0  0  0
 25 26  1  0  0  0  0
 25 51  1  0  0  0  0
 25 52  1  0  0  0  0
 26 27  1  0  0  0  0
 27 53  1  0  0  0  0
 27 54  1  0  0  0  0
M  END
> <s_m_source_file>
AV-unprocessed.smi

> <i_m_source_file_index>
227

> <i_lp_mmshare_version>
43012

> <i_f3d_flags>
0

> <s_epik_input>
W0NIMl0xT1tDSDJdW0NIMl1bQ0BIXTFbQ0BIXShbQ0gyXVtPSF0pW0NIMl1uKFtjSF1uMiljKGMyMyluW2NIXW5jM04oW0NASF00NSlbQ0BASF0oW0NIMl1bQ0gyXTQpW0NASF0oW0NIMl01KVtDSDJdW09IXQ==

> <s_epik_cmdline>
J2VwaWtfcHl0aG9uJywgJy1waCcsICc3LjAnLCAnLXRuJywgJzgnLCAnLW1hJywgJzIwMCcsICctbWV0YWxfYmluZGluZycsICctaW1hZScsICc8aW5maWxlLm1hZT4nLCAnLW9tYWUnLCAnPG91dGZpbGUubWFlPic=

> <r_lp_tautomer_probability>
1

> <r_epik_Ionization_Penalty>
0.0055791

> <r_epik_Ionization_Penalty_Charging>
0

> <r_epik_Ionization_Penalty_Neutral>
0.0055791

> <r_epik_State_Penalty>
0.00401299

> <r_epik_Charging_Adjusted_Penalty>
0.00401299

> <i_epik_Tot_Q>
0

> <i_epik_Tot_abs_Q>
0

> <r_epik_Metal_State_Penalty>
-0

> <b_epik_Metal_Only>
0

> <s_lp_Force_Field>
OPLS_2005

> <r_lp_Energy>
88.7609

> <b_lp_Chiralities_Consistent>
1

> <s_lp_Variant>
AV-unprocessed.smi:227-3

> <Gold.Version>
5.8.1

> <Gold.Id.Protein>
6NUR|6NUR_protein|mol2

> <Gold.PLP.Fitness>
40.9371

> <Gold.PLP.PLP>
-33.8783

> <Gold.PLP.part.hbond>
-3.6966

> <Gold.PLP.part.metal>
0.0000

> <Gold.PLP.part.buried>
-3.3525

> <Gold.PLP.part.nonpolar>
-27.6342

> <Gold.PLP.part.repulsive>
0.4775

> <Gold.PLP.ligand.clash>
0.0000

> <Gold.PLP.ligand.torsion>
0.7277

> <Gold.PLP.Chemscore.Hbond>
2.0000

> <Gold.PLP.Chemscore.CHOScore>
0.8064

> <Gold.PLP.Chemscore.Metal>
0.0000

> <Gold.Chemscore.Hbonds>
donor molecule, donor type, donor heavy atom, donor atom, acceptor molecule, acceptor atom, score
      L1  H     1    28       P1  7957  0.34
      L1  H    17    44       P1  7921  1.00
      L1  C     6    34       P1  7957  0.95

> <Gold.PLP.Chemscore.Internal.Correction>
0.0949

> <Gold.Rescore>
     Score         DG    S(hbond)    S(metal)    S(lipo)     H(rot)  DE(clash)    DE(int)     intcor
      8.39     -11.93       1.98        0.00      77.55       3.61       1.19       2.35       ----

> <Gold.Chemscore.Fitness>
8.3947

> <Gold.Chemscore.DG>
-11.9337

> <Gold.Chemscore.ZeroCoef>
-5.4800

> <Gold.Chemscore.Hbond>
1.9803

> <Gold.Chemscore.Metal>
0.0000

> <Gold.Chemscore.Lipo>
77.5520

> <Gold.Chemscore.Internal_Hbond>
0.0000

> <Gold.Chemscore.DEClash>
1.1858

> <Gold.Chemscore.DEInternal>
2.3532

> <Gold.Chemscore.Rot>
3.6071

> <Gold.Chemscore.Internal.Correction>
   9.000000E+99

> <Gold.Chemscore.Hbonds>
donor molecule, donor type, donor heavy atom, donor atom, acceptor molecule, acceptor atom, score
      L1  H     1    28       P1  7957  0.35
      L1  H    17    44       P1  7921  0.98

> <Gold.Chemscore.Hbond.Weighted>
-6.6143

> <Gold.Chemscore.Metal.Weighted>
-0.0000

> <Gold.Chemscore.Lipo.Weighted>
-9.0736

> <Gold.Chemscore.Internal_Hbond.Weighted>
0.0000

> <Gold.Chemscore.DEClash.Weighted>
1.1858

> <Gold.Chemscore.DEInternal.Weighted>
2.3532

> <Gold.Chemscore.Rot.Weighted>
9.2342

> <Gold.Chemscore.Internal.Correction.Weighted>
   9.000000E+99

> <Gold.Protein.RotatedTorsions>
[ 6907 6896 6895 6894 ] final  144.25 input  -60.11 | X-H torsion
[ 7974 7965 7964 7962 ] final  -28.57 input  175.53 | X-H torsion
[ 8008 7997 7996 7995 ] final   89.40 input   59.86 | X-H torsion
[ 10167 10162 10161 10158 ] final  -18.07 input  -65.29 | X-H torsion
[ 10718 10713 10712 10709 ] final -135.58 input   66.30 | X-H torsion
[ 10763 10752 10751 10750 ] final    6.02 input  -60.55 | X-H torsion
[ 11005 11000 10999 10996 ] final  119.86 input  -57.11 | X-H torsion

> <Gold.Protein.ActiveResidues>
 VAL166  LYS551  ARG553  GLY616  TRP617  ASP618  TYR619  PRO620  LYS621  CYS622 
 ASP623  PHE694  ASN695  SER759  ASP760  ASP761  ALA762  ILE779  LEU786  VAL792 
 PHE793  MET794  SER795  GLU796  ALA797  LYS798  CYS799  TRP800  GLU811  SER814 

> <Gold.Protein.RotatedAtoms>
  152.1960  133.4807  159.5032 H   0  0  0  0  0  0  0  0  0  0  0  0  # atno 6907 bound_to 6896
  150.6960  134.1652  159.4200 H   0  0  0  0  0  0  0  0  0  0  0  0  # atno 6908 bound_to 6896
  151.9568  135.0142  160.0596 H   0  0  0  0  0  0  0  0  0  0  0  0  # atno 6909 bound_to 6896
  146.1279  140.5299  142.8706 H   0  0  0  0  0  0  0  0  0  0  0  0  # atno 7974 bound_to 7965
  155.9995  140.3361  155.6832 H   0  0  0  0  0  0  0  0  0  0  0  0  # atno 8008 bound_to 7997
  155.6309  140.0685  157.2667 H   0  0  0  0  0  0  0  0  0  0  0  0  # atno 8009 bound_to 7997
  154.4245  140.1760  156.1459 H   0  0  0  0  0  0  0  0  0  0  0  0  # atno 8010 bound_to 7997
  140.7254  143.4952  150.9939 H   0  0  0  0  0  0  0  0  0  0  0  0  # atno 10167 bound_to 10162
  156.2677  130.7247  151.1203 H   0  0  0  0  0  0  0  0  0  0  0  0  # atno 10718 bound_to 10713
  153.2526  135.6915  153.7663 H   0  0  0  0  0  0  0  0  0  0  0  0  # atno 10763 bound_to 10752
  153.6752  135.3337  155.3164 H   0  0  0  0  0  0  0  0  0  0  0  0  # atno 10764 bound_to 10752
  154.8400  135.4509  154.1488 H   0  0  0  0  0  0  0  0  0  0  0  0  # atno 10765 bound_to 10752
  139.9163  134.9631  156.7720 H   0  0  0  0  0  0  0  0  0  0  0  0  # atno 11005 bound_to 11000
  144.7660  140.5532  143.6702 LP  0  0  0  0  0  0  0  0  0  0  0  0  # atno 17320 bound_to 7965
  145.5326  139.1475  143.3491 LP  0  0  0  0  0  0  0  0  0  0  0  0  # atno 17321 bound_to 7965
  139.8659  143.7255  152.3170 LP  0  0  0  0  0  0  0  0  0  0  0  0  # atno 17342 bound_to 10162
  139.7486  144.7540  151.0541 LP  0  0  0  0  0  0  0  0  0  0  0  0  # atno 17343 bound_to 10162
  157.7273  131.0640  150.5871 LP  0  0  0  0  0  0  0  0  0  0  0  0  # atno 17370 bound_to 10713
  156.5965  130.4343  149.5915 LP  0  0  0  0  0  0  0  0  0  0  0  0  # atno 17371 bound_to 10713
  140.6613  133.9642  155.7806 LP  0  0  0  0  0  0  0  0  0  0  0  0  # atno 17394 bound_to 11000
  141.0641  134.0303  157.3618 LP  0  0  0  0  0  0  0  0  0  0  0  0  # atno 17395 bound_to 11000

$$$$
