AV-unprocessed.smi:2383|AV-procd|sdf|9461|dock1
  -GOLD-   2272013 83D 1   1.00000     0.00000
 Structure written by MMmdl.
 37 38  0  0  0  0  0  0  0  0  1 V2000
  153.2754  141.6792  160.8513 C   0  0  0  0  0  0  0  0  0  0  0  0
  152.4757  142.7990  160.2193 C   0  0  0  0  0  0  0  0  0  0  0  0
  152.4653  144.0900  160.7831 C   0  0  0  0  0  0  0  0  0  0  0  0
  151.7029  145.0851  160.1459 C   0  0  0  0  0  0  0  0  0  0  0  0
  150.9883  144.7512  158.9792 C   0  0  0  0  0  0  0  0  0  0  0  0
  151.0541  143.4321  158.4769 C   0  0  0  0  0  0  0  0  0  0  0  0
  150.3014  143.1994  157.2948 N   0  0  0  0  0  0  0  0  0  0  0  0
  149.9839  142.0215  156.7288 C   0  0  0  0  0  0  0  0  0  0  0  0
  150.2961  140.9135  157.1661 O   0  0  0  0  0  0  0  0  0  0  0  0
  149.2753  142.1998  155.6040 N   0  0  0  0  0  0  0  0  0  0  0  0
  148.7886  141.1331  154.7334 C   0  0  2  0  0  0  0  0  0  0  0  0
  147.7142  141.6719  153.7673 C   0  0  0  0  0  0  0  0  0  0  0  0
  147.1324  140.5527  152.8859 C   0  0  0  0  0  0  0  0  0  0  0  0
  146.5934  139.3733  153.7172 C   0  0  2  0  0  0  0  0  0  0  0  0
  145.4198  139.7600  154.4053 O   0  0  0  0  0  0  0  0  0  0  0  0
  147.6472  138.8573  154.7152 C   0  0  0  0  0  0  0  0  0  0  0  0
  148.2239  139.9847  155.5896 C   0  0  0  0  0  0  0  0  0  0  0  0
  151.7917  142.4791  159.0997 N   0  0  0  0  0  0  0  0  0  0  0  0
  153.6619  141.9721  161.8278 H   0  0  0  0  0  0  0  0  0  0  0  0
  154.1199  141.4134  160.2148 H   0  0  0  0  0  0  0  0  0  0  0  0
  152.6531  140.7937  160.9854 H   0  0  0  0  0  0  0  0  0  0  0  0
  153.0254  144.3144  161.6790 H   0  0  0  0  0  0  0  0  0  0  0  0
  151.6665  146.0884  160.5440 H   0  0  0  0  0  0  0  0  0  0  0  0
  150.3982  145.5043  158.4772 H   0  0  0  0  0  0  0  0  0  0  0  0
  149.9762  144.0274  156.8185 H   0  0  0  0  0  0  0  0  0  0  0  0
  149.0644  143.1453  155.3209 H   0  0  0  0  0  0  0  0  0  0  0  0
  149.6235  140.7402  154.1496 H   0  0  0  0  0  0  0  0  0  0  0  0
  146.9103  142.1434  154.3342 H   0  0  0  0  0  0  0  0  0  0  0  0
  148.1371  142.4503  153.1312 H   0  0  0  0  0  0  0  0  0  0  0  0
  146.3478  140.9518  152.2423 H   0  0  0  0  0  0  0  0  0  0  0  0
  147.9147  140.1879  152.2193 H   0  0  0  0  0  0  0  0  0  0  0  0
  146.3129  138.5626  153.0438 H   0  0  0  0  0  0  0  0  0  0  0  0
  144.7811  140.0492  153.7716 H   0  0  0  0  0  0  0  0  0  0  0  0
  147.2219  138.0742  155.3443 H   0  0  0  0  0  0  0  0  0  0  0  0
  148.4619  138.3904  154.1601 H   0  0  0  0  0  0  0  0  0  0  0  0
  149.0058  139.5814  156.2343 H   0  0  0  0  0  0  0  0  0  0  0  0
  147.4454  140.3651  156.2525 H   0  0  0  0  0  0  0  0  0  0  0  0
  1  2  1  0  0  0  0
  1 19  1  0  0  0  0
  1 20  1  0  0  0  0
  1 21  1  0  0  0  0
  2 18  1  0  0  0  0
  2  3  2  0  0  0  0
  3  4  1  0  0  0  0
  3 22  1  0  0  0  0
  4  5  2  0  0  0  0
  4 23  1  0  0  0  0
  5  6  1  0  0  0  0
  5 24  1  0  0  0  0
  6  7  1  0  0  0  0
  6 18  2  0  0  0  0
  7  8  1  0  0  0  0
  7 25  1  0  0  0  0
  8  9  2  0  0  0  0
  8 10  1  0  0  0  0
 10 11  1  0  0  0  0
 10 26  1  0  0  0  0
 11 17  1  0  0  0  0
 11 12  1  0  0  0  0
 11 27  1  0  0  0  0
 12 13  1  0  0  0  0
 12 28  1  0  0  0  0
 12 29  1  0  0  0  0
 13 14  1  0  0  0  0
 13 30  1  0  0  0  0
 13 31  1  0  0  0  0
 14 15  1  0  0  0  0
 14 16  1  0  0  0  0
 14 32  1  0  0  0  0
 15 33  1  0  0  0  0
 16 17  1  0  0  0  0
 16 34  1  0  0  0  0
 16 35  1  0  0  0  0
 17 36  1  0  0  0  0
 17 37  1  0  0  0  0
M  END
> <s_m_source_file>
AV-unprocessed.smi

> <i_m_source_file_index>
2383

> <i_lp_mmshare_version>
43012

> <i_f3d_flags>
0

> <s_epik_input>
W0NIM11jMVtjSF1bY0hdW2NIXWMobjEpW05IXUMoPU8pW05IXVtDQEBIXTJbQ0gyXVtDSDJdW0NAQEhdKFtPSF0pW0NIMl1bQ0gyXTI=

> <s_epik_cmdline>
J2VwaWtfcHl0aG9uJywgJy1waCcsICc3LjAnLCAnLXRuJywgJzgnLCAnLW1hJywgJzIwMCcsICctbWV0YWxfYmluZGluZycsICctaW1hZScsICc8aW5maWxlLm1hZT4nLCAnLW9tYWUnLCAnPG91dGZpbGUubWFlPic=

> <r_lp_tautomer_probability>
1

> <r_epik_Ionization_Penalty>
9.15533e-05

> <r_epik_Ionization_Penalty_Charging>
0

> <r_epik_Ionization_Penalty_Neutral>
9.15533e-05

> <r_epik_State_Penalty>
-0

> <r_epik_Charging_Adjusted_Penalty>
0

> <i_epik_Tot_Q>
0

> <i_epik_Tot_abs_Q>
0

> <r_epik_Metal_State_Penalty>
-0

> <b_epik_Metal_Only>
0

> <s_lp_Force_Field>
OPLS_2005

> <r_lp_Energy>
13.5371

> <b_lp_Chiralities_Consistent>
1

> <s_lp_Variant>
AV-unprocessed.smi:2383-2

> <Gold.Version>
5.8.1

> <Gold.Id.Protein>
6NUR|6NUR_protein|mol2

> <Gold.PLP.Fitness>
44.9362

> <Gold.PLP.PLP>
-36.4589

> <Gold.PLP.part.hbond>
-2.9912

> <Gold.PLP.part.metal>
0.0000

> <Gold.PLP.part.buried>
-4.8177

> <Gold.PLP.part.nonpolar>
-28.2819

> <Gold.PLP.part.repulsive>
0.1905

> <Gold.PLP.ligand.clash>
0.0000

> <Gold.PLP.ligand.torsion>
0.2507

> <Gold.PLP.Chemscore.Hbond>
2.9920

> <Gold.PLP.Chemscore.CHOScore>
0.0000

> <Gold.PLP.Chemscore.Metal>
0.0000

> <Gold.Chemscore.Hbonds>
donor molecule, donor type, donor heavy atom, donor atom, acceptor molecule, acceptor atom, score
      L1  H     7    25       P1  8028  0.98
      L1  H    10    26       P1  8028  1.00
      L1  H    15    33       P1 10175  1.00

> <Gold.PLP.Chemscore.Internal.Correction>
0.0028

> <Gold.Rescore>
     Score         DG    S(hbond)    S(metal)    S(lipo)     H(rot)  DE(clash)    DE(int)     intcor
     19.07     -22.01       2.90        0.00      90.12       1.44       0.06       2.87       ----

> <Gold.Chemscore.Fitness>
19.0720

> <Gold.Chemscore.DG>
-22.0082

> <Gold.Chemscore.ZeroCoef>
-5.4800

> <Gold.Chemscore.Hbond>
2.8956

> <Gold.Chemscore.Metal>
0.0000

> <Gold.Chemscore.Lipo>
90.1175

> <Gold.Chemscore.Internal_Hbond>
0.0000

> <Gold.Chemscore.DEClash>
0.0642

> <Gold.Chemscore.DEInternal>
2.8720

> <Gold.Chemscore.Rot>
1.4402

> <Gold.Chemscore.Internal.Correction>
   9.000000E+99

> <Gold.Chemscore.Hbonds>
donor molecule, donor type, donor heavy atom, donor atom, acceptor molecule, acceptor atom, score
      L1  H     7    25       P1  8028  0.91
      L1  H    10    26       P1  8028  0.95
      L1  H    15    33       P1 10175  1.00

> <Gold.Chemscore.Hbond.Weighted>
-9.6713

> <Gold.Chemscore.Metal.Weighted>
-0.0000

> <Gold.Chemscore.Lipo.Weighted>
-10.5437

> <Gold.Chemscore.Internal_Hbond.Weighted>
0.0000

> <Gold.Chemscore.DEClash.Weighted>
0.0642

> <Gold.Chemscore.DEInternal.Weighted>
2.8720

> <Gold.Chemscore.Rot.Weighted>
3.6869

> <Gold.Chemscore.Internal.Correction.Weighted>
   9.000000E+99

> <Gold.Protein.RotatedTorsions>
[ 6907 6896 6895 6894 ] final   -5.74 input  -60.11 | X-H torsion
[ 7974 7965 7964 7962 ] final -146.72 input  175.53 | X-H torsion
[ 8008 7997 7996 7995 ] final   48.97 input   59.86 | X-H torsion
[ 10167 10162 10161 10158 ] final   -6.21 input  -65.29 | X-H torsion
[ 10718 10713 10712 10709 ] final -116.55 input   66.30 | X-H torsion
[ 10763 10752 10751 10750 ] final -128.87 input  -60.55 | X-H torsion
[ 11005 11000 10999 10996 ] final -161.92 input  -57.11 | X-H torsion

> <Gold.Protein.ActiveResidues>
 VAL166  LYS551  ARG553  GLY616  TRP617  ASP618  TYR619  PRO620  LYS621  CYS622 
 ASP623  PHE694  ASN695  SER759  ASP760  ASP761  ALA762  ILE779  LEU786  VAL792 
 PHE793  MET794  SER795  GLU796  ALA797  LYS798  CYS799  TRP800  GLU811  SER814 

> <Gold.Protein.RotatedAtoms>
  151.4767  135.1049  159.9766 H   0  0  0  0  0  0  0  0  0  0  0  0  # atno 6907 bound_to 6896
  152.4795  133.8216  159.7067 H   0  0  0  0  0  0  0  0  0  0  0  0  # atno 6908 bound_to 6896
  150.8857  133.7250  159.2945 H   0  0  0  0  0  0  0  0  0  0  0  0  # atno 6909 bound_to 6896
  144.8140  140.5419  143.5623 H   0  0  0  0  0  0  0  0  0  0  0  0  # atno 7974 bound_to 7965
  155.3944  140.3435  155.4253 H   0  0  0  0  0  0  0  0  0  0  0  0  # atno 8008 bound_to 7997
  156.1539  140.1579  156.8757 H   0  0  0  0  0  0  0  0  0  0  0  0  # atno 8009 bound_to 7997
  154.5077  140.0798  156.7909 H   0  0  0  0  0  0  0  0  0  0  0  0  # atno 8010 bound_to 7997
  140.6989  143.6219  150.8604 H   0  0  0  0  0  0  0  0  0  0  0  0  # atno 10167 bound_to 10162
  156.0971  130.6141  150.9050 H   0  0  0  0  0  0  0  0  0  0  0  0  # atno 10718 bound_to 10713
  154.8757  135.3914  154.3828 H   0  0  0  0  0  0  0  0  0  0  0  0  # atno 10763 bound_to 10752
  153.4573  135.7029  153.6077 H   0  0  0  0  0  0  0  0  0  0  0  0  # atno 10764 bound_to 10752
  153.4591  135.3816  155.2296 H   0  0  0  0  0  0  0  0  0  0  0  0  # atno 10765 bound_to 10752
  140.6150  134.4809  157.5219 H   0  0  0  0  0  0  0  0  0  0  0  0  # atno 11005 bound_to 11000
  145.5257  139.1476  143.3528 LP  0  0  0  0  0  0  0  0  0  0  0  0  # atno 17320 bound_to 7965
  146.2442  140.5397  142.8921 LP  0  0  0  0  0  0  0  0  0  0  0  0  # atno 17321 bound_to 7965
  139.9940  143.5816  152.2900 LP  0  0  0  0  0  0  0  0  0  0  0  0  # atno 17342 bound_to 10162
  139.6481  144.7659  151.2202 LP  0  0  0  0  0  0  0  0  0  0  0  0  # atno 17343 bound_to 10162
  157.6134  131.0935  150.8754 LP  0  0  0  0  0  0  0  0  0  0  0  0  # atno 17370 bound_to 10713
  156.8889  130.5206  149.5287 LP  0  0  0  0  0  0  0  0  0  0  0  0  # atno 17371 bound_to 10713
  139.9176  134.8214  156.1314 LP  0  0  0  0  0  0  0  0  0  0  0  0  # atno 17394 bound_to 11000
  141.0782  133.6766  156.2280 LP  0  0  0  0  0  0  0  0  0  0  0  0  # atno 17395 bound_to 11000

$$$$
