#       Name:                AV-unprocessed.smi:2510
#       Creating user name   scv26
#       Creation time:       Fri Mar 27 13:52:17 2020


#       File generated by GOLD software.
#

@<TRIPOS>MOLECULE
AV-unprocessed.smi:2510
    53    54     1
SMALL
NO_CHARGES


@<TRIPOS>ATOM
      1 ****        -3.2360   1.9039  -1.1960 C.3            1 S1                 0.0000
      2 ****        -3.0950   0.5464  -0.4869 C.3            1 S1                 0.0000
      3 ****        -1.6608   0.1890  -0.0268 C.3            1 S1                 0.0000
      4 ****        -0.7461   0.1186  -1.2789 C.3            1 S1                 0.0000
      5 ****        -1.1329  -0.9506  -2.3128 C.3            1 S1                 0.0000
      6 ****        -1.1700   1.0240   1.1955 C.3            1 S1                 0.0000
      7 ****         0.2827   1.1797   1.2533 N.am           1 S1                 0.0000
      8 ****         0.9557   2.2747   0.8708 C.2            1 S1                 0.0000
      9 ****         0.4122   3.3285   0.5412 O.2            1 S1                 0.0000
     10 ****         2.4774   2.1424   0.8131 C.3            1 S1                 0.0000
     11 ****         2.8698   1.2005  -0.2805 C.2            1 S1                 0.0000
     12 ****         3.1373  -0.1401  -0.2647 C.2            1 S1                 0.0000
     13 ****         3.3939  -0.4642  -1.6290 C.2            1 S1                 0.0000
     14 ****         3.7187  -1.8053  -2.2174 C.3            1 S1                 0.0000
     15 ****         3.3087   0.5914  -2.4247 N.2            1 S1                 0.0000
     16 ****         2.9924   1.6001  -1.5920 N.pl3          1 S1                 0.0000
     17 ****        -1.6639  -0.0919   2.1323 C.3            1 S1                 0.0000
     18 ****        -0.9320  -0.4178   3.4329 C.3            1 S1                 0.0000
     19 ****        -1.6005  -1.0403   0.9209 C.3            1 S1                 0.0000
     20 ****        -0.3538  -1.7227   0.8315 O.3            1 S1                 0.0000
     21 ****        -0.4021  -3.0422   1.3459 C.3            1 S1                 0.0000
     22 ****         2.8507   2.5415  -1.9301 H              1 S1                 0.0000
     23 ****        -4.2871   2.1380  -1.3655 H              1 S1                 0.0000
     24 ****        -2.7487   1.9059  -2.1705 H              1 S1                 0.0000
     25 ****        -2.8103   2.7146  -0.6046 H              1 S1                 0.0000
     26 ****        -3.7636   0.5650   0.3737 H              1 S1                 0.0000
     27 ****        -3.5046  -0.2365  -1.1243 H              1 S1                 0.0000
     28 ****        -0.6767   1.0903  -1.7667 H              1 S1                 0.0000
     29 ****         0.2785  -0.1052  -0.9863 H              1 S1                 0.0000
     30 ****        -0.3678  -1.0244  -3.0857 H              1 S1                 0.0000
     31 ****        -2.0718  -0.7151  -2.8128 H              1 S1                 0.0000
     32 ****        -1.2292  -1.9338  -1.8517 H              1 S1                 0.0000
     33 ****        -1.7166   1.9559   1.3480 H              1 S1                 0.0000
     34 ****         0.8156   0.3599   1.5060 H              1 S1                 0.0000
     35 ****         2.9279   3.1223   0.6495 H              1 S1                 0.0000
     36 ****         2.8464   1.7813   1.7736 H              1 S1                 0.0000
     37 ****         3.1282  -0.7976   0.5920 H              1 S1                 0.0000
     38 ****         3.9497  -2.5316  -1.4383 H              1 S1                 0.0000
     39 ****         4.5808  -1.7471  -2.8825 H              1 S1                 0.0000
     40 ****         2.8775  -2.1924  -2.7928 H              1 S1                 0.0000
     41 ****        -2.7142   0.1005   2.3571 H              1 S1                 0.0000
     42 ****         0.1079  -0.6957   3.2601 H              1 S1                 0.0000
     43 ****        -1.4097  -1.2470   3.9546 H              1 S1                 0.0000
     44 ****        -0.9343   0.4377   4.1081 H              1 S1                 0.0000
     45 ****        -2.4647  -1.6994   0.8173 H              1 S1                 0.0000
     46 ****         0.5898  -3.4905   1.2935 H              1 S1                 0.0000
     47 ****        -1.0827  -3.6628   0.7617 H              1 S1                 0.0000
     48 ****        -0.7246  -3.0573   2.3870 H              1 S1                 0.0000
     49 ****        -0.5852   3.4007   0.5497 LP             1 S1                 0.0000
     50 ****         0.9679   4.1126   0.2650 LP             1 S1                 0.0000
     51 ****         3.4472   0.6298  -3.4143 LP             1 S1                 0.0000
     52 ****         0.3294  -1.2054   1.3469 LP             1 S1                 0.0000
     53 ****        -0.0834  -1.7661  -0.1302 LP             1 S1                 0.0000
@<TRIPOS>BOND
    1    1    2 1     
    2    1   23 1     
    3    1   24 1     
    4    1   25 1     
    5    2    3 1     
    6    2   26 1     
    7    2   27 1     
    8    3   19 1     
    9    3    4 1     
   10    3    6 1     
   11    4    5 1     
   12    4   28 1     
   13    4   29 1     
   14    5   30 1     
   15    5   31 1     
   16    5   32 1     
   17    6    7 1     
   18    6   17 1     
   19    6   33 1     
   20    7    8 am    
   21    7   34 1     
   22    8    9 2     
   23    8   10 1     
   24   10   35 1     
   25   10   36 1     
   26   10   11 1     
   27   11   16 1     
   28   11   12 2     
   29   12   13 1     
   30   12   37 1     
   31   13   14 1     
   32   13   15 2     
   33   14   38 1     
   34   14   39 1     
   35   14   40 1     
   36   15   16 1     
   37   16   22 1     
   38   17   18 1     
   39   17   19 1     
   40   17   41 1     
   41   18   42 1     
   42   18   43 1     
   43   18   44 1     
   44   19   20 1     
   45   19   45 1     
   46   20   21 1     
   47   21   46 1     
   48   21   47 1     
   49   21   48 1     
   50    9   49 1     
   51    9   50 1     
   52   15   51 1     
   53   20   52 1     
   54   20   53 1     
@<TRIPOS>SUBSTRUCTURE
      1 S1             1
@<TRIPOS>SET
LONE_PAIRS      STATIC     ATOMS    <user>   **** ""
5 49 50 51 52 53
DONOR_HYDROGENS      STATIC     ATOMS    <user>   **** ""
2 34 22
ATOM$BLUE        STATIC     ATOMS    COLORGROUP SYSTEM
5 49 50 51 52 53
ATOM$RED        STATIC     ATOMS    COLORGROUP SYSTEM
2 34 22
