AV-unprocessed.smi:2027|AV-procd|sdf|8211|dock4
  -GOLD-   2272010473D 1   1.00000     0.00000
 Structure written by MMmdl.
 50 52  0  0  0  0  0  0  0  0  2 V2000
  152.9153  142.9198  160.2972 C   0  0  0  0  0  0  0  0  0  0  0  0
  152.2172  142.2084  159.1514 C   0  0  0  0  0  0  0  0  0  0  0  0
  152.5386  140.8586  158.8832 C   0  0  0  0  0  0  0  0  0  0  0  0
  151.9125  140.1611  157.8271 C   0  0  0  0  0  0  0  0  0  0  0  0
  152.0744  138.8579  157.3893 N   0  0  0  0  0  0  0  0  0  0  0  0
  151.2176  138.8071  156.3737 C   0  0  0  0  0  0  0  0  0  0  0  0
  150.5200  139.9261  156.0990 N   0  0  0  0  0  0  0  0  0  0  0  0
  149.5391  140.1079  155.0439 C   0  0  0  0  0  0  0  0  0  0  0  0
  149.0798  138.7718  154.4288 C   0  0  2  0  0  0  0  0  0  0  0  0
  150.0322  138.3385  153.4756 O   0  0  0  0  0  0  0  0  0  0  0  0
  147.7169  138.9078  153.7248 C   0  0  0  0  0  0  0  0  0  0  0  0
  147.0847  137.5842  153.4785 N   0  3  1  0  0  0  0  0  0  0  0  0
  146.6772  136.9044  154.7300 C   0  0  0  0  0  0  0  0  0  0  0  0
  145.9828  137.6274  152.4851 C   0  0  0  0  0  0  0  0  0  0  0  0
  145.4520  136.2481  152.1955 C   0  0  0  0  0  0  0  0  0  0  0  0
  144.6833  135.4118  153.0552 C   0  0  0  0  0  0  0  0  0  0  0  0
  144.3815  134.2475  152.5055 N   0  0  0  0  0  0  0  0  0  0  0  0
  144.9357  134.3013  151.2772 N   0  0  0  0  0  0  0  0  0  0  0  0
  144.7948  133.1734  150.3812 C   0  0  0  0  0  0  0  0  0  0  0  0
  145.5868  135.4966  151.0614 C   0  0  0  0  0  0  0  0  0  0  0  0
  150.9472  140.8559  157.0413 C   0  0  0  0  0  0  0  0  0  0  0  0
  150.6193  142.1990  157.2978 C   0  0  0  0  0  0  0  0  0  0  0  0
  151.2568  142.8821  158.3545 C   0  0  0  0  0  0  0  0  0  0  0  0
  150.8994  144.3340  158.6194 C   0  0  0  0  0  0  0  0  0  0  0  0
  153.5557  142.2383  160.8579 H   0  0  0  0  0  0  0  0  0  0  0  0
  152.1859  143.3377  160.9915 H   0  0  0  0  0  0  0  0  0  0  0  0
  153.5377  143.7308  159.9184 H   0  0  0  0  0  0  0  0  0  0  0  0
  153.2720  140.3461  159.4882 H   0  0  0  0  0  0  0  0  0  0  0  0
  151.0908  137.9044  155.7937 H   0  0  0  0  0  0  0  0  0  0  0  0
  148.6847  140.6433  155.4607 H   0  0  0  0  0  0  0  0  0  0  0  0
  149.9682  140.7565  154.2788 H   0  0  0  0  0  0  0  0  0  0  0  0
  149.0239  138.0232  155.2195 H   0  0  0  0  0  0  0  0  0  0  0  0
  149.6045  137.7553  152.8659 H   0  0  0  0  0  0  0  0  0  0  0  0
  147.0399  139.5290  154.3133 H   0  0  0  0  0  0  0  0  0  0  0  0
  147.8698  139.4454  152.7887 H   0  0  0  0  0  0  0  0  0  0  0  0
  145.8759  137.4517  155.2283 H   0  0  0  0  0  0  0  0  0  0  0  0
  147.5124  136.8168  155.4242 H   0  0  0  0  0  0  0  0  0  0  0  0
  146.3211  135.8949  154.5217 H   0  0  0  0  0  0  0  0  0  0  0  0
  145.1763  138.2514  152.8724 H   0  0  0  0  0  0  0  0  0  0  0  0
  146.3350  138.1220  151.5784 H   0  0  0  0  0  0  0  0  0  0  0  0
  144.3440  135.6135  154.0606 H   0  0  0  0  0  0  0  0  0  0  0  0
  145.2754  133.3910  149.4268 H   0  0  0  0  0  0  0  0  0  0  0  0
  143.7375  132.9694  150.2069 H   0  0  0  0  0  0  0  0  0  0  0  0
  145.2621  132.2919  150.8213 H   0  0  0  0  0  0  0  0  0  0  0  0
  146.0896  135.7106  150.1295 H   0  0  0  0  0  0  0  0  0  0  0  0
  149.8855  142.7004  156.6842 H   0  0  0  0  0  0  0  0  0  0  0  0
  150.2125  144.7185  157.8647 H   0  0  0  0  0  0  0  0  0  0  0  0
  151.7924  144.9591  158.6052 H   0  0  0  0  0  0  0  0  0  0  0  0
  150.4198  144.4360  159.5932 H   0  0  0  0  0  0  0  0  0  0  0  0
  147.8018  137.0080  153.0604 H   0  0  0  0  0  0  0  0  0  0  0  0
  1  2  1  0  0  0  0
  1 25  1  0  0  0  0
  1 26  1  0  0  0  0
  1 27  1  0  0  0  0
  2 23  1  0  0  0  0
  2  3  2  0  0  0  0
  3  4  1  0  0  0  0
  3 28  1  0  0  0  0
  4 21  2  0  0  0  0
  4  5  1  0  0  0  0
  5  6  2  0  0  0  0
  6  7  1  0  0  0  0
  6 29  1  0  0  0  0
  7  8  1  0  0  0  0
  7 21  1  0  0  0  0
  8  9  1  0  0  0  0
  8 30  1  0  0  0  0
  8 31  1  0  0  0  0
  9 10  1  0  0  0  0
  9 11  1  0  0  0  0
  9 32  1  0  0  0  0
 10 33  1  0  0  0  0
 11 12  1  0  0  0  0
 11 34  1  0  0  0  0
 11 35  1  0  0  0  0
 12 13  1  0  0  0  0
 12 14  1  0  0  0  0
 12 50  1  0  0  0  0
 13 36  1  0  0  0  0
 13 37  1  0  0  0  0
 13 38  1  0  0  0  0
 14 15  1  0  0  0  0
 14 39  1  0  0  0  0
 14 40  1  0  0  0  0
 15 20  2  0  0  0  0
 15 16  1  0  0  0  0
 16 17  2  0  0  0  0
 16 41  1  0  0  0  0
 17 18  1  0  0  0  0
 18 19  1  0  0  0  0
 18 20  1  0  0  0  0
 19 42  1  0  0  0  0
 19 43  1  0  0  0  0
 19 44  1  0  0  0  0
 20 45  1  0  0  0  0
 21 22  1  0  0  0  0
 22 23  2  0  0  0  0
 22 46  1  0  0  0  0
 23 24  1  0  0  0  0
 24 47  1  0  0  0  0
 24 48  1  0  0  0  0
 24 49  1  0  0  0  0
M  CHG  1  12   1
M  END
> <s_m_source_file>
AV-unprocessed.smi

> <i_m_source_file_index>
2027

> <i_lp_mmshare_version>
43012

> <i_f3d_flags>
0

> <s_epik_input>
W0NIM11jKFtjSF0xKWMoW0NIM10pW2NIXWMoYzEyKW4oW2NIXW4yKVtDSDJdW0NASF0oW09IXSlbQ0gyXU4oW0NIM10pW0NIMl1jM1tjSF1ubihbQ0gzXSlbY0hdMw==

> <s_epik_cmdline>
J2VwaWtfcHl0aG9uJywgJy1waCcsICc3LjAnLCAnLXRuJywgJzgnLCAnLW1hJywgJzIwMCcsICctbWV0YWxfYmluZGluZycsICctaW1hZScsICc8aW5maWxlLm1hZT4nLCAnLW9tYWUnLCAnPG91dGZpbGUubWFlPic=

> <r_lp_tautomer_probability>
1

> <r_epik_Ionization_Penalty>
0.646578

> <r_epik_Ionization_Penalty_Charging>
0.559419

> <r_epik_Ionization_Penalty_Neutral>
0.087159

> <r_epik_State_Penalty>
0.661677

> <r_epik_Charging_Adjusted_Penalty>
1.2211

> <i_epik_Tot_Q>
1

> <i_epik_Tot_abs_Q>
1

> <r_epik_Metal_State_Penalty>
0.649174

> <b_epik_Metal_Only>
0

> <s_lp_Force_Field>
OPLS_2005

> <r_lp_Energy>
8.87495

> <b_lp_Chiralities_Consistent>
1

> <s_lp_Variant>
AV-unprocessed.smi:2027-3

> <Gold.Version>
5.8.1

> <Gold.Id.Protein>
6NUR|6NUR_protein|mol2

> <Gold.PLP.Fitness>
58.3568

> <Gold.PLP.PLP>
-47.6069

> <Gold.PLP.part.hbond>
-3.5408

> <Gold.PLP.part.metal>
0.0000

> <Gold.PLP.part.buried>
-0.9132

> <Gold.PLP.part.nonpolar>
-43.1832

> <Gold.PLP.part.repulsive>
0.1337

> <Gold.PLP.ligand.clash>
0.0000

> <Gold.PLP.ligand.torsion>
0.7026

> <Gold.PLP.Chemscore.Hbond>
3.0000

> <Gold.PLP.Chemscore.CHOScore>
0.9817

> <Gold.PLP.Chemscore.Metal>
0.0000

> <Gold.Chemscore.Hbonds>
donor molecule, donor type, donor heavy atom, donor atom, acceptor molecule, acceptor atom, score
      L1  H    10    33       P1  7948  1.00
      L1  H    12    50       P1  7948  2.00
      L1  C    20    45       P1  7921  0.74

> <Gold.PLP.Chemscore.Internal.Correction>
0.2098

> <Gold.Rescore>
     Score         DG    S(hbond)    S(metal)    S(lipo)     H(rot)  DE(clash)    DE(int)     intcor
     18.41     -19.37       1.65        0.00     126.43       2.50       0.09       0.87       ----

> <Gold.Chemscore.Fitness>
18.4123

> <Gold.Chemscore.DG>
-19.3704

> <Gold.Chemscore.ZeroCoef>
-5.4800

> <Gold.Chemscore.Hbond>
1.6498

> <Gold.Chemscore.Metal>
0.0000

> <Gold.Chemscore.Lipo>
126.4268

> <Gold.Chemscore.Internal_Hbond>
0.0000

> <Gold.Chemscore.DEClash>
0.0851

> <Gold.Chemscore.DEInternal>
0.8730

> <Gold.Chemscore.Rot>
2.5047

> <Gold.Chemscore.Internal.Correction>
   9.000000E+99

> <Gold.Chemscore.Hbonds>
donor molecule, donor type, donor heavy atom, donor atom, acceptor molecule, acceptor atom, score
      L1  H    10    33       P1  7948  0.70
      L1  H    12    50       P1  7948  1.00

> <Gold.Chemscore.Hbond.Weighted>
-5.5105

> <Gold.Chemscore.Metal.Weighted>
-0.0000

> <Gold.Chemscore.Lipo.Weighted>
-14.7919

> <Gold.Chemscore.Internal_Hbond.Weighted>
0.0000

> <Gold.Chemscore.DEClash.Weighted>
0.0851

> <Gold.Chemscore.DEInternal.Weighted>
0.8730

> <Gold.Chemscore.Rot.Weighted>
6.4120

> <Gold.Chemscore.Internal.Correction.Weighted>
   9.000000E+99

> <Gold.Protein.RotatedTorsions>
[ 6907 6896 6895 6894 ] final -116.36 input  -60.11 | X-H torsion
[ 7974 7965 7964 7962 ] final  -65.16 input  175.53 | X-H torsion
[ 8008 7997 7996 7995 ] final   83.35 input   59.86 | X-H torsion
[ 10167 10162 10161 10158 ] final   55.25 input  -65.29 | X-H torsion
[ 10718 10713 10712 10709 ] final   32.05 input   66.30 | X-H torsion
[ 10763 10752 10751 10750 ] final  114.92 input  -60.55 | X-H torsion
[ 11005 11000 10999 10996 ] final   86.76 input  -57.11 | X-H torsion

> <Gold.Protein.ActiveResidues>
 VAL166  LYS551  ARG553  GLY616  TRP617  ASP618  TYR619  PRO620  LYS621  CYS622 
 ASP623  PHE694  ASN695  SER759  ASP760  ASP761  ALA762  ILE779  LEU786  VAL792 
 PHE793  MET794  SER795  GLU796  ALA797  LYS798  CYS799  TRP800  GLU811  SER814 

> <Gold.Protein.RotatedAtoms>
  150.8050  133.8528  159.3209 H   0  0  0  0  0  0  0  0  0  0  0  0  # atno 6907 bound_to 6896
  151.6329  135.1019  160.0135 H   0  0  0  0  0  0  0  0  0  0  0  0  # atno 6908 bound_to 6896
  152.4140  133.6968  159.6457 H   0  0  0  0  0  0  0  0  0  0  0  0  # atno 6909 bound_to 6896
  145.7577  140.8877  143.0446 H   0  0  0  0  0  0  0  0  0  0  0  0  # atno 7974 bound_to 7965
  155.9228  140.3420  155.6186 H   0  0  0  0  0  0  0  0  0  0  0  0  # atno 8008 bound_to 7997
  155.7253  140.0788  157.2331 H   0  0  0  0  0  0  0  0  0  0  0  0  # atno 8009 bound_to 7997
  154.4072  140.1598  156.2435 H   0  0  0  0  0  0  0  0  0  0  0  0  # atno 8010 bound_to 7997
  140.2214  144.3784  150.6449 H   0  0  0  0  0  0  0  0  0  0  0  0  # atno 10167 bound_to 10162
  157.2803  130.7251  149.6552 H   0  0  0  0  0  0  0  0  0  0  0  0  # atno 10718 bound_to 10713
  153.5145  135.3611  155.2603 H   0  0  0  0  0  0  0  0  0  0  0  0  # atno 10763 bound_to 10752
  154.8739  135.4031  154.3330 H   0  0  0  0  0  0  0  0  0  0  0  0  # atno 10764 bound_to 10752
  153.3989  135.7074  153.6507 H   0  0  0  0  0  0  0  0  0  0  0  0  # atno 10765 bound_to 10752
  139.8936  134.8377  156.2766 H   0  0  0  0  0  0  0  0  0  0  0  0  # atno 11005 bound_to 11000
  144.6836  139.9679  143.7481 LP  0  0  0  0  0  0  0  0  0  0  0  0  # atno 17320 bound_to 7965
  146.0295  139.3322  143.0764 LP  0  0  0  0  0  0  0  0  0  0  0  0  # atno 17321 bound_to 7965
  140.6252  143.2180  151.6612 LP  0  0  0  0  0  0  0  0  0  0  0  0  # atno 17342 bound_to 10162
  139.5143  144.3416  152.0735 LP  0  0  0  0  0  0  0  0  0  0  0  0  # atno 17343 bound_to 10162
  155.9664  130.4340  150.5031 LP  0  0  0  0  0  0  0  0  0  0  0  0  # atno 17370 bound_to 10713
  157.2973  131.0638  151.2092 LP  0  0  0  0  0  0  0  0  0  0  0  0  # atno 17371 bound_to 10713
  141.0066  133.7120  156.1044 LP  0  0  0  0  0  0  0  0  0  0  0  0  # atno 17394 bound_to 11000
  140.7425  134.4134  157.5553 LP  0  0  0  0  0  0  0  0  0  0  0  0  # atno 17395 bound_to 11000

$$$$
