AV-unprocessed.smi:3205|AV-procd|sdf|12255|dock1
  -GOLD-   2272018 93D 1   1.00000     0.00000
 Structure written by MMmdl.
 38 39  0  0  0  0  0  0  0  0  2 V2000
  147.6068  140.8614  154.1700 C   0  0  0  0  0  0  0  0  0  0  0  0
  148.3035  139.5030  153.9566 C   0  0  1  0  0  0  0  0  0  0  0  0
  147.9558  138.9671  152.6206 N   0  3  0  0  0  0  0  0  0  0  0  0
  146.5635  138.4949  152.4604 C   0  0  0  0  0  0  0  0  0  0  0  0
  146.3255  137.1873  153.2319 C   0  0  0  0  0  0  0  0  0  0  0  0
  145.5955  136.2123  152.4410 N   0  0  0  0  0  0  0  0  0  0  0  0
  145.9728  135.6130  151.2577 C   0  0  0  0  0  0  0  0  0  0  0  0
  144.9584  134.7791  150.8836 C   0  0  0  0  0  0  0  0  0  0  0  0
  143.9917  134.9370  151.9156 C   0  0  0  0  0  0  0  0  0  0  0  0
  144.3751  135.7973  152.8453 N   0  0  0  0  0  0  0  0  0  0  0  0
  149.8465  139.5856  154.0976 C   0  0  0  0  0  0  0  0  0  0  0  0
  150.4843  138.1873  154.2562 C   0  0  0  0  0  0  0  0  0  0  0  0
  152.0037  138.2840  154.4658 C   0  0  0  0  0  0  0  0  0  0  0  0
  152.2832  139.0878  155.6043 O   0  0  0  0  0  0  0  0  0  0  0  0
  151.8284  140.4264  155.4544 C   0  0  0  0  0  0  0  0  0  0  0  0
  150.2997  140.4502  155.2930 C   0  0  0  0  0  0  0  0  0  0  0  0
  147.7525  141.2360  155.1826 H   0  0  0  0  0  0  0  0  0  0  0  0
  146.5292  140.7890  154.0251 H   0  0  0  0  0  0  0  0  0  0  0  0
  147.9835  141.6141  153.4766 H   0  0  0  0  0  0  0  0  0  0  0  0
  147.9373  138.8045  154.7105 H   0  0  0  0  0  0  0  0  0  0  0  0
  148.1620  139.6607  151.9160 H   0  0  0  0  0  0  0  0  0  0  0  0
  145.8683  139.2587  152.8120 H   0  0  0  0  0  0  0  0  0  0  0  0
  146.3554  138.3358  151.4026 H   0  0  0  0  0  0  0  0  0  0  0  0
  147.2820  136.7465  153.5155 H   0  0  0  0  0  0  0  0  0  0  0  0
  145.7822  137.3766  154.1591 H   0  0  0  0  0  0  0  0  0  0  0  0
  146.9197  135.8280  150.7844 H   0  0  0  0  0  0  0  0  0  0  0  0
  144.9139  134.1507  150.0064 H   0  0  0  0  0  0  0  0  0  0  0  0
  143.0295  134.4568  152.0154 H   0  0  0  0  0  0  0  0  0  0  0  0
  150.2486  140.0381  153.1895 H   0  0  0  0  0  0  0  0  0  0  0  0
  150.0374  137.6708  155.1067 H   0  0  0  0  0  0  0  0  0  0  0  0
  150.2891  137.5678  153.3808 H   0  0  0  0  0  0  0  0  0  0  0  0
  152.4225  137.2904  154.6264 H   0  0  0  0  0  0  0  0  0  0  0  0
  152.4943  138.6969  153.5829 H   0  0  0  0  0  0  0  0  0  0  0  0
  152.1196  140.9961  156.3370 H   0  0  0  0  0  0  0  0  0  0  0  0
  152.3172  140.8949  154.5987 H   0  0  0  0  0  0  0  0  0  0  0  0
  149.9841  141.4852  155.1661 H   0  0  0  0  0  0  0  0  0  0  0  0
  149.8329  140.0892  156.2105 H   0  0  0  0  0  0  0  0  0  0  0  0
  148.5508  138.1666  152.4575 H   0  0  0  0  0  0  0  0  0  0  0  0
  1  2  1  0  0  0  0
  1 17  1  0  0  0  0
  1 18  1  0  0  0  0
  1 19  1  0  0  0  0
  2  3  1  0  0  0  0
  2 11  1  0  0  0  0
  2 20  1  0  0  0  0
  3  4  1  0  0  0  0
  3 21  1  0  0  0  0
  3 38  1  0  0  0  0
  4  5  1  0  0  0  0
  4 22  1  0  0  0  0
  4 23  1  0  0  0  0
  5  6  1  0  0  0  0
  5 24  1  0  0  0  0
  5 25  1  0  0  0  0
  6 10  1  0  0  0  0
  6  7  1  0  0  0  0
  7  8  2  0  0  0  0
  7 26  1  0  0  0  0
  8  9  1  0  0  0  0
  8 27  1  0  0  0  0
  9 10  2  0  0  0  0
  9 28  1  0  0  0  0
 11 16  1  0  0  0  0
 11 12  1  0  0  0  0
 11 29  1  0  0  0  0
 12 13  1  0  0  0  0
 12 30  1  0  0  0  0
 12 31  1  0  0  0  0
 13 14  1  0  0  0  0
 13 32  1  0  0  0  0
 13 33  1  0  0  0  0
 14 15  1  0  0  0  0
 15 16  1  0  0  0  0
 15 34  1  0  0  0  0
 15 35  1  0  0  0  0
 16 36  1  0  0  0  0
 16 37  1  0  0  0  0
M  CHG  1   3   1
M  END
> <s_m_source_file>
AV-unprocessed.smi

> <i_m_source_file_index>
3205

> <i_lp_mmshare_version>
43012

> <i_f3d_flags>
0

> <s_epik_input>
W0NIMl0xW0NIMl1PW0NIMl1bQ0gyXVtDSF0xW0NASF0oW0NIM10pW05IXVtDSDJdW0NIMl1uMltjSF1bY0hdW2NIXW4y

> <s_epik_cmdline>
J2VwaWtfcHl0aG9uJywgJy1waCcsICc3LjAnLCAnLXRuJywgJzgnLCAnLW1hJywgJzIwMCcsICctbWV0YWxfYmluZGluZycsICctaW1hZScsICc8aW5maWxlLm1hZT4nLCAnLW9tYWUnLCAnPG91dGZpbGUubWFlPic=

> <r_lp_tautomer_probability>
1

> <r_epik_Ionization_Penalty>
0.00310903

> <r_epik_Ionization_Penalty_Charging>
0.00310601

> <r_epik_Ionization_Penalty_Neutral>
3.02836e-06

> <r_epik_State_Penalty>
-0

> <r_epik_Charging_Adjusted_Penalty>
0.00310601

> <i_epik_Tot_Q>
1

> <i_epik_Tot_abs_Q>
1

> <r_epik_Metal_State_Penalty>
-0

> <b_epik_Metal_Only>
0

> <s_lp_Force_Field>
OPLS_2005

> <r_lp_Energy>
14.7607

> <b_lp_Chiralities_Consistent>
1

> <s_lp_Variant>
AV-unprocessed.smi:3205-2

> <Gold.Version>
5.8.1

> <Gold.Id.Protein>
6NUR|6NUR_protein|mol2

> <Gold.PLP.Fitness>
42.4575

> <Gold.PLP.PLP>
-32.0316

> <Gold.PLP.part.hbond>
-1.5993

> <Gold.PLP.part.metal>
0.0000

> <Gold.PLP.part.buried>
-3.7198

> <Gold.PLP.part.nonpolar>
-29.0080

> <Gold.PLP.part.repulsive>
0.2133

> <Gold.PLP.ligand.clash>
0.0000

> <Gold.PLP.ligand.torsion>
0.6686

> <Gold.PLP.Chemscore.Hbond>
2.8736

> <Gold.PLP.Chemscore.CHOScore>
1.0000

> <Gold.PLP.Chemscore.Metal>
0.0000

> <Gold.Chemscore.Hbonds>
donor molecule, donor type, donor heavy atom, donor atom, acceptor molecule, acceptor atom, score
      L1  H     3    21       P1  7957  0.62
      L1  H     3    38       P1  7948  1.98
      L1  C     7    26       P1  7948  0.96

> <Gold.PLP.Chemscore.Internal.Correction>
0.1424

> <Gold.Rescore>
     Score         DG    S(hbond)    S(metal)    S(lipo)     H(rot)  DE(clash)    DE(int)     intcor
     15.41     -16.38       1.86        0.00      76.49       1.66       0.10       0.86       ----

> <Gold.Chemscore.Fitness>
15.4101

> <Gold.Chemscore.DG>
-16.3775

> <Gold.Chemscore.ZeroCoef>
-5.4800

> <Gold.Chemscore.Hbond>
1.8553

> <Gold.Chemscore.Metal>
0.0000

> <Gold.Chemscore.Lipo>
76.4885

> <Gold.Chemscore.Internal_Hbond>
0.0000

> <Gold.Chemscore.DEClash>
0.1038

> <Gold.Chemscore.DEInternal>
0.8636

> <Gold.Chemscore.Rot>
1.6594

> <Gold.Chemscore.Internal.Correction>
   9.000000E+99

> <Gold.Chemscore.Hbonds>
donor molecule, donor type, donor heavy atom, donor atom, acceptor molecule, acceptor atom, score
      L1  H     3    21       P1  7957  0.62
      L1  H     3    38       P1  7948  0.91

> <Gold.Chemscore.Hbond.Weighted>
-6.1966

> <Gold.Chemscore.Metal.Weighted>
-0.0000

> <Gold.Chemscore.Lipo.Weighted>
-8.9492

> <Gold.Chemscore.Internal_Hbond.Weighted>
0.0000

> <Gold.Chemscore.DEClash.Weighted>
0.1038

> <Gold.Chemscore.DEInternal.Weighted>
0.8636

> <Gold.Chemscore.Rot.Weighted>
4.2482

> <Gold.Chemscore.Internal.Correction.Weighted>
   9.000000E+99

> <Gold.Protein.RotatedTorsions>
[ 6907 6896 6895 6894 ] final   45.78 input  -60.11 | X-H torsion
[ 7974 7965 7964 7962 ] final   58.11 input  175.53 | X-H torsion
[ 8008 7997 7996 7995 ] final -141.40 input   59.86 | X-H torsion
[ 10167 10162 10161 10158 ] final   97.98 input  -65.29 | X-H torsion
[ 10718 10713 10712 10709 ] final   91.16 input   66.30 | X-H torsion
[ 10763 10752 10751 10750 ] final   81.13 input  -60.55 | X-H torsion
[ 11005 11000 10999 10996 ] final  -88.53 input  -57.11 | X-H torsion

> <Gold.Protein.ActiveResidues>
 VAL166  LYS551  ARG553  GLY616  TRP617  ASP618  TYR619  PRO620  LYS621  CYS622 
 ASP623  PHE694  ASN695  SER759  ASP760  ASP761  ALA762  ILE779  LEU786  VAL792 
 PHE793  MET794  SER795  GLU796  ALA797  LYS798  CYS799  TRP800  GLU811  SER814 

> <Gold.Protein.RotatedAtoms>
  152.2486  134.8155  160.0449 H   0  0  0  0  0  0  0  0  0  0  0  0  # atno 6907 bound_to 6896
  151.8844  133.3497  159.3785 H   0  0  0  0  0  0  0  0  0  0  0  0  # atno 6908 bound_to 6896
  150.7076  134.4913  159.5561 H   0  0  0  0  0  0  0  0  0  0  0  0  # atno 6909 bound_to 6896
  145.9217  139.3735  143.0474 H   0  0  0  0  0  0  0  0  0  0  0  0  # atno 7974 bound_to 7965
  155.4772  140.0557  157.2972 H   0  0  0  0  0  0  0  0  0  0  0  0  # atno 8008 bound_to 7997
  154.4675  140.2025  156.0034 H   0  0  0  0  0  0  0  0  0  0  0  0  # atno 8009 bound_to 7997
  156.0999  140.3220  155.7932 H   0  0  0  0  0  0  0  0  0  0  0  0  # atno 8010 bound_to 7997
  139.7751  144.6908  151.0101 H   0  0  0  0  0  0  0  0  0  0  0  0  # atno 10167 bound_to 10162
  157.6960  131.0397  150.3687 H   0  0  0  0  0  0  0  0  0  0  0  0  # atno 10718 bound_to 10713
  153.1091  135.4777  154.9004 H   0  0  0  0  0  0  0  0  0  0  0  0  # atno 10763 bound_to 10752
  154.7462  135.3094  154.8643 H   0  0  0  0  0  0  0  0  0  0  0  0  # atno 10764 bound_to 10752
  153.9237  135.6852  153.4800 H   0  0  0  0  0  0  0  0  0  0  0  0  # atno 10765 bound_to 10752
  141.1600  133.7576  156.9465 H   0  0  0  0  0  0  0  0  0  0  0  0  # atno 11005 bound_to 11000
  145.8541  140.9512  143.0734 LP  0  0  0  0  0  0  0  0  0  0  0  0  # atno 17320 bound_to 7965
  144.6754  140.0445  143.7480 LP  0  0  0  0  0  0  0  0  0  0  0  0  # atno 17321 bound_to 7965
  140.7816  143.4545  151.0365 LP  0  0  0  0  0  0  0  0  0  0  0  0  # atno 17342 bound_to 10162
  139.8227  143.7798  152.3177 LP  0  0  0  0  0  0  0  0  0  0  0  0  # atno 17343 bound_to 10162
  156.4115  130.3935  149.6888 LP  0  0  0  0  0  0  0  0  0  0  0  0  # atno 17370 bound_to 10713
  156.4171  130.7750  151.2766 LP  0  0  0  0  0  0  0  0  0  0  0  0  # atno 17371 bound_to 10713
  140.1286  134.9370  157.2305 LP  0  0  0  0  0  0  0  0  0  0  0  0  # atno 17394 bound_to 11000
  140.2981  134.3163  155.7297 LP  0  0  0  0  0  0  0  0  0  0  0  0  # atno 17395 bound_to 11000

$$$$
