AV-unprocessed.smi:1982|AV-procd|sdf|8020|dock7
  -GOLD-   2272010213D 1   1.00000     0.00000
 Structure written by MMmdl.
 36 37  0  0  0  0  0  0  0  0  1 V2000
  147.7788  141.6234  154.9530 C   0  0  0  0  0  0  0  0  0  0  0  0
  148.7736  140.4768  155.2075 C   0  0  2  0  0  0  0  0  0  0  0  0
  150.1609  141.0573  155.5523 C   0  0  0  0  0  0  0  0  0  0  0  0
  151.1950  139.9589  155.8332 C   0  0  0  0  0  0  0  0  0  0  0  0
  151.3034  138.9908  154.6467 C   0  0  0  0  0  0  0  0  0  0  0  0
  149.9363  138.3854  154.2755 C   0  0  1  0  0  0  0  0  0  0  0  0
  149.4814  137.4611  155.3129 N   0  0  0  0  0  0  0  0  0  0  0  0
  150.1924  136.4545  155.8436 C   0  0  0  0  0  0  0  0  0  0  0  0
  151.3664  136.2237  155.5565 O   0  0  0  0  0  0  0  0  0  0  0  0
  149.4610  135.5664  156.8517 C   0  0  0  0  0  0  0  0  0  0  0  0
  149.0550  136.3283  158.0191 N   0  0  0  0  0  0  0  0  0  0  0  0
  148.1060  137.2536  158.1753 C   0  0  0  0  0  0  0  0  0  0  0  0
  148.0836  137.7264  159.4121 N   0  0  0  0  0  0  0  0  0  0  0  0
  149.1004  137.0233  160.0369 N   0  0  0  0  0  0  0  0  0  0  0  0
  149.6801  136.1916  159.2157 N   0  0  0  0  0  0  0  0  0  0  0  0
  148.8734  139.4846  154.0149 C   0  0  1  0  0  0  0  0  0  0  0  0
  147.5134  138.8642  153.6321 C   0  0  0  0  0  0  0  0  0  0  0  0
  148.0321  142.1757  154.0476 H   0  0  0  0  0  0  0  0  0  0  0  0
  147.7781  142.3311  155.7825 H   0  0  0  0  0  0  0  0  0  0  0  0
  146.7575  141.2578  154.8498 H   0  0  0  0  0  0  0  0  0  0  0  0
  148.4175  139.9286  156.0809 H   0  0  0  0  0  0  0  0  0  0  0  0
  150.5130  141.6820  154.7301 H   0  0  0  0  0  0  0  0  0  0  0  0
  150.0858  141.7105  156.4225 H   0  0  0  0  0  0  0  0  0  0  0  0
  152.1678  140.4086  156.0337 H   0  0  0  0  0  0  0  0  0  0  0  0
  150.9172  139.4130  156.7356 H   0  0  0  0  0  0  0  0  0  0  0  0
  151.7038  139.5261  153.7849 H   0  0  0  0  0  0  0  0  0  0  0  0
  152.0212  138.2010  154.8718 H   0  0  0  0  0  0  0  0  0  0  0  0
  150.0617  137.8253  153.3470 H   0  0  0  0  0  0  0  0  0  0  0  0
  148.5258  137.5707  155.6211 H   0  0  0  0  0  0  0  0  0  0  0  0
  148.5727  135.1293  156.3940 H   0  0  0  0  0  0  0  0  0  0  0  0
  150.1078  134.7431  157.1588 H   0  0  0  0  0  0  0  0  0  0  0  0
  147.4437  137.5829  157.3880 H   0  0  0  0  0  0  0  0  0  0  0  0
  149.2146  140.0522  153.1475 H   0  0  0  0  0  0  0  0  0  0  0  0
  147.0332  138.3844  154.4856 H   0  0  0  0  0  0  0  0  0  0  0  0
  147.6335  138.1102  152.8535 H   0  0  0  0  0  0  0  0  0  0  0  0
  146.8249  139.6133  153.2420 H   0  0  0  0  0  0  0  0  0  0  0  0
  1  2  1  0  0  0  0
  1 18  1  0  0  0  0
  1 19  1  0  0  0  0
  1 20  1  0  0  0  0
  2 16  1  0  0  0  0
  2  3  1  0  0  0  0
  2 21  1  0  0  0  0
  3  4  1  0  0  0  0
  3 22  1  0  0  0  0
  3 23  1  0  0  0  0
  4  5  1  0  0  0  0
  4 24  1  0  0  0  0
  4 25  1  0  0  0  0
  5  6  1  0  0  0  0
  5 26  1  0  0  0  0
  5 27  1  0  0  0  0
  6  7  1  0  0  0  0
  6 16  1  0  0  0  0
  6 28  1  0  0  0  0
  7  8  1  0  0  0  0
  7 29  1  0  0  0  0
  8  9  2  0  0  0  0
  8 10  1  0  0  0  0
 10 11  1  0  0  0  0
 10 30  1  0  0  0  0
 10 31  1  0  0  0  0
 11 15  1  0  0  0  0
 11 12  1  0  0  0  0
 12 13  2  0  0  0  0
 12 32  1  0  0  0  0
 13 14  1  0  0  0  0
 14 15  2  0  0  0  0
 16 17  1  0  0  0  0
 16 33  1  0  0  0  0
 17 34  1  0  0  0  0
 17 35  1  0  0  0  0
 17 36  1  0  0  0  0
M  END
> <s_m_source_file>
AV-unprocessed.smi

> <i_m_source_file_index>
1982

> <i_lp_mmshare_version>
43012

> <i_f3d_flags>
0

> <s_epik_input>
W0NIM11bQ0BASF0xW0NIMl1bQ0gyXVtDSDJdW0NASF0oW0NASF0xW0NIM10pW05IXUMoPU8pW0NIMl1uMltjSF1ubm4y

> <s_epik_cmdline>
J2VwaWtfcHl0aG9uJywgJy1waCcsICc3LjAnLCAnLXRuJywgJzgnLCAnLW1hJywgJzIwMCcsICctbWV0YWxfYmluZGluZycsICctaW1hZScsICc8aW5maWxlLm1hZT4nLCAnLW9tYWUnLCAnPG91dGZpbGUubWFlPic=

> <r_lp_tautomer_probability>
1

> <r_epik_Ionization_Penalty>
5.03816e-07

> <r_epik_Ionization_Penalty_Charging>
0

> <r_epik_Ionization_Penalty_Neutral>
5.03816e-07

> <r_epik_State_Penalty>
-0

> <r_epik_Charging_Adjusted_Penalty>
0

> <i_epik_Tot_Q>
0

> <i_epik_Tot_abs_Q>
0

> <r_epik_Metal_State_Penalty>
-0

> <b_epik_Metal_Only>
0

> <s_lp_Force_Field>
OPLS_2005

> <r_lp_Energy>
12.4205

> <b_lp_Chiralities_Consistent>
1

> <s_lp_Variant>
AV-unprocessed.smi:1982-1

> <Gold.Version>
5.8.1

> <Gold.Id.Protein>
6NUR|6NUR_protein|mol2

> <Gold.PLP.Fitness>
33.5653

> <Gold.PLP.PLP>
-24.9922

> <Gold.PLP.part.hbond>
-4.5207

> <Gold.PLP.part.metal>
0.0000

> <Gold.PLP.part.buried>
-3.0672

> <Gold.PLP.part.nonpolar>
-19.1662

> <Gold.PLP.part.repulsive>
0.0548

> <Gold.PLP.ligand.clash>
0.0000

> <Gold.PLP.ligand.torsion>
0.1977

> <Gold.PLP.Chemscore.Hbond>
2.9856

> <Gold.PLP.Chemscore.CHOScore>
0.0000

> <Gold.PLP.Chemscore.Metal>
0.0000

> <Gold.Chemscore.Hbonds>
donor molecule, donor type, donor heavy atom, donor atom, acceptor molecule, acceptor atom, score
      P1  H  6896  6909       L1    15  1.00
      P1  H  6931  6943       L1    14  0.22
      P1  H  6934  6947       L1    13  0.30
      P1  H 10752 10764       L1     9  1.00

> <Gold.PLP.Chemscore.Internal.Correction>
0.0118

> <Gold.Rescore>
     Score         DG    S(hbond)    S(metal)    S(lipo)     H(rot)  DE(clash)    DE(int)     intcor
     13.18     -14.37       2.32        0.00      51.54       1.91       0.03       1.16       ----

> <Gold.Chemscore.Fitness>
13.1809

> <Gold.Chemscore.DG>
-14.3713

> <Gold.Chemscore.ZeroCoef>
-5.4800

> <Gold.Chemscore.Hbond>
2.3174

> <Gold.Chemscore.Metal>
0.0000

> <Gold.Chemscore.Lipo>
51.5379

> <Gold.Chemscore.Internal_Hbond>
0.0000

> <Gold.Chemscore.DEClash>
0.0270

> <Gold.Chemscore.DEInternal>
1.1634

> <Gold.Chemscore.Rot>
1.9058

> <Gold.Chemscore.Internal.Correction>
   9.000000E+99

> <Gold.Chemscore.Hbonds>
donor molecule, donor type, donor heavy atom, donor atom, acceptor molecule, acceptor atom, score
      P1  H  6896  6909       L1    15  0.97
      P1  H  6931  6943       L1    14  0.03
      P1  H  6934  6947       L1    13  0.18
      P1  H 10752 10764       L1     9  0.99

> <Gold.Chemscore.Hbond.Weighted>
-7.7402

> <Gold.Chemscore.Metal.Weighted>
-0.0000

> <Gold.Chemscore.Lipo.Weighted>
-6.0299

> <Gold.Chemscore.Internal_Hbond.Weighted>
0.0000

> <Gold.Chemscore.DEClash.Weighted>
0.0270

> <Gold.Chemscore.DEInternal.Weighted>
1.1634

> <Gold.Chemscore.Rot.Weighted>
4.8788

> <Gold.Chemscore.Internal.Correction.Weighted>
   9.000000E+99

> <Gold.Protein.RotatedTorsions>
[ 6907 6896 6895 6894 ] final   54.28 input  -60.11 | X-H torsion
[ 7974 7965 7964 7962 ] final  -75.74 input  175.53 | X-H torsion
[ 8008 7997 7996 7995 ] final   24.86 input   59.86 | X-H torsion
[ 10167 10162 10161 10158 ] final  -88.47 input  -65.29 | X-H torsion
[ 10718 10713 10712 10709 ] final  -69.85 input   66.30 | X-H torsion
[ 10763 10752 10751 10750 ] final  -39.98 input  -60.55 | X-H torsion
[ 11005 11000 10999 10996 ] final   92.53 input  -57.11 | X-H torsion

> <Gold.Protein.ActiveResidues>
 VAL166  LYS551  ARG553  GLY616  TRP617  ASP618  TYR619  PRO620  LYS621  CYS622 
 ASP623  PHE694  ASN695  SER759  ASP760  ASP761  ALA762  ILE779  LEU786  VAL792 
 PHE793  MET794  SER795  GLU796  ALA797  LYS798  CYS799  TRP800  GLU811  SER814 

> <Gold.Protein.RotatedAtoms>
  152.3423  134.7118  160.0260 H   0  0  0  0  0  0  0  0  0  0  0  0  # atno 6907 bound_to 6896
  151.7499  133.3321  159.3397 H   0  0  0  0  0  0  0  0  0  0  0  0  # atno 6908 bound_to 6896
  150.7487  134.6134  159.6142 H   0  0  0  0  0  0  0  0  0  0  0  0  # atno 6909 bound_to 6896
  145.6220  140.9360  143.1133 H   0  0  0  0  0  0  0  0  0  0  0  0  # atno 7974 bound_to 7965
  155.0027  140.3127  155.4861 H   0  0  0  0  0  0  0  0  0  0  0  0  # atno 8008 bound_to 7997
  156.2922  140.2229  156.5079 H   0  0  0  0  0  0  0  0  0  0  0  0  # atno 8009 bound_to 7997
  154.7604  140.0459  157.0956 H   0  0  0  0  0  0  0  0  0  0  0  0  # atno 8010 bound_to 7997
  140.3744  143.2779  151.9461 H   0  0  0  0  0  0  0  0  0  0  0  0  # atno 10167 bound_to 10162
  156.0435  130.4320  150.2208 H   0  0  0  0  0  0  0  0  0  0  0  0  # atno 10718 bound_to 10713
  153.9384  135.6764  153.4744 H   0  0  0  0  0  0  0  0  0  0  0  0  # atno 10763 bound_to 10752
  153.0944  135.4859  154.8747 H   0  0  0  0  0  0  0  0  0  0  0  0  # atno 10764 bound_to 10752
  154.7390  135.3156  154.8719 H   0  0  0  0  0  0  0  0  0  0  0  0  # atno 10765 bound_to 10752
  139.8822  134.8738  156.3586 H   0  0  0  0  0  0  0  0  0  0  0  0  # atno 11005 bound_to 11000
  144.7227  139.7976  143.7376 LP  0  0  0  0  0  0  0  0  0  0  0  0  # atno 17320 bound_to 7965
  146.1424  139.4484  143.0101 LP  0  0  0  0  0  0  0  0  0  0  0  0  # atno 17321 bound_to 7965
  139.4801  144.5877  151.7825 LP  0  0  0  0  0  0  0  0  0  0  0  0  # atno 17342 bound_to 10162
  140.5001  144.1182  150.5969 LP  0  0  0  0  0  0  0  0  0  0  0  0  # atno 17343 bound_to 10162
  157.0301  131.0005  151.3315 LP  0  0  0  0  0  0  0  0  0  0  0  0  # atno 17370 bound_to 10713
  157.5283  130.8042  149.7888 LP  0  0  0  0  0  0  0  0  0  0  0  0  # atno 17371 bound_to 10713
  140.9545  133.7429  156.0317 LP  0  0  0  0  0  0  0  0  0  0  0  0  # atno 17394 bound_to 11000
  140.8065  134.3449  157.5424 LP  0  0  0  0  0  0  0  0  0  0  0  0  # atno 17395 bound_to 11000

$$$$
