AV-unprocessed.smi:1644|AV-procd|sdf|6598|dock5
  -GOLD-   22720 7303D 1   1.00000     0.00000
 Structure written by MMmdl.
 49 51  0  0  0  0  0  0  0  0  3 V2000
  147.4288  133.8210  162.0374 C   0  0  0  0  0  0  0  0  0  0  0  0
  147.8592  135.2899  162.1180 C   0  0  0  0  0  0  0  0  0  0  0  0
  147.4224  136.0997  160.8862 C   0  0  0  0  0  0  0  0  0  0  0  0
  148.2767  135.8120  159.6329 C   0  0  2  0  0  0  0  0  0  0  0  0
  149.6739  136.1197  159.8598 N   0  5  0  0  0  0  0  0  0  0  0  0
  150.0629  137.0582  158.9662 C   0  0  0  0  0  0  0  0  0  0  0  0
  151.1875  137.5455  158.8563 O   0  0  0  0  0  0  0  0  0  0  0  0
  149.0413  137.4156  158.1642 N   0  0  0  0  0  0  0  0  0  0  0  0
  149.1135  138.4069  157.0843 C   0  0  0  0  0  0  0  0  0  0  0  0
  150.3900  138.2610  156.2308 C   0  0  1  0  0  0  0  0  0  0  0  0
  150.0429  138.5219  154.8853 O   0  0  0  0  0  0  0  0  0  0  0  0
  151.5367  139.1921  156.6788 C   0  0  0  0  0  0  0  0  0  0  0  0
  151.1263  140.5988  156.7826 N   0  0  0  0  0  0  0  0  0  0  0  0
  150.3883  141.3524  155.9240 C   0  0  0  0  0  0  0  0  0  0  0  0
  150.2825  142.5999  156.4600 N   0  3  0  0  0  0  0  0  0  0  0  0
  150.9629  142.6424  157.6790 C   0  0  0  0  0  0  0  0  0  0  0  0
  151.1398  143.6796  158.5872 C   0  0  0  0  0  0  0  0  0  0  0  0
  151.8913  143.3975  159.7506 C   0  0  0  0  0  0  0  0  0  0  0  0
  152.1052  144.5093  160.7637 C   0  0  0  0  0  0  0  0  0  0  0  0
  152.4345  142.1057  159.9732 C   0  0  0  0  0  0  0  0  0  0  0  0
  153.2367  141.8114  161.2293 C   0  0  0  0  0  0  0  0  0  0  0  0
  152.2440  141.0648  159.0369 C   0  0  0  0  0  0  0  0  0  0  0  0
  151.5048  141.3605  157.8940 C   0  0  0  0  0  0  0  0  0  0  0  0
  147.9348  136.7366  158.4822 C   0  0  0  0  0  0  0  0  0  0  0  0
  146.8258  136.8154  157.9524 O   0  0  0  0  0  0  0  0  0  0  0  0
  147.7541  133.2720  162.9213 H   0  0  0  0  0  0  0  0  0  0  0  0
  147.8599  133.3317  161.1637 H   0  0  0  0  0  0  0  0  0  0  0  0
  146.3441  133.7325  161.9714 H   0  0  0  0  0  0  0  0  0  0  0  0
  147.4398  135.7347  163.0211 H   0  0  0  0  0  0  0  0  0  0  0  0
  148.9432  135.3423  162.2239 H   0  0  0  0  0  0  0  0  0  0  0  0
  146.3791  135.8624  160.6728 H   0  0  0  0  0  0  0  0  0  0  0  0
  147.4453  137.1656  161.1206 H   0  0  0  0  0  0  0  0  0  0  0  0
  148.1238  134.7836  159.3029 H   0  0  0  0  0  0  0  0  0  0  0  0
  148.2323  138.2946  156.4498 H   0  0  0  0  0  0  0  0  0  0  0  0
  149.0490  139.4185  157.4888 H   0  0  0  0  0  0  0  0  0  0  0  0
  150.7360  137.2276  156.2747 H   0  0  0  0  0  0  0  0  0  0  0  0
  149.2970  139.1024  154.8775 H   0  0  0  0  0  0  0  0  0  0  0  0
  151.9610  138.8677  157.6290 H   0  0  0  0  0  0  0  0  0  0  0  0
  152.3523  139.1574  155.9558 H   0  0  0  0  0  0  0  0  0  0  0  0
  149.9648  141.0203  154.9871 H   0  0  0  0  0  0  0  0  0  0  0  0
  150.7209  144.6596  158.4123 H   0  0  0  0  0  0  0  0  0  0  0  0
  153.1696  144.6925  160.9129 H   0  0  0  0  0  0  0  0  0  0  0  0
  151.6613  144.2432  161.7233 H   0  0  0  0  0  0  0  0  0  0  0  0
  151.6507  145.4439  160.4332 H   0  0  0  0  0  0  0  0  0  0  0  0
  153.5659  140.7721  161.2575 H   0  0  0  0  0  0  0  0  0  0  0  0
  152.6353  141.9941  162.1202 H   0  0  0  0  0  0  0  0  0  0  0  0
  154.1241  142.4432  161.2730 H   0  0  0  0  0  0  0  0  0  0  0  0
  152.6529  140.0801  159.2093 H   0  0  0  0  0  0  0  0  0  0  0  0
  149.7820  143.3633  156.0235 H   0  0  0  0  0  0  0  0  0  0  0  0
  1  2  1  0  0  0  0
  1 26  1  0  0  0  0
  1 27  1  0  0  0  0
  1 28  1  0  0  0  0
  2  3  1  0  0  0  0
  2 29  1  0  0  0  0
  2 30  1  0  0  0  0
  3  4  1  0  0  0  0
  3 31  1  0  0  0  0
  3 32  1  0  0  0  0
  4 24  1  0  0  0  0
  4  5  1  0  0  0  0
  4 33  1  0  0  0  0
  5  6  1  0  0  0  0
  6  7  2  0  0  0  0
  6  8  1  0  0  0  0
  8  9  1  0  0  0  0
  8 24  1  0  0  0  0
  9 10  1  0  0  0  0
  9 34  1  0  0  0  0
  9 35  1  0  0  0  0
 10 11  1  0  0  0  0
 10 12  1  0  0  0  0
 10 36  1  0  0  0  0
 11 37  1  0  0  0  0
 12 13  1  0  0  0  0
 12 38  1  0  0  0  0
 12 39  1  0  0  0  0
 13 23  1  0  0  0  0
 13 14  1  0  0  0  0
 14 15  2  0  0  0  0
 14 40  1  0  0  0  0
 15 16  1  0  0  0  0
 15 49  1  0  0  0  0
 16 23  2  0  0  0  0
 16 17  1  0  0  0  0
 17 18  2  0  0  0  0
 17 41  1  0  0  0  0
 18 19  1  0  0  0  0
 18 20  1  0  0  0  0
 19 42  1  0  0  0  0
 19 43  1  0  0  0  0
 19 44  1  0  0  0  0
 20 21  1  0  0  0  0
 20 22  2  0  0  0  0
 21 45  1  0  0  0  0
 21 46  1  0  0  0  0
 21 47  1  0  0  0  0
 22 23  1  0  0  0  0
 22 48  1  0  0  0  0
 24 25  2  0  0  0  0
M  CHG  1   5  -1
M  CHG  1  15   1
M  END
> <s_m_source_file>
AV-unprocessed.smi

> <i_m_source_file_index>
1644

> <i_lp_mmshare_version>
43012

> <i_f3d_flags>
0

> <s_epik_input>
W0NIM11bQ0gyXVtDSDJdW0NAQEhdMVtOSF1DKD1PKU4oQzE9TylbQ0gyXVtDQEhdKFtPSF0pW0NIMl1uKFtjSF1uMiljKGMyMylbY0hdYyhbQ0gzXSljKFtjSF0zKVtDSDNd

> <s_epik_cmdline>
J2VwaWtfcHl0aG9uJywgJy1waCcsICc3LjAnLCAnLXRuJywgJzgnLCAnLW1hJywgJzIwMCcsICctbWV0YWxfYmluZGluZycsICctaW1hZScsICc8aW5maWxlLm1hZT4nLCAnLW9tYWUnLCAnPG91dGZpbGUubWFlPic=

> <r_lp_tautomer_probability>
1

> <r_epik_Ionization_Penalty>
6.86868

> <r_epik_Ionization_Penalty_Charging>
6.86868

> <r_epik_Ionization_Penalty_Neutral>
5.84798e-07

> <r_epik_State_Penalty>
6.92818

> <r_epik_Charging_Adjusted_Penalty>
13.7969

> <i_epik_Tot_Q>
0

> <i_epik_Tot_abs_Q>
2

> <r_epik_Metal_State_Penalty>
2.98017

> <b_epik_Metal_Only>
1

> <s_lp_Force_Field>
OPLS_2005

> <r_lp_Energy>
19.1239

> <b_lp_Chiralities_Consistent>
1

> <s_lp_Variant>
AV-unprocessed.smi:1644-15

> <Gold.Version>
5.8.1

> <Gold.Id.Protein>
6NUR|6NUR_protein|mol2

> <Gold.PLP.Fitness>
58.9710

> <Gold.PLP.PLP>
-48.8859

> <Gold.PLP.part.hbond>
-2.0000

> <Gold.PLP.part.metal>
0.0000

> <Gold.PLP.part.buried>
-6.7265

> <Gold.PLP.part.nonpolar>
-41.5401

> <Gold.PLP.part.repulsive>
0.1155

> <Gold.PLP.ligand.clash>
0.0000

> <Gold.PLP.ligand.torsion>
1.0022

> <Gold.PLP.Chemscore.Hbond>
4.0000

> <Gold.PLP.Chemscore.CHOScore>
0.0000

> <Gold.PLP.Chemscore.Metal>
0.0000

> <Gold.Chemscore.Hbonds>
donor molecule, donor type, donor heavy atom, donor atom, acceptor molecule, acceptor atom, score
      L1  H    15    49       P1  8028  2.00
      P1  H  6896  6907       L1     5  2.00

> <Gold.PLP.Chemscore.Internal.Correction>
0.0895

> <Gold.Rescore>
     Score         DG    S(hbond)    S(metal)    S(lipo)     H(rot)  DE(clash)    DE(int)     intcor
     16.08     -17.01       1.75        0.00     108.16       2.72       0.00       0.93       ----

> <Gold.Chemscore.Fitness>
16.0801

> <Gold.Chemscore.DG>
-17.0137

> <Gold.Chemscore.ZeroCoef>
-5.4800

> <Gold.Chemscore.Hbond>
1.7525

> <Gold.Chemscore.Metal>
0.0000

> <Gold.Chemscore.Lipo>
108.1631

> <Gold.Chemscore.Internal_Hbond>
0.0000

> <Gold.Chemscore.DEClash>
0.0000

> <Gold.Chemscore.DEInternal>
0.9336

> <Gold.Chemscore.Rot>
2.7245

> <Gold.Chemscore.Internal.Correction>
   9.000000E+99

> <Gold.Chemscore.Hbonds>
donor molecule, donor type, donor heavy atom, donor atom, acceptor molecule, acceptor atom, score
      L1  H    15    49       P1  8028  1.00
      P1  H  6896  6907       L1     5  0.49

> <Gold.Chemscore.Hbond.Weighted>
-5.8534

> <Gold.Chemscore.Metal.Weighted>
-0.0000

> <Gold.Chemscore.Lipo.Weighted>
-12.6551

> <Gold.Chemscore.Internal_Hbond.Weighted>
0.0000

> <Gold.Chemscore.DEClash.Weighted>
0.0000

> <Gold.Chemscore.DEInternal.Weighted>
0.9336

> <Gold.Chemscore.Rot.Weighted>
6.9748

> <Gold.Chemscore.Internal.Correction.Weighted>
   9.000000E+99

> <Gold.Protein.RotatedTorsions>
[ 6907 6896 6895 6894 ] final  -48.39 input  -60.11 | X-H torsion
[ 7974 7965 7964 7962 ] final  -31.47 input  175.53 | X-H torsion
[ 8008 7997 7996 7995 ] final  -76.16 input   59.86 | X-H torsion
[ 10167 10162 10161 10158 ] final  114.82 input  -65.29 | X-H torsion
[ 10718 10713 10712 10709 ] final -142.67 input   66.30 | X-H torsion
[ 10763 10752 10751 10750 ] final   44.63 input  -60.55 | X-H torsion
[ 11005 11000 10999 10996 ] final   86.93 input  -57.11 | X-H torsion

> <Gold.Protein.ActiveResidues>
 VAL166  LYS551  ARG553  GLY616  TRP617  ASP618  TYR619  PRO620  LYS621  CYS622 
 ASP623  PHE694  ASN695  SER759  ASP760  ASP761  ALA762  ILE779  LEU786  VAL792 
 PHE793  MET794  SER795  GLU796  ALA797  LYS798  CYS799  TRP800  GLU811  SER814 

> <Gold.Protein.RotatedAtoms>
  150.8911  134.8314  159.7293 H   0  0  0  0  0  0  0  0  0  0  0  0  # atno 6907 bound_to 6896
  152.4837  134.4647  159.9626 H   0  0  0  0  0  0  0  0  0  0  0  0  # atno 6908 bound_to 6896
  151.4710  133.3530  159.2859 H   0  0  0  0  0  0  0  0  0  0  0  0  # atno 6909 bound_to 6896
  146.1065  140.5671  142.8797 H   0  0  0  0  0  0  0  0  0  0  0  0  # atno 7974 bound_to 7965
  154.5480  140.0732  156.8621 H   0  0  0  0  0  0  0  0  0  0  0  0  # atno 8008 bound_to 7997
  155.3048  140.3386  155.4228 H   0  0  0  0  0  0  0  0  0  0  0  0  # atno 8009 bound_to 7997
  156.1936  140.1695  156.8029 H   0  0  0  0  0  0  0  0  0  0  0  0  # atno 8010 bound_to 7997
  139.6361  144.7120  151.2332 H   0  0  0  0  0  0  0  0  0  0  0  0  # atno 10167 bound_to 10162
  156.3487  130.7676  151.1826 H   0  0  0  0  0  0  0  0  0  0  0  0  # atno 10718 bound_to 10713
  152.9838  135.6065  154.3305 H   0  0  0  0  0  0  0  0  0  0  0  0  # atno 10763 bound_to 10752
  154.3008  135.2773  155.2613 H   0  0  0  0  0  0  0  0  0  0  0  0  # atno 10764 bound_to 10752
  154.4866  135.5903  153.6485 H   0  0  0  0  0  0  0  0  0  0  0  0  # atno 10765 bound_to 10752
  139.8932  134.8388  156.2789 H   0  0  0  0  0  0  0  0  0  0  0  0  # atno 11005 bound_to 11000
  144.7475  140.5106  143.6825 LP  0  0  0  0  0  0  0  0  0  0  0  0  # atno 17320 bound_to 7965
  145.5750  139.1485  143.3267 LP  0  0  0  0  0  0  0  0  0  0  0  0  # atno 17321 bound_to 7965
  140.7466  143.6394  150.8349 LP  0  0  0  0  0  0  0  0  0  0  0  0  # atno 17342 bound_to 10162
  140.0025  143.5728  152.2870 LP  0  0  0  0  0  0  0  0  0  0  0  0  # atno 17343 bound_to 10162
  157.7458  131.0433  150.4740 LP  0  0  0  0  0  0  0  0  0  0  0  0  # atno 17370 bound_to 10713
  156.4931  130.4100  149.6395 LP  0  0  0  0  0  0  0  0  0  0  0  0  # atno 17371 bound_to 10713
  141.0052  133.7128  156.1023 LP  0  0  0  0  0  0  0  0  0  0  0  0  # atno 17394 bound_to 11000
  140.7443  134.4115  157.5550 LP  0  0  0  0  0  0  0  0  0  0  0  0  # atno 17395 bound_to 11000

$$$$
