#       Name:                AV-unprocessed.smi:157
#       Creating user name   scv26
#       Creation time:       Thu Mar 26 19:00:09 2020


#       File generated by GOLD software.
#

@<TRIPOS>MOLECULE
AV-unprocessed.smi:157
    45    47     1
SMALL
NO_CHARGES


@<TRIPOS>ATOM
      1 ****        -4.8889   2.0528   0.3986 O.3            1 S1                 0.0000
      2 ****        -3.7561   1.2556   0.1245 C.3            1 S1                 0.0000
      3 ****        -2.6876   2.0654  -0.6387 C.3            1 S1                 0.0000
      4 ****        -1.7959   1.1217  -1.2372 O.3            1 S1                 0.0000
      5 ****        -0.5186   1.2343  -0.6849 C.3            1 S1                 0.0000
      6 ****         0.0007  -0.1361  -0.3978 N.pl3          1 S1                 0.0000
      7 ****        -0.7319  -1.2058  -0.0230 C.2            1 S1                 0.0000
      8 ****        -0.0265  -2.3060   0.1769 N.pl3          1 S1                 1.0000
      9 ****         1.2889  -1.9778  -0.0740 C.2            1 S1                 0.0000
     10 ****         1.2871  -0.6232  -0.4168 C.2            1 S1                 0.0000
     11 ****         2.3569   0.2217  -0.7499 N.2            1 S1                 0.0000
     12 ****         3.5931  -0.0824  -0.5212 C.2            1 S1                 0.0000
     13 ****         4.1269  -1.2581  -0.0201 N.pl3          1 S1                 0.0000
     14 ****         3.7260  -2.5749  -0.4826 C.3            1 S1                 0.0000
     15 ****         2.3554  -3.0209   0.0431 C.3            1 S1                 0.0000
     16 ****         2.5100  -3.4925   1.3658 O.3            1 S1                 0.0000
     17 ****        -0.6613   2.0307   0.6060 C.3            1 S1                 0.0000
     18 ****        -1.7833   2.9685   0.2219 C.3            1 S1                 0.0000
     19 ****        -2.4067   3.5231   1.3626 O.3            1 S1                 0.0000
     20 ****        -3.1647   2.6432  -1.4314 H              1 S1                 0.0000
     21 ****         0.1694   1.6795  -1.4046 H              1 S1                 0.0000
     22 ****         2.0407  -3.8825  -0.5470 H              1 S1                 0.0000
     23 ****        -1.3851   3.7766  -0.3937 H              1 S1                 0.0000
     24 ****        -5.5305   1.5219   0.8454 H              1 S1                 0.0000
     25 ****        -3.3589   0.8362   1.0491 H              1 S1                 0.0000
     26 ****        -4.0910   0.4172  -0.4870 H              1 S1                 0.0000
     27 ****        -1.7992  -1.1620   0.0998 H              1 S1                 0.0000
     28 ****         4.3666   0.6542  -0.7432 H              1 S1                 0.0000
     29 ****         5.0844  -1.2560   0.3019 H              1 S1                 0.0000
     30 ****         3.6936  -2.5422  -1.5727 H              1 S1                 0.0000
     31 ****         4.4953  -3.3036  -0.2247 H              1 S1                 0.0000
     32 ****         1.7099  -3.9180   1.6328 H              1 S1                 0.0000
     33 ****        -0.9606   1.3695   1.4213 H              1 S1                 0.0000
     34 ****         0.2705   2.5323   0.8694 H              1 S1                 0.0000
     35 ****        -3.1402   4.0477   1.0787 H              1 S1                 0.0000
     36 ****        -0.3877  -3.2101   0.4535 H              1 S1                 0.0000
     37 ****        -5.2739   2.3969  -0.4578 LP             1 S1                 0.0000
     38 ****        -4.6260   2.8234   0.9792 LP             1 S1                 0.0000
     39 ****        -1.7452   1.2954  -2.2207 LP             1 S1                 0.0000
     40 ****        -2.1419   0.1968  -1.0795 LP             1 S1                 0.0000
     41 ****         2.1541   1.0994  -1.1841 LP             1 S1                 0.0000
     42 ****         2.7019  -2.7241   1.9763 LP             1 S1                 0.0000
     43 ****         3.2666  -4.1453   1.4036 LP             1 S1                 0.0000
     44 ****        -1.7542   4.0961   1.8585 LP             1 S1                 0.0000
     45 ****        -2.7284   2.7896   1.9613 LP             1 S1                 0.0000
@<TRIPOS>BOND
    1    1    2 1     
    2    1   24 1     
    3    2    3 1     
    4    2   25 1     
    5    2   26 1     
    6    3   20 1     
    7    3   18 1     
    8    3    4 1     
    9    4    5 1     
   10    5   21 1     
   11    5    6 1     
   12    5   17 1     
   13    6   10 1     
   14    6    7 1     
   15    7    8 2     
   16    7   27 1     
   17    8    9 1     
   18    8   36 1     
   19    9   15 1     
   20    9   10 2     
   21   10   11 1     
   22   11   12 2     
   23   12   13 1     
   24   12   28 1     
   25   13   14 1     
   26   13   29 1     
   27   14   15 1     
   28   14   30 1     
   29   14   31 1     
   30   15   22 1     
   31   15   16 1     
   32   16   32 1     
   33   17   18 1     
   34   17   33 1     
   35   17   34 1     
   36   18   23 1     
   37   18   19 1     
   38   19   35 1     
   39    1   37 1     
   40    1   38 1     
   41    4   39 1     
   42    4   40 1     
   43   11   41 1     
   44   16   42 1     
   45   16   43 1     
   46   19   44 1     
   47   19   45 1     
@<TRIPOS>SUBSTRUCTURE
      1 S1             1
@<TRIPOS>SET
LONE_PAIRS      STATIC     ATOMS    <user>   **** ""
9 37 38 39 40 41 42 43 44 45
DONOR_HYDROGENS      STATIC     ATOMS    <user>   **** ""
5 24 36 29 32 35
ATOM$BLUE        STATIC     ATOMS    COLORGROUP SYSTEM
9 37 38 39 40 41 42 43 44 45
ATOM$RED        STATIC     ATOMS    COLORGROUP SYSTEM
5 24 36 29 32 35
