AV-unprocessed.smi:2022|AV-procd|sdf|8187|dock1
  -GOLD-   2272010443D 1   1.00000     0.00000
 Structure written by MMmdl.
 34 35  0  0  0  0  0  0  0  0  1 V2000
  149.9098  129.2241  152.7323 C   0  0  0  0  0  0  0  0  0  0  0  0
  150.1023  130.6259  153.2001 C   0  0  0  0  0  0  0  0  0  0  0  0
  149.5761  131.8206  152.7961 C   0  0  0  0  0  0  0  0  0  0  0  0
  150.1952  132.7540  153.6693 C   0  0  0  0  0  0  0  0  0  0  0  0
  149.9107  134.1398  153.5711 N   0  0  0  0  0  0  0  0  0  0  0  0
  150.3013  135.1180  154.4056 C   0  0  0  0  0  0  0  0  0  0  0  0
  150.9754  134.9556  155.4233 O   0  0  0  0  0  0  0  0  0  0  0  0
  149.8630  136.3148  153.9888 N   0  0  0  0  0  0  0  0  0  0  0  0
  150.1426  137.5985  154.6319 C   0  0  2  0  0  0  0  0  0  0  0  0
  149.0411  138.6354  154.2917 C   0  0  0  0  0  0  0  0  0  0  0  0
  149.4564  140.1191  154.3785 C   0  0  0  0  0  0  0  0  0  0  0  0
  150.0892  140.5537  155.7160 C   0  0  0  0  0  0  0  0  0  0  0  0
  151.3232  139.7525  156.1953 C   0  0  0  0  0  0  0  0  0  0  0  0
  152.0591  139.0786  155.1262 N   0  0  0  0  0  0  0  0  0  0  0  0
  151.5897  138.0642  154.3795 C   0  0  0  0  0  0  0  0  0  0  0  0
  152.2794  137.5351  153.5086 O   0  0  0  0  0  0  0  0  0  0  0  0
  151.0227  132.1812  154.5301 N   0  0  0  0  0  0  0  0  0  0  0  0
  150.9677  130.8141  154.2333 O   0  0  0  0  0  0  0  0  0  0  0  0
  149.0189  129.1408  152.1098 H   0  0  0  0  0  0  0  0  0  0  0  0
  149.7956  128.5445  153.5770 H   0  0  0  0  0  0  0  0  0  0  0  0
  150.7660  128.8934  152.1442 H   0  0  0  0  0  0  0  0  0  0  0  0
  148.8657  131.9951  152.0017 H   0  0  0  0  0  0  0  0  0  0  0  0
  149.3607  134.4185  152.7721 H   0  0  0  0  0  0  0  0  0  0  0  0
  149.3178  136.3519  153.1397 H   0  0  0  0  0  0  0  0  0  0  0  0
  150.0914  137.4104  155.7053 H   0  0  0  0  0  0  0  0  0  0  0  0
  148.6769  138.4568  153.2788 H   0  0  0  0  0  0  0  0  0  0  0  0
  148.1842  138.4648  154.9448 H   0  0  0  0  0  0  0  0  0  0  0  0
  150.1425  140.3513  153.5627 H   0  0  0  0  0  0  0  0  0  0  0  0
  148.5782  140.7377  154.1911 H   0  0  0  0  0  0  0  0  0  0  0  0
  150.3786  141.6005  155.6162 H   0  0  0  0  0  0  0  0  0  0  0  0
  149.3313  140.5360  156.5001 H   0  0  0  0  0  0  0  0  0  0  0  0
  152.0095  140.4205  156.7159 H   0  0  0  0  0  0  0  0  0  0  0  0
  151.0231  139.0146  156.9401 H   0  0  0  0  0  0  0  0  0  0  0  0
  153.0031  139.3929  154.9534 H   0  0  0  0  0  0  0  0  0  0  0  0
  1  2  1  0  0  0  0
  1 19  1  0  0  0  0
  1 20  1  0  0  0  0
  1 21  1  0  0  0  0
  2 18  1  0  0  0  0
  2  3  2  0  0  0  0
  3  4  1  0  0  0  0
  3 22  1  0  0  0  0
  4  5  1  0  0  0  0
  4 17  2  0  0  0  0
  5  6  1  0  0  0  0
  5 23  1  0  0  0  0
  6  7  2  0  0  0  0
  6  8  1  0  0  0  0
  8  9  1  0  0  0  0
  8 24  1  0  0  0  0
  9 15  1  0  0  0  0
  9 10  1  0  0  0  0
  9 25  1  0  0  0  0
 10 11  1  0  0  0  0
 10 26  1  0  0  0  0
 10 27  1  0  0  0  0
 11 12  1  0  0  0  0
 11 28  1  0  0  0  0
 11 29  1  0  0  0  0
 12 13  1  0  0  0  0
 12 30  1  0  0  0  0
 12 31  1  0  0  0  0
 13 14  1  0  0  0  0
 13 32  1  0  0  0  0
 13 33  1  0  0  0  0
 14 15  1  0  0  0  0
 14 34  1  0  0  0  0
 15 16  2  0  0  0  0
 17 18  1  0  0  0  0
M  END
> <s_m_source_file>
AV-unprocessed.smi

> <i_m_source_file_index>
2022

> <i_lp_mmshare_version>
43012

> <i_f3d_flags>
0

> <s_epik_input>
W0NIM11jMVtjSF1jKG5vMSlbTkhdQyg9TylbTkhdW0NAQEhdMltDSDJdW0NIMl1bQ0gyXVtDSDJdW05IXUMyPU8=

> <s_epik_cmdline>
J2VwaWtfcHl0aG9uJywgJy1waCcsICc3LjAnLCAnLXRuJywgJzgnLCAnLW1hJywgJzIwMCcsICctbWV0YWxfYmluZGluZycsICctaW1hZScsICc8aW5maWxlLm1hZT4nLCAnLW9tYWUnLCAnPG91dGZpbGUubWFlPic=

> <r_lp_tautomer_probability>
1

> <r_epik_Ionization_Penalty>
2.27343e-05

> <r_epik_Ionization_Penalty_Charging>
0

> <r_epik_Ionization_Penalty_Neutral>
2.27343e-05

> <r_epik_State_Penalty>
-0

> <r_epik_Charging_Adjusted_Penalty>
0

> <i_epik_Tot_Q>
0

> <i_epik_Tot_abs_Q>
0

> <r_epik_Metal_State_Penalty>
-0

> <b_epik_Metal_Only>
0

> <s_lp_Force_Field>
OPLS_2005

> <r_lp_Energy>
12.0489

> <b_lp_Chiralities_Consistent>
1

> <s_lp_Variant>
AV-unprocessed.smi:2022-1

> <Gold.Version>
5.8.1

> <Gold.Id.Protein>
6NUR|6NUR_protein|mol2

> <Gold.PLP.Fitness>
37.3027

> <Gold.PLP.PLP>
-30.3137

> <Gold.PLP.part.hbond>
-3.0000

> <Gold.PLP.part.metal>
0.0000

> <Gold.PLP.part.buried>
-3.4064

> <Gold.PLP.part.nonpolar>
-24.6080

> <Gold.PLP.part.repulsive>
0.4314

> <Gold.PLP.ligand.clash>
0.0000

> <Gold.PLP.ligand.torsion>
0.2714

> <Gold.PLP.Chemscore.Hbond>
2.4928

> <Gold.PLP.Chemscore.CHOScore>
0.0000

> <Gold.PLP.Chemscore.Metal>
0.0000

> <Gold.Chemscore.Hbonds>
donor molecule, donor type, donor heavy atom, donor atom, acceptor molecule, acceptor atom, score
      L1  H     8    24       P1  7948  0.44
      P1  H 10752 10763       L1    16  0.94

> <Gold.PLP.Chemscore.Internal.Correction>
0.0534

> <Gold.Rescore>
     Score         DG    S(hbond)    S(metal)    S(lipo)     H(rot)  DE(clash)    DE(int)     intcor
     13.57     -15.20       2.12        0.00      44.43       1.00       0.05       1.59       ----

> <Gold.Chemscore.Fitness>
13.5670

> <Gold.Chemscore.DG>
-15.2043

> <Gold.Chemscore.ZeroCoef>
-5.4800

> <Gold.Chemscore.Hbond>
2.1214

> <Gold.Chemscore.Metal>
0.0000

> <Gold.Chemscore.Lipo>
44.4341

> <Gold.Chemscore.Internal_Hbond>
0.0000

> <Gold.Chemscore.DEClash>
0.0491

> <Gold.Chemscore.DEInternal>
1.5882

> <Gold.Chemscore.Rot>
1.0000

> <Gold.Chemscore.Internal.Correction>
   9.000000E+99

> <Gold.Chemscore.Hbonds>
donor molecule, donor type, donor heavy atom, donor atom, acceptor molecule, acceptor atom, score
      L1  H     8    24       P1  7948  0.34
      P1  H 10752 10763       L1    16  0.84

> <Gold.Chemscore.Hbond.Weighted>
-7.0855

> <Gold.Chemscore.Metal.Weighted>
-0.0000

> <Gold.Chemscore.Lipo.Weighted>
-5.1988

> <Gold.Chemscore.Internal_Hbond.Weighted>
0.0000

> <Gold.Chemscore.DEClash.Weighted>
0.0491

> <Gold.Chemscore.DEInternal.Weighted>
1.5882

> <Gold.Chemscore.Rot.Weighted>
2.5600

> <Gold.Chemscore.Internal.Correction.Weighted>
   9.000000E+99

> <Gold.Protein.RotatedTorsions>
[ 6907 6896 6895 6894 ] final -179.19 input  -60.11 | X-H torsion
[ 7974 7965 7964 7962 ] final -114.97 input  175.53 | X-H torsion
[ 8008 7997 7996 7995 ] final   -6.85 input   59.86 | X-H torsion
[ 10167 10162 10161 10158 ] final   24.65 input  -65.29 | X-H torsion
[ 10718 10713 10712 10709 ] final -101.17 input   66.30 | X-H torsion
[ 10763 10752 10751 10750 ] final   14.36 input  -60.55 | X-H torsion
[ 11005 11000 10999 10996 ] final  113.23 input  -57.11 | X-H torsion

> <Gold.Protein.ActiveResidues>
 VAL166  LYS551  ARG553  GLY616  TRP617  ASP618  TYR619  PRO620  LYS621  CYS622 
 ASP623  PHE694  ASN695  SER759  ASP760  ASP761  ALA762  ILE779  LEU786  VAL792 
 PHE793  MET794  SER795  GLU796  ALA797  LYS798  CYS799  TRP800  GLU811  SER814 

> <Gold.Protein.RotatedAtoms>
  151.6494  133.3321  159.3148 H   0  0  0  0  0  0  0  0  0  0  0  0  # atno 6907 bound_to 6896
  150.7967  134.7036  159.6574 H   0  0  0  0  0  0  0  0  0  0  0  0  # atno 6908 bound_to 6896
  152.4055  134.6218  160.0104 H   0  0  0  0  0  0  0  0  0  0  0  0  # atno 6909 bound_to 6896
  145.1139  140.8628  143.3854 H   0  0  0  0  0  0  0  0  0  0  0  0  # atno 7974 bound_to 7965
  154.5896  140.2422  155.7939 H   0  0  0  0  0  0  0  0  0  0  0  0  # atno 8008 bound_to 7997
  156.2238  140.2989  155.9971 H   0  0  0  0  0  0  0  0  0  0  0  0  # atno 8009 bound_to 7997
  155.2397  140.0406  157.2964 H   0  0  0  0  0  0  0  0  0  0  0  0  # atno 8010 bound_to 7997
  140.5170  144.0065  150.6399 H   0  0  0  0  0  0  0  0  0  0  0  0  # atno 10167 bound_to 10162
  156.0186  130.5361  150.6924 H   0  0  0  0  0  0  0  0  0  0  0  0  # atno 10718 bound_to 10713
  153.1629  135.6799  153.8716 H   0  0  0  0  0  0  0  0  0  0  0  0  # atno 10763 bound_to 10752
  153.8105  135.3143  155.3401 H   0  0  0  0  0  0  0  0  0  0  0  0  # atno 10764 bound_to 10752
  154.7945  135.4815  154.0219 H   0  0  0  0  0  0  0  0  0  0  0  0  # atno 10765 bound_to 10752
  139.8947  134.9545  156.6706 H   0  0  0  0  0  0  0  0  0  0  0  0  # atno 11005 bound_to 11000
  145.0816  139.2955  143.5780 LP  0  0  0  0  0  0  0  0  0  0  0  0  # atno 17320 bound_to 7965
  146.3525  140.0325  142.8649 LP  0  0  0  0  0  0  0  0  0  0  0  0  # atno 17321 bound_to 7965
  140.3404  143.3023  152.0594 LP  0  0  0  0  0  0  0  0  0  0  0  0  # atno 17342 bound_to 10162
  139.4912  144.6447  151.6804 LP  0  0  0  0  0  0  0  0  0  0  0  0  # atno 17343 bound_to 10162
  157.4603  131.0882  151.0753 LP  0  0  0  0  0  0  0  0  0  0  0  0  # atno 17370 bound_to 10713
  157.1243  130.6075  149.5513 LP  0  0  0  0  0  0  0  0  0  0  0  0  # atno 17371 bound_to 10713
  140.7376  133.9005  155.8255 LP  0  0  0  0  0  0  0  0  0  0  0  0  # atno 17394 bound_to 11000
  141.0103  134.1029  157.4228 LP  0  0  0  0  0  0  0  0  0  0  0  0  # atno 17395 bound_to 11000

$$$$
