AV-unprocessed.smi:3285|AV-procd|sdf|12586|dock5
  -GOLD-   2272018503D 1   1.00000     0.00000
 Structure written by MMmdl.
 45 46  0  0  0  0  0  0  0  0  2 V2000
  148.2082  138.2463  156.8357 C   0  0  0  0  0  0  0  0  0  0  0  0
  149.6220  137.8899  156.4764 C   0  0  0  0  0  0  0  0  0  0  0  0
  149.9764  136.6169  156.4413 N   0  0  0  0  0  0  0  0  0  0  0  0
  151.3277  136.6040  156.0852 O   0  0  0  0  0  0  0  0  0  0  0  0
  151.7402  137.8854  155.9175 C   0  0  0  0  0  0  0  0  0  0  0  0
  153.1671  138.0734  155.5259 C   0  0  0  0  0  0  0  0  0  0  0  0
  150.7071  138.7535  156.1472 C   0  0  0  0  0  0  0  0  0  0  0  0
  150.7038  140.2597  156.0708 C   0  0  0  0  0  0  0  0  0  0  0  0
  149.7036  140.8883  157.0530 C   0  0  0  0  0  0  0  0  0  0  0  0
  149.9072  142.3484  157.1692 N   0  3  0  0  0  0  0  0  0  0  0  0
  151.2024  142.7671  157.7477 C   0  0  2  0  0  0  0  0  0  0  0  0
  151.6525  141.7398  158.8013 C   0  0  0  0  0  0  0  0  0  0  0  0
  152.9781  142.1519  159.4632 C   0  0  0  0  0  0  0  0  0  0  0  0
  152.9036  143.5569  160.0947 C   0  0  2  0  0  0  0  0  0  0  0  0
  152.0546  143.5568  161.3822 C   0  0  0  0  0  0  0  0  0  0  0  0
  152.4482  144.5905  159.0328 C   0  0  2  0  0  0  0  0  0  0  0  0
  152.3961  146.0306  159.5694 C   0  0  0  0  0  0  0  0  0  0  0  0
  151.1193  144.1789  158.3662 C   0  0  0  0  0  0  0  0  0  0  0  0
  147.9668  139.2680  156.5440 H   0  0  0  0  0  0  0  0  0  0  0  0
  148.0469  138.1610  157.9102 H   0  0  0  0  0  0  0  0  0  0  0  0
  147.4959  137.5870  156.3390 H   0  0  0  0  0  0  0  0  0  0  0  0
  153.4166  139.1303  155.4342 H   0  0  0  0  0  0  0  0  0  0  0  0
  153.3694  137.5959  154.5673 H   0  0  0  0  0  0  0  0  0  0  0  0
  153.8315  137.6341  156.2701 H   0  0  0  0  0  0  0  0  0  0  0  0
  151.6984  140.6520  156.2852 H   0  0  0  0  0  0  0  0  0  0  0  0
  150.4759  140.5975  155.0592 H   0  0  0  0  0  0  0  0  0  0  0  0
  148.6842  140.6867  156.7209 H   0  0  0  0  0  0  0  0  0  0  0  0
  149.8192  140.4244  158.0325 H   0  0  0  0  0  0  0  0  0  0  0  0
  149.7991  142.7751  156.2602 H   0  0  0  0  0  0  0  0  0  0  0  0
  151.9460  142.7722  156.9488 H   0  0  0  0  0  0  0  0  0  0  0  0
  150.8807  141.6238  159.5631 H   0  0  0  0  0  0  0  0  0  0  0  0
  151.7697  140.7596  158.3376 H   0  0  0  0  0  0  0  0  0  0  0  0
  153.2655  141.4142  160.2134 H   0  0  0  0  0  0  0  0  0  0  0  0
  153.7686  142.1377  158.7116 H   0  0  0  0  0  0  0  0  0  0  0  0
  153.9177  143.8232  160.3966 H   0  0  0  0  0  0  0  0  0  0  0  0
  151.0028  143.3537  161.1834 H   0  0  0  0  0  0  0  0  0  0  0  0
  152.1146  144.5133  161.9007 H   0  0  0  0  0  0  0  0  0  0  0  0
  152.4086  142.7975  162.0801 H   0  0  0  0  0  0  0  0  0  0  0  0
  153.2079  144.5877  158.2494 H   0  0  0  0  0  0  0  0  0  0  0  0
  151.5997  146.1614  160.3022 H   0  0  0  0  0  0  0  0  0  0  0  0
  152.2149  146.7407  158.7621 H   0  0  0  0  0  0  0  0  0  0  0  0
  153.3377  146.3081  160.0438 H   0  0  0  0  0  0  0  0  0  0  0  0
  150.8719  144.9087  157.5953 H   0  0  0  0  0  0  0  0  0  0  0  0
  150.3081  144.2201  159.0940 H   0  0  0  0  0  0  0  0  0  0  0  0
  149.1790  142.6992  157.7751 H   0  0  0  0  0  0  0  0  0  0  0  0
  1  2  1  0  0  0  0
  1 19  1  0  0  0  0
  1 20  1  0  0  0  0
  1 21  1  0  0  0  0
  2  7  1  0  0  0  0
  2  3  2  0  0  0  0
  3  4  1  0  0  0  0
  4  5  1  0  0  0  0
  5  6  1  0  0  0  0
  5  7  2  0  0  0  0
  6 22  1  0  0  0  0
  6 23  1  0  0  0  0
  6 24  1  0  0  0  0
  7  8  1  0  0  0  0
  8  9  1  0  0  0  0
  8 25  1  0  0  0  0
  8 26  1  0  0  0  0
  9 10  1  0  0  0  0
  9 27  1  0  0  0  0
  9 28  1  0  0  0  0
 10 11  1  0  0  0  0
 10 29  1  0  0  0  0
 10 45  1  0  0  0  0
 11 18  1  0  0  0  0
 11 12  1  0  0  0  0
 11 30  1  0  0  0  0
 12 13  1  0  0  0  0
 12 31  1  0  0  0  0
 12 32  1  0  0  0  0
 13 14  1  0  0  0  0
 13 33  1  0  0  0  0
 13 34  1  0  0  0  0
 14 15  1  0  0  0  0
 14 16  1  0  0  0  0
 14 35  1  0  0  0  0
 15 36  1  0  0  0  0
 15 37  1  0  0  0  0
 15 38  1  0  0  0  0
 16 17  1  0  0  0  0
 16 18  1  0  0  0  0
 16 39  1  0  0  0  0
 17 40  1  0  0  0  0
 17 41  1  0  0  0  0
 17 42  1  0  0  0  0
 18 43  1  0  0  0  0
 18 44  1  0  0  0  0
M  CHG  1  10   1
M  END
> <s_m_source_file>
AV-unprocessed.smi

> <i_m_source_file_index>
3285

> <i_lp_mmshare_version>
43012

> <i_f3d_flags>
0

> <s_epik_input>
W0NIM11jMW5vYyhbQ0gzXSljMVtDSDJdW0NIMl1bTkhdW0NAQEhdMltDSDJdW0NIMl1bQ0BASF0oW0NIM10pW0NAQEhdKFtDSDNdKVtDSDJdMg==

> <s_epik_cmdline>
J2VwaWtfcHl0aG9uJywgJy1waCcsICc3LjAnLCAnLXRuJywgJzgnLCAnLW1hJywgJzIwMCcsICctbWV0YWxfYmluZGluZycsICctaW1hZScsICc8aW5maWxlLm1hZT4nLCAnLW9tYWUnLCAnPG91dGZpbGUubWFlPic=

> <r_lp_tautomer_probability>
1

> <r_epik_Ionization_Penalty>
0.000204615

> <r_epik_Ionization_Penalty_Charging>
0.000204615

> <r_epik_Ionization_Penalty_Neutral>
9.28663e-11

> <r_epik_State_Penalty>
-0

> <r_epik_Charging_Adjusted_Penalty>
0.000204615

> <i_epik_Tot_Q>
1

> <i_epik_Tot_abs_Q>
1

> <r_epik_Metal_State_Penalty>
-0

> <b_epik_Metal_Only>
0

> <s_lp_Force_Field>
OPLS_2005

> <r_lp_Energy>
13.9003

> <b_lp_Chiralities_Consistent>
1

> <s_lp_Variant>
AV-unprocessed.smi:3285-7

> <Gold.Version>
5.8.1

> <Gold.Id.Protein>
6NUR|6NUR_protein|mol2

> <Gold.PLP.Fitness>
46.8733

> <Gold.PLP.PLP>
-39.6383

> <Gold.PLP.part.hbond>
-2.0000

> <Gold.PLP.part.metal>
0.0000

> <Gold.PLP.part.buried>
-4.9775

> <Gold.PLP.part.nonpolar>
-33.6151

> <Gold.PLP.part.repulsive>
0.2525

> <Gold.PLP.ligand.clash>
0.0000

> <Gold.PLP.ligand.torsion>
0.6928

> <Gold.PLP.Chemscore.Hbond>
2.8715

> <Gold.PLP.Chemscore.CHOScore>
0.0000

> <Gold.PLP.Chemscore.Metal>
0.0000

> <Gold.Chemscore.Hbonds>
donor molecule, donor type, donor heavy atom, donor atom, acceptor molecule, acceptor atom, score
      L1  H    10    29       P1  8028  0.63

> <Gold.PLP.Chemscore.Internal.Correction>
0.0061

> <Gold.Rescore>
     Score         DG    S(hbond)    S(metal)    S(lipo)     H(rot)  DE(clash)    DE(int)     intcor
     18.85     -19.44       0.91        0.00     122.79       1.35       0.06       0.53       ----

> <Gold.Chemscore.Fitness>
18.8495

> <Gold.Chemscore.DG>
-19.4383

> <Gold.Chemscore.ZeroCoef>
-5.4800

> <Gold.Chemscore.Hbond>
0.9100

> <Gold.Chemscore.Metal>
0.0000

> <Gold.Chemscore.Lipo>
122.7866

> <Gold.Chemscore.Internal_Hbond>
0.0000

> <Gold.Chemscore.DEClash>
0.0574

> <Gold.Chemscore.DEInternal>
0.5314

> <Gold.Chemscore.Rot>
1.3465

> <Gold.Chemscore.Internal.Correction>
   9.000000E+99

> <Gold.Chemscore.Hbonds>
donor molecule, donor type, donor heavy atom, donor atom, acceptor molecule, acceptor atom, score
      L1  H    10    29       P1  8028  0.31

> <Gold.Chemscore.Hbond.Weighted>
-3.0393

> <Gold.Chemscore.Metal.Weighted>
-0.0000

> <Gold.Chemscore.Lipo.Weighted>
-14.3660

> <Gold.Chemscore.Internal_Hbond.Weighted>
0.0000

> <Gold.Chemscore.DEClash.Weighted>
0.0574

> <Gold.Chemscore.DEInternal.Weighted>
0.5314

> <Gold.Chemscore.Rot.Weighted>
3.4470

> <Gold.Chemscore.Internal.Correction.Weighted>
   9.000000E+99

> <Gold.Protein.RotatedTorsions>
[ 6907 6896 6895 6894 ] final   36.42 input  -60.11 | X-H torsion
[ 7974 7965 7964 7962 ] final   26.66 input  175.53 | X-H torsion
[ 8008 7997 7996 7995 ] final  -27.64 input   59.86 | X-H torsion
[ 10167 10162 10161 10158 ] final   62.03 input  -65.29 | X-H torsion
[ 10718 10713 10712 10709 ] final   21.64 input   66.30 | X-H torsion
[ 10763 10752 10751 10750 ] final  165.04 input  -60.55 | X-H torsion
[ 11005 11000 10999 10996 ] final -164.47 input  -57.11 | X-H torsion

> <Gold.Protein.ActiveResidues>
 VAL166  LYS551  ARG553  GLY616  TRP617  ASP618  TYR619  PRO620  LYS621  CYS622 
 ASP623  PHE694  ASN695  SER759  ASP760  ASP761  ALA762  ILE779  LEU786  VAL792 
 PHE793  MET794  SER795  GLU796  ALA797  LYS798  CYS799  TRP800  GLU811  SER814 

> <Gold.Protein.RotatedAtoms>
  152.1295  134.9145  160.0559 H   0  0  0  0  0  0  0  0  0  0  0  0  # atno 6907 bound_to 6896
  152.0255  133.3911  159.4284 H   0  0  0  0  0  0  0  0  0  0  0  0  # atno 6908 bound_to 6896
  150.6855  134.3500  159.4948 H   0  0  0  0  0  0  0  0  0  0  0  0  # atno 6909 bound_to 6896
  146.1826  139.7298  142.8890 H   0  0  0  0  0  0  0  0  0  0  0  0  # atno 7974 bound_to 7965
  154.4368  140.1867  156.0963 H   0  0  0  0  0  0  0  0  0  0  0  0  # atno 8008 bound_to 7997
  156.0326  140.3329  155.7131 H   0  0  0  0  0  0  0  0  0  0  0  0  # atno 8009 bound_to 7997
  155.5816  140.0622  157.2772 H   0  0  0  0  0  0  0  0  0  0  0  0  # atno 8010 bound_to 7997
  140.1483  144.4487  150.6773 H   0  0  0  0  0  0  0  0  0  0  0  0  # atno 10167 bound_to 10162
  157.1412  130.6633  149.5982 H   0  0  0  0  0  0  0  0  0  0  0  0  # atno 10718 bound_to 10713
  154.3179  135.2756  155.2534 H   0  0  0  0  0  0  0  0  0  0  0  0  # atno 10763 bound_to 10752
  154.4900  135.5836  153.6455 H   0  0  0  0  0  0  0  0  0  0  0  0  # atno 10764 bound_to 10752
  152.9880  135.6132  154.3362 H   0  0  0  0  0  0  0  0  0  0  0  0  # atno 10765 bound_to 10752
  140.5866  134.5087  157.5186 H   0  0  0  0  0  0  0  0  0  0  0  0  # atno 11005 bound_to 11000
  145.4033  141.0388  143.3058 LP  0  0  0  0  0  0  0  0  0  0  0  0  # atno 17320 bound_to 7965
  144.8341  139.5580  143.6930 LP  0  0  0  0  0  0  0  0  0  0  0  0  # atno 17321 bound_to 7965
  140.6718  143.2289  151.5606 LP  0  0  0  0  0  0  0  0  0  0  0  0  # atno 17342 bound_to 10162
  139.5438  144.2575  152.1403 LP  0  0  0  0  0  0  0  0  0  0  0  0  # atno 17343 bound_to 10162
  155.9788  130.4777  150.6678 LP  0  0  0  0  0  0  0  0  0  0  0  0  # atno 17370 bound_to 10713
  157.4305  131.0848  151.1043 LP  0  0  0  0  0  0  0  0  0  0  0  0  # atno 17371 bound_to 10713
  139.9293  134.7995  156.0977 LP  0  0  0  0  0  0  0  0  0  0  0  0  # atno 17394 bound_to 11000
  141.0962  133.6695  156.2650 LP  0  0  0  0  0  0  0  0  0  0  0  0  # atno 17395 bound_to 11000

$$$$
