#       Name:                AV-unprocessed.smi:2896
#       Creating user name   scv26
#       Creation time:       Fri Mar 27 16:01:34 2020


#       File generated by GOLD software.
#

@<TRIPOS>MOLECULE
AV-unprocessed.smi:2896
    55    56     1
SMALL
NO_CHARGES


@<TRIPOS>ATOM
      1 ****        -1.0693   2.6327   0.0133 C.3            1 S1                 0.0000
      2 ****        -1.4161   1.2233   0.5257 C.3            1 S1                 0.0000
      3 ****        -0.7051   0.1176  -0.2874 C.3            1 S1                 0.0000
      4 ****         0.7491   0.2039  -0.1883 N.am           1 S1                 0.0000
      5 ****         1.5781   0.6790  -1.1341 C.2            1 S1                 0.0000
      6 ****         1.1683   1.0926  -2.2199 O.2            1 S1                 0.0000
      7 ****         3.0998   0.6818  -0.8366 C.3            1 S1                 0.0000
      8 ****         3.6510   2.0866  -1.1877 C.3            1 S1                 0.0000
      9 ****         3.4077   0.4418   0.6638 C.3            1 S1                 0.0000
     10 ****         3.7380  -0.4409  -1.6773 C.ar           1 S1                 0.0000
     11 ****         3.3770  -1.7929  -1.4591 C.ar           1 S1                 0.0000
     12 ****         3.9690  -2.8063  -2.2357 C.ar           1 S1                 0.0000
     13 ****         4.9106  -2.4352  -3.2129 C.ar           1 S1                 0.0000
     14 ****         5.2716  -1.1560  -3.4400 N.ar           1 S1                 0.0000
     15 ****         4.6973  -0.1903  -2.6909 C.ar           1 S1                 0.0000
     16 ****        -2.9489   1.0296   0.5135 C.3            1 S1                 0.0000
     17 ****        -3.4440  -0.2156   1.1038 N.3            1 S1                 0.0000
     18 ****        -3.2270  -0.2864   2.5476 C.3            1 S1                 0.0000
     19 ****        -3.7806  -1.5907   3.1477 C.3            1 S1                 0.0000
     20 ****        -5.1639  -1.7147   2.8347 O.3            1 S1                 0.0000
     21 ****        -5.4119  -1.6977   1.4330 C.3            1 S1                 0.0000
     22 ****        -4.8665  -0.3918   0.8304 C.3            1 S1                 0.0000
     23 ****        -1.3365   2.7482  -1.0377 H              1 S1                 0.0000
     24 ****        -0.0053   2.8475   0.1121 H              1 S1                 0.0000
     25 ****        -1.6024   3.3984   0.5776 H              1 S1                 0.0000
     26 ****        -1.0616   1.1738   1.5549 H              1 S1                 0.0000
     27 ****        -0.9873  -0.8637   0.0944 H              1 S1                 0.0000
     28 ****        -1.0342   0.1393  -1.3276 H              1 S1                 0.0000
     29 ****         1.1622  -0.1222   0.6735 H              1 S1                 0.0000
     30 ****         3.4848   2.3526  -2.2325 H              1 S1                 0.0000
     31 ****         4.7230   2.1530  -0.9980 H              1 S1                 0.0000
     32 ****         3.1737   2.8597  -0.5837 H              1 S1                 0.0000
     33 ****         3.0381  -0.5187   1.0239 H              1 S1                 0.0000
     34 ****         2.9667   1.2172   1.2920 H              1 S1                 0.0000
     35 ****         4.4830   0.4545   0.8453 H              1 S1                 0.0000
     36 ****         2.6492  -2.0579  -0.7065 H              1 S1                 0.0000
     37 ****         3.7060  -3.8431  -2.0868 H              1 S1                 0.0000
     38 ****         5.3853  -3.1850  -3.8282 H              1 S1                 0.0000
     39 ****         5.0326   0.8077  -2.9257 H              1 S1                 0.0000
     40 ****        -3.4224   1.8739   1.0169 H              1 S1                 0.0000
     41 ****        -3.2798   1.0838  -0.5247 H              1 S1                 0.0000
     42 ****        -2.1638  -0.2275   2.7764 H              1 S1                 0.0000
     43 ****        -3.7014   0.5660   3.0360 H              1 S1                 0.0000
     44 ****        -3.2354  -2.4540   2.7630 H              1 S1                 0.0000
     45 ****        -3.6585  -1.5915   4.2308 H              1 S1                 0.0000
     46 ****        -4.9457  -2.5649   0.9628 H              1 S1                 0.0000
     47 ****        -6.4850  -1.7764   1.2596 H              1 S1                 0.0000
     48 ****        -5.4281   0.4520   1.2345 H              1 S1                 0.0000
     49 ****        -5.0393  -0.3943  -0.2464 H              1 S1                 0.0000
     50 ****         0.1889   1.0820  -2.4216 LP             1 S1                 0.0000
     51 ****         1.8150   1.4389  -2.8994 LP             1 S1                 0.0000
     52 ****         5.9454  -0.9289  -4.1431 LP             1 S1                 0.0000
     53 ****        -2.9176  -0.9500   0.6755 LP             1 S1                 0.0000
     54 ****        -5.6572  -0.9538   3.2564 LP             1 S1                 0.0000
     55 ****        -5.5008  -2.5786   3.2091 LP             1 S1                 0.0000
@<TRIPOS>BOND
    1    1    2 1     
    2    1   23 1     
    3    1   24 1     
    4    1   25 1     
    5    2    3 1     
    6    2   16 1     
    7    2   26 1     
    8    3    4 1     
    9    3   27 1     
   10    3   28 1     
   11    4    5 am    
   12    4   29 1     
   13    5    6 2     
   14    5    7 1     
   15    7    8 1     
   16    7    9 1     
   17    7   10 1     
   18    8   30 1     
   19    8   31 1     
   20    8   32 1     
   21    9   33 1     
   22    9   34 1     
   23    9   35 1     
   24   10   15 ar    
   25   10   11 ar    
   26   11   12 ar    
   27   11   36 1     
   28   12   13 ar    
   29   12   37 1     
   30   13   14 ar    
   31   13   38 1     
   32   14   15 ar    
   33   15   39 1     
   34   16   17 1     
   35   16   40 1     
   36   16   41 1     
   37   17   22 1     
   38   17   18 1     
   39   18   19 1     
   40   18   42 1     
   41   18   43 1     
   42   19   20 1     
   43   19   44 1     
   44   19   45 1     
   45   20   21 1     
   46   21   22 1     
   47   21   46 1     
   48   21   47 1     
   49   22   48 1     
   50   22   49 1     
   51    6   50 1     
   52    6   51 1     
   53   14   52 1     
   54   17   53 1     
   55   20   54 1     
   56   20   55 1     
@<TRIPOS>SUBSTRUCTURE
      1 S1             1
@<TRIPOS>SET
LONE_PAIRS      STATIC     ATOMS    <user>   **** ""
6 50 51 52 53 54 55
DONOR_HYDROGENS      STATIC     ATOMS    <user>   **** ""
1 29
ATOM$BLUE        STATIC     ATOMS    COLORGROUP SYSTEM
6 50 51 52 53 54 55
ATOM$RED        STATIC     ATOMS    COLORGROUP SYSTEM
1 29
