AV-unprocessed.smi:1573|AV-procd|sdf|6334|dock5
  -GOLD-   22720 6543D 1   1.00000     0.00000
 Structure written by MMmdl.
 41 41  0  0  0  0  0  0  0  0  1 V2000
  150.4814  139.0454  154.4218 C   0  0  0  0  0  0  0  0  0  0  0  0
  151.3218  137.7619  154.3827 C   0  0  0  0  0  0  0  0  0  0  0  0
  150.4801  136.5717  154.3814 N   0  0  0  0  0  0  0  0  0  0  0  0
  150.3496  135.7178  155.4083 C   0  0  0  0  0  0  0  0  0  0  0  0
  150.9566  135.8450  156.4732 O   0  0  0  0  0  0  0  0  0  0  0  0
  149.3948  134.5335  155.1885 C   0  0  1  0  0  0  0  0  0  0  0  0
  150.2029  133.2335  155.3345 C   0  0  0  0  0  0  0  0  0  0  0  0
  148.3464  134.5266  156.2058 N   0  0  0  0  0  0  0  0  0  0  0  0
  148.5197  134.2179  157.5011 C   0  0  0  0  0  0  0  0  0  0  0  0
  149.6070  133.9040  157.9854 O   0  0  0  0  0  0  0  0  0  0  0  0
  147.2739  134.2727  158.3847 C   0  0  0  0  0  0  0  0  0  0  0  0
  147.5274  135.1742  159.5667 C   0  0  0  0  0  0  0  0  0  0  0  0
  148.0412  136.5049  159.5524 C   0  0  0  0  0  0  0  0  0  0  0  0
  148.4596  137.3293  158.3683 C   0  0  0  0  0  0  0  0  0  0  0  0
  148.1483  137.0174  160.7670 N   0  0  0  0  0  0  0  0  0  0  0  0
  147.7095  136.0452  161.5913 N   0  0  0  0  0  0  0  0  0  0  0  0
  147.6912  136.2797  163.0220 C   0  0  0  0  0  0  0  0  0  0  0  0
  147.3292  134.9137  160.8964 C   0  0  0  0  0  0  0  0  0  0  0  0
  146.8138  133.6913  161.5851 C   0  0  0  0  0  0  0  0  0  0  0  0
  151.1207  139.9278  154.3856 H   0  0  0  0  0  0  0  0  0  0  0  0
  149.8877  139.1046  155.3345 H   0  0  0  0  0  0  0  0  0  0  0  0
  149.7981  139.0949  153.5732 H   0  0  0  0  0  0  0  0  0  0  0  0
  151.9305  137.7489  153.4783 H   0  0  0  0  0  0  0  0  0  0  0  0
  152.0157  137.7354  155.2244 H   0  0  0  0  0  0  0  0  0  0  0  0
  149.9462  136.3908  153.5435 H   0  0  0  0  0  0  0  0  0  0  0  0
  148.9508  134.5805  154.1920 H   0  0  0  0  0  0  0  0  0  0  0  0
  151.0039  133.1796  154.5960 H   0  0  0  0  0  0  0  0  0  0  0  0
  149.5652  132.3616  155.1844 H   0  0  0  0  0  0  0  0  0  0  0  0
  150.6548  133.1434  156.3239 H   0  0  0  0  0  0  0  0  0  0  0  0
  147.4150  134.7664  155.8986 H   0  0  0  0  0  0  0  0  0  0  0  0
  146.4307  134.6209  157.7876 H   0  0  0  0  0  0  0  0  0  0  0  0
  147.0162  133.2618  158.7026 H   0  0  0  0  0  0  0  0  0  0  0  0
  149.4411  137.0213  158.0078 H   0  0  0  0  0  0  0  0  0  0  0  0
  148.5144  138.3903  158.6146 H   0  0  0  0  0  0  0  0  0  0  0  0
  147.7539  137.2201  157.5449 H   0  0  0  0  0  0  0  0  0  0  0  0
  146.6949  136.0753  163.4148 H   0  0  0  0  0  0  0  0  0  0  0  0
  147.9518  137.3150  163.2465 H   0  0  0  0  0  0  0  0  0  0  0  0
  148.4097  135.6205  163.5098 H   0  0  0  0  0  0  0  0  0  0  0  0
  146.6957  132.8636  160.8859 H   0  0  0  0  0  0  0  0  0  0  0  0
  145.8436  133.8854  162.0426 H   0  0  0  0  0  0  0  0  0  0  0  0
  147.4999  133.3676  162.3682 H   0  0  0  0  0  0  0  0  0  0  0  0
  1  2  1  0  0  0  0
  1 20  1  0  0  0  0
  1 21  1  0  0  0  0
  1 22  1  0  0  0  0
  2  3  1  0  0  0  0
  2 23  1  0  0  0  0
  2 24  1  0  0  0  0
  3  4  1  0  0  0  0
  3 25  1  0  0  0  0
  4  5  2  0  0  0  0
  4  6  1  0  0  0  0
  6  7  1  0  0  0  0
  6  8  1  0  0  0  0
  6 26  1  0  0  0  0
  7 27  1  0  0  0  0
  7 28  1  0  0  0  0
  7 29  1  0  0  0  0
  8  9  1  0  0  0  0
  8 30  1  0  0  0  0
  9 10  2  0  0  0  0
  9 11  1  0  0  0  0
 11 12  1  0  0  0  0
 11 31  1  0  0  0  0
 11 32  1  0  0  0  0
 12 18  2  0  0  0  0
 12 13  1  0  0  0  0
 13 14  1  0  0  0  0
 13 15  2  0  0  0  0
 14 33  1  0  0  0  0
 14 34  1  0  0  0  0
 14 35  1  0  0  0  0
 15 16  1  0  0  0  0
 16 17  1  0  0  0  0
 16 18  1  0  0  0  0
 17 36  1  0  0  0  0
 17 37  1  0  0  0  0
 17 38  1  0  0  0  0
 18 19  1  0  0  0  0
 19 39  1  0  0  0  0
 19 40  1  0  0  0  0
 19 41  1  0  0  0  0
M  END
> <s_m_source_file>
AV-unprocessed.smi

> <i_m_source_file_index>
1573

> <i_lp_mmshare_version>
43012

> <i_f3d_flags>
0

> <s_epik_input>
W0NIM11bQ0gyXVtOSF1DKD1PKVtDQEhdKFtDSDNdKVtOSF1DKD1PKVtDSDJdYzFjKFtDSDNdKW5uKFtDSDNdKWMxW0NIM10=

> <s_epik_cmdline>
J2VwaWtfcHl0aG9uJywgJy1waCcsICc3LjAnLCAnLXRuJywgJzgnLCAnLW1hJywgJzIwMCcsICctbWV0YWxfYmluZGluZycsICctaW1hZScsICc8aW5maWxlLm1hZT4nLCAnLW9tYWUnLCAnPG91dGZpbGUubWFlPic=

> <r_lp_tautomer_probability>
1

> <r_epik_Ionization_Penalty>
0.00278414

> <r_epik_Ionization_Penalty_Charging>
0

> <r_epik_Ionization_Penalty_Neutral>
0.00278414

> <r_epik_State_Penalty>
0.00194489

> <r_epik_Charging_Adjusted_Penalty>
0.00194489

> <i_epik_Tot_Q>
0

> <i_epik_Tot_abs_Q>
0

> <r_epik_Metal_State_Penalty>
-0

> <b_epik_Metal_Only>
0

> <s_lp_Force_Field>
OPLS_2005

> <r_lp_Energy>
-3.15373

> <b_lp_Chiralities_Consistent>
1

> <s_lp_Variant>
AV-unprocessed.smi:1573-2

> <Gold.Version>
5.8.1

> <Gold.Id.Protein>
6NUR|6NUR_protein|mol2

> <Gold.PLP.Fitness>
43.8133

> <Gold.PLP.PLP>
-33.7817

> <Gold.PLP.part.hbond>
-4.7338

> <Gold.PLP.part.metal>
0.0000

> <Gold.PLP.part.buried>
-3.8729

> <Gold.PLP.part.nonpolar>
-25.0931

> <Gold.PLP.part.repulsive>
0.0680

> <Gold.PLP.ligand.clash>
0.0000

> <Gold.PLP.ligand.torsion>
0.3059

> <Gold.PLP.Chemscore.Hbond>
3.5396

> <Gold.PLP.Chemscore.CHOScore>
0.0000

> <Gold.PLP.Chemscore.Metal>
0.0000

> <Gold.Chemscore.Hbonds>
donor molecule, donor type, donor heavy atom, donor atom, acceptor molecule, acceptor atom, score
      L1  H     3    25       P1  7948  0.85
      P1  H  6896  6907       L1    10  1.00
      P1  H  6931  6943       L1    15  0.93
      P1  H  6934  6947       L1    15  0.37

> <Gold.PLP.Chemscore.Internal.Correction>
0.0245

> <Gold.Rescore>
     Score         DG    S(hbond)    S(metal)    S(lipo)     H(rot)  DE(clash)    DE(int)     intcor
     15.81     -18.08       3.08        0.00      61.46       1.91       0.07       2.20       ----

> <Gold.Chemscore.Fitness>
15.8053

> <Gold.Chemscore.DG>
-18.0807

> <Gold.Chemscore.ZeroCoef>
-5.4800

> <Gold.Chemscore.Hbond>
3.0838

> <Gold.Chemscore.Metal>
0.0000

> <Gold.Chemscore.Lipo>
61.4561

> <Gold.Chemscore.Internal_Hbond>
0.0000

> <Gold.Chemscore.DEClash>
0.0727

> <Gold.Chemscore.DEInternal>
2.2027

> <Gold.Chemscore.Rot>
1.9100

> <Gold.Chemscore.Internal.Correction>
   9.000000E+99

> <Gold.Chemscore.Hbonds>
donor molecule, donor type, donor heavy atom, donor atom, acceptor molecule, acceptor atom, score
      L1  H     3    25       P1  7948  0.15
      P1  H  6896  6907       L1    10  1.00
      P1  H  6931  6943       L1    15  0.45
      P1  H  6934  6947       L1    15  0.29

> <Gold.Chemscore.Hbond.Weighted>
-10.2999

> <Gold.Chemscore.Metal.Weighted>
-0.0000

> <Gold.Chemscore.Lipo.Weighted>
-7.1904

> <Gold.Chemscore.Internal_Hbond.Weighted>
0.0000

> <Gold.Chemscore.DEClash.Weighted>
0.0727

> <Gold.Chemscore.DEInternal.Weighted>
2.2027

> <Gold.Chemscore.Rot.Weighted>
4.8896

> <Gold.Chemscore.Internal.Correction.Weighted>
   9.000000E+99

> <Gold.Protein.RotatedTorsions>
[ 6907 6896 6895 6894 ] final -118.98 input  -60.11 | X-H torsion
[ 7974 7965 7964 7962 ] final   70.56 input  175.53 | X-H torsion
[ 8008 7997 7996 7995 ] final  -11.96 input   59.86 | X-H torsion
[ 10167 10162 10161 10158 ] final   -6.15 input  -65.29 | X-H torsion
[ 10718 10713 10712 10709 ] final  105.88 input   66.30 | X-H torsion
[ 10763 10752 10751 10750 ] final   75.44 input  -60.55 | X-H torsion
[ 11005 11000 10999 10996 ] final -121.89 input  -57.11 | X-H torsion

> <Gold.Protein.ActiveResidues>
 VAL166  LYS551  ARG553  GLY616  TRP617  ASP618  TYR619  PRO620  LYS621  CYS622 
 ASP623  PHE694  ASN695  SER759  ASP760  ASP761  ALA762  ILE779  LEU786  VAL792 
 PHE793  MET794  SER795  GLU796  ALA797  LYS798  CYS799  TRP800  GLU811  SER814 

> <Gold.Protein.RotatedAtoms>
  150.8265  133.8162  159.3116 H   0  0  0  0  0  0  0  0  0  0  0  0  # atno 6907 bound_to 6896
  151.5905  135.1052  160.0047 H   0  0  0  0  0  0  0  0  0  0  0  0  # atno 6908 bound_to 6896
  152.4350  133.7303  159.6640 H   0  0  0  0  0  0  0  0  0  0  0  0  # atno 6909 bound_to 6896
  145.7767  139.2868  143.1290 H   0  0  0  0  0  0  0  0  0  0  0  0  # atno 7974 bound_to 7965
  154.5419  140.2288  155.8628 H   0  0  0  0  0  0  0  0  0  0  0  0  # atno 8008 bound_to 7997
  156.1866  140.3087  155.9212 H   0  0  0  0  0  0  0  0  0  0  0  0  # atno 8009 bound_to 7997
  155.3242  140.0442  157.3031 H   0  0  0  0  0  0  0  0  0  0  0  0  # atno 8010 bound_to 7997
  140.6987  143.6226  150.8598 H   0  0  0  0  0  0  0  0  0  0  0  0  # atno 10167 bound_to 10162
  157.6689  131.0838  150.5923 H   0  0  0  0  0  0  0  0  0  0  0  0  # atno 10718 bound_to 10713
  153.0655  135.4988  154.8190 H   0  0  0  0  0  0  0  0  0  0  0  0  # atno 10763 bound_to 10752
  154.6947  135.2991  154.9431 H   0  0  0  0  0  0  0  0  0  0  0  0  # atno 10764 bound_to 10752
  154.0174  135.6746  153.4822 H   0  0  0  0  0  0  0  0  0  0  0  0  # atno 10765 bound_to 10752
  141.0036  134.0367  157.3506 H   0  0  0  0  0  0  0  0  0  0  0  0  # atno 11005 bound_to 11000
  146.0116  140.8430  142.9968 LP  0  0  0  0  0  0  0  0  0  0  0  0  # atno 17320 bound_to 7965
  144.6803  140.2498  143.7333 LP  0  0  0  0  0  0  0  0  0  0  0  0  # atno 17321 bound_to 7965
  139.9947  143.5809  152.2897 LP  0  0  0  0  0  0  0  0  0  0  0  0  # atno 17342 bound_to 10162
  139.6477  144.7659  151.2211 LP  0  0  0  0  0  0  0  0  0  0  0  0  # atno 17343 bound_to 10162
  156.6223  130.4409  149.5817 LP  0  0  0  0  0  0  0  0  0  0  0  0  # atno 17370 bound_to 10713
  156.2346  130.6815  151.1496 LP  0  0  0  0  0  0  0  0  0  0  0  0  # atno 17371 bound_to 10713
  139.9051  135.0177  156.7451 LP  0  0  0  0  0  0  0  0  0  0  0  0  # atno 17394 bound_to 11000
  140.6849  133.9441  155.7932 LP  0  0  0  0  0  0  0  0  0  0  0  0  # atno 17395 bound_to 11000

$$$$
