AV-unprocessed.smi:2926|AV-procd|sdf|11229|dock2
  -GOLD-   2272016123D 1   1.00000     0.00000
 Structure written by MMmdl.
 31 31  0  0  0  0  0  0  0  0  2 V2000
  151.3900  140.1566  156.3200 C   0  0  0  0  0  0  0  0  0  0  0  0
  150.9185  139.0671  155.3306 C   0  0  0  0  0  0  0  0  0  0  0  0
  149.7674  139.6016  154.4464 C   0  0  0  0  0  0  0  0  0  0  0  0
  150.6343  137.6936  156.0129 C   0  0  2  0  0  0  0  0  0  0  0  0
  150.3376  136.5695  154.9980 C   0  0  0  0  0  0  0  0  0  0  0  0
  151.3948  136.4207  154.0714 O   0  0  0  0  0  0  0  0  0  0  0  0
  149.5255  137.8175  156.9546 N   0  5  0  0  0  0  0  0  0  0  0  0
  149.6011  137.0681  158.3907 S   0  0  0  0  0  0  0  0  0  0  0  0
  149.9481  135.6427  158.2718 O   0  0  0  0  0  0  0  0  0  0  0  0
  150.3351  137.8501  159.3995 O   0  0  0  0  0  0  0  0  0  0  0  0
  147.8276  137.1241  158.8927 C   0  0  0  0  0  0  0  0  0  0  0  0
  147.6443  136.4674  160.2328 C   0  0  0  0  0  0  0  0  0  0  0  0
  147.7434  135.0877  160.5657 C   0  0  0  0  0  0  0  0  0  0  0  0
  147.4920  135.0632  161.9070 C   0  0  0  0  0  0  0  0  0  0  0  0
  147.2686  136.3183  162.3716 O   0  0  0  0  0  0  0  0  0  0  0  0
  147.3710  137.2083  161.2965 N   0  0  0  0  0  0  0  0  0  0  0  0
  151.5565  137.4143  156.5252 H   0  0  0  0  0  0  0  0  0  0  0  0
  150.6047  140.4427  157.0221 H   0  0  0  0  0  0  0  0  0  0  0  0
  151.6805  141.0605  155.7839 H   0  0  0  0  0  0  0  0  0  0  0  0
  152.2596  139.8433  156.9010 H   0  0  0  0  0  0  0  0  0  0  0  0
  151.7617  138.9005  154.6588 H   0  0  0  0  0  0  0  0  0  0  0  0
  148.8707  139.8261  155.0265 H   0  0  0  0  0  0  0  0  0  0  0  0
  149.4890  138.9053  153.6541 H   0  0  0  0  0  0  0  0  0  0  0  0
  150.0649  140.5276  153.9537 H   0  0  0  0  0  0  0  0  0  0  0  0
  150.1719  135.6157  155.5001 H   0  0  0  0  0  0  0  0  0  0  0  0
  149.4311  136.7970  154.4366 H   0  0  0  0  0  0  0  0  0  0  0  0
  151.0343  136.1343  153.2469 H   0  0  0  0  0  0  0  0  0  0  0  0
  147.5146  138.1673  158.9228 H   0  0  0  0  0  0  0  0  0  0  0  0
  147.2420  136.6241  158.1208 H   0  0  0  0  0  0  0  0  0  0  0  0
  147.9569  134.2496  159.9188 H   0  0  0  0  0  0  0  0  0  0  0  0
  147.4421  134.2702  162.6381 H   0  0  0  0  0  0  0  0  0  0  0  0
  1  2  1  0  0  0  0
  1 18  1  0  0  0  0
  1 19  1  0  0  0  0
  1 20  1  0  0  0  0
  2  3  1  0  0  0  0
  2  4  1  0  0  0  0
  2 21  1  0  0  0  0
  3 22  1  0  0  0  0
  3 23  1  0  0  0  0
  3 24  1  0  0  0  0
  4 17  1  0  0  0  0
  4  5  1  0  0  0  0
  4  7  1  0  0  0  0
  5  6  1  0  0  0  0
  5 25  1  0  0  0  0
  5 26  1  0  0  0  0
  6 27  1  0  0  0  0
  7  8  1  0  0  0  0
  8  9  2  0  0  0  0
  8 10  2  0  0  0  0
  8 11  1  0  0  0  0
 11 12  1  0  0  0  0
 11 28  1  0  0  0  0
 11 29  1  0  0  0  0
 12 16  2  0  0  0  0
 12 13  1  0  0  0  0
 13 14  2  0  0  0  0
 13 30  1  0  0  0  0
 14 15  1  0  0  0  0
 14 31  1  0  0  0  0
 15 16  1  0  0  0  0
M  CHG  1   7  -1
M  END
> <s_m_source_file>
AV-unprocessed.smi

> <i_m_source_file_index>
2926

> <i_lp_mmshare_version>
43012

> <i_f3d_flags>
0

> <s_epik_input>
W0NIM11bQ0hdKFtDSDNdKVtDQEBIXShbQ0gyXVtPSF0pW05IXVMoPU8pKD1PKVtDSDJdYzFbY0hdW2NIXW9uMQ==

> <s_epik_cmdline>
J2VwaWtfcHl0aG9uJywgJy1waCcsICc3LjAnLCAnLXRuJywgJzgnLCAnLW1hJywgJzIwMCcsICctbWV0YWxfYmluZGluZycsICctaW1hZScsICc8aW5maWxlLm1hZT4nLCAnLW9tYWUnLCAnPG91dGZpbGUubWFlPic=

> <r_lp_tautomer_probability>
1

> <r_epik_Ionization_Penalty>
4.75719

> <r_epik_Ionization_Penalty_Charging>
4.75718

> <r_epik_Ionization_Penalty_Neutral>
1.48962e-06

> <r_epik_State_Penalty>
4.75699

> <r_epik_Charging_Adjusted_Penalty>
9.51417

> <i_epik_Tot_Q>
-1

> <i_epik_Tot_abs_Q>
1

> <r_epik_Metal_State_Penalty>
0.961449

> <b_epik_Metal_Only>
1

> <s_lp_Force_Field>
OPLS_2005

> <r_lp_Energy>
3.36492

> <b_lp_Chiralities_Consistent>
1

> <s_lp_Variant>
AV-unprocessed.smi:2926-4

> <Gold.Version>
5.8.1

> <Gold.Id.Protein>
6NUR|6NUR_protein|mol2

> <Gold.PLP.Fitness>
40.0647

> <Gold.PLP.PLP>
-26.4952

> <Gold.PLP.part.hbond>
-6.1546

> <Gold.PLP.part.metal>
0.0000

> <Gold.PLP.part.buried>
-4.7861

> <Gold.PLP.part.nonpolar>
-15.9531

> <Gold.PLP.part.repulsive>
0.0000

> <Gold.PLP.ligand.clash>
0.0000

> <Gold.PLP.ligand.torsion>
1.0663

> <Gold.PLP.Chemscore.Hbond>
4.8400

> <Gold.PLP.Chemscore.CHOScore>
0.0000

> <Gold.PLP.Chemscore.Metal>
0.0000

> <Gold.Chemscore.Hbonds>
donor molecule, donor type, donor heavy atom, donor atom, acceptor molecule, acceptor atom, score
      L1  H     6    27       P1  7949  0.95
      P1  H  6896  6908       L1     9  1.00
      P1  H  6931  6943       L1    16  0.79
      P1  H  6934  6947       L1    16  0.98
      P1  H 10752 10765       L1     6  1.00

> <Gold.PLP.Chemscore.Internal.Correction>
1.1821

> <Gold.Rescore>
     Score         DG    S(hbond)    S(metal)    S(lipo)     H(rot)  DE(clash)    DE(int)     intcor
     15.75     -16.63       3.51        0.00      51.61       2.58       0.01       0.87       ----

> <Gold.Chemscore.Fitness>
15.7462

> <Gold.Chemscore.DG>
-16.6311

> <Gold.Chemscore.ZeroCoef>
-5.4800

> <Gold.Chemscore.Hbond>
3.5062

> <Gold.Chemscore.Metal>
0.0000

> <Gold.Chemscore.Lipo>
51.6145

> <Gold.Chemscore.Internal_Hbond>
0.0000

> <Gold.Chemscore.DEClash>
0.0106

> <Gold.Chemscore.DEInternal>
0.8743

> <Gold.Chemscore.Rot>
2.5776

> <Gold.Chemscore.Internal.Correction>
   9.000000E+99

> <Gold.Chemscore.Hbonds>
donor molecule, donor type, donor heavy atom, donor atom, acceptor molecule, acceptor atom, score
      L1  H     6    27       P1  7949  0.20
      P1  H  6896  6908       L1     9  0.94
      P1  H  6931  6943       L1    16  0.13
      P1  H  6934  6947       L1    16  0.85
      P1  H 10752 10765       L1     6  0.78

> <Gold.Chemscore.Hbond.Weighted>
-11.7109

> <Gold.Chemscore.Metal.Weighted>
-0.0000

> <Gold.Chemscore.Lipo.Weighted>
-6.0389

> <Gold.Chemscore.Internal_Hbond.Weighted>
0.0000

> <Gold.Chemscore.DEClash.Weighted>
0.0106

> <Gold.Chemscore.DEInternal.Weighted>
0.8743

> <Gold.Chemscore.Rot.Weighted>
6.5987

> <Gold.Chemscore.Internal.Correction.Weighted>
   9.000000E+99

> <Gold.Protein.RotatedTorsions>
[ 6907 6896 6895 6894 ] final  173.43 input  -60.11 | X-H torsion
[ 7974 7965 7964 7962 ] final  -92.25 input  175.53 | X-H torsion
[ 8008 7997 7996 7995 ] final   94.46 input   59.86 | X-H torsion
[ 10167 10162 10161 10158 ] final -165.51 input  -65.29 | X-H torsion
[ 10718 10713 10712 10709 ] final  173.79 input   66.30 | X-H torsion
[ 10763 10752 10751 10750 ] final  168.48 input  -60.55 | X-H torsion
[ 11005 11000 10999 10996 ] final  -27.78 input  -57.11 | X-H torsion

> <Gold.Protein.ActiveResidues>
 VAL166  LYS551  ARG553  GLY616  TRP617  ASP618  TYR619  PRO620  LYS621  CYS622 
 ASP623  PHE694  ASN695  SER759  ASP760  ASP761  ALA762  ILE779  LEU786  VAL792 
 PHE793  MET794  SER795  GLU796  ALA797  LYS798  CYS799  TRP800  GLU811  SER814 

> <Gold.Protein.RotatedAtoms>
  151.7684  133.3339  159.3437 H   0  0  0  0  0  0  0  0  0  0  0  0  # atno 6907 bound_to 6896
  150.7471  134.6041  159.6061 H   0  0  0  0  0  0  0  0  0  0  0  0  # atno 6908 bound_to 6896
  152.3357  134.7202  160.0329 H   0  0  0  0  0  0  0  0  0  0  0  0  # atno 6909 bound_to 6896
  145.4023  140.9538  143.2280 H   0  0  0  0  0  0  0  0  0  0  0  0  # atno 7974 bound_to 7965
  156.0581  140.3299  155.7429 H   0  0  0  0  0  0  0  0  0  0  0  0  # atno 8008 bound_to 7997
  155.5497  140.0609  157.2870 H   0  0  0  0  0  0  0  0  0  0  0  0  # atno 8009 bound_to 7997
  154.4468  140.1896  156.0662 H   0  0  0  0  0  0  0  0  0  0  0  0  # atno 8010 bound_to 7997
  139.6177  144.0687  152.1903 H   0  0  0  0  0  0  0  0  0  0  0  0  # atno 10167 bound_to 10162
  156.9591  131.0055  151.2931 H   0  0  0  0  0  0  0  0  0  0  0  0  # atno 10718 bound_to 10713
  154.3691  135.2753  155.2276 H   0  0  0  0  0  0  0  0  0  0  0  0  # atno 10763 bound_to 10752
  154.4431  135.5949  153.6146 H   0  0  0  0  0  0  0  0  0  0  0  0  # atno 10764 bound_to 10752
  152.9839  135.6023  154.3920 H   0  0  0  0  0  0  0  0  0  0  0  0  # atno 10765 bound_to 10752
  140.9150  133.7436  156.0723 H   0  0  0  0  0  0  0  0  0  0  0  0  # atno 11005 bound_to 11000
  144.8365  139.5541  143.6920 LP  0  0  0  0  0  0  0  0  0  0  0  0  # atno 17320 bound_to 7965
  146.2745  139.6719  142.9272 LP  0  0  0  0  0  0  0  0  0  0  0  0  # atno 17321 bound_to 7965
  140.0321  144.6073  150.7479 LP  0  0  0  0  0  0  0  0  0  0  0  0  # atno 17342 bound_to 10162
  140.7362  143.2750  151.3771 LP  0  0  0  0  0  0  0  0  0  0  0  0  # atno 17343 bound_to 10162
  157.5670  130.8284  149.8341 LP  0  0  0  0  0  0  0  0  0  0  0  0  # atno 17370 bound_to 10713
  156.0330  130.3759  150.1636 LP  0  0  0  0  0  0  0  0  0  0  0  0  # atno 17371 bound_to 10713
  140.8061  134.3453  157.5425 LP  0  0  0  0  0  0  0  0  0  0  0  0  # atno 17394 bound_to 11000
  139.8764  134.9226  156.3305 LP  0  0  0  0  0  0  0  0  0  0  0  0  # atno 17395 bound_to 11000

$$$$
