AV-unprocessed.smi:1804|AV-procd|sdf|7295|dock8
  -GOLD-   22720 8553D 1   1.00000     0.00000
 Structure written by MMmdl.
 44 45  0  0  0  0  0  0  0  0  2 V2000
  148.6315  137.1905  155.3485 C   0  0  0  0  0  0  0  0  0  0  0  0
  148.2785  138.6035  155.6502 N   0  3  0  0  0  0  0  0  0  0  0  0
  146.9217  138.6615  156.2556 C   0  0  0  0  0  0  0  0  0  0  0  0
  148.5488  139.5906  154.5417 C   0  0  0  0  0  0  0  0  0  0  0  0
  147.4091  139.5037  153.4718 C   0  0  0  0  0  0  0  0  0  0  0  0
  147.2646  138.1815  152.8599 N   0  0  0  0  0  0  0  0  0  0  0  0
  146.1375  137.4554  152.8205 C   0  0  0  0  0  0  0  0  0  0  0  0
  145.0718  137.8301  153.3101 O   0  0  0  0  0  0  0  0  0  0  0  0
  146.3352  136.2844  152.1901 N   0  0  0  0  0  0  0  0  0  0  0  0
  145.4019  135.2381  151.9645 C   0  0  0  0  0  0  0  0  0  0  0  0
  145.3304  134.1292  152.7171 N   0  0  0  0  0  0  0  0  0  0  0  0
  144.3320  133.2684  152.2801 N   0  0  0  0  0  0  0  0  0  0  0  0
  143.6909  133.7612  151.2166 C   0  0  0  0  0  0  0  0  0  0  0  0
  144.2453  135.3245  150.6437 S   0  0  0  0  0  0  0  0  0  0  0  0
  148.5849  141.0645  155.0658 C   0  0  0  0  0  0  0  0  0  0  0  0
  149.5186  141.3952  156.2453 C   0  0  0  0  0  0  0  0  0  0  0  0
  151.0091  141.1430  155.9865 C   0  0  0  0  0  0  0  0  0  0  0  0
  151.3587  139.6521  156.0236 C   0  0  0  0  0  0  0  0  0  0  0  0
  151.1383  138.8989  154.7035 C   0  0  0  0  0  0  0  0  0  0  0  0
  149.9125  139.2851  153.8431 C   0  0  0  0  0  0  0  0  0  0  0  0
  147.9114  136.7344  154.6688 H   0  0  0  0  0  0  0  0  0  0  0  0
  148.6242  136.6036  156.2675 H   0  0  0  0  0  0  0  0  0  0  0  0
  149.6215  137.0770  154.9124 H   0  0  0  0  0  0  0  0  0  0  0  0
  146.1518  138.3543  155.5480 H   0  0  0  0  0  0  0  0  0  0  0  0
  146.6625  139.6480  156.6338 H   0  0  0  0  0  0  0  0  0  0  0  0
  146.8666  137.9842  157.1082 H   0  0  0  0  0  0  0  0  0  0  0  0
  146.4511  139.8130  153.8902 H   0  0  0  0  0  0  0  0  0  0  0  0
  147.6040  140.1941  152.6520 H   0  0  0  0  0  0  0  0  0  0  0  0
  148.0910  137.7910  152.4307 H   0  0  0  0  0  0  0  0  0  0  0  0
  147.2645  136.1171  151.8337 H   0  0  0  0  0  0  0  0  0  0  0  0
  142.8859  133.2000  150.7657 H   0  0  0  0  0  0  0  0  0  0  0  0
  148.8587  141.7334  154.2492 H   0  0  0  0  0  0  0  0  0  0  0  0
  147.5772  141.3795  155.3386 H   0  0  0  0  0  0  0  0  0  0  0  0
  149.3931  142.4536  156.4766 H   0  0  0  0  0  0  0  0  0  0  0  0
  149.2084  140.8691  157.1474 H   0  0  0  0  0  0  0  0  0  0  0  0
  151.3348  141.6038  155.0530 H   0  0  0  0  0  0  0  0  0  0  0  0
  151.5715  141.6398  156.7781 H   0  0  0  0  0  0  0  0  0  0  0  0
  152.4083  139.5433  156.2991 H   0  0  0  0  0  0  0  0  0  0  0  0
  150.8042  139.1651  156.8262 H   0  0  0  0  0  0  0  0  0  0  0  0
  152.0244  139.0309  154.0814 H   0  0  0  0  0  0  0  0  0  0  0  0
  151.1138  137.8325  154.9258 H   0  0  0  0  0  0  0  0  0  0  0  0
  149.7764  138.4833  153.1165 H   0  0  0  0  0  0  0  0  0  0  0  0
  150.1959  140.1451  153.2351 H   0  0  0  0  0  0  0  0  0  0  0  0
  148.9093  138.8807  156.3890 H   0  0  0  0  0  0  0  0  0  0  0  0
  1  2  1  0  0  0  0
  1 21  1  0  0  0  0
  1 22  1  0  0  0  0
  1 23  1  0  0  0  0
  2  3  1  0  0  0  0
  2  4  1  0  0  0  0
  2 44  1  0  0  0  0
  3 24  1  0  0  0  0
  3 25  1  0  0  0  0
  3 26  1  0  0  0  0
  4 20  1  0  0  0  0
  4  5  1  0  0  0  0
  4 15  1  0  0  0  0
  5  6  1  0  0  0  0
  5 27  1  0  0  0  0
  5 28  1  0  0  0  0
  6  7  1  0  0  0  0
  6 29  1  0  0  0  0
  7  8  2  0  0  0  0
  7  9  1  0  0  0  0
  9 10  1  0  0  0  0
  9 30  1  0  0  0  0
 10 14  1  0  0  0  0
 10 11  2  0  0  0  0
 11 12  1  0  0  0  0
 12 13  2  0  0  0  0
 13 14  1  0  0  0  0
 13 31  1  0  0  0  0
 15 16  1  0  0  0  0
 15 32  1  0  0  0  0
 15 33  1  0  0  0  0
 16 17  1  0  0  0  0
 16 34  1  0  0  0  0
 16 35  1  0  0  0  0
 17 18  1  0  0  0  0
 17 36  1  0  0  0  0
 17 37  1  0  0  0  0
 18 19  1  0  0  0  0
 18 38  1  0  0  0  0
 18 39  1  0  0  0  0
 19 20  1  0  0  0  0
 19 40  1  0  0  0  0
 19 41  1  0  0  0  0
 20 42  1  0  0  0  0
 20 43  1  0  0  0  0
M  CHG  1   2   1
M  END
> <s_m_source_file>
AV-unprocessed.smi

> <i_m_source_file_index>
1804

> <i_lp_mmshare_version>
43012

> <i_f3d_flags>
0

> <s_epik_input>
W0NIMl0xW0NIMl1bQ0gyXVtDSDJdW0NIMl1bQ0gyXUMxKE4oW0NIM10pW0NIM10pW0NIMl1bTkhdQyg9TylbTkhdYzJubltjSF1zMg==

> <s_epik_cmdline>
J2VwaWtfcHl0aG9uJywgJy1waCcsICc3LjAnLCAnLXRuJywgJzgnLCAnLW1hJywgJzIwMCcsICctbWV0YWxfYmluZGluZycsICctaW1hZScsICc8aW5maWxlLm1hZT4nLCAnLW9tYWUnLCAnPG91dGZpbGUubWFlPic=

> <r_lp_tautomer_probability>
1

> <r_epik_Ionization_Penalty>
0.00320238

> <r_epik_Ionization_Penalty_Charging>
0.00244219

> <r_epik_Ionization_Penalty_Neutral>
0.000760187

> <r_epik_State_Penalty>
-0

> <r_epik_Charging_Adjusted_Penalty>
0.00244219

> <i_epik_Tot_Q>
1

> <i_epik_Tot_abs_Q>
1

> <r_epik_Metal_State_Penalty>
0.262153

> <b_epik_Metal_Only>
0

> <s_lp_Force_Field>
OPLS_2005

> <r_lp_Energy>
34.4391

> <b_lp_Chiralities_Consistent>
1

> <s_lp_Variant>
AV-unprocessed.smi:1804-1

> <Gold.Version>
5.8.1

> <Gold.Id.Protein>
6NUR|6NUR_protein|mol2

> <Gold.PLP.Fitness>
32.6353

> <Gold.PLP.PLP>
-26.6070

> <Gold.PLP.part.hbond>
-2.0002

> <Gold.PLP.part.metal>
0.0000

> <Gold.PLP.part.buried>
0.1814

> <Gold.PLP.part.nonpolar>
-25.3954

> <Gold.PLP.part.repulsive>
0.8053

> <Gold.PLP.ligand.clash>
0.0000

> <Gold.PLP.ligand.torsion>
1.0483

> <Gold.PLP.Chemscore.Hbond>
1.8800

> <Gold.PLP.Chemscore.CHOScore>
0.8001

> <Gold.PLP.Chemscore.Metal>
0.0000

> <Gold.Chemscore.Hbonds>
donor molecule, donor type, donor heavy atom, donor atom, acceptor molecule, acceptor atom, score
      L1  H     6    29       P1  7948  0.94
      L1  H     9    30       P1  7948  1.00
      L1  C    13    31       P1 10186  0.77

> <Gold.PLP.Chemscore.Internal.Correction>
0.0847

> <Gold.Rescore>
     Score         DG    S(hbond)    S(metal)    S(lipo)     H(rot)  DE(clash)    DE(int)     intcor
     12.67     -14.88       1.93        0.00      61.22       1.65       0.06       2.16       ----

> <Gold.Chemscore.Fitness>
12.6670

> <Gold.Chemscore.DG>
-14.8838

> <Gold.Chemscore.ZeroCoef>
-5.4800

> <Gold.Chemscore.Hbond>
1.9346

> <Gold.Chemscore.Metal>
0.0000

> <Gold.Chemscore.Lipo>
61.2213

> <Gold.Chemscore.Internal_Hbond>
0.0000

> <Gold.Chemscore.DEClash>
0.0609

> <Gold.Chemscore.DEInternal>
2.1558

> <Gold.Chemscore.Rot>
1.6487

> <Gold.Chemscore.Internal.Correction>
   9.000000E+99

> <Gold.Chemscore.Hbonds>
donor molecule, donor type, donor heavy atom, donor atom, acceptor molecule, acceptor atom, score
      L1  H     6    29       P1  7948  0.91
      L1  H     9    30       P1  7948  0.98

> <Gold.Chemscore.Hbond.Weighted>
-6.4616

> <Gold.Chemscore.Metal.Weighted>
-0.0000

> <Gold.Chemscore.Lipo.Weighted>
-7.1629

> <Gold.Chemscore.Internal_Hbond.Weighted>
0.0000

> <Gold.Chemscore.DEClash.Weighted>
0.0609

> <Gold.Chemscore.DEInternal.Weighted>
2.1558

> <Gold.Chemscore.Rot.Weighted>
4.2207

> <Gold.Chemscore.Internal.Correction.Weighted>
   9.000000E+99

> <Gold.Protein.RotatedTorsions>
[ 6907 6896 6895 6894 ] final   82.17 input  -60.11 | X-H torsion
[ 7974 7965 7964 7962 ] final  -59.06 input  175.53 | X-H torsion
[ 8008 7997 7996 7995 ] final  118.92 input   59.86 | X-H torsion
[ 10167 10162 10161 10158 ] final  -73.25 input  -65.29 | X-H torsion
[ 10718 10713 10712 10709 ] final  139.99 input   66.30 | X-H torsion
[ 10763 10752 10751 10750 ] final  152.11 input  -60.55 | X-H torsion
[ 11005 11000 10999 10996 ] final  -94.21 input  -57.11 | X-H torsion

> <Gold.Protein.ActiveResidues>
 VAL166  LYS551  ARG553  GLY616  TRP617  ASP618  TYR619  PRO620  LYS621  CYS622 
 ASP623  PHE694  ASN695  SER759  ASP760  ASP761  ALA762  ILE779  LEU786  VAL792 
 PHE793  MET794  SER795  GLU796  ALA797  LYS798  CYS799  TRP800  GLU811  SER814 

> <Gold.Protein.RotatedAtoms>
  152.5291  134.3090  159.9106 H   0  0  0  0  0  0  0  0  0  0  0  0  # atno 6907 bound_to 6896
  151.3040  133.4103  159.2649 H   0  0  0  0  0  0  0  0  0  0  0  0  # atno 6908 bound_to 6896
  151.0095  134.9402  159.8056 H   0  0  0  0  0  0  0  0  0  0  0  0  # atno 6909 bound_to 6896
  145.8319  140.8474  143.0079 H   0  0  0  0  0  0  0  0  0  0  0  0  # atno 7974 bound_to 7965
  156.2570  140.2864  156.0910 H   0  0  0  0  0  0  0  0  0  0  0  0  # atno 8008 bound_to 7997
  155.1463  140.0396  157.2828 H   0  0  0  0  0  0  0  0  0  0  0  0  # atno 8009 bound_to 7997
  154.6493  140.2541  155.7238 H   0  0  0  0  0  0  0  0  0  0  0  0  # atno 8010 bound_to 7997
  140.5126  143.2343  151.7568 H   0  0  0  0  0  0  0  0  0  0  0  0  # atno 10167 bound_to 10162
  157.4082  131.1025  151.0481 H   0  0  0  0  0  0  0  0  0  0  0  0  # atno 10718 bound_to 10713
  154.1146  135.2837  155.3222 H   0  0  0  0  0  0  0  0  0  0  0  0  # atno 10763 bound_to 10752
  154.6465  135.5384  153.7854 H   0  0  0  0  0  0  0  0  0  0  0  0  # atno 10764 bound_to 10752
  153.0333  135.6499  154.1303 H   0  0  0  0  0  0  0  0  0  0  0  0  # atno 10765 bound_to 10752
  141.1476  133.7940  157.0266 H   0  0  0  0  0  0  0  0  0  0  0  0  # atno 11005 bound_to 11000
  144.6739  140.0685  143.7474 LP  0  0  0  0  0  0  0  0  0  0  0  0  # atno 17320 bound_to 7965
  145.9561  139.2767  143.1183 LP  0  0  0  0  0  0  0  0  0  0  0  0  # atno 17321 bound_to 7965
  139.4900  144.4370  151.9808 LP  0  0  0  0  0  0  0  0  0  0  0  0  # atno 17342 bound_to 10162
  140.3462  144.3143  150.5957 LP  0  0  0  0  0  0  0  0  0  0  0  0  # atno 17343 bound_to 10162
  157.1455  130.6161  149.5567 LP  0  0  0  0  0  0  0  0  0  0  0  0  # atno 17370 bound_to 10713
  155.9843  130.4867  150.6975 LP  0  0  0  0  0  0  0  0  0  0  0  0  # atno 17371 bound_to 10713
  140.0781  134.9664  157.1579 LP  0  0  0  0  0  0  0  0  0  0  0  0  # atno 17394 bound_to 11000
  140.3615  134.2488  155.7186 LP  0  0  0  0  0  0  0  0  0  0  0  0  # atno 17395 bound_to 11000

$$$$
