AV-unprocessed.smi:1058|AV-procd|sdf|4652|dock4
  -GOLD-   22720 3163D 1   1.00000     0.00000
 Structure written by MMmdl.
 40 41  0  0  0  0  0  0  0  0  1 V2000
  148.1388  141.1623  153.9893 C   0  0  0  0  0  0  0  0  0  0  0  0
  148.6559  140.7065  155.3644 C   0  0  2  0  0  0  0  0  0  0  0  0
  149.1060  141.8942  156.0921 N   0  0  0  0  0  0  0  0  0  0  0  0
  149.7361  141.8778  157.2771 C   0  0  0  0  0  0  0  0  0  0  0  0
  149.9873  140.8417  157.8942 O   0  0  0  0  0  0  0  0  0  0  0  0
  150.0510  143.1214  157.6806 N   0  0  0  0  0  0  0  0  0  0  0  0
  150.7145  143.5149  158.8735 C   0  0  0  0  0  0  0  0  0  0  0  0
  151.5490  142.5296  159.4484 C   0  0  0  0  0  0  0  0  0  0  0  0
  152.2511  142.8219  160.6340 C   0  0  0  0  0  0  0  0  0  0  0  0
  152.1016  144.0944  161.2139 C   0  0  0  0  0  0  0  0  0  0  0  0
  151.2522  145.0177  160.5772 C   0  0  0  0  0  0  0  0  0  0  0  0
  150.5780  144.7393  159.4415 N   0  0  0  0  0  0  0  0  0  0  0  0
  149.8288  139.7236  155.1377 C   0  0  0  0  0  0  0  0  0  0  0  0
  150.8835  140.1668  154.6770 O   0  0  0  0  0  0  0  0  0  0  0  0
  149.6788  138.4097  155.4436 N   0  0  0  0  0  0  0  0  0  0  0  0
  148.4708  137.7956  156.0088 C   0  0  0  0  0  0  0  0  0  0  0  0
  148.6349  137.6849  157.5326 C   0  0  0  0  0  0  0  0  0  0  0  0
  150.0725  136.5915  157.9262 S   0  0  0  0  0  0  0  0  0  0  0  0
  150.4758  136.8089  159.3234 O   0  0  0  0  0  0  0  0  0  0  0  0
  149.7484  135.2369  157.4527 O   0  0  0  0  0  0  0  0  0  0  0  0
  151.3698  137.2837  156.8057 C   0  0  0  0  0  0  0  0  0  0  0  0
  150.8019  137.4652  155.3880 C   0  0  0  0  0  0  0  0  0  0  0  0
  147.7707  140.3201  153.4021 H   0  0  0  0  0  0  0  0  0  0  0  0
  148.9179  141.6569  153.4070 H   0  0  0  0  0  0  0  0  0  0  0  0
  147.3124  141.8654  154.0975 H   0  0  0  0  0  0  0  0  0  0  0  0
  147.8479  140.2536  155.9387 H   0  0  0  0  0  0  0  0  0  0  0  0
  148.9455  142.7866  155.6486 H   0  0  0  0  0  0  0  0  0  0  0  0
  149.7888  143.8744  157.0618 H   0  0  0  0  0  0  0  0  0  0  0  0
  151.6527  141.5570  158.9896 H   0  0  0  0  0  0  0  0  0  0  0  0
  152.8930  142.0823  161.0897 H   0  0  0  0  0  0  0  0  0  0  0  0
  152.6238  144.3564  162.1224 H   0  0  0  0  0  0  0  0  0  0  0  0
  151.1096  146.0054  160.9896 H   0  0  0  0  0  0  0  0  0  0  0  0
  147.5610  138.3362  155.7540 H   0  0  0  0  0  0  0  0  0  0  0  0
  148.3236  136.8025  155.5822 H   0  0  0  0  0  0  0  0  0  0  0  0
  148.8102  138.6632  157.9823 H   0  0  0  0  0  0  0  0  0  0  0  0
  147.7451  137.2596  157.9966 H   0  0  0  0  0  0  0  0  0  0  0  0
  151.7063  138.2368  157.2157 H   0  0  0  0  0  0  0  0  0  0  0  0
  152.2212  136.6032  156.8059 H   0  0  0  0  0  0  0  0  0  0  0  0
  150.4718  136.5051  154.9893 H   0  0  0  0  0  0  0  0  0  0  0  0
  151.5901  137.7999  154.7122 H   0  0  0  0  0  0  0  0  0  0  0  0
  1  2  1  0  0  0  0
  1 23  1  0  0  0  0
  1 24  1  0  0  0  0
  1 25  1  0  0  0  0
  2  3  1  0  0  0  0
  2 13  1  0  0  0  0
  2 26  1  0  0  0  0
  3  4  1  0  0  0  0
  3 27  1  0  0  0  0
  4  5  2  0  0  0  0
  4  6  1  0  0  0  0
  6  7  1  0  0  0  0
  6 28  1  0  0  0  0
  7 12  1  0  0  0  0
  7  8  2  0  0  0  0
  8  9  1  0  0  0  0
  8 29  1  0  0  0  0
  9 10  2  0  0  0  0
  9 30  1  0  0  0  0
 10 11  1  0  0  0  0
 10 31  1  0  0  0  0
 11 12  2  0  0  0  0
 11 32  1  0  0  0  0
 13 14  2  0  0  0  0
 13 15  1  0  0  0  0
 15 22  1  0  0  0  0
 15 16  1  0  0  0  0
 16 17  1  0  0  0  0
 16 33  1  0  0  0  0
 16 34  1  0  0  0  0
 17 18  1  0  0  0  0
 17 35  1  0  0  0  0
 17 36  1  0  0  0  0
 18 19  2  0  0  0  0
 18 20  2  0  0  0  0
 18 21  1  0  0  0  0
 21 22  1  0  0  0  0
 21 37  1  0  0  0  0
 21 38  1  0  0  0  0
 22 39  1  0  0  0  0
 22 40  1  0  0  0  0
M  END
> <s_m_source_file>
AV-unprocessed.smi

> <i_m_source_file_index>
1058

> <i_lp_mmshare_version>
43012

> <i_f3d_flags>
0

> <s_epik_input>
Tz1TMSg9TylbQ0gyXVtDSDJdTihbQ0gyXVtDSDJdMSlDKD1PKVtDQEhdKFtDSDNdKVtOSF1DKD1PKVtOSF1jMltjSF1bY0hdW2NIXVtjSF1uMg==

> <s_epik_cmdline>
J2VwaWtfcHl0aG9uJywgJy1waCcsICc3LjAnLCAnLXRuJywgJzgnLCAnLW1hJywgJzIwMCcsICctbWV0YWxfYmluZGluZycsICctaW1hZScsICc8aW5maWxlLm1hZT4nLCAnLW9tYWUnLCAnPG91dGZpbGUubWFlPic=

> <r_lp_tautomer_probability>
1

> <r_epik_Ionization_Penalty>
3.69864e-05

> <r_epik_Ionization_Penalty_Charging>
0

> <r_epik_Ionization_Penalty_Neutral>
3.69864e-05

> <r_epik_State_Penalty>
-0

> <r_epik_Charging_Adjusted_Penalty>
0

> <i_epik_Tot_Q>
0

> <i_epik_Tot_abs_Q>
0

> <r_epik_Metal_State_Penalty>
-0

> <b_epik_Metal_Only>
0

> <s_lp_Force_Field>
OPLS_2005

> <r_lp_Energy>
18.4379

> <b_lp_Chiralities_Consistent>
1

> <s_lp_Variant>
AV-unprocessed.smi:1058-1

> <Gold.Version>
5.8.1

> <Gold.Id.Protein>
6NUR|6NUR_protein|mol2

> <Gold.PLP.Fitness>
45.0088

> <Gold.PLP.PLP>
-33.7215

> <Gold.PLP.part.hbond>
-4.3369

> <Gold.PLP.part.metal>
0.0000

> <Gold.PLP.part.buried>
-8.2300

> <Gold.PLP.part.nonpolar>
-22.7419

> <Gold.PLP.part.repulsive>
0.3530

> <Gold.PLP.ligand.clash>
0.0000

> <Gold.PLP.ligand.torsion>
0.3571

> <Gold.PLP.Chemscore.Hbond>
3.9913

> <Gold.PLP.Chemscore.CHOScore>
0.0000

> <Gold.PLP.Chemscore.Metal>
0.0000

> <Gold.Chemscore.Hbonds>
donor molecule, donor type, donor heavy atom, donor atom, acceptor molecule, acceptor atom, score
      L1  H     3    27       P1  8028  1.00
      L1  H     6    28       P1  8028  1.00
      P1  H  6896  6909       L1    19  1.00
      P1  H  7989  7998       L1    14  1.00

> <Gold.PLP.Chemscore.Internal.Correction>
0.0277

> <Gold.Rescore>
     Score         DG    S(hbond)    S(metal)    S(lipo)     H(rot)  DE(clash)    DE(int)     intcor
     20.64     -22.68       3.85        0.00      66.81       1.36       0.00       2.04       ----

> <Gold.Chemscore.Fitness>
20.6406

> <Gold.Chemscore.DG>
-22.6839

> <Gold.Chemscore.ZeroCoef>
-5.4800

> <Gold.Chemscore.Hbond>
3.8542

> <Gold.Chemscore.Metal>
0.0000

> <Gold.Chemscore.Lipo>
66.8112

> <Gold.Chemscore.Internal_Hbond>
0.0000

> <Gold.Chemscore.DEClash>
0.0000

> <Gold.Chemscore.DEInternal>
2.0433

> <Gold.Chemscore.Rot>
1.3617

> <Gold.Chemscore.Internal.Correction>
   9.000000E+99

> <Gold.Chemscore.Hbonds>
donor molecule, donor type, donor heavy atom, donor atom, acceptor molecule, acceptor atom, score
      L1  H     3    27       P1  8028  0.96
      L1  H     6    28       P1  8028  0.87
      P1  H  6896  6909       L1    19  0.40
      P1  H  7989  7998       L1    14  0.96

> <Gold.Chemscore.Hbond.Weighted>
-12.8731

> <Gold.Chemscore.Metal.Weighted>
-0.0000

> <Gold.Chemscore.Lipo.Weighted>
-7.8169

> <Gold.Chemscore.Internal_Hbond.Weighted>
0.0000

> <Gold.Chemscore.DEClash.Weighted>
0.0000

> <Gold.Chemscore.DEInternal.Weighted>
2.0433

> <Gold.Chemscore.Rot.Weighted>
3.4861

> <Gold.Chemscore.Internal.Correction.Weighted>
   9.000000E+99

> <Gold.Protein.RotatedTorsions>
[ 6907 6896 6895 6894 ] final   92.19 input  -60.11 | X-H torsion
[ 7974 7965 7964 7962 ] final   71.85 input  175.53 | X-H torsion
[ 8008 7997 7996 7995 ] final   57.57 input   59.86 | X-H torsion
[ 10167 10162 10161 10158 ] final  105.04 input  -65.29 | X-H torsion
[ 10718 10713 10712 10709 ] final -136.12 input   66.30 | X-H torsion
[ 10763 10752 10751 10750 ] final  -45.23 input  -60.55 | X-H torsion
[ 11005 11000 10999 10996 ] final  -28.30 input  -57.11 | X-H torsion

> <Gold.Protein.ActiveResidues>
 VAL166  LYS551  ARG553  GLY616  TRP617  ASP618  TYR619  PRO620  LYS621  CYS622 
 ASP623  PHE694  ASN695  SER759  ASP760  ASP761  ALA762  ILE779  LEU786  VAL792 
 PHE793  MET794  SER795  GLU796  ALA797  LYS798  CYS799  TRP800  GLU811  SER814 

> <Gold.Protein.RotatedAtoms>
  152.5452  134.1540  159.8529 H   0  0  0  0  0  0  0  0  0  0  0  0  # atno 6907 bound_to 6896
  151.1564  133.4866  159.2602 H   0  0  0  0  0  0  0  0  0  0  0  0  # atno 6908 bound_to 6896
  151.1418  135.0194  159.8684 H   0  0  0  0  0  0  0  0  0  0  0  0  # atno 6909 bound_to 6896
  145.7607  139.2799  143.1378 H   0  0  0  0  0  0  0  0  0  0  0  0  # atno 7974 bound_to 7965
  155.5360  140.3483  155.4436 H   0  0  0  0  0  0  0  0  0  0  0  0  # atno 8008 bound_to 7997
  156.0685  140.1357  156.9883 H   0  0  0  0  0  0  0  0  0  0  0  0  # atno 8009 bound_to 7997
  154.4516  140.0970  156.6608 H   0  0  0  0  0  0  0  0  0  0  0  0  # atno 8010 bound_to 7997
  139.7126  144.7074  151.1002 H   0  0  0  0  0  0  0  0  0  0  0  0  # atno 10167 bound_to 10162
  156.2736  130.7280  151.1254 H   0  0  0  0  0  0  0  0  0  0  0  0  # atno 10718 bound_to 10713
  154.0250  135.6664  153.4776 H   0  0  0  0  0  0  0  0  0  0  0  0  # atno 10763 bound_to 10752
  153.0564  135.5053  154.7987 H   0  0  0  0  0  0  0  0  0  0  0  0  # atno 10764 bound_to 10752
  154.6913  135.3062  154.9439 H   0  0  0  0  0  0  0  0  0  0  0  0  # atno 10765 bound_to 10752
  140.9196  133.7407  156.0783 H   0  0  0  0  0  0  0  0  0  0  0  0  # atno 11005 bound_to 11000
  146.0267  140.8297  142.9896 LP  0  0  0  0  0  0  0  0  0  0  0  0  # atno 17320 bound_to 7965
  144.6831  140.2709  143.7306 LP  0  0  0  0  0  0  0  0  0  0  0  0  # atno 17321 bound_to 7965
  140.7736  143.5272  150.9466 LP  0  0  0  0  0  0  0  0  0  0  0  0  # atno 17342 bound_to 10162
  139.8957  143.6897  152.3139 LP  0  0  0  0  0  0  0  0  0  0  0  0  # atno 17343 bound_to 10162
  157.7292  131.0626  150.5786 LP  0  0  0  0  0  0  0  0  0  0  0  0  # atno 17370 bound_to 10713
  156.5884  130.4323  149.5947 LP  0  0  0  0  0  0  0  0  0  0  0  0  # atno 17371 bound_to 10713
  140.8005  134.3515  157.5441 LP  0  0  0  0  0  0  0  0  0  0  0  0  # atno 17394 bound_to 11000
  139.8773  134.9194  156.3227 LP  0  0  0  0  0  0  0  0  0  0  0  0  # atno 17395 bound_to 11000

$$$$
