AV-unprocessed.smi:232|AV-procd|sdf|1778|dock9
  -GOLD-   2262020323D 1   1.00000     0.00000
 Structure written by MMmdl.
 52 55  0  0  0  0  0  0  0  0  1 V2000
  150.9051  139.4281  158.3904 C   0  0  0  0  0  0  0  0  0  0  0  0
  152.1212  140.3068  158.7105 C   0  0  0  0  0  0  0  0  0  0  0  0
  151.7378  141.7361  159.1519 C   0  0  1  0  0  0  0  0  0  0  0  0
  152.9525  142.5937  159.5590 C   0  0  0  0  0  0  0  0  0  0  0  0
  152.8198  143.9002  158.7688 C   0  0  0  0  0  0  0  0  0  0  0  0
  151.3719  143.9100  158.2779 C   0  0  2  0  0  0  0  0  0  0  0  0
  150.4317  144.5999  159.2880 C   0  0  0  0  0  0  0  0  0  0  0  0
  151.0721  142.4946  158.0919 N   0  0  0  0  0  0  0  0  0  0  0  0
  149.8179  142.1745  157.6743 C   0  0  0  0  0  0  0  0  0  0  0  0
  148.7520  142.4028  158.4876 N   0  0  0  0  0  0  0  0  0  0  0  0
  147.5140  142.1097  158.0804 C   0  0  0  0  0  0  0  0  0  0  0  0
  147.1197  141.5913  156.9165 N   0  0  0  0  0  0  0  0  0  0  0  0
  148.1835  141.3563  156.0966 C   0  0  0  0  0  0  0  0  0  0  0  0
  149.5519  141.6150  156.3923 C   0  0  0  0  0  0  0  0  0  0  0  0
  150.3458  141.2328  155.3170 N   0  0  0  0  0  0  0  0  0  0  0  0
  149.4973  140.7725  154.4388 C   0  0  0  0  0  0  0  0  0  0  0  0
  148.1782  140.8058  154.8271 N   0  0  0  0  0  0  0  0  0  0  0  0
  147.0373  140.3433  154.0587 C   0  0  0  0  0  0  0  0  0  0  0  0
  147.1736  138.8756  153.6014 C   0  0  2  0  0  0  0  0  0  0  0  0
  148.1437  138.8464  152.5739 O   0  0  0  0  0  0  0  0  0  0  0  0
  145.8625  138.2467  153.0788 C   0  0  1  0  0  0  0  0  0  0  0  0
  146.0154  136.8445  152.4852 C   0  0  0  0  0  0  0  0  0  0  0  0
  144.6255  136.2422  152.6211 C   0  0  0  0  0  0  0  0  0  0  0  0
  143.9270  137.1517  153.6348 C   0  0  0  0  0  0  0  0  0  0  0  0
  144.9555  137.9888  154.1404 O   0  0  0  0  0  0  0  0  0  0  0  0
  151.2200  138.4393  158.0564 H   0  0  0  0  0  0  0  0  0  0  0  0
  150.3012  139.8698  157.5972 H   0  0  0  0  0  0  0  0  0  0  0  0
  150.2659  139.2927  159.2629 H   0  0  0  0  0  0  0  0  0  0  0  0
  152.7237  139.8311  159.4854 H   0  0  0  0  0  0  0  0  0  0  0  0
  152.7523  140.3428  157.8229 H   0  0  0  0  0  0  0  0  0  0  0  0
  151.0615  141.6754  160.0061 H   0  0  0  0  0  0  0  0  0  0  0  0
  152.9280  142.7862  160.6321 H   0  0  0  0  0  0  0  0  0  0  0  0
  153.9047  142.1113  159.3361 H   0  0  0  0  0  0  0  0  0  0  0  0
  153.0846  144.7813  159.3543 H   0  0  0  0  0  0  0  0  0  0  0  0
  153.4897  143.8665  157.9083 H   0  0  0  0  0  0  0  0  0  0  0  0
  151.3261  144.4404  157.3272 H   0  0  0  0  0  0  0  0  0  0  0  0
  150.7261  145.6377  159.4444 H   0  0  0  0  0  0  0  0  0  0  0  0
  150.4444  144.1032  160.2587 H   0  0  0  0  0  0  0  0  0  0  0  0
  149.4011  144.6080  158.9320 H   0  0  0  0  0  0  0  0  0  0  0  0
  146.7269  142.3218  158.7888 H   0  0  0  0  0  0  0  0  0  0  0  0
  149.8126  140.3861  153.4804 H   0  0  0  0  0  0  0  0  0  0  0  0
  146.1378  140.4718  154.6624 H   0  0  0  0  0  0  0  0  0  0  0  0
  146.9252  140.9985  153.1936 H   0  0  0  0  0  0  0  0  0  0  0  0
  147.5552  138.2736  154.4271 H   0  0  0  0  0  0  0  0  0  0  0  0
  148.4708  137.9633  152.4960 H   0  0  0  0  0  0  0  0  0  0  0  0
  145.3867  138.9071  152.3508 H   0  0  0  0  0  0  0  0  0  0  0  0
  146.3706  136.8584  151.4544 H   0  0  0  0  0  0  0  0  0  0  0  0
  146.7239  136.2627  153.0767 H   0  0  0  0  0  0  0  0  0  0  0  0
  144.0925  136.2486  151.6698 H   0  0  0  0  0  0  0  0  0  0  0  0
  144.6787  135.2106  152.9711 H   0  0  0  0  0  0  0  0  0  0  0  0
  143.1723  137.7684  153.1442 H   0  0  0  0  0  0  0  0  0  0  0  0
  143.4443  136.5949  154.4381 H   0  0  0  0  0  0  0  0  0  0  0  0
  1  2  1  0  0  0  0
  1 26  1  0  0  0  0
  1 27  1  0  0  0  0
  1 28  1  0  0  0  0
  2  3  1  0  0  0  0
  2 29  1  0  0  0  0
  2 30  1  0  0  0  0
  3  8  1  0  0  0  0
  3  4  1  0  0  0  0
  3 31  1  0  0  0  0
  4  5  1  0  0  0  0
  4 32  1  0  0  0  0
  4 33  1  0  0  0  0
  5  6  1  0  0  0  0
  5 34  1  0  0  0  0
  5 35  1  0  0  0  0
  6  7  1  0  0  0  0
  6  8  1  0  0  0  0
  6 36  1  0  0  0  0
  7 37  1  0  0  0  0
  7 38  1  0  0  0  0
  7 39  1  0  0  0  0
  8  9  1  0  0  0  0
  9 14  1  0  0  0  0
  9 10  2  0  0  0  0
 10 11  1  0  0  0  0
 11 12  2  0  0  0  0
 11 40  1  0  0  0  0
 12 13  1  0  0  0  0
 13 17  1  0  0  0  0
 13 14  2  0  0  0  0
 14 15  1  0  0  0  0
 15 16  2  0  0  0  0
 16 17  1  0  0  0  0
 16 41  1  0  0  0  0
 17 18  1  0  0  0  0
 18 19  1  0  0  0  0
 18 42  1  0  0  0  0
 18 43  1  0  0  0  0
 19 20  1  0  0  0  0
 19 21  1  0  0  0  0
 19 44  1  0  0  0  0
 20 45  1  0  0  0  0
 21 25  1  0  0  0  0
 21 22  1  0  0  0  0
 21 46  1  0  0  0  0
 22 23  1  0  0  0  0
 22 47  1  0  0  0  0
 22 48  1  0  0  0  0
 23 24  1  0  0  0  0
 23 49  1  0  0  0  0
 23 50  1  0  0  0  0
 24 25  1  0  0  0  0
 24 51  1  0  0  0  0
 24 52  1  0  0  0  0
M  END
> <s_m_source_file>
AV-unprocessed.smi

> <i_m_source_file_index>
232

> <i_lp_mmshare_version>
43012

> <i_f3d_flags>
0

> <s_epik_input>
W0NIM11bQ0gyXVtDQEBIXTFbQ0gyXVtDSDJdW0NAQEhdKFtDSDNdKU4xYyhuW2NIXW4yKWMoYzIzKW5bY0hdbjNbQ0gyXVtDQEhdKFtPSF0pW0NAQEhdNFtDSDJdW0NIMl1bQ0gyXU80

> <s_epik_cmdline>
J2VwaWtfcHl0aG9uJywgJy1waCcsICc3LjAnLCAnLXRuJywgJzgnLCAnLW1hJywgJzIwMCcsICctbWV0YWxfYmluZGluZycsICctaW1hZScsICc8aW5maWxlLm1hZT4nLCAnLW9tYWUnLCAnPG91dGZpbGUubWFlPic=

> <r_lp_tautomer_probability>
1

> <r_epik_Ionization_Penalty>
0.00258048

> <r_epik_Ionization_Penalty_Charging>
0

> <r_epik_Ionization_Penalty_Neutral>
0.00258048

> <r_epik_State_Penalty>
0.00168551

> <r_epik_Charging_Adjusted_Penalty>
0.00168551

> <i_epik_Tot_Q>
0

> <i_epik_Tot_abs_Q>
0

> <r_epik_Metal_State_Penalty>
-0

> <b_epik_Metal_Only>
0

> <s_lp_Force_Field>
OPLS_2005

> <r_lp_Energy>
52.3854

> <b_lp_Chiralities_Consistent>
1

> <s_lp_Variant>
AV-unprocessed.smi:232-12

> <Gold.Version>
5.8.1

> <Gold.Id.Protein>
6NUR|6NUR_protein|mol2

> <Gold.PLP.Fitness>
44.7383

> <Gold.PLP.PLP>
-39.1310

> <Gold.PLP.part.hbond>
-2.6647

> <Gold.PLP.part.metal>
0.0000

> <Gold.PLP.part.buried>
-3.9799

> <Gold.PLP.part.nonpolar>
-33.0345

> <Gold.PLP.part.repulsive>
0.5209

> <Gold.PLP.ligand.clash>
0.0000

> <Gold.PLP.ligand.torsion>
0.3553

> <Gold.PLP.Chemscore.Hbond>
1.0000

> <Gold.PLP.Chemscore.CHOScore>
1.0000

> <Gold.PLP.Chemscore.Metal>
0.0000

> <Gold.Chemscore.Hbonds>
donor molecule, donor type, donor heavy atom, donor atom, acceptor molecule, acceptor atom, score
      L1  H    20    45       P1  7948  1.00
      L1  C    16    41       P1  7957  1.00

> <Gold.PLP.Chemscore.Internal.Correction>
0.3180

> <Gold.Rescore>
     Score         DG    S(hbond)    S(metal)    S(lipo)     H(rot)  DE(clash)    DE(int)     intcor
     12.12     -13.84       1.00        0.00      96.02       2.43       0.03       1.69       ----

> <Gold.Chemscore.Fitness>
12.1211

> <Gold.Chemscore.DG>
-13.8419

> <Gold.Chemscore.ZeroCoef>
-5.4800

> <Gold.Chemscore.Hbond>
0.9994

> <Gold.Chemscore.Metal>
0.0000

> <Gold.Chemscore.Lipo>
96.0221

> <Gold.Chemscore.Internal_Hbond>
0.0000

> <Gold.Chemscore.DEClash>
0.0268

> <Gold.Chemscore.DEInternal>
1.6940

> <Gold.Chemscore.Rot>
2.4260

> <Gold.Chemscore.Internal.Correction>
   9.000000E+99

> <Gold.Chemscore.Hbonds>
donor molecule, donor type, donor heavy atom, donor atom, acceptor molecule, acceptor atom, score
      L1  H    20    45       P1  7948  1.00

> <Gold.Chemscore.Hbond.Weighted>
-3.3380

> <Gold.Chemscore.Metal.Weighted>
-0.0000

> <Gold.Chemscore.Lipo.Weighted>
-11.2346

> <Gold.Chemscore.Internal_Hbond.Weighted>
0.0000

> <Gold.Chemscore.DEClash.Weighted>
0.0268

> <Gold.Chemscore.DEInternal.Weighted>
1.6940

> <Gold.Chemscore.Rot.Weighted>
6.2107

> <Gold.Chemscore.Internal.Correction.Weighted>
   9.000000E+99

> <Gold.Protein.RotatedTorsions>
[ 6907 6896 6895 6894 ] final  145.72 input  -60.11 | X-H torsion
[ 7974 7965 7964 7962 ] final -154.36 input  175.53 | X-H torsion
[ 8008 7997 7996 7995 ] final  147.69 input   59.86 | X-H torsion
[ 10167 10162 10161 10158 ] final   80.10 input  -65.29 | X-H torsion
[ 10718 10713 10712 10709 ] final  171.18 input   66.30 | X-H torsion
[ 10763 10752 10751 10750 ] final  -73.22 input  -60.55 | X-H torsion
[ 11005 11000 10999 10996 ] final   78.44 input  -57.11 | X-H torsion

> <Gold.Protein.ActiveResidues>
 VAL166  LYS551  ARG553  GLY616  TRP617  ASP618  TYR619  PRO620  LYS621  CYS622 
 ASP623  PHE694  ASN695  SER759  ASP760  ASP761  ALA762  ILE779  LEU786  VAL792 
 PHE793  MET794  SER795  GLU796  ALA797  LYS798  CYS799  TRP800  GLU811  SER814 

> <Gold.Protein.RotatedAtoms>
  152.1772  133.4683  159.4939 H   0  0  0  0  0  0  0  0  0  0  0  0  # atno 6907 bound_to 6896
  150.6929  134.1878  159.4282 H   0  0  0  0  0  0  0  0  0  0  0  0  # atno 6908 bound_to 6896
  151.9788  135.0039  160.0607 H   0  0  0  0  0  0  0  0  0  0  0  0  # atno 6909 bound_to 6896
  144.7693  140.4399  143.5919 H   0  0  0  0  0  0  0  0  0  0  0  0  # atno 7974 bound_to 7965
  156.2816  140.2149  156.5579 H   0  0  0  0  0  0  0  0  0  0  0  0  # atno 8008 bound_to 7997
  154.7237  140.0501  157.0686 H   0  0  0  0  0  0  0  0  0  0  0  0  # atno 8009 bound_to 7997
  155.0444  140.3149  155.4716 H   0  0  0  0  0  0  0  0  0  0  0  0  # atno 8010 bound_to 7997
  139.9533  144.6011  150.8140 H   0  0  0  0  0  0  0  0  0  0  0  0  # atno 10167 bound_to 10162
  156.9974  131.0166  151.2840 H   0  0  0  0  0  0  0  0  0  0  0  0  # atno 10718 bound_to 10713
  154.4565  135.5904  153.6227 H   0  0  0  0  0  0  0  0  0  0  0  0  # atno 10763 bound_to 10752
  152.9819  135.6033  154.3539 H   0  0  0  0  0  0  0  0  0  0  0  0  # atno 10764 bound_to 10752
  154.3406  135.2841  155.2403 H   0  0  0  0  0  0  0  0  0  0  0  0  # atno 10765 bound_to 10752
  139.9213  134.7763  156.1649 H   0  0  0  0  0  0  0  0  0  0  0  0  # atno 11005 bound_to 11000
  145.6372  139.1544  143.2936 LP  0  0  0  0  0  0  0  0  0  0  0  0  # atno 17320 bound_to 7965
  146.1827  140.6471  142.9181 LP  0  0  0  0  0  0  0  0  0  0  0  0  # atno 17321 bound_to 7965
  140.7576  143.3089  151.2892 LP  0  0  0  0  0  0  0  0  0  0  0  0  # atno 17342 bound_to 10162
  139.6611  144.0188  152.2693 LP  0  0  0  0  0  0  0  0  0  0  0  0  # atno 17343 bound_to 10162
  157.5415  130.8123  149.8034 LP  0  0  0  0  0  0  0  0  0  0  0  0  # atno 17370 bound_to 10713
  156.0184  130.3805  150.2038 LP  0  0  0  0  0  0  0  0  0  0  0  0  # atno 17371 bound_to 10713
  141.0735  133.6786  156.2189 LP  0  0  0  0  0  0  0  0  0  0  0  0  # atno 17394 bound_to 11000
  140.6467  134.5110  157.5574 LP  0  0  0  0  0  0  0  0  0  0  0  0  # atno 17395 bound_to 11000

$$$$
