AV-unprocessed.smi:2251|AV-procd|sdf|9102|dock1
  -GOLD-   2272012303D 1   1.00000     0.00000
 Structure written by MMmdl.
 45 46  0  0  0  0  0  0  0  0  2 V2000
  154.8130  136.4192  162.6355 C   0  0  0  0  0  0  0  0  0  0  0  0
  154.1368  136.6759  161.2934 C   0  0  0  0  0  0  0  0  0  0  0  0
  154.1927  135.8300  160.4011 O   0  0  0  0  0  0  0  0  0  0  0  0
  153.4979  137.8492  161.1639 N   0  0  0  0  0  0  0  0  0  0  0  0
  152.7730  138.2813  159.9720 C   0  0  0  0  0  0  0  0  0  0  0  0
  153.3017  139.6061  159.4106 C   0  0  0  0  0  0  0  0  0  0  0  0
  154.4798  139.7183  159.0700 O   0  0  0  0  0  0  0  0  0  0  0  0
  152.4089  140.5986  159.2965 N   0  0  0  0  0  0  0  0  0  0  0  0
  152.7169  141.9317  158.7879 C   0  0  0  0  0  0  0  0  0  0  0  0
  151.4399  142.7233  158.3833 C   0  0  0  0  0  0  0  0  0  0  0  0
  150.5983  141.8439  157.4300 C   0  0  0  0  0  0  0  0  0  0  0  0
  149.2451  141.5608  157.7462 C   0  0  0  0  0  0  0  0  0  0  0  0
  148.4649  140.7708  156.8789 C   0  0  0  0  0  0  0  0  0  0  0  0
  149.0065  140.2861  155.7429 N   0  3  0  0  0  0  0  0  0  0  0  0
  150.2850  140.5279  155.3873 C   0  0  0  0  0  0  0  0  0  0  0  0
  151.1116  141.3130  156.2167 C   0  0  0  0  0  0  0  0  0  0  0  0
  150.6345  143.1360  159.6561 C   0  0  0  0  0  0  0  0  0  0  0  0
  151.3448  144.1688  160.5497 C   0  0  0  0  0  0  0  0  0  0  0  0
  151.7108  145.4282  159.7563 C   0  0  0  0  0  0  0  0  0  0  0  0
  152.5475  145.0735  158.5222 C   0  0  0  0  0  0  0  0  0  0  0  0
  151.8380  144.0309  157.6379 C   0  0  0  0  0  0  0  0  0  0  0  0
  155.4779  137.2440  162.8937 H   0  0  0  0  0  0  0  0  0  0  0  0
  155.4034  135.5029  162.6028 H   0  0  0  0  0  0  0  0  0  0  0  0
  154.0658  136.3165  163.4229 H   0  0  0  0  0  0  0  0  0  0  0  0
  153.4977  138.4803  161.9522 H   0  0  0  0  0  0  0  0  0  0  0  0
  152.8823  137.5135  159.2061 H   0  0  0  0  0  0  0  0  0  0  0  0
  151.7058  138.3578  160.1890 H   0  0  0  0  0  0  0  0  0  0  0  0
  151.4609  140.4261  159.5979 H   0  0  0  0  0  0  0  0  0  0  0  0
  153.2964  142.4617  159.5429 H   0  0  0  0  0  0  0  0  0  0  0  0
  153.3802  141.8278  157.9278 H   0  0  0  0  0  0  0  0  0  0  0  0
  148.7936  141.9494  158.6469 H   0  0  0  0  0  0  0  0  0  0  0  0
  147.4303  140.5170  157.0580 H   0  0  0  0  0  0  0  0  0  0  0  0
  150.6076  140.0915  154.4532 H   0  0  0  0  0  0  0  0  0  0  0  0
  152.1256  141.4909  155.8945 H   0  0  0  0  0  0  0  0  0  0  0  0
  149.6861  143.5821  159.3531 H   0  0  0  0  0  0  0  0  0  0  0  0
  150.3829  142.2624  160.2586 H   0  0  0  0  0  0  0  0  0  0  0  0
  150.6940  144.4398  161.3817 H   0  0  0  0  0  0  0  0  0  0  0  0
  152.2385  143.7365  160.9990 H   0  0  0  0  0  0  0  0  0  0  0  0
  150.8003  145.9418  159.4448 H   0  0  0  0  0  0  0  0  0  0  0  0
  152.2578  146.1254  160.3919 H   0  0  0  0  0  0  0  0  0  0  0  0
  152.7400  145.9757  157.9408 H   0  0  0  0  0  0  0  0  0  0  0  0
  153.5248  144.7034  158.8325 H   0  0  0  0  0  0  0  0  0  0  0  0
  152.4798  143.8126  156.7845 H   0  0  0  0  0  0  0  0  0  0  0  0
  150.9394  144.4915  157.2245 H   0  0  0  0  0  0  0  0  0  0  0  0
  148.4253  139.7163  155.1273 H   0  0  0  0  0  0  0  0  0  0  0  0
  1  2  1  0  0  0  0
  1 22  1  0  0  0  0
  1 23  1  0  0  0  0
  1 24  1  0  0  0  0
  2  3  2  0  0  0  0
  2  4  1  0  0  0  0
  4  5  1  0  0  0  0
  4 25  1  0  0  0  0
  5  6  1  0  0  0  0
  5 26  1  0  0  0  0
  5 27  1  0  0  0  0
  6  7  2  0  0  0  0
  6  8  1  0  0  0  0
  8  9  1  0  0  0  0
  8 28  1  0  0  0  0
  9 10  1  0  0  0  0
  9 29  1  0  0  0  0
  9 30  1  0  0  0  0
 10 21  1  0  0  0  0
 10 11  1  0  0  0  0
 10 17  1  0  0  0  0
 11 16  1  0  0  0  0
 11 12  2  0  0  0  0
 12 13  1  0  0  0  0
 12 31  1  0  0  0  0
 13 14  2  0  0  0  0
 13 32  1  0  0  0  0
 14 15  1  0  0  0  0
 14 45  1  0  0  0  0
 15 16  2  0  0  0  0
 15 33  1  0  0  0  0
 16 34  1  0  0  0  0
 17 18  1  0  0  0  0
 17 35  1  0  0  0  0
 17 36  1  0  0  0  0
 18 19  1  0  0  0  0
 18 37  1  0  0  0  0
 18 38  1  0  0  0  0
 19 20  1  0  0  0  0
 19 39  1  0  0  0  0
 19 40  1  0  0  0  0
 20 21  1  0  0  0  0
 20 41  1  0  0  0  0
 20 42  1  0  0  0  0
 21 43  1  0  0  0  0
 21 44  1  0  0  0  0
M  CHG  1  14   1
M  END
> <s_m_source_file>
AV-unprocessed.smi

> <i_m_source_file_index>
2251

> <i_lp_mmshare_version>
43012

> <i_f3d_flags>
0

> <s_epik_input>
W0NIM11DKD1PKVtOSF1bQ0gyXUMoPU8pW05IXVtDSDJdQzEoW0NIMl1bQ0gyXVtDSDJdW0NIMl1bQ0gyXTEpYzJbY0hdW2NIXW5bY0hdW2NIXTI=

> <s_epik_cmdline>
J2VwaWtfcHl0aG9uJywgJy1waCcsICc3LjAnLCAnLXRuJywgJzgnLCAnLW1hJywgJzIwMCcsICctbWV0YWxfYmluZGluZycsICctaW1hZScsICc8aW5maWxlLm1hZT4nLCAnLW9tYWUnLCAnPG91dGZpbGUubWFlPic=

> <r_epik_Ionization_Penalty>
1.36815

> <r_epik_Ionization_Penalty_Charging>
1.36815

> <r_epik_Ionization_Penalty_Neutral>
3.04412e-07

> <r_epik_State_Penalty>
1.44763

> <r_epik_Charging_Adjusted_Penalty>
2.81578

> <i_epik_Tot_Q>
1

> <i_epik_Tot_abs_Q>
1

> <r_epik_Metal_State_Penalty>
1.50443

> <b_epik_Metal_Only>
0

> <s_lp_Force_Field>
OPLS_2005

> <r_lp_Energy>
22.2864

> <b_lp_Chiralities_Consistent>
1

> <s_lp_Variant>
AV-unprocessed.smi:2251-2

> <Gold.Version>
5.8.1

> <Gold.Id.Protein>
6NUR|6NUR_protein|mol2

> <Gold.PLP.Fitness>
43.3726

> <Gold.PLP.PLP>
-37.7471

> <Gold.PLP.part.hbond>
-2.0000

> <Gold.PLP.part.metal>
0.0000

> <Gold.PLP.part.buried>
-4.0631

> <Gold.PLP.part.nonpolar>
-31.9067

> <Gold.PLP.part.repulsive>
0.2519

> <Gold.PLP.ligand.clash>
0.0000

> <Gold.PLP.ligand.torsion>
0.2194

> <Gold.PLP.Chemscore.Hbond>
2.0000

> <Gold.PLP.Chemscore.CHOScore>
0.0000

> <Gold.PLP.Chemscore.Metal>
0.0000

> <Gold.Chemscore.Hbonds>
donor molecule, donor type, donor heavy atom, donor atom, acceptor molecule, acceptor atom, score
      P1  H  6896  6908       L1     3  0.60
      P1  H  7997  8008       L1     7  0.94

> <Gold.PLP.Chemscore.Internal.Correction>
0.0643

> <Gold.Rescore>
     Score         DG    S(hbond)    S(metal)    S(lipo)     H(rot)  DE(clash)    DE(int)     intcor
     20.06     -20.41       2.00        0.00     116.47       2.10       0.14       0.21       ----

> <Gold.Chemscore.Fitness>
20.0638

> <Gold.Chemscore.DG>
-20.4140

> <Gold.Chemscore.ZeroCoef>
-5.4800

> <Gold.Chemscore.Hbond>
1.9973

> <Gold.Chemscore.Metal>
0.0000

> <Gold.Chemscore.Lipo>
116.4679

> <Gold.Chemscore.Internal_Hbond>
0.0000

> <Gold.Chemscore.DEClash>
0.1381

> <Gold.Chemscore.DEInternal>
0.2121

> <Gold.Chemscore.Rot>
2.0952

> <Gold.Chemscore.Internal.Correction>
   9.000000E+99

> <Gold.Chemscore.Hbonds>
donor molecule, donor type, donor heavy atom, donor atom, acceptor molecule, acceptor atom, score
      P1  H  6896  6908       L1     3  0.46
      P1  H  7997  8008       L1     7  0.85

> <Gold.Chemscore.Hbond.Weighted>
-6.6709

> <Gold.Chemscore.Metal.Weighted>
-0.0000

> <Gold.Chemscore.Lipo.Weighted>
-13.6267

> <Gold.Chemscore.Internal_Hbond.Weighted>
0.0000

> <Gold.Chemscore.DEClash.Weighted>
0.1381

> <Gold.Chemscore.DEInternal.Weighted>
0.2121

> <Gold.Chemscore.Rot.Weighted>
5.3636

> <Gold.Chemscore.Internal.Correction.Weighted>
   9.000000E+99

> <Gold.Protein.RotatedTorsions>
[ 6907 6896 6895 6894 ] final  -80.96 input  -60.11 | X-H torsion
[ 7974 7965 7964 7962 ] final -141.33 input  175.53 | X-H torsion
[ 8008 7997 7996 7995 ] final  -98.00 input   59.86 | X-H torsion
[ 10167 10162 10161 10158 ] final   10.65 input  -65.29 | X-H torsion
[ 10718 10713 10712 10709 ] final -110.47 input   66.30 | X-H torsion
[ 10763 10752 10751 10750 ] final   66.40 input  -60.55 | X-H torsion
[ 11005 11000 10999 10996 ] final -135.45 input  -57.11 | X-H torsion

> <Gold.Protein.ActiveResidues>
 VAL166  LYS551  ARG553  GLY616  TRP617  ASP618  TYR619  PRO620  LYS621  CYS622 
 ASP623  PHE694  ASN695  SER759  ASP760  ASP761  ALA762  ILE779  LEU786  VAL792 
 PHE793  MET794  SER795  GLU796  ALA797  LYS798  CYS799  TRP800  GLU811  SER814 

> <Gold.Protein.RotatedAtoms>
  150.6920  134.3890  159.5067 H   0  0  0  0  0  0  0  0  0  0  0  0  # atno 6907 bound_to 6896
  152.1681  134.8854  160.0545 H   0  0  0  0  0  0  0  0  0  0  0  0  # atno 6908 bound_to 6896
  151.9891  133.3749  159.4174 H   0  0  0  0  0  0  0  0  0  0  0  0  # atno 6909 bound_to 6896
  144.8528  140.6093  143.5379 H   0  0  0  0  0  0  0  0  0  0  0  0  # atno 7974 bound_to 7965
  154.7953  140.0458  157.1232 H   0  0  0  0  0  0  0  0  0  0  0  0  # atno 8008 bound_to 7997
  154.9543  140.3069  155.5041 H   0  0  0  0  0  0  0  0  0  0  0  0  # atno 8009 bound_to 7997
  156.2955  140.2282  156.4623 H   0  0  0  0  0  0  0  0  0  0  0  0  # atno 8010 bound_to 7997
  140.6181  143.8264  150.7142 H   0  0  0  0  0  0  0  0  0  0  0  0  # atno 10167 bound_to 10162
  156.0592  130.5817  150.8241 H   0  0  0  0  0  0  0  0  0  0  0  0  # atno 10718 bound_to 10713
  153.0138  135.5322  154.6817 H   0  0  0  0  0  0  0  0  0  0  0  0  # atno 10763 bound_to 10752
  154.5975  135.2865  155.0572 H   0  0  0  0  0  0  0  0  0  0  0  0  # atno 10764 bound_to 10752
  154.1642  135.6542  153.5046 H   0  0  0  0  0  0  0  0  0  0  0  0  # atno 10765 bound_to 10752
  140.8897  134.1828  157.4536 H   0  0  0  0  0  0  0  0  0  0  0  0  # atno 11005 bound_to 11000
  145.4466  139.1529  143.3941 LP  0  0  0  0  0  0  0  0  0  0  0  0  # atno 17320 bound_to 7965
  146.2798  140.4590  142.8781 LP  0  0  0  0  0  0  0  0  0  0  0  0  # atno 17321 bound_to 7965
  140.1848  143.4085  152.1907 LP  0  0  0  0  0  0  0  0  0  0  0  0  # atno 17342 bound_to 10162
  139.5415  144.7261  151.4717 LP  0  0  0  0  0  0  0  0  0  0  0  0  # atno 17343 bound_to 10162
  157.5588  131.0945  150.9590 LP  0  0  0  0  0  0  0  0  0  0  0  0  # atno 17370 bound_to 10713
  156.9832  130.5535  149.5298 LP  0  0  0  0  0  0  0  0  0  0  0  0  # atno 17371 bound_to 10713
  139.8728  134.9853  156.5276 LP  0  0  0  0  0  0  0  0  0  0  0  0  # atno 17394 bound_to 11000
  140.8362  133.8240  155.9031 LP  0  0  0  0  0  0  0  0  0  0  0  0  # atno 17395 bound_to 11000

$$$$
