#       Name:                AV-unprocessed.smi:578
#       Creating user name   scv26
#       Creation time:       Thu Mar 26 23:49:18 2020


#       File generated by GOLD software.
#

@<TRIPOS>MOLECULE
AV-unprocessed.smi:578
    40    41     1
SMALL
NO_CHARGES


@<TRIPOS>ATOM
      1 ****        -2.7525  -1.5565   1.9247 C.3            1 S1                 0.0000
      2 ****        -2.1437  -0.8921   0.6858 C.3            1 S1                 0.0000
      3 ****        -0.6084  -0.8215   0.7669 C.3            1 S1                 0.0000
      4 ****        -0.0833  -0.0945  -0.3797 N.3            1 S1                 0.0000
      5 ****         1.3159  -0.1182  -0.4610 C.ar           1 S1                 0.0000
      6 ****         1.9340  -0.7378  -1.5641 C.ar           1 S1                 0.0000
      7 ****         3.3402  -0.7527  -1.6242 C.ar           1 S1                 0.0000
      8 ****         4.1284  -0.2021  -0.6782 N.ar           1 S1                 0.0000
      9 ****         3.5430   0.3977   0.3868 C.ar           1 S1                 0.0000
     10 ****         4.4442   1.0053   1.4287 C.2            1 S1                 0.0000
     11 ****         3.9271   1.5653   2.4217 O.co2          1 S1                 0.0000
     12 ****         5.6845   0.9341   1.2740 O.co2          1 S1                -1.0000
     13 ****         2.1365   0.4609   0.5321 C.ar           1 S1                 0.0000
     14 ****        -0.6436   1.2459  -0.4880 C.3            1 S1                 0.0000
     15 ****        -2.1845   1.1922  -0.5216 C.3            1 S1                 0.0000
     16 ****        -2.7523   0.6972  -1.8637 C.3            1 S1                 0.0000
     17 ****        -2.6761   0.4293   0.5843 O.3            1 S1                 0.0000
     18 ****        -2.3815  -2.5747   2.0454 H              1 S1                 0.0000
     19 ****        -3.8387  -1.6059   1.8457 H              1 S1                 0.0000
     20 ****        -2.5085  -1.0007   2.8304 H              1 S1                 0.0000
     21 ****        -2.4374  -1.4739  -0.1882 H              1 S1                 0.0000
     22 ****        -0.3065  -0.3235   1.6896 H              1 S1                 0.0000
     23 ****        -0.1860  -1.8270   0.7894 H              1 S1                 0.0000
     24 ****         1.3463  -1.1937  -2.3473 H              1 S1                 0.0000
     25 ****         3.8461  -1.2208  -2.4556 H              1 S1                 0.0000
     26 ****         1.6921   0.9447   1.3899 H              1 S1                 0.0000
     27 ****        -0.3215   1.8398   0.3686 H              1 S1                 0.0000
     28 ****        -0.2608   1.7420  -1.3810 H              1 S1                 0.0000
     29 ****        -2.5546   2.2076  -0.3785 H              1 S1                 0.0000
     30 ****        -2.4640   1.3672  -2.6738 H              1 S1                 0.0000
     31 ****        -3.8416   0.6637  -1.8363 H              1 S1                 0.0000
     32 ****        -2.3924  -0.2979  -2.1238 H              1 S1                 0.0000
     33 ****        -0.3954  -0.5928  -1.1885 LP             1 S1                 0.0000
     34 ****         5.1244  -0.2358  -0.7609 LP             1 S1                 0.0000
     35 ****         4.5091   1.9747   3.1242 LP             1 S1                 0.0000
     36 ****         2.9319   1.6033   2.5123 LP             1 S1                 0.0000
     37 ****         6.2972   1.3325   1.9566 LP             1 S1                 0.0000
     38 ****         6.0625   0.4789   0.4679 LP             1 S1                 0.0000
     39 ****        -2.4508   0.9207   1.4256 LP             1 S1                 0.0000
     40 ****        -3.6696   0.3582   0.4958 LP             1 S1                 0.0000
@<TRIPOS>BOND
    1    1    2 1     
    2    1   18 1     
    3    1   19 1     
    4    1   20 1     
    5    2   17 1     
    6    2    3 1     
    7    2   21 1     
    8    3    4 1     
    9    3   22 1     
   10    3   23 1     
   11    4    5 1     
   12    4   14 1     
   13    5   13 ar    
   14    5    6 ar    
   15    6    7 ar    
   16    6   24 1     
   17    7    8 ar    
   18    7   25 1     
   19    8    9 ar    
   20    9   10 1     
   21    9   13 ar    
   22   10   11 ar    
   23   10   12 ar    
   24   13   26 1     
   25   14   15 1     
   26   14   27 1     
   27   14   28 1     
   28   15   16 1     
   29   15   17 1     
   30   15   29 1     
   31   16   30 1     
   32   16   31 1     
   33   16   32 1     
   34    4   33 1     
   35    8   34 1     
   36   11   35 1     
   37   11   36 1     
   38   12   37 1     
   39   12   38 1     
   40   17   39 1     
   41   17   40 1     
@<TRIPOS>SUBSTRUCTURE
      1 S1             1
@<TRIPOS>SET
LONE_PAIRS      STATIC     ATOMS    <user>   **** ""
8 33 34 35 36 37 38 39 40
ATOM$BLUE        STATIC     ATOMS    COLORGROUP SYSTEM
8 33 34 35 36 37 38 39 40
