AV-unprocessed.smi:3030|AV-procd|sdf|11538|dock8
  -GOLD-   2272016483D 1   1.00000     0.00000
 Structure written by MMmdl.
 52 53  0  0  0  0  0  0  0  0  1 V2000
  151.7834  144.6351  160.9939 C   0  0  0  0  0  0  0  0  0  0  0  0
  152.4837  143.6211  161.9052 C   0  0  0  0  0  0  0  0  0  0  0  0
  152.9969  142.4848  161.1537 N   0  0  0  0  0  0  0  0  0  0  0  0
  154.1312  141.7958  161.5706 C   0  0  0  0  0  0  0  0  0  0  0  0
  154.6886  140.7772  160.8881 C   0  0  0  0  0  0  0  0  0  0  0  0
  154.0838  140.3444  159.6120 C   0  0  0  0  0  0  0  0  0  0  0  0
  154.5670  139.4166  158.9630 O   0  0  0  0  0  0  0  0  0  0  0  0
  152.8742  141.0842  159.1632 C   0  0  0  0  0  0  0  0  0  0  0  0
  152.3011  140.6585  157.9535 N   0  0  0  0  0  0  0  0  0  0  0  0
  151.0103  140.4259  157.6533 C   0  0  0  0  0  0  0  0  0  0  0  0
  150.0526  140.5755  158.4115 O   0  0  0  0  0  0  0  0  0  0  0  0
  150.8878  140.0042  156.3869 N   0  0  0  0  0  0  0  0  0  0  0  0
  149.6340  139.6498  155.7243 C   0  0  1  0  0  0  0  0  0  0  0  0
  148.7647  140.9157  155.5798 C   0  0  0  0  0  0  0  0  0  0  0  0
  147.4408  140.6276  154.8511 C   0  0  1  0  0  0  0  0  0  0  0  0
  146.5863  141.8963  154.7168 C   0  0  0  0  0  0  0  0  0  0  0  0
  147.7207  139.9882  153.4809 C   0  0  0  0  0  0  0  0  0  0  0  0
  148.5697  138.7154  153.6175 C   0  0  0  0  0  0  0  0  0  0  0  0
  149.9073  138.9878  154.3458 C   0  0  2  0  0  0  0  0  0  0  0  0
  150.8345  137.7371  154.4193 C   0  0  0  0  0  0  0  0  0  0  0  0
  150.3710  136.7239  155.4802 C   0  0  0  0  0  0  0  0  0  0  0  0
  152.3271  138.0699  154.6009 C   0  0  0  0  0  0  0  0  0  0  0  0
  152.4150  142.0906  159.9504 C   0  0  0  0  0  0  0  0  0  0  0  0
  151.4047  145.4780  161.5719 H   0  0  0  0  0  0  0  0  0  0  0  0
  150.9390  144.1806  160.4749 H   0  0  0  0  0  0  0  0  0  0  0  0
  152.4684  145.0276  160.2417 H   0  0  0  0  0  0  0  0  0  0  0  0
  153.3032  144.1055  162.4374 H   0  0  0  0  0  0  0  0  0  0  0  0
  151.7899  143.2690  162.6694 H   0  0  0  0  0  0  0  0  0  0  0  0
  154.5415  142.1399  162.5090 H   0  0  0  0  0  0  0  0  0  0  0  0
  155.5691  140.2690  161.2528 H   0  0  0  0  0  0  0  0  0  0  0  0
  152.9652  140.5172  157.2060 H   0  0  0  0  0  0  0  0  0  0  0  0
  151.7290  139.9133  155.8363 H   0  0  0  0  0  0  0  0  0  0  0  0
  149.0846  138.9381  156.3423 H   0  0  0  0  0  0  0  0  0  0  0  0
  148.5537  141.3306  156.5667 H   0  0  0  0  0  0  0  0  0  0  0  0
  149.3202  141.6826  155.0377 H   0  0  0  0  0  0  0  0  0  0  0  0
  146.8748  139.9117  155.4491 H   0  0  0  0  0  0  0  0  0  0  0  0
  147.0982  142.6593  154.1296 H   0  0  0  0  0  0  0  0  0  0  0  0
  146.3625  142.3237  155.6945 H   0  0  0  0  0  0  0  0  0  0  0  0
  145.6364  141.6804  154.2270 H   0  0  0  0  0  0  0  0  0  0  0  0
  146.7807  139.7472  152.9831 H   0  0  0  0  0  0  0  0  0  0  0  0
  148.2360  140.7021  152.8365 H   0  0  0  0  0  0  0  0  0  0  0  0
  147.9939  137.9630  154.1568 H   0  0  0  0  0  0  0  0  0  0  0  0
  148.7495  138.3113  152.6221 H   0  0  0  0  0  0  0  0  0  0  0  0
  150.4415  139.7291  153.7487 H   0  0  0  0  0  0  0  0  0  0  0  0
  150.7500  137.2098  153.4690 H   0  0  0  0  0  0  0  0  0  0  0  0
  150.5115  137.1013  156.4930 H   0  0  0  0  0  0  0  0  0  0  0  0
  150.9354  135.7942  155.4010 H   0  0  0  0  0  0  0  0  0  0  0  0
  149.3165  136.4758  155.3570 H   0  0  0  0  0  0  0  0  0  0  0  0
  152.5195  138.5681  155.5509 H   0  0  0  0  0  0  0  0  0  0  0  0
  152.6991  138.7113  153.8026 H   0  0  0  0  0  0  0  0  0  0  0  0
  152.9296  137.1614  154.5848 H   0  0  0  0  0  0  0  0  0  0  0  0
  151.5369  142.6693  159.7134 H   0  0  0  0  0  0  0  0  0  0  0  0
  1  2  1  0  0  0  0
  1 24  1  0  0  0  0
  1 25  1  0  0  0  0
  1 26  1  0  0  0  0
  2  3  1  0  0  0  0
  2 27  1  0  0  0  0
  2 28  1  0  0  0  0
  3 23  1  0  0  0  0
  3  4  1  0  0  0  0
  4  5  2  0  0  0  0
  4 29  1  0  0  0  0
  5  6  1  0  0  0  0
  5 30  1  0  0  0  0
  6  7  2  0  0  0  0
  6  8  1  0  0  0  0
  8  9  1  0  0  0  0
  8 23  2  0  0  0  0
  9 10  1  0  0  0  0
  9 31  1  0  0  0  0
 10 11  2  0  0  0  0
 10 12  1  0  0  0  0
 12 13  1  0  0  0  0
 12 32  1  0  0  0  0
 13 19  1  0  0  0  0
 13 14  1  0  0  0  0
 13 33  1  0  0  0  0
 14 15  1  0  0  0  0
 14 34  1  0  0  0  0
 14 35  1  0  0  0  0
 15 16  1  0  0  0  0
 15 17  1  0  0  0  0
 15 36  1  0  0  0  0
 16 37  1  0  0  0  0
 16 38  1  0  0  0  0
 16 39  1  0  0  0  0
 17 18  1  0  0  0  0
 17 40  1  0  0  0  0
 17 41  1  0  0  0  0
 18 19  1  0  0  0  0
 18 42  1  0  0  0  0
 18 43  1  0  0  0  0
 19 20  1  0  0  0  0
 19 44  1  0  0  0  0
 20 21  1  0  0  0  0
 20 22  1  0  0  0  0
 20 45  1  0  0  0  0
 21 46  1  0  0  0  0
 21 47  1  0  0  0  0
 21 48  1  0  0  0  0
 22 49  1  0  0  0  0
 22 50  1  0  0  0  0
 22 51  1  0  0  0  0
 23 52  1  0  0  0  0
M  END
> <s_m_source_file>
AV-unprocessed.smi

> <i_m_source_file_index>
3030

> <i_lp_mmshare_version>
43012

> <i_f3d_flags>
0

> <s_epik_input>
W0NIM11bQ0gyXW4xW2NIXVtjSF1jKD1PKWMoW2NIXTEpW05IXUMoPU8pW05IXVtDQEBIXTJbQ0gyXVtDQEBIXShbQ0gzXSlbQ0gyXVtDSDJdW0NASF0yW0NIXShbQ0gzXSlbQ0gzXQ==

> <s_epik_cmdline>
J2VwaWtfcHl0aG9uJywgJy1waCcsICc3LjAnLCAnLXRuJywgJzgnLCAnLW1hJywgJzIwMCcsICctbWV0YWxfYmluZGluZycsICctaW1hZScsICc8aW5maWxlLm1hZT4nLCAnLW9tYWUnLCAnPG91dGZpbGUubWFlPic=

> <r_lp_tautomer_probability>
1

> <r_epik_Ionization_Penalty>
0.00147933

> <r_epik_Ionization_Penalty_Charging>
0.00145753

> <r_epik_Ionization_Penalty_Neutral>
2.17987e-05

> <r_epik_State_Penalty>
0.00097457

> <r_epik_Charging_Adjusted_Penalty>
0.0024321

> <i_epik_Tot_Q>
0

> <i_epik_Tot_abs_Q>
0

> <r_epik_Metal_State_Penalty>
-0

> <b_epik_Metal_Only>
0

> <s_lp_Force_Field>
OPLS_2005

> <r_lp_Energy>
9.50568

> <b_lp_Chiralities_Consistent>
1

> <s_lp_Variant>
AV-unprocessed.smi:3030-6

> <Gold.Version>
5.8.1

> <Gold.Id.Protein>
6NUR|6NUR_protein|mol2

> <Gold.PLP.Fitness>
47.6441

> <Gold.PLP.PLP>
-46.7554

> <Gold.PLP.part.hbond>
-1.0000

> <Gold.PLP.part.metal>
0.0000

> <Gold.PLP.part.buried>
3.3761

> <Gold.PLP.part.nonpolar>
-48.0609

> <Gold.PLP.part.repulsive>
0.1876

> <Gold.PLP.ligand.clash>
0.0000

> <Gold.PLP.ligand.torsion>
1.0902

> <Gold.PLP.Chemscore.Hbond>
1.0000

> <Gold.PLP.Chemscore.CHOScore>
0.0000

> <Gold.PLP.Chemscore.Metal>
0.0000

> <Gold.Chemscore.Hbonds>
donor molecule, donor type, donor heavy atom, donor atom, acceptor molecule, acceptor atom, score
      P1  H  7997  8008       L1     7  1.00

> <Gold.PLP.Chemscore.Internal.Correction>
0.0691

> <Gold.Rescore>
     Score         DG    S(hbond)    S(metal)    S(lipo)     H(rot)  DE(clash)    DE(int)     intcor
     16.10     -19.97       0.95        0.00     124.55       1.27       1.77       2.11       ----

> <Gold.Chemscore.Fitness>
16.0954

> <Gold.Chemscore.DG>
-19.9745

> <Gold.Chemscore.ZeroCoef>
-5.4800

> <Gold.Chemscore.Hbond>
0.9489

> <Gold.Chemscore.Metal>
0.0000

> <Gold.Chemscore.Lipo>
124.5526

> <Gold.Chemscore.Internal_Hbond>
0.0000

> <Gold.Chemscore.DEClash>
1.7686

> <Gold.Chemscore.DEInternal>
2.1105

> <Gold.Chemscore.Rot>
1.2685

> <Gold.Chemscore.Internal.Correction>
   9.000000E+99

> <Gold.Chemscore.Hbonds>
donor molecule, donor type, donor heavy atom, donor atom, acceptor molecule, acceptor atom, score
      P1  H  7997  8008       L1     7  0.74

> <Gold.Chemscore.Hbond.Weighted>
-3.1693

> <Gold.Chemscore.Metal.Weighted>
-0.0000

> <Gold.Chemscore.Lipo.Weighted>
-14.5727

> <Gold.Chemscore.Internal_Hbond.Weighted>
0.0000

> <Gold.Chemscore.DEClash.Weighted>
1.7686

> <Gold.Chemscore.DEInternal.Weighted>
2.1105

> <Gold.Chemscore.Rot.Weighted>
3.2474

> <Gold.Chemscore.Internal.Correction.Weighted>
   9.000000E+99

> <Gold.Protein.RotatedTorsions>
[ 6907 6896 6895 6894 ] final  -39.47 input  -60.11 | X-H torsion
[ 7974 7965 7964 7962 ] final  108.06 input  175.53 | X-H torsion
[ 8008 7997 7996 7995 ] final -120.04 input   59.86 | X-H torsion
[ 10167 10162 10161 10158 ] final   62.36 input  -65.29 | X-H torsion
[ 10718 10713 10712 10709 ] final  -33.83 input   66.30 | X-H torsion
[ 10763 10752 10751 10750 ] final  -91.31 input  -60.55 | X-H torsion
[ 11005 11000 10999 10996 ] final   83.07 input  -57.11 | X-H torsion

> <Gold.Protein.ActiveResidues>
 VAL166  LYS551  ARG553  GLY616  TRP617  ASP618  TYR619  PRO620  LYS621  CYS622 
 ASP623  PHE694  ASN695  SER759  ASP760  ASP761  ALA762  ILE779  LEU786  VAL792 
 PHE793  MET794  SER795  GLU796  ALA797  LYS798  CYS799  TRP800  GLU811  SER814 

> <Gold.Protein.RotatedAtoms>
  150.9899  134.9236  159.7893 H   0  0  0  0  0  0  0  0  0  0  0  0  # atno 6907 bound_to 6896
  152.5248  134.3295  159.9188 H   0  0  0  0  0  0  0  0  0  0  0  0  # atno 6908 bound_to 6896
  151.3301  133.3963  159.2696 H   0  0  0  0  0  0  0  0  0  0  0  0  # atno 6909 bound_to 6896
  145.2855  139.2618  143.3893 H   0  0  0  0  0  0  0  0  0  0  0  0  # atno 7974 bound_to 7965
  155.1253  140.0399  157.2761 H   0  0  0  0  0  0  0  0  0  0  0  0  # atno 8008 bound_to 7997
  154.6583  140.2585  155.7111 H   0  0  0  0  0  0  0  0  0  0  0  0  # atno 8009 bound_to 7997
  156.2608  140.2822  156.1044 H   0  0  0  0  0  0  0  0  0  0  0  0  # atno 8010 bound_to 7997
  140.1447  144.4520  150.6792 H   0  0  0  0  0  0  0  0  0  0  0  0  # atno 10167 bound_to 10162
  156.3579  130.4319  149.7648 H   0  0  0  0  0  0  0  0  0  0  0  0  # atno 10718 bound_to 10713
  154.6747  135.5272  153.8184 H   0  0  0  0  0  0  0  0  0  0  0  0  # atno 10763 bound_to 10752
  153.0524  135.6537  154.0670 H   0  0  0  0  0  0  0  0  0  0  0  0  # atno 10764 bound_to 10752
  154.0564  135.2965  155.3312 H   0  0  0  0  0  0  0  0  0  0  0  0  # atno 10765 bound_to 10752
  139.9043  134.8118  156.2260 H   0  0  0  0  0  0  0  0  0  0  0  0  # atno 11005 bound_to 11000
  146.3202  140.3333  142.8642 LP  0  0  0  0  0  0  0  0  0  0  0  0  # atno 17320 bound_to 7965
  144.9217  140.7875  143.5744 LP  0  0  0  0  0  0  0  0  0  0  0  0  # atno 17321 bound_to 7965
  140.6739  143.2297  151.5556 LP  0  0  0  0  0  0  0  0  0  0  0  0  # atno 17342 bound_to 10162
  139.5455  144.2533  152.1433 LP  0  0  0  0  0  0  0  0  0  0  0  0  # atno 17343 bound_to 10162
  156.4823  130.8047  151.3060 LP  0  0  0  0  0  0  0  0  0  0  0  0  # atno 17370 bound_to 10713
  157.7470  131.0002  150.2916 LP  0  0  0  0  0  0  0  0  0  0  0  0  # atno 17371 bound_to 10713
  141.0376  133.6955  156.1540 LP  0  0  0  0  0  0  0  0  0  0  0  0  # atno 17394 bound_to 11000
  140.7004  134.4570  157.5586 LP  0  0  0  0  0  0  0  0  0  0  0  0  # atno 17395 bound_to 11000

$$$$
