AV-unprocessed.smi:2137|AV-procd|sdf|8706|dock9
  -GOLD-   2272011463D 1   1.00000     0.00000
 Structure written by MMmdl.
 50 51  0  0  0  0  0  0  0  0  2 V2000
  152.7614  144.5055  158.5451 C   0  0  0  0  0  0  0  0  0  0  0  0
  151.3426  144.0853  158.1372 C   0  0  2  0  0  0  0  0  0  0  0  0
  150.4252  143.9415  159.3631 C   0  0  0  0  0  0  0  0  0  0  0  0
  149.0239  143.4945  158.9288 C   0  0  0  0  0  0  0  0  0  0  0  0
  149.0909  142.2062  158.0932 C   0  0  0  0  0  0  0  0  0  0  0  0
  149.9797  142.3774  156.9148 N   0  3  2  0  0  0  0  0  0  0  0  0
  149.9558  141.1945  156.0179 C   0  0  0  0  0  0  0  0  0  0  0  0
  151.3533  140.5752  155.8231 C   0  0  0  0  0  0  0  0  0  0  0  0
  151.3442  139.3161  154.9379 C   0  0  0  0  0  0  0  0  0  0  0  0
  150.3816  138.3214  155.3977 N   0  0  0  0  0  0  0  0  0  0  0  0
  150.4296  137.0097  155.1186 C   0  0  0  0  0  0  0  0  0  0  0  0
  151.3182  136.4935  154.4417 O   0  0  0  0  0  0  0  0  0  0  0  0
  149.3044  136.1437  155.6932 C   0  0  0  0  0  0  0  0  0  0  0  0
  149.4488  134.7353  155.3049 N   0  0  0  0  0  0  0  0  0  0  0  0
  149.3168  134.3810  153.9742 C   0  0  0  0  0  0  0  0  0  0  0  0
  149.4268  133.1116  153.5258 C   0  0  0  0  0  0  0  0  0  0  0  0
  149.6946  132.0149  154.4476 C   0  0  0  0  0  0  0  0  0  0  0  0
  149.8153  130.8425  154.0894 O   0  0  0  0  0  0  0  0  0  0  0  0
  149.8146  132.4004  155.8024 N   0  0  0  0  0  0  0  0  0  0  0  0
  150.0860  131.3435  156.7549 C   0  0  0  0  0  0  0  0  0  0  0  0
  149.7108  133.7330  156.2653 C   0  0  0  0  0  0  0  0  0  0  0  0
  149.8411  134.0302  157.4553 O   0  0  0  0  0  0  0  0  0  0  0  0
  151.3542  142.7763  157.3221 C   0  0  0  0  0  0  0  0  0  0  0  0
  153.2274  143.7580  159.1879 H   0  0  0  0  0  0  0  0  0  0  0  0
  152.7495  145.4507  159.0885 H   0  0  0  0  0  0  0  0  0  0  0  0
  153.3995  144.6370  157.6707 H   0  0  0  0  0  0  0  0  0  0  0  0
  150.9367  144.8741  157.5018 H   0  0  0  0  0  0  0  0  0  0  0  0
  150.8437  143.2128  160.0590 H   0  0  0  0  0  0  0  0  0  0  0  0
  150.3621  144.8873  159.9027 H   0  0  0  0  0  0  0  0  0  0  0  0
  148.3949  143.3379  159.8059 H   0  0  0  0  0  0  0  0  0  0  0  0
  148.5504  144.2859  158.3460 H   0  0  0  0  0  0  0  0  0  0  0  0
  149.4502  141.3771  158.7050 H   0  0  0  0  0  0  0  0  0  0  0  0
  148.0847  141.9448  157.7629 H   0  0  0  0  0  0  0  0  0  0  0  0
  149.2466  140.4585  156.3995 H   0  0  0  0  0  0  0  0  0  0  0  0
  149.5865  141.4967  155.0368 H   0  0  0  0  0  0  0  0  0  0  0  0
  152.0111  141.3155  155.3664 H   0  0  0  0  0  0  0  0  0  0  0  0
  151.8011  140.3274  156.7849 H   0  0  0  0  0  0  0  0  0  0  0  0
  151.0909  139.5846  153.9120 H   0  0  0  0  0  0  0  0  0  0  0  0
  152.3424  138.8761  154.9004 H   0  0  0  0  0  0  0  0  0  0  0  0
  149.6058  138.6563  155.9514 H   0  0  0  0  0  0  0  0  0  0  0  0
  149.3161  136.2255  156.7815 H   0  0  0  0  0  0  0  0  0  0  0  0
  148.3378  136.5456  155.3848 H   0  0  0  0  0  0  0  0  0  0  0  0
  149.1143  135.1594  153.2528 H   0  0  0  0  0  0  0  0  0  0  0  0
  149.3145  132.9047  152.4715 H   0  0  0  0  0  0  0  0  0  0  0  0
  149.9645  131.6957  157.7790 H   0  0  0  0  0  0  0  0  0  0  0  0
  151.1111  131.0135  156.5799 H   0  0  0  0  0  0  0  0  0  0  0  0
  149.3708  130.5388  156.5748 H   0  0  0  0  0  0  0  0  0  0  0  0
  151.9797  142.9153  156.4410 H   0  0  0  0  0  0  0  0  0  0  0  0
  151.8080  141.9724  157.9047 H   0  0  0  0  0  0  0  0  0  0  0  0
  149.5951  143.1457  156.3839 H   0  0  0  0  0  0  0  0  0  0  0  0
  1  2  1  0  0  0  0
  1 24  1  0  0  0  0
  1 25  1  0  0  0  0
  1 26  1  0  0  0  0
  2 23  1  0  0  0  0
  2  3  1  0  0  0  0
  2 27  1  0  0  0  0
  3  4  1  0  0  0  0
  3 28  1  0  0  0  0
  3 29  1  0  0  0  0
  4  5  1  0  0  0  0
  4 30  1  0  0  0  0
  4 31  1  0  0  0  0
  5  6  1  0  0  0  0
  5 32  1  0  0  0  0
  5 33  1  0  0  0  0
  6  7  1  0  0  0  0
  6 23  1  0  0  0  0
  6 50  1  0  0  0  0
  7  8  1  0  0  0  0
  7 34  1  0  0  0  0
  7 35  1  0  0  0  0
  8  9  1  0  0  0  0
  8 36  1  0  0  0  0
  8 37  1  0  0  0  0
  9 10  1  0  0  0  0
  9 38  1  0  0  0  0
  9 39  1  0  0  0  0
 10 11  1  0  0  0  0
 10 40  1  0  0  0  0
 11 12  2  0  0  0  0
 11 13  1  0  0  0  0
 13 14  1  0  0  0  0
 13 41  1  0  0  0  0
 13 42  1  0  0  0  0
 14 21  1  0  0  0  0
 14 15  1  0  0  0  0
 15 16  2  0  0  0  0
 15 43  1  0  0  0  0
 16 17  1  0  0  0  0
 16 44  1  0  0  0  0
 17 18  2  0  0  0  0
 17 19  1  0  0  0  0
 19 20  1  0  0  0  0
 19 21  1  0  0  0  0
 20 45  1  0  0  0  0
 20 46  1  0  0  0  0
 20 47  1  0  0  0  0
 21 22  2  0  0  0  0
 23 48  1  0  0  0  0
 23 49  1  0  0  0  0
M  CHG  1   6   1
M  END
> <s_m_source_file>
AV-unprocessed.smi

> <i_m_source_file_index>
2137

> <i_lp_mmshare_version>
43012

> <i_f3d_flags>
0

> <s_epik_input>
W0NIM11bQ0BASF0xW0NIMl1bQ0gyXVtDSDJdTihbQ0gyXTEpW0NIMl1bQ0gyXVtDSDJdW05IXUMoPU8pW0NIMl1uMltjSF1bY0hdYyg9TyluKFtDSDNdKWMyPU8=

> <s_epik_cmdline>
J2VwaWtfcHl0aG9uJywgJy1waCcsICc3LjAnLCAnLXRuJywgJzgnLCAnLW1hJywgJzIwMCcsICctbWV0YWxfYmluZGluZycsICctaW1hZScsICc8aW5maWxlLm1hZT4nLCAnLW9tYWUnLCAnPG91dGZpbGUubWFlPic=

> <r_lp_tautomer_probability>
1

> <r_epik_Ionization_Penalty>
0.000384839

> <r_epik_Ionization_Penalty_Charging>
0.000384812

> <r_epik_Ionization_Penalty_Neutral>
2.6907e-08

> <r_epik_State_Penalty>
0.000235226

> <r_epik_Charging_Adjusted_Penalty>
0.000620038

> <i_epik_Tot_Q>
1

> <i_epik_Tot_abs_Q>
1

> <r_epik_Metal_State_Penalty>
-0

> <b_epik_Metal_Only>
0

> <s_lp_Force_Field>
OPLS_2005

> <r_lp_Energy>
29.3938

> <b_lp_Chiralities_Consistent>
1

> <s_lp_Variant>
AV-unprocessed.smi:2137-1

> <Gold.Version>
5.8.1

> <Gold.Id.Protein>
6NUR|6NUR_protein|mol2

> <Gold.PLP.Fitness>
50.5107

> <Gold.PLP.PLP>
-40.4911

> <Gold.PLP.part.hbond>
-2.8710

> <Gold.PLP.part.metal>
0.0000

> <Gold.PLP.part.buried>
-3.6856

> <Gold.PLP.part.nonpolar>
-34.4443

> <Gold.PLP.part.repulsive>
0.2589

> <Gold.PLP.ligand.clash>
3.1132

> <Gold.PLP.ligand.torsion>
0.9503

> <Gold.PLP.Chemscore.Hbond>
3.9920

> <Gold.PLP.Chemscore.CHOScore>
1.0000

> <Gold.PLP.Chemscore.Metal>
0.0000

> <Gold.Chemscore.Hbonds>
donor molecule, donor type, donor heavy atom, donor atom, acceptor molecule, acceptor atom, score
      L1  H     6    50       P1  8028  2.00
      P1  H  6896  6907       L1    22  0.99
      P1  H 10752 10765       L1    12  1.00
      L1  C    15    43       P1  7948  0.22

> <Gold.PLP.Chemscore.Internal.Correction>
0.0574

> <Gold.Rescore>
     Score         DG    S(hbond)    S(metal)    S(lipo)     H(rot)  DE(clash)    DE(int)     intcor
     17.97     -20.33       2.97        0.00      91.84       2.27       0.18       2.18       ----

> <Gold.Chemscore.Fitness>
17.9656

> <Gold.Chemscore.DG>
-20.3297

> <Gold.Chemscore.ZeroCoef>
-5.4800

> <Gold.Chemscore.Hbond>
2.9723

> <Gold.Chemscore.Metal>
0.0000

> <Gold.Chemscore.Lipo>
91.8416

> <Gold.Chemscore.Internal_Hbond>
0.0000

> <Gold.Chemscore.DEClash>
0.1811

> <Gold.Chemscore.DEInternal>
2.1830

> <Gold.Chemscore.Rot>
2.2748

> <Gold.Chemscore.Internal.Correction>
   9.000000E+99

> <Gold.Chemscore.Hbonds>
donor molecule, donor type, donor heavy atom, donor atom, acceptor molecule, acceptor atom, score
      L1  H     6    50       P1  8028  1.00
      P1  H  6896  6907       L1    22  0.89
      P1  H 10752 10765       L1    12  1.00

> <Gold.Chemscore.Hbond.Weighted>
-9.9276

> <Gold.Chemscore.Metal.Weighted>
-0.0000

> <Gold.Chemscore.Lipo.Weighted>
-10.7455

> <Gold.Chemscore.Internal_Hbond.Weighted>
0.0000

> <Gold.Chemscore.DEClash.Weighted>
0.1811

> <Gold.Chemscore.DEInternal.Weighted>
2.1830

> <Gold.Chemscore.Rot.Weighted>
5.8234

> <Gold.Chemscore.Internal.Correction.Weighted>
   9.000000E+99

> <Gold.Protein.RotatedTorsions>
[ 6907 6896 6895 6894 ] final -109.38 input  -60.11 | X-H torsion
[ 7974 7965 7964 7962 ] final -133.83 input  175.53 | X-H torsion
[ 8008 7997 7996 7995 ] final   99.07 input   59.86 | X-H torsion
[ 10167 10162 10161 10158 ] final   -6.33 input  -65.29 | X-H torsion
[ 10718 10713 10712 10709 ] final  143.26 input   66.30 | X-H torsion
[ 10763 10752 10751 10750 ] final  167.03 input  -60.55 | X-H torsion
[ 11005 11000 10999 10996 ] final  152.23 input  -57.11 | X-H torsion

> <Gold.Protein.ActiveResidues>
 VAL166  LYS551  ARG553  GLY616  TRP617  ASP618  TYR619  PRO620  LYS621  CYS622 
 ASP623  PHE694  ASN695  SER759  ASP760  ASP761  ALA762  ILE779  LEU786  VAL792 
 PHE793  MET794  SER795  GLU796  ALA797  LYS798  CYS799  TRP800  GLU811  SER814 

> <Gold.Protein.RotatedAtoms>
  150.7558  133.9538  159.3493 H   0  0  0  0  0  0  0  0  0  0  0  0  # atno 6907 bound_to 6896
  151.7458  135.0842  160.0332 H   0  0  0  0  0  0  0  0  0  0  0  0  # atno 6908 bound_to 6896
  152.3499  133.6129  159.5973 H   0  0  0  0  0  0  0  0  0  0  0  0  # atno 6909 bound_to 6896
  144.9157  140.6952  143.4997 H   0  0  0  0  0  0  0  0  0  0  0  0  # atno 7974 bound_to 7965
  156.1068  140.3234  155.8017 H   0  0  0  0  0  0  0  0  0  0  0  0  # atno 8008 bound_to 7997
  155.4742  140.0549  157.2993 H   0  0  0  0  0  0  0  0  0  0  0  0  # atno 8009 bound_to 7997
  154.4733  140.2021  155.9955 H   0  0  0  0  0  0  0  0  0  0  0  0  # atno 8010 bound_to 7997
  140.6993  143.6207  150.8615 H   0  0  0  0  0  0  0  0  0  0  0  0  # atno 10167 bound_to 10162
  157.3710  131.0979  151.0828 H   0  0  0  0  0  0  0  0  0  0  0  0  # atno 10718 bound_to 10713
  154.3478  135.2753  155.2388 H   0  0  0  0  0  0  0  0  0  0  0  0  # atno 10763 bound_to 10752
  154.4630  135.5902  153.6272 H   0  0  0  0  0  0  0  0  0  0  0  0  # atno 10764 bound_to 10752
  152.9852  135.6069  154.3686 H   0  0  0  0  0  0  0  0  0  0  0  0  # atno 10765 bound_to 10752
  140.1289  134.8815  157.2177 H   0  0  0  0  0  0  0  0  0  0  0  0  # atno 11005 bound_to 11000
  145.3379  139.1740  143.4501 LP  0  0  0  0  0  0  0  0  0  0  0  0  # atno 17320 bound_to 7965
  146.3181  140.3416  142.8648 LP  0  0  0  0  0  0  0  0  0  0  0  0  # atno 17321 bound_to 7965
  139.9927  143.5829  152.2904 LP  0  0  0  0  0  0  0  0  0  0  0  0  # atno 17342 bound_to 10162
  139.6490  144.7660  151.2186 LP  0  0  0  0  0  0  0  0  0  0  0  0  # atno 17343 bound_to 10162
  157.1932  130.6361  149.5712 LP  0  0  0  0  0  0  0  0  0  0  0  0  # atno 17370 bound_to 10713
  155.9755  130.4715  150.6468 LP  0  0  0  0  0  0  0  0  0  0  0  0  # atno 17371 bound_to 10713
  140.2867  134.3287  155.7327 LP  0  0  0  0  0  0  0  0  0  0  0  0  # atno 17394 bound_to 11000
  141.2166  133.7510  156.9444 LP  0  0  0  0  0  0  0  0  0  0  0  0  # atno 17395 bound_to 11000

$$$$
