AV-unprocessed.smi:3013|AV-procd|sdf|11465|dock5
  -GOLD-   2272016403D 1   1.00000     0.00000
 Structure written by MMmdl.
 45 46  0  0  0  0  0  0  0  0  2 V2000
  148.3854  130.1208  153.5980 C   0  0  0  0  0  0  0  0  0  0  0  0
  148.0185  131.6019  153.3891 C   0  0  1  0  0  0  0  0  0  0  0  0
  149.2563  132.5317  153.4066 C   0  0  0  0  0  0  0  0  0  0  0  0
  149.2654  133.5313  154.5789 C   0  0  0  0  0  0  0  0  0  0  0  0
  149.3979  134.9074  154.1136 N   0  0  0  0  0  0  0  0  0  0  0  0
  150.3362  135.7711  154.5283 C   0  0  0  0  0  0  0  0  0  0  0  0
  151.2071  135.4828  155.3499 O   0  0  0  0  0  0  0  0  0  0  0  0
  150.1960  136.9682  153.9341 N   0  0  0  0  0  0  0  0  0  0  0  0
  150.9988  138.1270  154.1116 C   0  0  0  0  0  0  0  0  0  0  0  0
  152.2917  138.1444  154.4205 N   0  0  0  0  0  0  0  0  0  0  0  0
  152.5005  139.4938  154.4513 C   0  0  0  0  0  0  0  0  0  0  0  0
  151.4393  140.2560  154.1849 N   0  0  0  0  0  0  0  0  0  0  0  0
  150.4644  139.3428  153.9652 N   0  0  0  0  0  0  0  0  0  0  0  0
  149.1148  139.7564  153.6340 C   0  0  0  0  0  0  0  0  0  0  0  0
  147.1838  131.7605  152.1616 N   0  3  0  0  0  0  0  0  0  0  0  0
  146.9157  133.1669  151.7516 C   0  0  0  0  0  0  0  0  0  0  0  0
  146.2661  133.2153  150.3586 C   0  0  0  0  0  0  0  0  0  0  0  0
  144.9780  132.3816  150.3252 C   0  0  0  0  0  0  0  0  0  0  0  0
  145.2656  130.9484  150.7930 C   0  0  0  0  0  0  0  0  0  0  0  0
  145.9412  130.9426  152.1750 C   0  0  0  0  0  0  0  0  0  0  0  0
  148.8143  129.9524  154.5854 H   0  0  0  0  0  0  0  0  0  0  0  0
  149.1119  129.7721  152.8641 H   0  0  0  0  0  0  0  0  0  0  0  0
  147.5033  129.4843  153.5223 H   0  0  0  0  0  0  0  0  0  0  0  0
  147.3855  131.8755  154.2346 H   0  0  0  0  0  0  0  0  0  0  0  0
  150.1663  131.9317  153.4382 H   0  0  0  0  0  0  0  0  0  0  0  0
  149.3010  133.1014  152.4783 H   0  0  0  0  0  0  0  0  0  0  0  0
  148.3343  133.4546  155.1409 H   0  0  0  0  0  0  0  0  0  0  0  0
  150.0714  133.3092  155.2793 H   0  0  0  0  0  0  0  0  0  0  0  0
  148.7192  135.2279  153.4383 H   0  0  0  0  0  0  0  0  0  0  0  0
  149.4299  137.0647  153.2843 H   0  0  0  0  0  0  0  0  0  0  0  0
  153.4635  139.9278  154.6763 H   0  0  0  0  0  0  0  0  0  0  0  0
  148.4102  139.3046  154.3333 H   0  0  0  0  0  0  0  0  0  0  0  0
  148.8709  139.4317  152.6222 H   0  0  0  0  0  0  0  0  0  0  0  0
  149.0212  140.8418  153.6908 H   0  0  0  0  0  0  0  0  0  0  0  0
  146.2575  133.6493  152.4754 H   0  0  0  0  0  0  0  0  0  0  0  0
  147.8416  133.7409  151.7320 H   0  0  0  0  0  0  0  0  0  0  0  0
  146.0483  134.2479  150.0843 H   0  0  0  0  0  0  0  0  0  0  0  0
  146.9677  132.8383  149.6133 H   0  0  0  0  0  0  0  0  0  0  0  0
  144.2269  132.8369  150.9721 H   0  0  0  0  0  0  0  0  0  0  0  0
  144.5597  132.3731  149.3183 H   0  0  0  0  0  0  0  0  0  0  0  0
  144.3384  130.3755  150.8288 H   0  0  0  0  0  0  0  0  0  0  0  0
  145.9103  130.4491  150.0683 H   0  0  0  0  0  0  0  0  0  0  0  0
  146.1741  129.9136  152.4513 H   0  0  0  0  0  0  0  0  0  0  0  0
  145.2500  131.3247  152.9270 H   0  0  0  0  0  0  0  0  0  0  0  0
  147.7429  131.3641  151.4194 H   0  0  0  0  0  0  0  0  0  0  0  0
  1  2  1  0  0  0  0
  1 21  1  0  0  0  0
  1 22  1  0  0  0  0
  1 23  1  0  0  0  0
  2  3  1  0  0  0  0
  2 15  1  0  0  0  0
  2 24  1  0  0  0  0
  3  4  1  0  0  0  0
  3 25  1  0  0  0  0
  3 26  1  0  0  0  0
  4  5  1  0  0  0  0
  4 27  1  0  0  0  0
  4 28  1  0  0  0  0
  5  6  1  0  0  0  0
  5 29  1  0  0  0  0
  6  7  2  0  0  0  0
  6  8  1  0  0  0  0
  8  9  1  0  0  0  0
  8 30  1  0  0  0  0
  9 13  1  0  0  0  0
  9 10  2  0  0  0  0
 10 11  1  0  0  0  0
 11 12  2  0  0  0  0
 11 31  1  0  0  0  0
 12 13  1  0  0  0  0
 13 14  1  0  0  0  0
 14 32  1  0  0  0  0
 14 33  1  0  0  0  0
 14 34  1  0  0  0  0
 15 20  1  0  0  0  0
 15 16  1  0  0  0  0
 15 45  1  0  0  0  0
 16 17  1  0  0  0  0
 16 35  1  0  0  0  0
 16 36  1  0  0  0  0
 17 18  1  0  0  0  0
 17 37  1  0  0  0  0
 17 38  1  0  0  0  0
 18 19  1  0  0  0  0
 18 39  1  0  0  0  0
 18 40  1  0  0  0  0
 19 20  1  0  0  0  0
 19 41  1  0  0  0  0
 19 42  1  0  0  0  0
 20 43  1  0  0  0  0
 20 44  1  0  0  0  0
M  CHG  1  15   1
M  END
> <s_m_source_file>
AV-unprocessed.smi

> <i_m_source_file_index>
3013

> <i_lp_mmshare_version>
43012

> <i_f3d_flags>
0

> <s_epik_input>
W0NIMl0xW0NIMl1bQ0gyXVtDSDJdW0NIMl1OMVtDQEhdKFtDSDNdKVtDSDJdW0NIMl1bTkhdQyg9TylbTkhdYzJuW2NIXW5uMltDSDNd

> <s_epik_cmdline>
J2VwaWtfcHl0aG9uJywgJy1waCcsICc3LjAnLCAnLXRuJywgJzgnLCAnLW1hJywgJzIwMCcsICctbWV0YWxfYmluZGluZycsICctaW1hZScsICc8aW5maWxlLm1hZT4nLCAnLW9tYWUnLCAnPG91dGZpbGUubWFlPic=

> <r_lp_tautomer_probability>
1

> <r_epik_Ionization_Penalty>
0.000375855

> <r_epik_Ionization_Penalty_Charging>
0.000355659

> <r_epik_Ionization_Penalty_Neutral>
2.01955e-05

> <r_epik_State_Penalty>
0.000216264

> <r_epik_Charging_Adjusted_Penalty>
0.000571923

> <i_epik_Tot_Q>
1

> <i_epik_Tot_abs_Q>
1

> <r_epik_Metal_State_Penalty>
-0

> <b_epik_Metal_Only>
0

> <s_lp_Force_Field>
OPLS_2005

> <r_lp_Energy>
21.9092

> <b_lp_Chiralities_Consistent>
1

> <s_lp_Variant>
AV-unprocessed.smi:3013-2

> <Gold.Version>
5.8.1

> <Gold.Id.Protein>
6NUR|6NUR_protein|mol2

> <Gold.PLP.Fitness>
51.8033

> <Gold.PLP.PLP>
-41.9851

> <Gold.PLP.part.hbond>
-6.9277

> <Gold.PLP.part.metal>
0.0000

> <Gold.PLP.part.buried>
-3.4032

> <Gold.PLP.part.nonpolar>
-31.4095

> <Gold.PLP.part.repulsive>
0.2683

> <Gold.PLP.ligand.clash>
0.0000

> <Gold.PLP.ligand.torsion>
1.3911

> <Gold.PLP.Chemscore.Hbond>
4.1528

> <Gold.PLP.Chemscore.CHOScore>
0.0000

> <Gold.PLP.Chemscore.Metal>
0.0000

> <Gold.Chemscore.Hbonds>
donor molecule, donor type, donor heavy atom, donor atom, acceptor molecule, acceptor atom, score
      L1  H     5    29       P1  7948  0.59
      L1  H     8    30       P1  7948  0.66
      L1  H    15    45       P1 10747  1.00
      P1  H 10752 10764       L1     7  1.00

> <Gold.PLP.Chemscore.Internal.Correction>
0.1420

> <Gold.Rescore>
     Score         DG    S(hbond)    S(metal)    S(lipo)     H(rot)  DE(clash)    DE(int)     intcor
     14.83     -17.43       2.61        0.00      71.55       2.01       0.18       2.42       ----

> <Gold.Chemscore.Fitness>
14.8317

> <Gold.Chemscore.DG>
-17.4273

> <Gold.Chemscore.ZeroCoef>
-5.4800

> <Gold.Chemscore.Hbond>
2.6150

> <Gold.Chemscore.Metal>
0.0000

> <Gold.Chemscore.Lipo>
71.5474

> <Gold.Chemscore.Internal_Hbond>
0.0000

> <Gold.Chemscore.DEClash>
0.1802

> <Gold.Chemscore.DEInternal>
2.4154

> <Gold.Chemscore.Rot>
2.0148

> <Gold.Chemscore.Internal.Correction>
   9.000000E+99

> <Gold.Chemscore.Hbonds>
donor molecule, donor type, donor heavy atom, donor atom, acceptor molecule, acceptor atom, score
      L1  H     5    29       P1  7948  0.45
      L1  H     8    30       P1  7948  0.60
      L1  H    15    45       P1 10747  1.00
      P1  H 10752 10764       L1     7  0.96

> <Gold.Chemscore.Hbond.Weighted>
-8.7341

> <Gold.Chemscore.Metal.Weighted>
-0.0000

> <Gold.Chemscore.Lipo.Weighted>
-8.3710

> <Gold.Chemscore.Internal_Hbond.Weighted>
0.0000

> <Gold.Chemscore.DEClash.Weighted>
0.1802

> <Gold.Chemscore.DEInternal.Weighted>
2.4154

> <Gold.Chemscore.Rot.Weighted>
5.1579

> <Gold.Chemscore.Internal.Correction.Weighted>
   9.000000E+99

> <Gold.Protein.RotatedTorsions>
[ 6907 6896 6895 6894 ] final  -95.62 input  -60.11 | X-H torsion
[ 7974 7965 7964 7962 ] final -101.92 input  175.53 | X-H torsion
[ 8008 7997 7996 7995 ] final  -80.04 input   59.86 | X-H torsion
[ 10167 10162 10161 10158 ] final -130.18 input  -65.29 | X-H torsion
[ 10718 10713 10712 10709 ] final  -81.34 input   66.30 | X-H torsion
[ 10763 10752 10751 10750 ] final  -41.75 input  -60.55 | X-H torsion
[ 11005 11000 10999 10996 ] final   58.48 input  -57.11 | X-H torsion

> <Gold.Protein.ActiveResidues>
 VAL166  LYS551  ARG553  GLY616  TRP617  ASP618  TYR619  PRO620  LYS621  CYS622 
 ASP623  PHE694  ASN695  SER759  ASP760  ASP761  ALA762  ILE779  LEU786  VAL792 
 PHE793  MET794  SER795  GLU796  ALA797  LYS798  CYS799  TRP800  GLU811  SER814 

> <Gold.Protein.RotatedAtoms>
  150.6968  134.1629  159.4182 H   0  0  0  0  0  0  0  0  0  0  0  0  # atno 6907 bound_to 6896
  151.9609  135.0122  160.0557 H   0  0  0  0  0  0  0  0  0  0  0  0  # atno 6908 bound_to 6896
  152.1928  133.4750  159.5053 H   0  0  0  0  0  0  0  0  0  0  0  0  # atno 6909 bound_to 6896
  145.2754  140.9311  143.2962 H   0  0  0  0  0  0  0  0  0  0  0  0  # atno 7974 bound_to 7965
  154.5844  140.0669  156.9150 H   0  0  0  0  0  0  0  0  0  0  0  0  # atno 8008 bound_to 7997
  155.2405  140.3344  155.4274 H   0  0  0  0  0  0  0  0  0  0  0  0  # atno 8009 bound_to 7997
  156.2212  140.1799  156.7457 H   0  0  0  0  0  0  0  0  0  0  0  0  # atno 8010 bound_to 7997
  139.9320  143.6261  152.2527 H   0  0  0  0  0  0  0  0  0  0  0  0  # atno 10167 bound_to 10162
  156.0052  130.4601  150.3937 H   0  0  0  0  0  0  0  0  0  0  0  0  # atno 10718 bound_to 10713
  153.9677  135.6732  153.4746 H   0  0  0  0  0  0  0  0  0  0  0  0  # atno 10763 bound_to 10752
  153.0807  135.4924  154.8494 H   0  0  0  0  0  0  0  0  0  0  0  0  # atno 10764 bound_to 10752
  154.7236  135.3122  154.8967 H   0  0  0  0  0  0  0  0  0  0  0  0  # atno 10765 bound_to 10752
  140.0374  134.5923  155.9426 H   0  0  0  0  0  0  0  0  0  0  0  0  # atno 11005 bound_to 11000
  144.9299  139.4311  143.6500 LP  0  0  0  0  0  0  0  0  0  0  0  0  # atno 17320 bound_to 7965
  146.3233  139.8205  142.8928 LP  0  0  0  0  0  0  0  0  0  0  0  0  # atno 17321 bound_to 7965
  139.6774  144.7658  151.1671 LP  0  0  0  0  0  0  0  0  0  0  0  0  # atno 17342 bound_to 10162
  140.7634  143.5775  150.8930 LP  0  0  0  0  0  0  0  0  0  0  0  0  # atno 17343 bound_to 10162
  157.2010  131.0438  151.2650 LP  0  0  0  0  0  0  0  0  0  0  0  0  # atno 17370 bound_to 10713
  157.3975  130.7315  149.6742 LP  0  0  0  0  0  0  0  0  0  0  0  0  # atno 17371 bound_to 10713
  141.1865  133.6557  156.5241 LP  0  0  0  0  0  0  0  0  0  0  0  0  # atno 17394 bound_to 11000
  140.4124  134.7260  157.4844 LP  0  0  0  0  0  0  0  0  0  0  0  0  # atno 17395 bound_to 11000

$$$$
