AV-unprocessed.smi:2032|AV-procd|sdf|8235|dock5
  -GOLD-   2272010503D 1   1.00000     0.00000
 Structure written by MMmdl.
 42 43  0  0  0  0  0  0  0  0  1 V2000
  148.7730  137.8632  157.8788 C   0  0  0  0  0  0  0  0  0  0  0  0
  149.2727  138.1413  156.4572 C   0  0  1  0  0  0  0  0  0  0  0  0
  148.1787  138.7605  155.5686 C   0  0  0  0  0  0  0  0  0  0  0  0
  148.6605  139.1066  154.2278 N   0  0  0  0  0  0  0  0  0  0  0  0
  147.5998  139.6823  153.3663 C   0  0  2  0  0  0  0  0  0  0  0  0
  147.1550  141.0951  153.8240 C   0  0  0  0  0  0  0  0  0  0  0  0
  146.3487  138.7648  153.2506 C   0  0  0  0  0  0  0  0  0  0  0  0
  146.5974  137.5392  152.4939 N   0  0  0  0  0  0  0  0  0  0  0  0
  145.6783  136.6112  152.1882 C   0  0  0  0  0  0  0  0  0  0  0  0
  144.4917  136.6966  152.5051 O   0  0  0  0  0  0  0  0  0  0  0  0
  146.2248  135.5963  151.4958 N   0  0  0  0  0  0  0  0  0  0  0  0
  145.5864  134.4304  150.9966 C   0  0  0  0  0  0  0  0  0  0  0  0
  144.2625  134.2976  150.8526 N   0  0  0  0  0  0  0  0  0  0  0  0
  143.9134  133.0454  150.3408 C   0  0  0  0  0  0  0  0  0  0  0  0
  144.9919  132.2316  150.0980 C   0  0  0  0  0  0  0  0  0  0  0  0
  146.4979  133.0100  150.5060 S   0  0  0  0  0  0  0  0  0  0  0  0
  149.8149  140.0005  154.3794 C   0  0  0  0  0  0  0  0  0  0  0  0
  150.9214  139.4354  155.2920 C   0  0  2  0  0  0  0  0  0  0  0  0
  151.7371  138.3086  154.6347 C   0  0  0  0  0  0  0  0  0  0  0  0
  150.3758  139.0359  156.5467 O   0  0  0  0  0  0  0  0  0  0  0  0
  147.9307  137.1710  157.8712 H   0  0  0  0  0  0  0  0  0  0  0  0
  148.4482  138.7812  158.3695 H   0  0  0  0  0  0  0  0  0  0  0  0
  149.5608  137.4207  158.4888 H   0  0  0  0  0  0  0  0  0  0  0  0
  149.6036  137.1976  156.0229 H   0  0  0  0  0  0  0  0  0  0  0  0
  147.3737  138.0305  155.5106 H   0  0  0  0  0  0  0  0  0  0  0  0
  147.7685  139.6477  156.0534 H   0  0  0  0  0  0  0  0  0  0  0  0
  148.0080  139.7913  152.3601 H   0  0  0  0  0  0  0  0  0  0  0  0
  146.3553  141.5003  153.2062 H   0  0  0  0  0  0  0  0  0  0  0  0
  147.9571  141.8279  153.7522 H   0  0  0  0  0  0  0  0  0  0  0  0
  146.7981  141.0816  154.8543 H   0  0  0  0  0  0  0  0  0  0  0  0
  146.0271  138.4147  154.2295 H   0  0  0  0  0  0  0  0  0  0  0  0
  145.5104  139.3280  152.8364 H   0  0  0  0  0  0  0  0  0  0  0  0
  147.5465  137.3846  152.1874 H   0  0  0  0  0  0  0  0  0  0  0  0
  147.2138  135.6634  151.3063 H   0  0  0  0  0  0  0  0  0  0  0  0
  142.8703  132.8167  150.1802 H   0  0  0  0  0  0  0  0  0  0  0  0
  144.9910  131.2255  149.7061 H   0  0  0  0  0  0  0  0  0  0  0  0
  150.2747  140.2117  153.4162 H   0  0  0  0  0  0  0  0  0  0  0  0
  149.4789  140.9575  154.7817 H   0  0  0  0  0  0  0  0  0  0  0  0
  151.6189  140.2447  155.5097 H   0  0  0  0  0  0  0  0  0  0  0  0
  152.2550  138.6728  153.7471 H   0  0  0  0  0  0  0  0  0  0  0  0
  151.1091  137.4740  154.3237 H   0  0  0  0  0  0  0  0  0  0  0  0
  152.4908  137.9230  155.3212 H   0  0  0  0  0  0  0  0  0  0  0  0
  1  2  1  0  0  0  0
  1 21  1  0  0  0  0
  1 22  1  0  0  0  0
  1 23  1  0  0  0  0
  2 20  1  0  0  0  0
  2  3  1  0  0  0  0
  2 24  1  0  0  0  0
  3  4  1  0  0  0  0
  3 25  1  0  0  0  0
  3 26  1  0  0  0  0
  4  5  1  0  0  0  0
  4 17  1  0  0  0  0
  5  6  1  0  0  0  0
  5  7  1  0  0  0  0
  5 27  1  0  0  0  0
  6 28  1  0  0  0  0
  6 29  1  0  0  0  0
  6 30  1  0  0  0  0
  7  8  1  0  0  0  0
  7 31  1  0  0  0  0
  7 32  1  0  0  0  0
  8  9  1  0  0  0  0
  8 33  1  0  0  0  0
  9 10  2  0  0  0  0
  9 11  1  0  0  0  0
 11 12  1  0  0  0  0
 11 34  1  0  0  0  0
 12 16  1  0  0  0  0
 12 13  2  0  0  0  0
 13 14  1  0  0  0  0
 14 15  2  0  0  0  0
 14 35  1  0  0  0  0
 15 16  1  0  0  0  0
 15 36  1  0  0  0  0
 17 18  1  0  0  0  0
 17 37  1  0  0  0  0
 17 38  1  0  0  0  0
 18 19  1  0  0  0  0
 18 20  1  0  0  0  0
 18 39  1  0  0  0  0
 19 40  1  0  0  0  0
 19 41  1  0  0  0  0
 19 42  1  0  0  0  0
M  END
> <s_m_source_file>
AV-unprocessed.smi

> <i_m_source_file_index>
2032

> <i_lp_mmshare_version>
43012

> <i_f3d_flags>
0

> <s_epik_input>
W0NIM11bQ0BASF0xW0NIMl1OKFtDSDJdW0NASF0oTzEpW0NIM10pW0NASF0oW0NIM10pW0NIMl1bTkhdQyg9TylbTkhdYzJuW2NIXVtjSF1zMg==

> <s_epik_cmdline>
J2VwaWtfcHl0aG9uJywgJy1waCcsICc3LjAnLCAnLXRuJywgJzgnLCAnLW1hJywgJzIwMCcsICctbWV0YWxfYmluZGluZycsICctaW1hZScsICc8aW5maWxlLm1hZT4nLCAnLW9tYWUnLCAnPG91dGZpbGUubWFlPic=

> <r_lp_tautomer_probability>
0.999

> <r_epik_Ionization_Penalty>
0.219202

> <r_epik_Ionization_Penalty_Charging>
0

> <r_epik_Ionization_Penalty_Neutral>
0.219202

> <r_epik_State_Penalty>
0.209349

> <r_epik_Charging_Adjusted_Penalty>
0.209349

> <i_epik_Tot_Q>
0

> <i_epik_Tot_abs_Q>
0

> <r_epik_Metal_State_Penalty>
0.247737

> <b_epik_Metal_Only>
0

> <s_lp_Force_Field>
OPLS_2005

> <r_lp_Energy>
29.5908

> <b_lp_Chiralities_Consistent>
1

> <s_lp_Variant>
AV-unprocessed.smi:2032-5

> <Gold.Version>
5.8.1

> <Gold.Id.Protein>
6NUR|6NUR_protein|mol2

> <Gold.PLP.Fitness>
38.5606

> <Gold.PLP.PLP>
-29.9915

> <Gold.PLP.part.hbond>
-2.0000

> <Gold.PLP.part.metal>
0.0000

> <Gold.PLP.part.buried>
-2.8510

> <Gold.PLP.part.nonpolar>
-26.3605

> <Gold.PLP.part.repulsive>
0.6354

> <Gold.PLP.ligand.clash>
0.0000

> <Gold.PLP.ligand.torsion>
0.1931

> <Gold.PLP.Chemscore.Hbond>
2.0000

> <Gold.PLP.Chemscore.CHOScore>
0.9766

> <Gold.PLP.Chemscore.Metal>
0.0000

> <Gold.Chemscore.Hbonds>
donor molecule, donor type, donor heavy atom, donor atom, acceptor molecule, acceptor atom, score
      L1  H     8    33       P1  7948  1.00
      L1  H    11    34       P1  7948  1.00
      L1  C    14    35       P1 10186  0.95

> <Gold.PLP.Chemscore.Internal.Correction>
0.0254

> <Gold.Rescore>
     Score         DG    S(hbond)    S(metal)    S(lipo)     H(rot)  DE(clash)    DE(int)     intcor
     14.67     -16.12       1.91        0.00      70.86       1.57       0.09       1.36       ----

> <Gold.Chemscore.Fitness>
14.6685

> <Gold.Chemscore.DG>
-16.1192

> <Gold.Chemscore.ZeroCoef>
-5.4800

> <Gold.Chemscore.Hbond>
1.9103

> <Gold.Chemscore.Metal>
0.0000

> <Gold.Chemscore.Lipo>
70.8601

> <Gold.Chemscore.Internal_Hbond>
0.0000

> <Gold.Chemscore.DEClash>
0.0925

> <Gold.Chemscore.DEInternal>
1.3583

> <Gold.Chemscore.Rot>
1.5750

> <Gold.Chemscore.Internal.Correction>
   9.000000E+99

> <Gold.Chemscore.Hbonds>
donor molecule, donor type, donor heavy atom, donor atom, acceptor molecule, acceptor atom, score
      L1  H     8    33       P1  7948  0.95
      L1  H    11    34       P1  7948  0.91

> <Gold.Chemscore.Hbond.Weighted>
-6.3805

> <Gold.Chemscore.Metal.Weighted>
-0.0000

> <Gold.Chemscore.Lipo.Weighted>
-8.2906

> <Gold.Chemscore.Internal_Hbond.Weighted>
0.0000

> <Gold.Chemscore.DEClash.Weighted>
0.0925

> <Gold.Chemscore.DEInternal.Weighted>
1.3583

> <Gold.Chemscore.Rot.Weighted>
4.0319

> <Gold.Chemscore.Internal.Correction.Weighted>
   9.000000E+99

> <Gold.Protein.RotatedTorsions>
[ 6907 6896 6895 6894 ] final -149.03 input  -60.11 | X-H torsion
[ 7974 7965 7964 7962 ] final -116.43 input  175.53 | X-H torsion
[ 8008 7997 7996 7995 ] final   88.30 input   59.86 | X-H torsion
[ 10167 10162 10161 10158 ] final  -94.00 input  -65.29 | X-H torsion
[ 10718 10713 10712 10709 ] final   44.24 input   66.30 | X-H torsion
[ 10763 10752 10751 10750 ] final   -5.50 input  -60.55 | X-H torsion
[ 11005 11000 10999 10996 ] final  108.06 input  -57.11 | X-H torsion

> <Gold.Protein.ActiveResidues>
 VAL166  LYS551  ARG553  GLY616  TRP617  ASP618  TYR619  PRO620  LYS621  CYS622 
 ASP623  PHE694  ASN695  SER759  ASP760  ASP761  ALA762  ILE779  LEU786  VAL792 
 PHE793  MET794  SER795  GLU796  ALA797  LYS798  CYS799  TRP800  GLU811  SER814 

> <Gold.Protein.RotatedAtoms>
  151.1783  133.4741  159.2593 H   0  0  0  0  0  0  0  0  0  0  0  0  # atno 6907 bound_to 6896
  151.1285  135.0117  159.8582 H   0  0  0  0  0  0  0  0  0  0  0  0  # atno 6908 bound_to 6896
  152.5459  134.1688  159.8641 H   0  0  0  0  0  0  0  0  0  0  0  0  # atno 6909 bound_to 6896
  145.0969  140.8526  143.3949 H   0  0  0  0  0  0  0  0  0  0  0  0  # atno 7974 bound_to 7965
  155.9861  140.3373  155.6709 H   0  0  0  0  0  0  0  0  0  0  0  0  # atno 8008 bound_to 7997
  155.6483  140.0703  157.2613 H   0  0  0  0  0  0  0  0  0  0  0  0  # atno 8009 bound_to 7997
  154.4205  140.1730  156.1635 H   0  0  0  0  0  0  0  0  0  0  0  0  # atno 8010 bound_to 7997
  140.3189  143.3061  152.0068 H   0  0  0  0  0  0  0  0  0  0  0  0  # atno 10167 bound_to 10162
  157.4247  130.7990  149.7547 H   0  0  0  0  0  0  0  0  0  0  0  0  # atno 10718 bound_to 10713
  153.3994  135.7004  153.6437 H   0  0  0  0  0  0  0  0  0  0  0  0  # atno 10763 bound_to 10752
  153.4976  135.3659  155.2524 H   0  0  0  0  0  0  0  0  0  0  0  0  # atno 10764 bound_to 10752
  154.8709  135.4104  154.3327 H   0  0  0  0  0  0  0  0  0  0  0  0  # atno 10765 bound_to 10752
  139.8838  134.9419  156.5915 H   0  0  0  0  0  0  0  0  0  0  0  0  # atno 11005 bound_to 11000
  145.1001  139.2828  143.5690 LP  0  0  0  0  0  0  0  0  0  0  0  0  # atno 17320 bound_to 7965
  146.3530  140.0565  142.8632 LP  0  0  0  0  0  0  0  0  0  0  0  0  # atno 17321 bound_to 7965
  139.4878  144.6327  151.7038 LP  0  0  0  0  0  0  0  0  0  0  0  0  # atno 17342 bound_to 10162
  140.5502  144.0438  150.6123 LP  0  0  0  0  0  0  0  0  0  0  0  0  # atno 17343 bound_to 10162
  155.9892  130.3953  150.3082 LP  0  0  0  0  0  0  0  0  0  0  0  0  # atno 17370 bound_to 10713
  157.1233  131.0252  151.3000 LP  0  0  0  0  0  0  0  0  0  0  0  0  # atno 17371 bound_to 10713
  140.7952  133.8550  155.8679 LP  0  0  0  0  0  0  0  0  0  0  0  0  # atno 17394 bound_to 11000
  140.9642  134.1616  157.4630 LP  0  0  0  0  0  0  0  0  0  0  0  0  # atno 17395 bound_to 11000

$$$$
