#       Name:                AV-unprocessed.smi:1393
#       Creating user name   scv26
#       Creation time:       Fri Mar 27 05:28:49 2020


#       File generated by GOLD software.
#

@<TRIPOS>MOLECULE
AV-unprocessed.smi:1393
    45    46     1
SMALL
NO_CHARGES


@<TRIPOS>ATOM
      1 ****        -0.1614   1.0610  -0.0642 O.2            1 S1                 0.0000
      2 ****         0.5285   0.0599  -0.2641 C.2            1 S1                 0.0000
      3 ****         2.0583   0.1550  -0.3590 C.3            1 S1                 0.0000
      4 ****         2.5732   1.5272  -0.2091 N.am           1 S1                 0.0000
      5 ****         2.7902   2.2536  -1.3935 C.2            1 S1                 0.0000
      6 ****         3.2451   3.5135  -1.3754 C.2            1 S1                 0.0000
      7 ****         3.5119   4.1236  -0.0958 C.2            1 S1                 0.0000
      8 ****         3.3097   3.4514   1.0611 C.2            1 S1                 0.0000
      9 ****         3.5838   4.0843   2.4235 C.3            1 S1                 0.0000
     10 ****         4.4985   3.3807   3.0919 F              1 S1                 0.0000
     11 ****         4.0366   5.3337   2.3071 F              1 S1                 0.0000
     12 ****         2.4697   4.1215   3.1555 F              1 S1                 0.0000
     13 ****         2.8082   2.0621   1.0293 C.2            1 S1                 0.0000
     14 ****         2.6067   1.4104   2.0554 O.2            1 S1                 0.0000
     15 ****         0.0096  -1.1689  -0.4159 N.am           1 S1                 0.0000
     16 ****        -1.4157  -1.5009  -0.3502 C.3            1 S1                 0.0000
     17 ****        -1.6386  -2.7816  -1.1864 C.3            1 S1                 0.0000
     18 ****        -3.0883  -2.9583  -1.6708 C.3            1 S1                 0.0000
     19 ****        -4.1240  -3.1736  -0.5562 C.3            1 S1                 0.0000
     20 ****        -4.2443  -1.9875   0.4162 C.3            1 S1                 0.0000
     21 ****        -3.1500  -1.9532   1.3778 N.am           1 S1                 0.0000
     22 ****        -1.8483  -1.7683   1.1104 C.2            1 S1                 0.0000
     23 ****        -1.0146  -1.8170   2.0148 O.2            1 S1                 0.0000
     24 ****         2.4994  -0.5046   0.3906 H              1 S1                 0.0000
     25 ****         2.3698  -0.2602  -1.3187 H              1 S1                 0.0000
     26 ****         2.5574   1.7266  -2.3076 H              1 S1                 0.0000
     27 ****         3.4025   4.0598  -2.2937 H              1 S1                 0.0000
     28 ****         3.8776   5.1394  -0.0790 H              1 S1                 0.0000
     29 ****         0.6475  -1.9364  -0.5681 H              1 S1                 0.0000
     30 ****        -1.9950  -0.6752  -0.7675 H              1 S1                 0.0000
     31 ****        -1.0086  -2.7391  -2.0765 H              1 S1                 0.0000
     32 ****        -1.3113  -3.6686  -0.6408 H              1 S1                 0.0000
     33 ****        -3.3764  -2.0940  -2.2707 H              1 S1                 0.0000
     34 ****        -3.1262  -3.8128  -2.3472 H              1 S1                 0.0000
     35 ****        -5.0954  -3.3351  -1.0246 H              1 S1                 0.0000
     36 ****        -3.9023  -4.0897  -0.0070 H              1 S1                 0.0000
     37 ****        -4.3132  -1.0402  -0.1206 H              1 S1                 0.0000
     38 ****        -5.1686  -2.0841   0.9862 H              1 S1                 0.0000
     39 ****        -3.4001  -2.1144   2.3428 H              1 S1                 0.0000
     40 ****         0.2735   1.9555   0.0393 LP             1 S1                 0.0000
     41 ****        -1.1564   0.9790  -0.0055 LP             1 S1                 0.0000
     42 ****         2.2652   0.4726   1.9931 LP             1 S1                 0.0000
     43 ****         2.7846   1.8193   2.9505 LP             1 S1                 0.0000
     44 ****        -0.0453  -1.6829   1.8090 LP             1 S1                 0.0000
     45 ****        -1.3068  -1.9906   2.9553 LP             1 S1                 0.0000
@<TRIPOS>BOND
    1    1    2 2     
    2    2    3 1     
    3    2   15 am    
    4    3    4 1     
    5    3   24 1     
    6    3   25 1     
    7    4   13 am    
    8    4    5 1     
    9    5    6 2     
   10    5   26 1     
   11    6    7 1     
   12    6   27 1     
   13    7    8 2     
   14    7   28 1     
   15    8    9 1     
   16    8   13 1     
   17    9   10 1     
   18    9   11 1     
   19    9   12 1     
   20   13   14 2     
   21   15   16 1     
   22   15   29 1     
   23   16   22 1     
   24   16   17 1     
   25   16   30 1     
   26   17   18 1     
   27   17   31 1     
   28   17   32 1     
   29   18   19 1     
   30   18   33 1     
   31   18   34 1     
   32   19   20 1     
   33   19   35 1     
   34   19   36 1     
   35   20   21 1     
   36   20   37 1     
   37   20   38 1     
   38   21   22 am    
   39   21   39 1     
   40   22   23 2     
   41    1   40 1     
   42    1   41 1     
   43   14   42 1     
   44   14   43 1     
   45   23   44 1     
   46   23   45 1     
@<TRIPOS>SUBSTRUCTURE
      1 S1             1
@<TRIPOS>SET
LONE_PAIRS      STATIC     ATOMS    <user>   **** ""
6 40 41 42 43 44 45
DONOR_HYDROGENS      STATIC     ATOMS    <user>   **** ""
2 29 39
ATOM$BLUE        STATIC     ATOMS    COLORGROUP SYSTEM
6 40 41 42 43 44 45
ATOM$RED        STATIC     ATOMS    COLORGROUP SYSTEM
2 29 39
