AV-unprocessed.smi:3020|AV-procd|sdf|11497|dock8
  -GOLD-   2272016433D 1   1.00000     0.00000
 Structure written by MMmdl.
 28 29  0  0  0  0  0  0  0  0  1 V2000
  153.9968  139.0971  158.4588 O   0  0  0  0  0  0  0  0  0  0  0  0
  153.1535  139.9914  158.5241 C   0  0  0  0  0  0  0  0  0  0  0  0
  153.1819  140.9618  159.7050 C   0  0  0  0  0  0  0  0  0  0  0  0
  152.2433  142.0032  159.4814 O   0  0  0  0  0  0  0  0  0  0  0  0
  152.4862  143.1390  160.2925 C   0  0  0  0  0  0  0  0  0  0  0  0
  152.3277  144.3866  159.4504 C   0  0  0  0  0  0  0  0  0  0  0  0
  151.4162  145.5073  159.8967 C   0  0  0  0  0  0  0  0  0  0  0  0
  151.0346  144.6536  158.7141 C   0  0  0  0  0  0  0  0  0  0  0  0
  152.1908  140.2042  157.6071 N   0  0  0  0  0  0  0  0  0  0  0  0
  151.9305  139.4694  156.4211 C   0  0  0  0  0  0  0  0  0  0  0  0
  152.4348  138.1476  156.3945 C   0  0  0  0  0  0  0  0  0  0  0  0
  152.2672  137.3239  155.3361 N   0  0  0  0  0  0  0  0  0  0  0  0
  151.5846  137.8241  154.2841 C   0  0  0  0  0  0  0  0  0  0  0  0
  151.0745  139.1377  154.2930 C   0  0  0  0  0  0  0  0  0  0  0  0
  151.2460  139.9558  155.3543 N   0  0  0  0  0  0  0  0  0  0  0  0
  152.9420  140.4279  160.6261 H   0  0  0  0  0  0  0  0  0  0  0  0
  154.1891  141.3690  159.8055 H   0  0  0  0  0  0  0  0  0  0  0  0
  151.7752  143.1761  161.1191 H   0  0  0  0  0  0  0  0  0  0  0  0
  153.4922  143.1014  160.7142 H   0  0  0  0  0  0  0  0  0  0  0  0
  153.2372  144.6847  158.9318 H   0  0  0  0  0  0  0  0  0  0  0  0
  150.8552  145.3684  160.8188 H   0  0  0  0  0  0  0  0  0  0  0  0
  151.7411  146.5268  159.6981 H   0  0  0  0  0  0  0  0  0  0  0  0
  151.1030  145.1044  157.7262 H   0  0  0  0  0  0  0  0  0  0  0  0
  150.2176  143.9473  158.8487 H   0  0  0  0  0  0  0  0  0  0  0  0
  151.5674  140.9776  157.7882 H   0  0  0  0  0  0  0  0  0  0  0  0
  152.9814  137.7424  157.2338 H   0  0  0  0  0  0  0  0  0  0  0  0
  151.4443  137.1749  153.4326 H   0  0  0  0  0  0  0  0  0  0  0  0
  150.5290  139.5329  153.4490 H   0  0  0  0  0  0  0  0  0  0  0  0
  1  2  2  0  0  0  0
  2  3  1  0  0  0  0
  2  9  1  0  0  0  0
  3  4  1  0  0  0  0
  3 16  1  0  0  0  0
  3 17  1  0  0  0  0
  4  5  1  0  0  0  0
  5  6  1  0  0  0  0
  5 18  1  0  0  0  0
  5 19  1  0  0  0  0
  6  8  1  0  0  0  0
  6  7  1  0  0  0  0
  6 20  1  0  0  0  0
  7  8  1  0  0  0  0
  7 21  1  0  0  0  0
  7 22  1  0  0  0  0
  8 23  1  0  0  0  0
  8 24  1  0  0  0  0
  9 10  1  0  0  0  0
  9 25  1  0  0  0  0
 10 15  1  0  0  0  0
 10 11  2  0  0  0  0
 11 12  1  0  0  0  0
 11 26  1  0  0  0  0
 12 13  2  0  0  0  0
 13 14  1  0  0  0  0
 13 27  1  0  0  0  0
 14 15  2  0  0  0  0
 14 28  1  0  0  0  0
M  END
> <s_m_source_file>
AV-unprocessed.smi

> <i_m_source_file_index>
3020

> <i_lp_mmshare_version>
43012

> <i_f3d_flags>
0

> <s_epik_input>
W0NIMl0xW0NIMl1bQ0hdMVtDSDJdT1tDSDJdQyg9TylbTkhdYzJbY0hdbltjSF1bY0hdbjI=

> <s_epik_cmdline>
J2VwaWtfcHl0aG9uJywgJy1waCcsICc3LjAnLCAnLXRuJywgJzgnLCAnLW1hJywgJzIwMCcsICctbWV0YWxfYmluZGluZycsICctaW1hZScsICc8aW5maWxlLm1hZT4nLCAnLW9tYWUnLCAnPG91dGZpbGUubWFlPic=

> <r_lp_tautomer_probability>
1

> <r_epik_Ionization_Penalty>
2.93955e-06

> <r_epik_Ionization_Penalty_Charging>
0

> <r_epik_Ionization_Penalty_Neutral>
2.93955e-06

> <r_epik_State_Penalty>
-0

> <r_epik_Charging_Adjusted_Penalty>
0

> <i_epik_Tot_Q>
0

> <i_epik_Tot_abs_Q>
0

> <r_epik_Metal_State_Penalty>
-0

> <b_epik_Metal_Only>
0

> <s_lp_Force_Field>
OPLS_2005

> <r_lp_Energy>
21.027

> <b_lp_Chiralities_Consistent>
1

> <s_lp_Variant>
AV-unprocessed.smi:3020-1

> <Gold.Version>
5.8.1

> <Gold.Id.Protein>
6NUR|6NUR_protein|mol2

> <Gold.PLP.Fitness>
41.7367

> <Gold.PLP.PLP>
-32.5440

> <Gold.PLP.part.hbond>
-2.6918

> <Gold.PLP.part.metal>
0.0000

> <Gold.PLP.part.buried>
-2.1650

> <Gold.PLP.part.nonpolar>
-26.7261

> <Gold.PLP.part.repulsive>
0.1549

> <Gold.PLP.ligand.clash>
0.0000

> <Gold.PLP.ligand.torsion>
0.9052

> <Gold.PLP.Chemscore.Hbond>
1.5318

> <Gold.PLP.Chemscore.CHOScore>
1.9515

> <Gold.PLP.Chemscore.Metal>
0.0000

> <Gold.Chemscore.Hbonds>
donor molecule, donor type, donor heavy atom, donor atom, acceptor molecule, acceptor atom, score
      P1  H  7997  8010       L1     1  0.73
      P1  H 10752 10765       L1    12  0.77
      L1  C    13    27       P1  7949  1.00
      L1  C    14    28       P1  7957  1.00

> <Gold.PLP.Chemscore.Internal.Correction>
0.5531

> <Gold.Rescore>
     Score         DG    S(hbond)    S(metal)    S(lipo)     H(rot)  DE(clash)    DE(int)     intcor
     10.00     -12.59       0.74        0.00      77.94       1.75       0.24       2.35       ----

> <Gold.Chemscore.Fitness>
10.0001

> <Gold.Chemscore.DG>
-12.5886

> <Gold.Chemscore.ZeroCoef>
-5.4800

> <Gold.Chemscore.Hbond>
0.7383

> <Gold.Chemscore.Metal>
0.0000

> <Gold.Chemscore.Lipo>
77.9444

> <Gold.Chemscore.Internal_Hbond>
0.0000

> <Gold.Chemscore.DEClash>
0.2434

> <Gold.Chemscore.DEInternal>
2.3450

> <Gold.Chemscore.Rot>
1.7487

> <Gold.Chemscore.Internal.Correction>
   9.000000E+99

> <Gold.Chemscore.Hbonds>
donor molecule, donor type, donor heavy atom, donor atom, acceptor molecule, acceptor atom, score
      P1  H  7997  8010       L1     1  0.12
      P1  H 10752 10765       L1    12  0.29

> <Gold.Chemscore.Hbond.Weighted>
-2.4658

> <Gold.Chemscore.Metal.Weighted>
-0.0000

> <Gold.Chemscore.Lipo.Weighted>
-9.1195

> <Gold.Chemscore.Internal_Hbond.Weighted>
0.0000

> <Gold.Chemscore.DEClash.Weighted>
0.2434

> <Gold.Chemscore.DEInternal.Weighted>
2.3450

> <Gold.Chemscore.Rot.Weighted>
4.4767

> <Gold.Chemscore.Internal.Correction.Weighted>
   9.000000E+99

> <Gold.Protein.RotatedTorsions>
[ 6907 6896 6895 6894 ] final  178.04 input  -60.11 | X-H torsion
[ 7974 7965 7964 7962 ] final  166.45 input  175.53 | X-H torsion
[ 8008 7997 7996 7995 ] final   -7.94 input   59.86 | X-H torsion
[ 10167 10162 10161 10158 ] final -152.93 input  -65.29 | X-H torsion
[ 10718 10713 10712 10709 ] final  168.53 input   66.30 | X-H torsion
[ 10763 10752 10751 10750 ] final -177.72 input  -60.55 | X-H torsion
[ 11005 11000 10999 10996 ] final   79.66 input  -57.11 | X-H torsion

> <Gold.Protein.ActiveResidues>
 VAL166  LYS551  ARG553  GLY616  TRP617  ASP618  TYR619  PRO620  LYS621  CYS622 
 ASP623  PHE694  ASN695  SER759  ASP760  ASP761  ALA762  ILE779  LEU786  VAL792 
 PHE793  MET794  SER795  GLU796  ALA797  LYS798  CYS799  TRP800  GLU811  SER814 

> <Gold.Protein.RotatedAtoms>
  151.6943  133.3311  159.3250 H   0  0  0  0  0  0  0  0  0  0  0  0  # atno 6907 bound_to 6896
  150.7765  134.6671  159.6381 H   0  0  0  0  0  0  0  0  0  0  0  0  # atno 6908 bound_to 6896
  152.3808  134.6596  160.0195 H   0  0  0  0  0  0  0  0  0  0  0  0  # atno 6909 bound_to 6896
  144.7462  139.8617  143.6381 H   0  0  0  0  0  0  0  0  0  0  0  0  # atno 7974 bound_to 7965
  154.5790  140.2394  155.8081 H   0  0  0  0  0  0  0  0  0  0  0  0  # atno 8008 bound_to 7997
  156.2164  140.3011  155.9807 H   0  0  0  0  0  0  0  0  0  0  0  0  # atno 8009 bound_to 7997
  155.2576  140.0413  157.2984 H   0  0  0  0  0  0  0  0  0  0  0  0  # atno 8010 bound_to 7997
  139.7140  143.9063  152.2479 H   0  0  0  0  0  0  0  0  0  0  0  0  # atno 10167 bound_to 10162
  157.0357  131.0272  151.2730 H   0  0  0  0  0  0  0  0  0  0  0  0  # atno 10718 bound_to 10713
  154.5566  135.2817  155.0958 H   0  0  0  0  0  0  0  0  0  0  0  0  # atno 10763 bound_to 10752
  154.2383  135.6361  153.5202 H   0  0  0  0  0  0  0  0  0  0  0  0  # atno 10764 bound_to 10752
  153.0017  135.5554  154.6148 H   0  0  0  0  0  0  0  0  0  0  0  0  # atno 10765 bound_to 10752
  139.9164  134.7860  156.1808 H   0  0  0  0  0  0  0  0  0  0  0  0  # atno 11005 bound_to 11000
  146.1344  139.4386  143.0148 LP  0  0  0  0  0  0  0  0  0  0  0  0  # atno 17320 bound_to 7965
  145.7115  141.0105  143.1451 LP  0  0  0  0  0  0  0  0  0  0  0  0  # atno 17321 bound_to 7965
  139.8940  144.6949  150.8738 LP  0  0  0  0  0  0  0  0  0  0  0  0  # atno 17342 bound_to 10162
  140.7739  143.3564  151.1913 LP  0  0  0  0  0  0  0  0  0  0  0  0  # atno 17343 bound_to 10162
  157.5143  130.7958  149.7739 LP  0  0  0  0  0  0  0  0  0  0  0  0  # atno 17370 bound_to 10713
  156.0054  130.3858  150.2449 LP  0  0  0  0  0  0  0  0  0  0  0  0  # atno 17371 bound_to 10713
  141.0643  133.6826  156.2014 LP  0  0  0  0  0  0  0  0  0  0  0  0  # atno 17394 bound_to 11000
  140.6610  134.4968  157.5583 LP  0  0  0  0  0  0  0  0  0  0  0  0  # atno 17395 bound_to 11000

$$$$
