AV-unprocessed.smi:34|AV-procd|sdf|221|dock1
  -GOLD-   2262015533D 1   1.00000     0.00000
 Structure written by MMmdl.
 55 59  0  0  0  0  0  0  0  0  1 V2000
  152.9690  140.1672  157.7425 O   0  0  0  0  0  0  0  0  0  0  0  0
  152.0859  140.9904  157.5001 C   0  0  0  0  0  0  0  0  0  0  0  0
  151.0266  140.7278  156.5417 N   0  0  0  0  0  0  0  0  0  0  0  0
  150.7750  139.5815  155.8665 C   0  0  0  0  0  0  0  0  0  0  0  0
  151.3929  139.2741  154.6955 N   0  0  0  0  0  0  0  0  0  0  0  0
  151.1167  138.1261  154.0700 C   0  0  0  0  0  0  0  0  0  0  0  0
  150.2717  137.1604  154.4353 N   0  0  0  0  0  0  0  0  0  0  0  0
  149.6467  137.4612  155.6099 C   0  0  0  0  0  0  0  0  0  0  0  0
  149.8425  138.6421  156.3790 C   0  0  0  0  0  0  0  0  0  0  0  0
  149.0403  138.6033  157.5121 N   0  0  0  0  0  0  0  0  0  0  0  0
  148.4104  137.4630  157.4151 C   0  0  0  0  0  0  0  0  0  0  0  0
  148.7141  136.7142  156.2999 N   0  0  0  0  0  0  0  0  0  0  0  0
  148.1685  135.3769  155.9208 C   0  0  2  0  0  0  0  0  0  0  0  0
  148.3466  134.5210  157.0044 O   0  0  0  0  0  0  0  0  0  0  0  0
  148.5750  133.2130  156.5059 C   0  0  2  0  0  0  0  0  0  0  0  0
  149.2177  132.3232  157.5767 C   0  0  0  0  0  0  0  0  0  0  0  0
  149.1367  132.9749  158.8334 O   0  0  0  0  0  0  0  0  0  0  0  0
  147.9934  132.9280  159.5447 C   0  0  0  0  0  0  0  0  0  0  0  0
  147.1220  132.0718  159.3800 O   0  0  0  0  0  0  0  0  0  0  0  0
  147.8919  134.0227  160.5528 C   0  0  0  0  0  0  0  0  0  0  0  0
  148.2811  135.3343  160.1935 C   0  0  0  0  0  0  0  0  0  0  0  0
  148.1948  136.3885  161.1236 C   0  0  0  0  0  0  0  0  0  0  0  0
  147.7172  136.1440  162.4243 C   0  0  0  0  0  0  0  0  0  0  0  0
  147.3262  134.8440  162.7940 C   0  0  0  0  0  0  0  0  0  0  0  0
  147.4124  133.7885  161.8655 C   0  0  0  0  0  0  0  0  0  0  0  0
  149.4529  133.4586  155.2767 C   0  0  2  0  0  0  0  0  0  0  0  0
  150.7334  133.5966  155.6242 F   0  0  0  0  0  0  0  0  0  0  0  0
  148.9313  134.7805  154.7236 C   0  0  1  0  0  0  0  0  0  0  0  0
  148.0775  134.5332  153.6247 O   0  0  0  0  0  0  0  0  0  0  0  0
  152.0941  142.3600  158.1153 C   0  0  0  0  0  0  0  0  0  0  0  0
  152.8502  142.6054  159.2838 C   0  0  0  0  0  0  0  0  0  0  0  0
  152.8505  143.8825  159.8781 C   0  0  0  0  0  0  0  0  0  0  0  0
  152.0895  144.9234  159.3132 C   0  0  0  0  0  0  0  0  0  0  0  0
  151.3236  144.6847  158.1566 C   0  0  0  0  0  0  0  0  0  0  0  0
  151.3220  143.4080  157.5616 C   0  0  0  0  0  0  0  0  0  0  0  0
  150.3826  141.4875  156.3767 H   0  0  0  0  0  0  0  0  0  0  0  0
  151.6488  137.9574  153.1455 H   0  0  0  0  0  0  0  0  0  0  0  0
  147.7011  137.1342  158.1609 H   0  0  0  0  0  0  0  0  0  0  0  0
  147.1070  135.5417  155.7288 H   0  0  0  0  0  0  0  0  0  0  0  0
  147.6221  132.7891  156.1831 H   0  0  0  0  0  0  0  0  0  0  0  0
  148.6872  131.3719  157.6359 H   0  0  0  0  0  0  0  0  0  0  0  0
  150.2567  132.1077  157.3225 H   0  0  0  0  0  0  0  0  0  0  0  0
  148.6510  135.5464  159.2006 H   0  0  0  0  0  0  0  0  0  0  0  0
  148.4957  137.3858  160.8380 H   0  0  0  0  0  0  0  0  0  0  0  0
  147.6507  136.9524  163.1375 H   0  0  0  0  0  0  0  0  0  0  0  0
  146.9588  134.6551  163.7920 H   0  0  0  0  0  0  0  0  0  0  0  0
  147.1024  132.8031  162.1816 H   0  0  0  0  0  0  0  0  0  0  0  0
  149.4139  132.6357  154.5618 H   0  0  0  0  0  0  0  0  0  0  0  0
  149.7440  135.4353  154.4050 H   0  0  0  0  0  0  0  0  0  0  0  0
  148.3353  135.0980  152.9123 H   0  0  0  0  0  0  0  0  0  0  0  0
  153.4387  141.8169  159.7308 H   0  0  0  0  0  0  0  0  0  0  0  0
  153.4342  144.0628  160.7687 H   0  0  0  0  0  0  0  0  0  0  0  0
  152.0900  145.9026  159.7689 H   0  0  0  0  0  0  0  0  0  0  0  0
  150.7341  145.4813  157.7267 H   0  0  0  0  0  0  0  0  0  0  0  0
  150.7187  143.2448  156.6802 H   0  0  0  0  0  0  0  0  0  0  0  0
  1  2  2  0  0  0  0
  2  3  1  0  0  0  0
  2 30  1  0  0  0  0
  3  4  1  0  0  0  0
  3 36  1  0  0  0  0
  4  9  1  0  0  0  0
  4  5  2  0  0  0  0
  5  6  1  0  0  0  0
  6  7  2  0  0  0  0
  6 37  1  0  0  0  0
  7  8  1  0  0  0  0
  8 12  1  0  0  0  0
  8  9  2  0  0  0  0
  9 10  1  0  0  0  0
 10 11  2  0  0  0  0
 11 12  1  0  0  0  0
 11 38  1  0  0  0  0
 12 13  1  0  0  0  0
 13 28  1  0  0  0  0
 13 14  1  0  0  0  0
 13 39  1  0  0  0  0
 14 15  1  0  0  0  0
 15 16  1  0  0  0  0
 15 26  1  0  0  0  0
 15 40  1  0  0  0  0
 16 17  1  0  0  0  0
 16 41  1  0  0  0  0
 16 42  1  0  0  0  0
 17 18  1  0  0  0  0
 18 19  2  0  0  0  0
 18 20  1  0  0  0  0
 20 25  1  0  0  0  0
 20 21  2  0  0  0  0
 21 22  1  0  0  0  0
 21 43  1  0  0  0  0
 22 23  2  0  0  0  0
 22 44  1  0  0  0  0
 23 24  1  0  0  0  0
 23 45  1  0  0  0  0
 24 25  2  0  0  0  0
 24 46  1  0  0  0  0
 25 47  1  0  0  0  0
 26 27  1  0  0  0  0
 26 28  1  0  0  0  0
 26 48  1  0  0  0  0
 28 29  1  0  0  0  0
 28 49  1  0  0  0  0
 29 50  1  0  0  0  0
 30 35  1  0  0  0  0
 30 31  2  0  0  0  0
 31 32  1  0  0  0  0
 31 51  1  0  0  0  0
 32 33  2  0  0  0  0
 32 52  1  0  0  0  0
 33 34  1  0  0  0  0
 33 53  1  0  0  0  0
 34 35  2  0  0  0  0
 34 54  1  0  0  0  0
 35 55  1  0  0  0  0
M  END
> <s_m_source_file>
AV-unprocessed.smi

> <i_m_source_file_index>
34

> <i_lp_mmshare_version>
43012

> <i_f3d_flags>
0

> <s_epik_input>
W2NIXTFbY0hdW2NIXVtjSF1bY0hdYzFDKD1PKVtOSF1jKG5bY0hdbjIpYyhjMjMpbltjSF1uM1tDQEBIXTRPW0NASF0oW0NAQEhdKEYpW0NASF00W09IXSlbQ0gyXU9DKD1PKWM1W2NIXVtjSF1bY0hdW2NIXVtjSF01

> <s_epik_cmdline>
J2VwaWtfcHl0aG9uJywgJy1waCcsICc3LjAnLCAnLXRuJywgJzgnLCAnLW1hJywgJzIwMCcsICctbWV0YWxfYmluZGluZycsICctaW1hZScsICc8aW5maWxlLm1hZT4nLCAnLW9tYWUnLCAnPG91dGZpbGUubWFlPic=

> <r_lp_tautomer_probability>
1

> <r_epik_Ionization_Penalty>
0.00257489

> <r_epik_Ionization_Penalty_Charging>
0

> <r_epik_Ionization_Penalty_Neutral>
0.00257489

> <r_epik_State_Penalty>
0.00519398

> <r_epik_Charging_Adjusted_Penalty>
0.00519398

> <i_epik_Tot_Q>
0

> <i_epik_Tot_abs_Q>
0

> <r_epik_Metal_State_Penalty>
0.335891

> <b_epik_Metal_Only>
0

> <s_epik_Chemistry_Notes>
This compound has an ester and may undergo hydrolysis at high or low pH. This compound contains an acetal/aminal-like group ( X-CH(R)-Y where X, Y are N, S, or O) that may be acid/base labile, releasing an aldehyde.

> <s_lp_Force_Field>
OPLS_2005

> <r_lp_Energy>
45.7986

> <b_lp_Chiralities_Consistent>
1

> <s_lp_Variant>
AV-unprocessed.smi:34-7

> <Gold.Version>
5.8.1

> <Gold.Id.Protein>
6NUR|6NUR_protein|mol2

> <Gold.PLP.Fitness>
61.6322

> <Gold.PLP.PLP>
-55.4187

> <Gold.PLP.part.hbond>
-3.9622

> <Gold.PLP.part.metal>
0.0000

> <Gold.PLP.part.buried>
-6.4388

> <Gold.PLP.part.nonpolar>
-45.2118

> <Gold.PLP.part.repulsive>
1.3989

> <Gold.PLP.ligand.clash>
0.1200

> <Gold.PLP.ligand.torsion>
2.7767

> <Gold.PLP.Chemscore.Hbond>
2.9345

> <Gold.PLP.Chemscore.CHOScore>
0.8075

> <Gold.PLP.Chemscore.Metal>
0.0000

> <Gold.Chemscore.Hbonds>
donor molecule, donor type, donor heavy atom, donor atom, acceptor molecule, acceptor atom, score
      L1  H    29    50       P1  7948  1.00
      P1  H  7989  7998       L1     5  1.00
      P1  H  7997  8009       L1     1  0.96
      L1  C     6    37       P1  7949  0.72

> <Gold.PLP.Chemscore.Internal.Correction>
0.6607

> <Gold.Rescore>
     Score         DG    S(hbond)    S(metal)    S(lipo)     H(rot)  DE(clash)    DE(int)     intcor
     15.67     -20.53       2.05        0.00     129.57       2.72       0.09       4.77       ----

> <Gold.Chemscore.Fitness>
15.6748

> <Gold.Chemscore.DG>
-20.5331

> <Gold.Chemscore.ZeroCoef>
-5.4800

> <Gold.Chemscore.Hbond>
2.0539

> <Gold.Chemscore.Metal>
0.0000

> <Gold.Chemscore.Lipo>
129.5748

> <Gold.Chemscore.Internal_Hbond>
0.0000

> <Gold.Chemscore.DEClash>
0.0912

> <Gold.Chemscore.DEInternal>
4.7671

> <Gold.Chemscore.Rot>
2.7215

> <Gold.Chemscore.Internal.Correction>
   9.000000E+99

> <Gold.Chemscore.Hbonds>
donor molecule, donor type, donor heavy atom, donor atom, acceptor molecule, acceptor atom, score
      L1  H    29    50       P1  7948  0.85
      P1  H  7989  7998       L1     5  0.77
      P1  H  7997  8009       L1     1  0.90

> <Gold.Chemscore.Hbond.Weighted>
-6.8599

> <Gold.Chemscore.Metal.Weighted>
-0.0000

> <Gold.Chemscore.Lipo.Weighted>
-15.1603

> <Gold.Chemscore.Internal_Hbond.Weighted>
0.0000

> <Gold.Chemscore.DEClash.Weighted>
0.0912

> <Gold.Chemscore.DEInternal.Weighted>
4.7671

> <Gold.Chemscore.Rot.Weighted>
6.9670

> <Gold.Chemscore.Internal.Correction.Weighted>
   9.000000E+99

> <Gold.Protein.RotatedTorsions>
[ 6907 6896 6895 6894 ] final   -9.48 input  -60.11 | X-H torsion
[ 7974 7965 7964 7962 ] final   54.26 input  175.53 | X-H torsion
[ 8008 7997 7996 7995 ] final  174.75 input   59.86 | X-H torsion
[ 10167 10162 10161 10158 ] final    8.97 input  -65.29 | X-H torsion
[ 10718 10713 10712 10709 ] final   62.93 input   66.30 | X-H torsion
[ 10763 10752 10751 10750 ] final  118.55 input  -60.55 | X-H torsion
[ 11005 11000 10999 10996 ] final   30.51 input  -57.11 | X-H torsion

> <Gold.Protein.ActiveResidues>
 VAL166  LYS551  ARG553  GLY616  TRP617  ASP618  TYR619  PRO620  LYS621  CYS622 
 ASP623  PHE694  ASN695  SER759  ASP760  ASP761  ALA762  ILE779  LEU786  VAL792 
 PHE793  MET794  SER795  GLU796  ALA797  LYS798  CYS799  TRP800  GLU811  SER814 

> <Gold.Protein.RotatedAtoms>
  151.4171  135.0993  159.9602 H   0  0  0  0  0  0  0  0  0  0  0  0  # atno 6907 bound_to 6896
  152.5001  133.8742  159.7324 H   0  0  0  0  0  0  0  0  0  0  0  0  # atno 6908 bound_to 6896
  150.9250  133.6777  159.2851 H   0  0  0  0  0  0  0  0  0  0  0  0  # atno 6909 bound_to 6896
  145.9627  139.4074  143.0238 H   0  0  0  0  0  0  0  0  0  0  0  0  # atno 7974 bound_to 7965
  156.0942  140.1426  156.9552 H   0  0  0  0  0  0  0  0  0  0  0  0  # atno 8008 bound_to 7997
  154.4661  140.0926  156.7069 H   0  0  0  0  0  0  0  0  0  0  0  0  # atno 8009 bound_to 7997
  155.4869  140.3447  155.4351 H   0  0  0  0  0  0  0  0  0  0  0  0  # atno 8010 bound_to 7997
  140.6283  143.8052  150.7261 H   0  0  0  0  0  0  0  0  0  0  0  0  # atno 10167 bound_to 10162
  157.5936  130.9077  149.9651 H   0  0  0  0  0  0  0  0  0  0  0  0  # atno 10718 bound_to 10713
  153.5694  135.3505  155.2831 H   0  0  0  0  0  0  0  0  0  0  0  0  # atno 10763 bound_to 10752
  154.8684  135.4155  154.2742 H   0  0  0  0  0  0  0  0  0  0  0  0  # atno 10764 bound_to 10752
  153.3505  135.7055  153.6862 H   0  0  0  0  0  0  0  0  0  0  0  0  # atno 10765 bound_to 10752
  140.2936  134.2836  155.7770 H   0  0  0  0  0  0  0  0  0  0  0  0  # atno 11005 bound_to 11000
  145.8018  140.9767  143.0995 LP  0  0  0  0  0  0  0  0  0  0  0  0  # atno 17320 bound_to 7965
  144.6818  139.9810  143.7483 LP  0  0  0  0  0  0  0  0  0  0  0  0  # atno 17321 bound_to 7965
  140.1657  143.4237  152.2036 LP  0  0  0  0  0  0  0  0  0  0  0  0  # atno 17342 bound_to 10162
  139.5500  144.7330  151.4465 LP  0  0  0  0  0  0  0  0  0  0  0  0  # atno 17343 bound_to 10162
  156.0994  130.3657  150.0246 LP  0  0  0  0  0  0  0  0  0  0  0  0  # atno 17370 bound_to 10713
  156.8364  130.9410  151.3634 LP  0  0  0  0  0  0  0  0  0  0  0  0  # atno 17371 bound_to 10713
  141.2141  133.7601  156.9661 LP  0  0  0  0  0  0  0  0  0  0  0  0  # atno 17394 bound_to 11000
  140.1173  134.9439  157.2153 LP  0  0  0  0  0  0  0  0  0  0  0  0  # atno 17395 bound_to 11000

$$$$
