AV-unprocessed.smi:910|AV-procd|sdf|4132|dock5
  -GOLD-   22720 2 33D 1   1.00000     0.00000
 Structure written by MMmdl.
 45 46  0  0  0  0  0  0  0  0  2 V2000
  144.6948  134.3732  162.9932 C   0  0  0  0  0  0  0  0  0  0  0  0
  145.9348  134.6956  162.2206 C   0  0  0  0  0  0  0  0  0  0  0  0
  146.3115  135.9986  161.9325 N   0  0  0  0  0  0  0  0  0  0  0  0
  147.4472  135.9042  161.2383 C   0  0  0  0  0  0  0  0  0  0  0  0
  148.1717  136.9276  160.7582 N   0  5  0  0  0  0  0  0  0  0  0  0
  148.8946  136.7699  159.6267 C   0  0  0  0  0  0  0  0  0  0  0  0
  149.1290  135.7047  159.0509 O   0  0  0  0  0  0  0  0  0  0  0  0
  149.3765  137.9184  159.1306 N   0  0  0  0  0  0  0  0  0  0  0  0
  150.1915  138.0571  157.9282 C   0  0  0  0  0  0  0  0  0  0  0  0
  151.4716  138.8586  158.2013 C   0  0  0  0  0  0  0  0  0  0  0  0
  151.1180  140.1839  158.5707 O   0  0  0  0  0  0  0  0  0  0  0  0
  152.1819  140.9419  159.1322 C   0  0  2  0  0  0  0  0  0  0  0  0
  152.7741  140.1838  160.3397 C   0  0  0  0  0  0  0  0  0  0  0  0
  153.8413  141.0194  161.0622 C   0  0  0  0  0  0  0  0  0  0  0  0
  153.2777  142.3798  161.4955 C   0  0  0  0  0  0  0  0  0  0  0  0
  152.6886  143.1400  160.2977 C   0  0  0  0  0  0  0  0  0  0  0  0
  151.6132  142.3122  159.5654 C   0  0  1  0  0  0  0  0  0  0  0  0
  151.0454  143.0981  158.3723 C   0  0  0  0  0  0  0  0  0  0  0  0
  147.8366  134.6088  161.0664 O   0  0  0  0  0  0  0  0  0  0  0  0
  146.8759  133.8574  161.6865 C   0  0  0  0  0  0  0  0  0  0  0  0
  147.0265  132.3745  161.6665 C   0  0  0  0  0  0  0  0  0  0  0  0
  144.9397  133.9824  163.9808 H   0  0  0  0  0  0  0  0  0  0  0  0
  144.0960  133.6221  162.4780 H   0  0  0  0  0  0  0  0  0  0  0  0
  144.0689  135.2553  163.1321 H   0  0  0  0  0  0  0  0  0  0  0  0
  149.1650  138.7658  159.6367 H   0  0  0  0  0  0  0  0  0  0  0  0
  150.4415  137.0711  157.5335 H   0  0  0  0  0  0  0  0  0  0  0  0
  149.5971  138.5543  157.1615 H   0  0  0  0  0  0  0  0  0  0  0  0
  152.0646  138.3734  158.9769 H   0  0  0  0  0  0  0  0  0  0  0  0
  152.0822  138.8858  157.2979 H   0  0  0  0  0  0  0  0  0  0  0  0
  152.9607  141.1106  158.3855 H   0  0  0  0  0  0  0  0  0  0  0  0
  151.9755  139.9313  161.0386 H   0  0  0  0  0  0  0  0  0  0  0  0
  153.2144  139.2383  160.0242 H   0  0  0  0  0  0  0  0  0  0  0  0
  154.2126  140.4767  161.9318 H   0  0  0  0  0  0  0  0  0  0  0  0
  154.6963  141.1702  160.4019 H   0  0  0  0  0  0  0  0  0  0  0  0
  152.5064  142.2332  162.2526 H   0  0  0  0  0  0  0  0  0  0  0  0
  154.0621  142.9752  161.9638 H   0  0  0  0  0  0  0  0  0  0  0  0
  152.2635  144.0841  160.6403 H   0  0  0  0  0  0  0  0  0  0  0  0
  153.4896  143.3976  159.6031 H   0  0  0  0  0  0  0  0  0  0  0  0
  150.7947  142.1335  160.2645 H   0  0  0  0  0  0  0  0  0  0  0  0
  151.8150  143.2964  157.6258 H   0  0  0  0  0  0  0  0  0  0  0  0
  150.6370  144.0565  158.6935 H   0  0  0  0  0  0  0  0  0  0  0  0
  150.2408  142.5498  157.8819 H   0  0  0  0  0  0  0  0  0  0  0  0
  146.1788  131.9080  161.1647 H   0  0  0  0  0  0  0  0  0  0  0  0
  147.0795  131.9796  162.6810 H   0  0  0  0  0  0  0  0  0  0  0  0
  147.9351  132.0798  161.1409 H   0  0  0  0  0  0  0  0  0  0  0  0
  1 22  1  0  0  0  0
  1 23  1  0  0  0  0
  1 24  1  0  0  0  0
  1  2  1  0  0  0  0
  2  3  1  0  0  0  0
  2 20  2  0  0  0  0
  3  4  2  0  0  0  0
  4 19  1  0  0  0  0
  4  5  1  0  0  0  0
  5  6  1  0  0  0  0
  6  8  1  0  0  0  0
  6  7  2  0  0  0  0
  8  9  1  0  0  0  0
  8 25  1  0  0  0  0
  9 10  1  0  0  0  0
  9 26  1  0  0  0  0
  9 27  1  0  0  0  0
 10 11  1  0  0  0  0
 10 28  1  0  0  0  0
 10 29  1  0  0  0  0
 11 12  1  0  0  0  0
 12 17  1  0  0  0  0
 12 13  1  0  0  0  0
 12 30  1  0  0  0  0
 13 14  1  0  0  0  0
 13 31  1  0  0  0  0
 13 32  1  0  0  0  0
 14 15  1  0  0  0  0
 14 33  1  0  0  0  0
 14 34  1  0  0  0  0
 15 16  1  0  0  0  0
 15 35  1  0  0  0  0
 15 36  1  0  0  0  0
 16 17  1  0  0  0  0
 16 37  1  0  0  0  0
 16 38  1  0  0  0  0
 17 18  1  0  0  0  0
 17 39  1  0  0  0  0
 18 40  1  0  0  0  0
 18 41  1  0  0  0  0
 18 42  1  0  0  0  0
 19 20  1  0  0  0  0
 20 21  1  0  0  0  0
 21 43  1  0  0  0  0
 21 44  1  0  0  0  0
 21 45  1  0  0  0  0
M  CHG  1   5  -1
M  END
> <s_m_source_file>
AV-unprocessed.smi

> <i_m_source_file_index>
910

> <i_lp_mmshare_version>
43012

> <i_f3d_flags>
0

> <s_epik_input>
W0NIM11jMW5jKG9jMVtDSDNdKVtOSF1DKD1PKVtOSF1bQ0gyXVtDSDJdT1tDQEBIXTJbQ0gyXVtDSDJdW0NIMl1bQ0gyXVtDQEhdMltDSDNd

> <s_epik_cmdline>
J2VwaWtfcHl0aG9uJywgJy1waCcsICc3LjAnLCAnLXRuJywgJzgnLCAnLW1hJywgJzIwMCcsICctbWV0YWxfYmluZGluZycsICctaW1hZScsICc8aW5maWxlLm1hZT4nLCAnLW9tYWUnLCAnPG91dGZpbGUubWFlPic=

> <r_lp_tautomer_probability>
0.107061

> <r_epik_Ionization_Penalty>
10.1763

> <r_epik_Ionization_Penalty_Charging>
7.13067

> <r_epik_Ionization_Penalty_Neutral>
3.04564

> <r_epik_State_Penalty>
5.57927

> <r_epik_Charging_Adjusted_Penalty>
12.7099

> <i_epik_Tot_Q>
-1

> <i_epik_Tot_abs_Q>
1

> <r_epik_Metal_State_Penalty>
1.52303

> <b_epik_Metal_Only>
1

> <s_lp_Force_Field>
OPLS_2005

> <r_lp_Energy>
4.71476

> <b_lp_Chiralities_Consistent>
1

> <s_lp_Variant>
AV-unprocessed.smi:910-17

> <Gold.Version>
5.8.1

> <Gold.Id.Protein>
6NUR|6NUR_protein|mol2

> <Gold.PLP.Fitness>
49.4921

> <Gold.PLP.PLP>
-39.2951

> <Gold.PLP.part.hbond>
-3.0000

> <Gold.PLP.part.metal>
0.0000

> <Gold.PLP.part.buried>
-4.6061

> <Gold.PLP.part.nonpolar>
-31.9610

> <Gold.PLP.part.repulsive>
0.1986

> <Gold.PLP.ligand.clash>
0.0000

> <Gold.PLP.ligand.torsion>
0.3122

> <Gold.PLP.Chemscore.Hbond>
3.5804

> <Gold.PLP.Chemscore.CHOScore>
0.0000

> <Gold.PLP.Chemscore.Metal>
0.0000

> <Gold.Chemscore.Hbonds>
donor molecule, donor type, donor heavy atom, donor atom, acceptor molecule, acceptor atom, score
      P1  H  6896  6909       L1     7  1.00
      P1  H  6931  6943       L1     5  1.92
      P1  H  6934  6947       L1     5  0.43

> <Gold.PLP.Chemscore.Internal.Correction>
0.0803

> <Gold.Rescore>
     Score         DG    S(hbond)    S(metal)    S(lipo)     H(rot)  DE(clash)    DE(int)     intcor
     17.16     -19.12       1.74        0.00     102.25       1.62       0.01       1.95       ----

> <Gold.Chemscore.Fitness>
17.1599

> <Gold.Chemscore.DG>
-19.1190

> <Gold.Chemscore.ZeroCoef>
-5.4800

> <Gold.Chemscore.Hbond>
1.7412

> <Gold.Chemscore.Metal>
0.0000

> <Gold.Chemscore.Lipo>
102.2451

> <Gold.Chemscore.Internal_Hbond>
0.0000

> <Gold.Chemscore.DEClash>
0.0106

> <Gold.Chemscore.DEInternal>
1.9485

> <Gold.Chemscore.Rot>
1.6169

> <Gold.Chemscore.Internal.Correction>
   9.000000E+99

> <Gold.Chemscore.Hbonds>
donor molecule, donor type, donor heavy atom, donor atom, acceptor molecule, acceptor atom, score
      P1  H  6896  6909       L1     7  0.94
      P1  H  6931  6943       L1     5  0.64
      P1  H  6934  6947       L1     5  0.16

> <Gold.Chemscore.Hbond.Weighted>
-5.8156

> <Gold.Chemscore.Metal.Weighted>
-0.0000

> <Gold.Chemscore.Lipo.Weighted>
-11.9627

> <Gold.Chemscore.Internal_Hbond.Weighted>
0.0000

> <Gold.Chemscore.DEClash.Weighted>
0.0106

> <Gold.Chemscore.DEInternal.Weighted>
1.9485

> <Gold.Chemscore.Rot.Weighted>
4.1393

> <Gold.Chemscore.Internal.Correction.Weighted>
   9.000000E+99

> <Gold.Protein.RotatedTorsions>
[ 6907 6896 6895 6894 ] final   56.71 input  -60.11 | X-H torsion
[ 7974 7965 7964 7962 ] final   42.49 input  175.53 | X-H torsion
[ 8008 7997 7996 7995 ] final    6.43 input   59.86 | X-H torsion
[ 10167 10162 10161 10158 ] final  139.45 input  -65.29 | X-H torsion
[ 10718 10713 10712 10709 ] final  117.42 input   66.30 | X-H torsion
[ 10763 10752 10751 10750 ] final  -65.34 input  -60.55 | X-H torsion
[ 11005 11000 10999 10996 ] final -106.21 input  -57.11 | X-H torsion

> <Gold.Protein.ActiveResidues>
 VAL166  LYS551  ARG553  GLY616  TRP617  ASP618  TYR619  PRO620  LYS621  CYS622 
 ASP623  PHE694  ASN695  SER759  ASP760  ASP761  ALA762  ILE779  LEU786  VAL792 
 PHE793  MET794  SER795  GLU796  ALA797  LYS798  CYS799  TRP800  GLU811  SER814 

> <Gold.Protein.RotatedAtoms>
  152.3662  134.6801  160.0190 H   0  0  0  0  0  0  0  0  0  0  0  0  # atno 6907 bound_to 6896
  151.7108  133.3307  159.3298 H   0  0  0  0  0  0  0  0  0  0  0  0  # atno 6908 bound_to 6896
  150.7640  134.6468  159.6311 H   0  0  0  0  0  0  0  0  0  0  0  0  # atno 6909 bound_to 6896
  146.0736  139.5295  142.9582 H   0  0  0  0  0  0  0  0  0  0  0  0  # atno 7974 bound_to 7965
  154.7409  140.2749  155.6374 H   0  0  0  0  0  0  0  0  0  0  0  0  # atno 8008 bound_to 7997
  156.2873  140.2697  156.2062 H   0  0  0  0  0  0  0  0  0  0  0  0  # atno 8009 bound_to 7997
  155.0259  140.0371  157.2445 H   0  0  0  0  0  0  0  0  0  0  0  0  # atno 8010 bound_to 7997
  139.5078  144.6294  151.5856 H   0  0  0  0  0  0  0  0  0  0  0  0  # atno 10167 bound_to 10162
  157.6097  131.1037  150.7613 H   0  0  0  0  0  0  0  0  0  0  0  0  # atno 10718 bound_to 10713
  154.3435  135.6151  153.5608 H   0  0  0  0  0  0  0  0  0  0  0  0  # atno 10763 bound_to 10752
  152.9802  135.5775  154.4825 H   0  0  0  0  0  0  0  0  0  0  0  0  # atno 10764 bound_to 10752
  154.4534  135.2853  155.1742 H   0  0  0  0  0  0  0  0  0  0  0  0  # atno 10765 bound_to 10752
  141.1016  133.8874  157.1828 H   0  0  0  0  0  0  0  0  0  0  0  0  # atno 11005 bound_to 11000
  145.6347  141.0297  143.1844 LP  0  0  0  0  0  0  0  0  0  0  0  0  # atno 17320 bound_to 7965
  144.7247  139.7914  143.7369 LP  0  0  0  0  0  0  0  0  0  0  0  0  # atno 17321 bound_to 7965
  140.6021  143.9590  150.6393 LP  0  0  0  0  0  0  0  0  0  0  0  0  # atno 17342 bound_to 10162
  140.2805  143.3392  152.1155 LP  0  0  0  0  0  0  0  0  0  0  0  0  # atno 17343 bound_to 10162
  156.7993  130.4916  149.5372 LP  0  0  0  0  0  0  0  0  0  0  0  0  # atno 17370 bound_to 10713
  156.1196  130.6100  151.0173 LP  0  0  0  0  0  0  0  0  0  0  0  0  # atno 17371 bound_to 10713
  139.9869  135.0078  156.9884 LP  0  0  0  0  0  0  0  0  0  0  0  0  # atno 17394 bound_to 11000
  140.5008  134.1099  155.7250 LP  0  0  0  0  0  0  0  0  0  0  0  0  # atno 17395 bound_to 11000

$$$$
