#       Name:                AV-unprocessed.smi:685
#       Creating user name   scv26
#       Creation time:       Fri Mar 27 00:30:31 2020


#       File generated by GOLD software.
#

@<TRIPOS>MOLECULE
AV-unprocessed.smi:685
    53    54     1
SMALL
NO_CHARGES


@<TRIPOS>ATOM
      1 ****        -2.4839   2.4513  -2.5974 C.3            1 S1                 0.0000
      2 ****        -2.3290   3.3378  -1.3945 C.2            1 S1                 0.0000
      3 ****        -2.8841   4.5383  -1.3969 N.2            1 S1                 0.0000
      4 ****        -2.5615   5.0686  -0.2003 N.pl3          1 S1                 0.0000
      5 ****        -3.0201   6.4030   0.1333 C.3            1 S1                 0.0000
      6 ****        -1.7983   4.2029   0.5587 C.2            1 S1                 0.0000
      7 ****        -1.3087   4.5649   1.9240 C.3            1 S1                 0.0000
      8 ****        -1.6264   3.0654  -0.1843 C.2            1 S1                 0.0000
      9 ****        -0.8753   1.8063   0.1654 C.3            1 S1                 0.0000
     10 ****         0.5165   1.7451  -0.4998 C.3            1 S1                 0.0000
     11 ****         1.4615   2.8522  -0.0059 C.3            1 S1                 0.0000
     12 ****         1.1372   0.4464  -0.2538 N.am           1 S1                 0.0000
     13 ****         0.8814  -0.6785  -0.9403 C.2            1 S1                 0.0000
     14 ****         0.0794  -0.7318  -1.8733 O.2            1 S1                 0.0000
     15 ****         1.6519  -1.9290  -0.5066 C.3            1 S1                 0.0000
     16 ****         0.7835  -3.2013  -0.5257 C.3            1 S1                 0.0000
     17 ****         1.5515  -4.4668  -0.1041 C.3            1 S1                 0.0000
     18 ****         0.7259  -5.7491  -0.2312 C.3            1 S1                 0.0000
     19 ****         1.4498  -6.7742   0.6472 C.3            1 S1                 0.0000
     20 ****         2.2343  -5.9654   1.6912 C.3            1 S1                 0.0000
     21 ****         1.9935  -4.4871   1.3627 C.3            1 S1                 0.0000
     22 ****        -2.6735   1.4190  -2.3026 H              1 S1                 0.0000
     23 ****        -1.5795   2.4612  -3.2060 H              1 S1                 0.0000
     24 ****        -3.3136   2.7699  -3.2295 H              1 S1                 0.0000
     25 ****        -2.1617   7.0598   0.2763 H              1 S1                 0.0000
     26 ****        -3.6024   6.3709   1.0545 H              1 S1                 0.0000
     27 ****        -3.6449   6.8075  -0.6645 H              1 S1                 0.0000
     28 ****        -0.6309   3.8079   2.3176 H              1 S1                 0.0000
     29 ****        -2.1423   4.6632   2.6195 H              1 S1                 0.0000
     30 ****        -0.7695   5.5123   1.9042 H              1 S1                 0.0000
     31 ****        -0.7649   1.7033   1.2452 H              1 S1                 0.0000
     32 ****        -1.4601   0.9385  -0.1411 H              1 S1                 0.0000
     33 ****         0.3975   1.8689  -1.5779 H              1 S1                 0.0000
     34 ****         1.0709   3.8433  -0.2368 H              1 S1                 0.0000
     35 ****         2.4400   2.7727  -0.4808 H              1 S1                 0.0000
     36 ****         1.6090   2.7962   1.0732 H              1 S1                 0.0000
     37 ****         1.8129   0.3999   0.4949 H              1 S1                 0.0000
     38 ****         2.5060  -2.0513  -1.1732 H              1 S1                 0.0000
     39 ****         2.0565  -1.7724   0.4943 H              1 S1                 0.0000
     40 ****        -0.0854  -3.0655   0.1201 H              1 S1                 0.0000
     41 ****         0.3921  -3.3564  -1.5323 H              1 S1                 0.0000
     42 ****         2.4369  -4.5730  -0.7333 H              1 S1                 0.0000
     43 ****        -0.2795  -5.5835   0.1596 H              1 S1                 0.0000
     44 ****         0.6275  -6.0825  -1.2647 H              1 S1                 0.0000
     45 ****         0.7494  -7.4709   1.1091 H              1 S1                 0.0000
     46 ****         2.1419  -7.3607   0.0416 H              1 S1                 0.0000
     47 ****         1.9178  -6.1996   2.7081 H              1 S1                 0.0000
     48 ****         3.2968  -6.2015   1.6186 H              1 S1                 0.0000
     49 ****         2.8786  -3.8762   1.5419 H              1 S1                 0.0000
     50 ****         1.1939  -4.1017   1.9970 H              1 S1                 0.0000
     51 ****        -3.4240   4.9596  -2.1256 LP             1 S1                 0.0000
     52 ****        -0.4182   0.0895  -2.1524 LP             1 S1                 0.0000
     53 ****        -0.0741  -1.5963  -2.3519 LP             1 S1                 0.0000
@<TRIPOS>BOND
    1    1    2 1     
    2    1   22 1     
    3    1   23 1     
    4    1   24 1     
    5    2    8 1     
    6    2    3 2     
    7    3    4 1     
    8    4    5 1     
    9    4    6 1     
   10    5   25 1     
   11    5   26 1     
   12    5   27 1     
   13    6    7 1     
   14    6    8 2     
   15    7   28 1     
   16    7   29 1     
   17    7   30 1     
   18    8    9 1     
   19    9   10 1     
   20    9   31 1     
   21    9   32 1     
   22   10   11 1     
   23   10   12 1     
   24   10   33 1     
   25   11   34 1     
   26   11   35 1     
   27   11   36 1     
   28   12   13 am    
   29   12   37 1     
   30   13   14 2     
   31   13   15 1     
   32   15   16 1     
   33   15   38 1     
   34   15   39 1     
   35   16   17 1     
   36   16   40 1     
   37   16   41 1     
   38   17   21 1     
   39   17   18 1     
   40   17   42 1     
   41   18   19 1     
   42   18   43 1     
   43   18   44 1     
   44   19   20 1     
   45   19   45 1     
   46   19   46 1     
   47   20   21 1     
   48   20   47 1     
   49   20   48 1     
   50   21   49 1     
   51   21   50 1     
   52    3   51 1     
   53   14   52 1     
   54   14   53 1     
@<TRIPOS>SUBSTRUCTURE
      1 S1             1
@<TRIPOS>SET
LONE_PAIRS      STATIC     ATOMS    <user>   **** ""
3 51 52 53
DONOR_HYDROGENS      STATIC     ATOMS    <user>   **** ""
1 37
ATOM$BLUE        STATIC     ATOMS    COLORGROUP SYSTEM
3 51 52 53
ATOM$RED        STATIC     ATOMS    COLORGROUP SYSTEM
1 37
