#       Name:                AV-unprocessed.smi:2320
#       Creating user name   scv26
#       Creation time:       Fri Mar 27 12:50:20 2020


#       File generated by GOLD software.
#

@<TRIPOS>MOLECULE
AV-unprocessed.smi:2320
    48    49     1
SMALL
NO_CHARGES


@<TRIPOS>ATOM
      1 ****        -7.3824   1.0230   0.2294 C.3            1 S1                 0.0000
      2 ****        -5.8809   0.8953   0.3838 C.ar           1 S1                 0.0000
      3 ****        -5.0561   2.0354   0.3128 C.ar           1 S1                 0.0000
      4 ****        -3.6611   1.9074   0.4547 C.ar           1 S1                 0.0000
      5 ****        -3.0688   0.6457   0.6685 C.ar           1 S1                 0.0000
      6 ****        -1.6968   0.6129   0.7951 O.3            1 S1                 0.0000
      7 ****        -1.0683  -0.6450   1.0131 C.3            1 S1                 0.0000
      8 ****         0.4580  -0.4664   1.0835 C.3            1 S1                 0.0000
      9 ****         0.7727   0.0765   2.3503 O.3            1 S1                 0.0000
     10 ****         1.0136   0.4319  -0.0445 C.3            1 S1                 0.0000
     11 ****         2.4393   0.1774  -0.3101 N.am           1 S1                 0.0000
     12 ****         3.3504   1.0733   0.2728 C.2            1 S1                 0.0000
     13 ****         4.6264   0.9479   0.1072 N.2            1 S1                 0.0000
     14 ****         5.1293  -0.1007  -0.6685 C.2            1 S1                 0.0000
     15 ****         6.6411  -0.1539  -0.7987 C.3            1 S1                 0.0000
     16 ****         4.3000  -1.0047  -1.2581 C.2            1 S1                 0.0000
     17 ****         4.7903  -2.1673  -2.1120 C.3            1 S1                 0.0000
     18 ****         2.8452  -0.8783  -1.0734 C.2            1 S1                 0.0000
     19 ****         2.0375  -1.6677  -1.5668 O.2            1 S1                 0.0000
     20 ****        -3.9045  -0.4975   0.7386 C.ar           1 S1                 0.0000
     21 ****        -5.3001  -0.3704   0.5962 C.ar           1 S1                 0.0000
     22 ****        -7.7023   2.0619   0.3141 H              1 S1                 0.0000
     23 ****        -7.8954   0.4472   1.0002 H              1 S1                 0.0000
     24 ****        -7.6936   0.6469  -0.7453 H              1 S1                 0.0000
     25 ****        -5.4885   3.0116   0.1490 H              1 S1                 0.0000
     26 ****        -3.0381   2.7880   0.3985 H              1 S1                 0.0000
     27 ****        -1.4400  -1.1191   1.9234 H              1 S1                 0.0000
     28 ****        -1.3008  -1.3066   0.1770 H              1 S1                 0.0000
     29 ****         0.9087  -1.4584   1.0357 H              1 S1                 0.0000
     30 ****         1.7127   0.1074   2.4400 H              1 S1                 0.0000
     31 ****         0.4552   0.2415  -0.9630 H              1 S1                 0.0000
     32 ****         0.8170   1.4839   0.1738 H              1 S1                 0.0000
     33 ****         2.9078   1.8711   0.8717 H              1 S1                 0.0000
     34 ****         6.9384  -0.0515  -1.8426 H              1 S1                 0.0000
     35 ****         7.0248  -1.1003  -0.4171 H              1 S1                 0.0000
     36 ****         7.1167   0.6500  -0.2355 H              1 S1                 0.0000
     37 ****         4.5051  -3.1152  -1.6548 H              1 S1                 0.0000
     38 ****         5.8708  -2.1776  -2.2439 H              1 S1                 0.0000
     39 ****         4.3413  -2.1216  -3.1047 H              1 S1                 0.0000
     40 ****        -3.4998  -1.4848   0.9002 H              1 S1                 0.0000
     41 ****        -5.9249  -1.2499   0.6505 H              1 S1                 0.0000
     42 ****        -1.4568   1.2013   1.5672 LP             1 S1                 0.0000
     43 ****        -1.3129   0.9936  -0.0461 LP             1 S1                 0.0000
     44 ****         0.3844  -0.4996   3.0696 LP             1 S1                 0.0000
     45 ****         0.3967   1.0002   2.4237 LP             1 S1                 0.0000
     46 ****         5.2530   1.6003   0.5335 LP             1 S1                 0.0000
     47 ****         1.0576  -1.5427  -1.4116 LP             1 S1                 0.0000
     48 ****         2.3621  -2.4332  -2.1224 LP             1 S1                 0.0000
@<TRIPOS>BOND
    1    1    2 1     
    2    1   22 1     
    3    1   23 1     
    4    1   24 1     
    5    2   21 ar    
    6    2    3 ar    
    7    3    4 ar    
    8    3   25 1     
    9    4    5 ar    
   10    4   26 1     
   11    5    6 1     
   12    5   20 ar    
   13    6    7 1     
   14    7    8 1     
   15    7   27 1     
   16    7   28 1     
   17    8    9 1     
   18    8   10 1     
   19    8   29 1     
   20    9   30 1     
   21   10   11 1     
   22   10   31 1     
   23   10   32 1     
   24   11   18 am    
   25   11   12 1     
   26   12   13 2     
   27   12   33 1     
   28   13   14 1     
   29   14   15 1     
   30   14   16 2     
   31   15   34 1     
   32   15   35 1     
   33   15   36 1     
   34   16   17 1     
   35   16   18 1     
   36   17   37 1     
   37   17   38 1     
   38   17   39 1     
   39   18   19 2     
   40   20   21 ar    
   41   20   40 1     
   42   21   41 1     
   43    6   42 1     
   44    6   43 1     
   45    9   44 1     
   46    9   45 1     
   47   13   46 1     
   48   19   47 1     
   49   19   48 1     
@<TRIPOS>SUBSTRUCTURE
      1 S1             1
@<TRIPOS>SET
LONE_PAIRS      STATIC     ATOMS    <user>   **** ""
7 42 43 44 45 46 47 48
DONOR_HYDROGENS      STATIC     ATOMS    <user>   **** ""
1 30
ATOM$BLUE        STATIC     ATOMS    COLORGROUP SYSTEM
7 42 43 44 45 46 47 48
ATOM$RED        STATIC     ATOMS    COLORGROUP SYSTEM
1 30
