AV-unprocessed.smi:1289|AV-procd|sdf|5387|dock5
  -GOLD-   22720 4533D 1   1.00000     0.00000
 Structure written by MMmdl.
 38 40  0  0  0  0  0  0  0  0  2 V2000
  149.2310  129.9887  153.9228 N   0  0  0  0  0  0  0  0  0  0  0  0
  149.3745  131.0787  154.2833 C   0  0  0  0  0  0  0  0  0  0  0  0
  149.5547  132.4478  154.7362 C   0  0  0  0  0  0  0  0  0  0  0  0
  148.8200  133.4927  154.1421 C   0  0  0  0  0  0  0  0  0  0  0  0
  148.9954  134.8178  154.5855 C   0  0  0  0  0  0  0  0  0  0  0  0
  149.9016  135.1192  155.6228 C   0  0  0  0  0  0  0  0  0  0  0  0
  150.0085  136.4421  155.9933 O   0  0  0  0  0  0  0  0  0  0  0  0
  149.6934  137.4411  155.0309 C   0  0  0  0  0  0  0  0  0  0  0  0
  150.9807  138.1317  154.5511 C   0  0  2  0  0  0  0  0  0  0  0  0
  151.7919  137.1898  153.8785 O   0  0  0  0  0  0  0  0  0  0  0  0
  151.7517  138.8509  155.6765 C   0  0  0  0  0  0  0  0  0  0  0  0
  151.1726  140.1577  156.0179 N   0  0  0  0  0  0  0  0  0  0  0  0
  150.3155  140.9392  155.3065 C   0  0  0  0  0  0  0  0  0  0  0  0
  150.0636  142.0541  156.0470 N   0  3  0  0  0  0  0  0  0  0  0  0
  150.7686  141.9840  157.2504 C   0  0  0  0  0  0  0  0  0  0  0  0
  150.8331  142.8704  158.3210 C   0  0  0  0  0  0  0  0  0  0  0  0
  151.6545  142.4958  159.4044 C   0  0  0  0  0  0  0  0  0  0  0  0
  152.3728  141.2824  159.3964 C   0  0  0  0  0  0  0  0  0  0  0  0
  152.2999  140.3910  158.3057 C   0  0  0  0  0  0  0  0  0  0  0  0
  151.4841  140.7677  157.2390 C   0  0  0  0  0  0  0  0  0  0  0  0
  150.6389  134.0623  156.2145 C   0  0  0  0  0  0  0  0  0  0  0  0
  150.4648  132.7361  155.7724 C   0  0  0  0  0  0  0  0  0  0  0  0
  148.1194  133.2853  153.3460 H   0  0  0  0  0  0  0  0  0  0  0  0
  148.4272  135.6124  154.1245 H   0  0  0  0  0  0  0  0  0  0  0  0
  149.1529  137.0151  154.1837 H   0  0  0  0  0  0  0  0  0  0  0  0
  149.0477  138.1888  155.4944 H   0  0  0  0  0  0  0  0  0  0  0  0
  150.6973  138.8717  153.8015 H   0  0  0  0  0  0  0  0  0  0  0  0
  151.3439  136.9149  153.0933 H   0  0  0  0  0  0  0  0  0  0  0  0
  151.7306  138.2448  156.5830 H   0  0  0  0  0  0  0  0  0  0  0  0
  152.8038  138.9827  155.4233 H   0  0  0  0  0  0  0  0  0  0  0  0
  149.9072  140.7148  154.3315 H   0  0  0  0  0  0  0  0  0  0  0  0
  150.2845  143.8008  158.3293 H   0  0  0  0  0  0  0  0  0  0  0  0
  151.7358  143.1525  160.2586 H   0  0  0  0  0  0  0  0  0  0  0  0
  152.9935  141.0299  160.2439 H   0  0  0  0  0  0  0  0  0  0  0  0
  152.8584  139.4664  158.3085 H   0  0  0  0  0  0  0  0  0  0  0  0
  151.3452  134.2418  157.0105 H   0  0  0  0  0  0  0  0  0  0  0  0
  151.0347  131.9430  156.2349 H   0  0  0  0  0  0  0  0  0  0  0  0
  149.4538  142.8056  155.7506 H   0  0  0  0  0  0  0  0  0  0  0  0
  1  2  3  0  0  0  0
  2  3  1  0  0  0  0
  3 22  1  0  0  0  0
  3  4  2  0  0  0  0
  4  5  1  0  0  0  0
  4 23  1  0  0  0  0
  5  6  2  0  0  0  0
  5 24  1  0  0  0  0
  6  7  1  0  0  0  0
  6 21  1  0  0  0  0
  7  8  1  0  0  0  0
  8  9  1  0  0  0  0
  8 25  1  0  0  0  0
  8 26  1  0  0  0  0
  9 10  1  0  0  0  0
  9 11  1  0  0  0  0
  9 27  1  0  0  0  0
 10 28  1  0  0  0  0
 11 12  1  0  0  0  0
 11 29  1  0  0  0  0
 11 30  1  0  0  0  0
 12 20  1  0  0  0  0
 12 13  1  0  0  0  0
 13 14  2  0  0  0  0
 13 31  1  0  0  0  0
 14 15  1  0  0  0  0
 14 38  1  0  0  0  0
 15 20  2  0  0  0  0
 15 16  1  0  0  0  0
 16 17  2  0  0  0  0
 16 32  1  0  0  0  0
 17 18  1  0  0  0  0
 17 33  1  0  0  0  0
 18 19  2  0  0  0  0
 18 34  1  0  0  0  0
 19 20  1  0  0  0  0
 19 35  1  0  0  0  0
 21 22  2  0  0  0  0
 21 36  1  0  0  0  0
 22 37  1  0  0  0  0
M  CHG  1  14   1
M  END
> <s_m_source_file>
AV-unprocessed.smi

> <i_m_source_file_index>
1289

> <i_lp_mmshare_version>
43012

> <i_f3d_flags>
0

> <s_epik_input>
TiNDYzFbY0hdW2NIXWMoW2NIXVtjSF0xKU9bQ0gyXVtDQEhdKFtPSF0pW0NIMl1uKFtjSF1uMiljKGMyMylbY0hdW2NIXVtjSF1bY0hdMw==

> <s_epik_cmdline>
J2VwaWtfcHl0aG9uJywgJy1waCcsICc3LjAnLCAnLXRuJywgJzgnLCAnLW1hJywgJzIwMCcsICctbWV0YWxfYmluZGluZycsICctaW1hZScsICc8aW5maWxlLm1hZT4nLCAnLW9tYWUnLCAnPG91dGZpbGUubWFlPic=

> <r_epik_Ionization_Penalty>
1.39523

> <r_epik_Ionization_Penalty_Charging>
1.39523

> <r_epik_Ionization_Penalty_Neutral>
2.3993e-06

> <r_epik_State_Penalty>
1.47691

> <r_epik_Charging_Adjusted_Penalty>
2.87215

> <i_epik_Tot_Q>
1

> <i_epik_Tot_abs_Q>
1

> <r_epik_Metal_State_Penalty>
5.51858

> <b_epik_Metal_Only>
0

> <s_lp_Force_Field>
OPLS_2005

> <r_lp_Energy>
21.3748

> <b_lp_Chiralities_Consistent>
1

> <s_lp_Variant>
AV-unprocessed.smi:1289-3

> <Gold.Version>
5.8.1

> <Gold.Id.Protein>
6NUR|6NUR_protein|mol2

> <Gold.PLP.Fitness>
52.5089

> <Gold.PLP.PLP>
-42.7268

> <Gold.PLP.part.hbond>
-3.0000

> <Gold.PLP.part.metal>
0.0000

> <Gold.PLP.part.buried>
-4.2111

> <Gold.PLP.part.nonpolar>
-35.2171

> <Gold.PLP.part.repulsive>
0.2656

> <Gold.PLP.ligand.clash>
0.0000

> <Gold.PLP.ligand.torsion>
1.1631

> <Gold.PLP.Chemscore.Hbond>
4.0000

> <Gold.PLP.Chemscore.CHOScore>
0.0000

> <Gold.PLP.Chemscore.Metal>
0.0000

> <Gold.Chemscore.Hbonds>
donor molecule, donor type, donor heavy atom, donor atom, acceptor molecule, acceptor atom, score
      L1  H    10    28       P1  7949  1.00
      L1  H    14    38       P1  8028  2.00
      P1  H 10752 10763       L1    10  1.00

> <Gold.PLP.Chemscore.Internal.Correction>
0.1083

> <Gold.Rescore>
     Score         DG    S(hbond)    S(metal)    S(lipo)     H(rot)  DE(clash)    DE(int)     intcor
     17.15     -18.62       2.47        0.00      98.16       2.58       0.28       1.19       ----

> <Gold.Chemscore.Fitness>
17.1540

> <Gold.Chemscore.DG>
-18.6241

> <Gold.Chemscore.ZeroCoef>
-5.4800

> <Gold.Chemscore.Hbond>
2.4742

> <Gold.Chemscore.Metal>
0.0000

> <Gold.Chemscore.Lipo>
98.1593

> <Gold.Chemscore.Internal_Hbond>
0.0000

> <Gold.Chemscore.DEClash>
0.2826

> <Gold.Chemscore.DEInternal>
1.1875

> <Gold.Chemscore.Rot>
2.5798

> <Gold.Chemscore.Internal.Correction>
   9.000000E+99

> <Gold.Chemscore.Hbonds>
donor molecule, donor type, donor heavy atom, donor atom, acceptor molecule, acceptor atom, score
      L1  H    10    28       P1  7949  0.73
      L1  H    14    38       P1  8028  0.94
      P1  H 10752 10763       L1    10  0.29

> <Gold.Chemscore.Hbond.Weighted>
-8.2638

> <Gold.Chemscore.Metal.Weighted>
-0.0000

> <Gold.Chemscore.Lipo.Weighted>
-11.4846

> <Gold.Chemscore.Internal_Hbond.Weighted>
0.0000

> <Gold.Chemscore.DEClash.Weighted>
0.2826

> <Gold.Chemscore.DEInternal.Weighted>
1.1875

> <Gold.Chemscore.Rot.Weighted>
6.6043

> <Gold.Chemscore.Internal.Correction.Weighted>
   9.000000E+99

> <Gold.Protein.RotatedTorsions>
[ 6907 6896 6895 6894 ] final   95.30 input  -60.11 | X-H torsion
[ 7974 7965 7964 7962 ] final  107.30 input  175.53 | X-H torsion
[ 8008 7997 7996 7995 ] final   18.74 input   59.86 | X-H torsion
[ 10167 10162 10161 10158 ] final -165.58 input  -65.29 | X-H torsion
[ 10718 10713 10712 10709 ] final  122.09 input   66.30 | X-H torsion
[ 10763 10752 10751 10750 ] final   35.87 input  -60.55 | X-H torsion
[ 11005 11000 10999 10996 ] final  -32.78 input  -57.11 | X-H torsion

> <Gold.Protein.ActiveResidues>
 VAL166  LYS551  ARG553  GLY616  TRP617  ASP618  TYR619  PRO620  LYS621  CYS622 
 ASP623  PHE694  ASN695  SER759  ASP760  ASP761  ALA762  ILE779  LEU786  VAL792 
 PHE793  MET794  SER795  GLU796  ALA797  LYS798  CYS799  TRP800  GLU811  SER814 

> <Gold.Protein.RotatedAtoms>
  152.5444  134.1061  159.8338 H   0  0  0  0  0  0  0  0  0  0  0  0  # atno 6907 bound_to 6896
  151.1133  133.5149  159.2612 H   0  0  0  0  0  0  0  0  0  0  0  0  # atno 6908 bound_to 6896
  151.1860  135.0391  159.8867 H   0  0  0  0  0  0  0  0  0  0  0  0  # atno 6909 bound_to 6896
  145.2954  139.2586  143.3842 H   0  0  0  0  0  0  0  0  0  0  0  0  # atno 7974 bound_to 7965
  154.9105  140.3013  155.5269 H   0  0  0  0  0  0  0  0  0  0  0  0  # atno 8008 bound_to 7997
  156.3015  140.2390  156.4079 H   0  0  0  0  0  0  0  0  0  0  0  0  # atno 8009 bound_to 7997
  154.8430  140.0413  157.1543 H   0  0  0  0  0  0  0  0  0  0  0  0  # atno 8010 bound_to 7997
  139.6173  144.0695  152.1899 H   0  0  0  0  0  0  0  0  0  0  0  0  # atno 10167 bound_to 10162
  157.5769  131.1078  150.8263 H   0  0  0  0  0  0  0  0  0  0  0  0  # atno 10718 bound_to 10713
  153.0100  135.6321  154.1896 H   0  0  0  0  0  0  0  0  0  0  0  0  # atno 10763 bound_to 10752
  154.1638  135.2822  155.3102 H   0  0  0  0  0  0  0  0  0  0  0  0  # atno 10764 bound_to 10752
  154.5961  135.5602  153.7387 H   0  0  0  0  0  0  0  0  0  0  0  0  # atno 10765 bound_to 10752
  140.9580  133.7181  156.1325 H   0  0  0  0  0  0  0  0  0  0  0  0  # atno 11005 bound_to 11000
  146.3170  140.3455  142.8651 LP  0  0  0  0  0  0  0  0  0  0  0  0  # atno 17320 bound_to 7965
  144.9138  140.7788  143.5791 LP  0  0  0  0  0  0  0  0  0  0  0  0  # atno 17321 bound_to 7965
  140.0328  144.6067  150.7474 LP  0  0  0  0  0  0  0  0  0  0  0  0  # atno 17342 bound_to 10162
  140.7359  143.2746  151.3781 LP  0  0  0  0  0  0  0  0  0  0  0  0  # atno 17343 bound_to 10162
  156.8719  130.5149  149.5296 LP  0  0  0  0  0  0  0  0  0  0  0  0  # atno 17370 bound_to 10713
  156.0813  130.5823  150.9568 LP  0  0  0  0  0  0  0  0  0  0  0  0  # atno 17371 bound_to 10713
  140.7508  134.4047  157.5541 LP  0  0  0  0  0  0  0  0  0  0  0  0  # atno 17394 bound_to 11000
  139.8869  134.8898  156.2561 LP  0  0  0  0  0  0  0  0  0  0  0  0  # atno 17395 bound_to 11000

$$$$
