AV-unprocessed.smi:767|AV-procd|sdf|3669|dock7
  -GOLD-   22720 1 83D 1   1.00000     0.00000
 Structure written by MMmdl.
 48 50  0  0  0  0  0  0  0  0  2 V2000
  150.8298  143.0117  157.3337 C   0  0  0  0  0  0  0  0  0  0  0  0
  150.1521  141.9919  156.4429 C   0  0  0  0  0  0  0  0  0  0  0  0
  150.6450  140.6782  156.2897 C   0  0  0  0  0  0  0  0  0  0  0  0
  149.9627  139.7812  155.4416 C   0  0  0  0  0  0  0  0  0  0  0  0
  148.8022  140.2152  154.7644 C   0  0  0  0  0  0  0  0  0  0  0  0
  148.0433  139.2734  153.8504 C   0  0  0  0  0  0  0  0  0  0  0  0
  147.3878  138.1201  154.6269 C   0  0  0  0  0  0  0  0  0  0  0  0
  147.3630  136.8915  153.8431 N   0  0  0  0  0  0  0  0  0  0  0  0
  146.2727  136.1424  153.6287 C   0  0  0  0  0  0  0  0  0  0  0  0
  145.1543  136.4111  154.0682 O   0  0  0  0  0  0  0  0  0  0  0  0
  146.5456  135.0701  152.8744 N   0  0  0  0  0  0  0  0  0  0  0  0
  145.5613  134.0658  152.4838 C   0  0  2  0  0  0  0  0  0  0  0  0
  146.1552  132.9898  151.5613 C   0  0  1  0  0  0  0  0  0  0  0  0
  146.2544  131.5662  152.0372 C   0  0  0  0  0  0  0  0  0  0  0  0
  144.9791  130.9294  151.4770 C   0  0  0  0  0  0  0  0  0  0  0  0
  144.0967  132.0264  151.2518 O   0  0  0  0  0  0  0  0  0  0  0  0
  144.8767  133.1070  150.7456 C   0  0  1  0  0  0  0  0  0  0  0  0
  144.6025  134.5021  151.3465 C   0  0  0  0  0  0  0  0  0  0  0  0
  143.1554  134.7833  151.7543 C   0  0  0  0  0  0  0  0  0  0  0  0
  145.0454  135.6692  150.4526 C   0  0  0  0  0  0  0  0  0  0  0  0
  148.3549  141.5399  154.9571 C   0  0  0  0  0  0  0  0  0  0  0  0
  149.0371  142.3688  155.7774 N   0  3  0  0  0  0  0  0  0  0  0  0
  151.7050  142.5848  157.8245 H   0  0  0  0  0  0  0  0  0  0  0  0
  150.1426  143.3588  158.1058 H   0  0  0  0  0  0  0  0  0  0  0  0
  151.1542  143.8720  156.7480 H   0  0  0  0  0  0  0  0  0  0  0  0
  151.5343  140.3588  156.8135 H   0  0  0  0  0  0  0  0  0  0  0  0
  150.3267  138.7719  155.3153 H   0  0  0  0  0  0  0  0  0  0  0  0
  147.2879  139.8432  153.3075 H   0  0  0  0  0  0  0  0  0  0  0  0
  148.7276  138.8781  153.0986 H   0  0  0  0  0  0  0  0  0  0  0  0
  147.9440  137.9247  155.5440 H   0  0  0  0  0  0  0  0  0  0  0  0
  146.3740  138.3887  154.9288 H   0  0  0  0  0  0  0  0  0  0  0  0
  148.2378  136.5875  153.4410 H   0  0  0  0  0  0  0  0  0  0  0  0
  147.4940  134.9317  152.5577 H   0  0  0  0  0  0  0  0  0  0  0  0
  145.0266  133.6241  153.3279 H   0  0  0  0  0  0  0  0  0  0  0  0
  147.0217  133.3455  151.0005 H   0  0  0  0  0  0  0  0  0  0  0  0
  147.1491  131.0623  151.6709 H   0  0  0  0  0  0  0  0  0  0  0  0
  146.2659  131.5202  153.1265 H   0  0  0  0  0  0  0  0  0  0  0  0
  145.1827  130.4375  150.5246 H   0  0  0  0  0  0  0  0  0  0  0  0
  144.5420  130.1955  152.1542 H   0  0  0  0  0  0  0  0  0  0  0  0
  145.0312  133.0675  149.6661 H   0  0  0  0  0  0  0  0  0  0  0  0
  142.4947  134.8168  150.8875 H   0  0  0  0  0  0  0  0  0  0  0  0
  143.0648  135.7358  152.2773 H   0  0  0  0  0  0  0  0  0  0  0  0
  142.7698  134.0143  152.4239 H   0  0  0  0  0  0  0  0  0  0  0  0
  144.4202  135.7475  149.5628 H   0  0  0  0  0  0  0  0  0  0  0  0
  146.0734  135.5490  150.1093 H   0  0  0  0  0  0  0  0  0  0  0  0
  144.9876  136.6237  150.9768 H   0  0  0  0  0  0  0  0  0  0  0  0
  147.4783  141.9590  154.4844 H   0  0  0  0  0  0  0  0  0  0  0  0
  148.6950  143.3223  155.9003 H   0  0  0  0  0  0  0  0  0  0  0  0
  1  2  1  0  0  0  0
  1 23  1  0  0  0  0
  1 24  1  0  0  0  0
  1 25  1  0  0  0  0
  2 22  1  0  0  0  0
  2  3  2  0  0  0  0
  3  4  1  0  0  0  0
  3 26  1  0  0  0  0
  4  5  2  0  0  0  0
  4 27  1  0  0  0  0
  5  6  1  0  0  0  0
  5 21  1  0  0  0  0
  6  7  1  0  0  0  0
  6 28  1  0  0  0  0
  6 29  1  0  0  0  0
  7  8  1  0  0  0  0
  7 30  1  0  0  0  0
  7 31  1  0  0  0  0
  8  9  1  0  0  0  0
  8 32  1  0  0  0  0
  9 10  2  0  0  0  0
  9 11  1  0  0  0  0
 11 12  1  0  0  0  0
 11 33  1  0  0  0  0
 12 18  1  0  0  0  0
 12 13  1  0  0  0  0
 12 34  1  0  0  0  0
 13 17  1  0  0  0  0
 13 14  1  0  0  0  0
 13 35  1  0  0  0  0
 14 15  1  0  0  0  0
 14 36  1  0  0  0  0
 14 37  1  0  0  0  0
 15 16  1  0  0  0  0
 15 38  1  0  0  0  0
 15 39  1  0  0  0  0
 16 17  1  0  0  0  0
 17 18  1  0  0  0  0
 17 40  1  0  0  0  0
 18 19  1  0  0  0  0
 18 20  1  0  0  0  0
 19 41  1  0  0  0  0
 19 42  1  0  0  0  0
 19 43  1  0  0  0  0
 20 44  1  0  0  0  0
 20 45  1  0  0  0  0
 20 46  1  0  0  0  0
 21 22  2  0  0  0  0
 21 47  1  0  0  0  0
 22 48  1  0  0  0  0
M  CHG  1  22   1
M  END
> <s_m_source_file>
AV-unprocessed.smi

> <i_m_source_file_index>
767

> <i_lp_mmshare_version>
43012

> <i_f3d_flags>
0

> <s_epik_input>
W0NIM11jMVtjSF1bY0hdYyhbY0hdbjEpW0NIMl1bQ0gyXVtOSF1DKD1PKVtOSF1bQ0BIXTJDKFtDSDNdKShbQ0gzXSlbQ0BIXShbQ0BASF0yMylPW0NIMl1bQ0gyXTM=

> <s_epik_cmdline>
J2VwaWtfcHl0aG9uJywgJy1waCcsICc3LjAnLCAnLXRuJywgJzgnLCAnLW1hJywgJzIwMCcsICctbWV0YWxfYmluZGluZycsICctaW1hZScsICc8aW5maWxlLm1hZT4nLCAnLW9tYWUnLCAnPG91dGZpbGUubWFlPic=

> <r_epik_Ionization_Penalty>
1.41853

> <r_epik_Ionization_Penalty_Charging>
1.41848

> <r_epik_Ionization_Penalty_Neutral>
5.17407e-05

> <r_epik_State_Penalty>
1.50205

> <r_epik_Charging_Adjusted_Penalty>
2.92053

> <i_epik_Tot_Q>
1

> <i_epik_Tot_abs_Q>
1

> <r_epik_Metal_State_Penalty>
1.5544

> <b_epik_Metal_Only>
0

> <s_lp_Force_Field>
OPLS_2005

> <r_lp_Energy>
38.5293

> <b_lp_Chiralities_Consistent>
1

> <s_lp_Variant>
AV-unprocessed.smi:767-13

> <Gold.Version>
5.8.1

> <Gold.Id.Protein>
6NUR|6NUR_protein|mol2

> <Gold.PLP.Fitness>
47.2151

> <Gold.PLP.PLP>
-36.8034

> <Gold.PLP.part.hbond>
-2.5793

> <Gold.PLP.part.metal>
0.0000

> <Gold.PLP.part.buried>
-2.9281

> <Gold.PLP.part.nonpolar>
-31.6678

> <Gold.PLP.part.repulsive>
0.3706

> <Gold.PLP.ligand.clash>
0.0000

> <Gold.PLP.ligand.torsion>
0.4175

> <Gold.PLP.Chemscore.Hbond>
3.6875

> <Gold.PLP.Chemscore.CHOScore>
0.0000

> <Gold.PLP.Chemscore.Metal>
0.0000

> <Gold.Chemscore.Hbonds>
donor molecule, donor type, donor heavy atom, donor atom, acceptor molecule, acceptor atom, score
      L1  H     8    32       P1  7948  0.82
      L1  H    11    33       P1  7948  0.66
      L1  H    22    48       P1  8028  1.43

> <Gold.PLP.Chemscore.Internal.Correction>
0.1843

> <Gold.Rescore>
     Score         DG    S(hbond)    S(metal)    S(lipo)     H(rot)  DE(clash)    DE(int)     intcor
     21.14     -21.64       2.65        0.00      95.81       1.52       0.02       0.48       ----

> <Gold.Chemscore.Fitness>
21.1400

> <Gold.Chemscore.DG>
-21.6361

> <Gold.Chemscore.ZeroCoef>
-5.4800

> <Gold.Chemscore.Hbond>
2.6484

> <Gold.Chemscore.Metal>
0.0000

> <Gold.Chemscore.Lipo>
95.8126

> <Gold.Chemscore.Internal_Hbond>
0.0000

> <Gold.Chemscore.DEClash>
0.0150

> <Gold.Chemscore.DEInternal>
0.4811

> <Gold.Chemscore.Rot>
1.5233

> <Gold.Chemscore.Internal.Correction>
   9.000000E+99

> <Gold.Chemscore.Hbonds>
donor molecule, donor type, donor heavy atom, donor atom, acceptor molecule, acceptor atom, score
      L1  H     8    32       P1  7948  0.81
      L1  H    11    33       P1  7948  0.61
      L1  H    22    48       P1  8028  0.68

> <Gold.Chemscore.Hbond.Weighted>
-8.8456

> <Gold.Chemscore.Metal.Weighted>
-0.0000

> <Gold.Chemscore.Lipo.Weighted>
-11.2101

> <Gold.Chemscore.Internal_Hbond.Weighted>
0.0000

> <Gold.Chemscore.DEClash.Weighted>
0.0150

> <Gold.Chemscore.DEInternal.Weighted>
0.4811

> <Gold.Chemscore.Rot.Weighted>
3.8995

> <Gold.Chemscore.Internal.Correction.Weighted>
   9.000000E+99

> <Gold.Protein.RotatedTorsions>
[ 6907 6896 6895 6894 ] final  -36.20 input  -60.11 | X-H torsion
[ 7974 7965 7964 7962 ] final  173.43 input  175.53 | X-H torsion
[ 8008 7997 7996 7995 ] final   82.64 input   59.86 | X-H torsion
[ 10167 10162 10161 10158 ] final   10.06 input  -65.29 | X-H torsion
[ 10718 10713 10712 10709 ] final -108.08 input   66.30 | X-H torsion
[ 10763 10752 10751 10750 ] final -102.11 input  -60.55 | X-H torsion
[ 11005 11000 10999 10996 ] final  -37.76 input  -57.11 | X-H torsion

> <Gold.Protein.ActiveResidues>
 VAL166  LYS551  ARG553  GLY616  TRP617  ASP618  TYR619  PRO620  LYS621  CYS622 
 ASP623  PHE694  ASN695  SER759  ASP760  ASP761  ALA762  ILE779  LEU786  VAL792 
 PHE793  MET794  SER795  GLU796  ALA797  LYS798  CYS799  TRP800  GLU811  SER814 

> <Gold.Protein.RotatedAtoms>
  151.0302  134.9533  159.8106 H   0  0  0  0  0  0  0  0  0  0  0  0  # atno 6907 bound_to 6896
  152.5344  134.2791  159.9010 H   0  0  0  0  0  0  0  0  0  0  0  0  # atno 6908 bound_to 6896
  151.2800  133.4172  159.2660 H   0  0  0  0  0  0  0  0  0  0  0  0  # atno 6909 bound_to 6896
  144.7244  139.9646  143.6435 H   0  0  0  0  0  0  0  0  0  0  0  0  # atno 7974 bound_to 7965
  155.9133  140.3426  155.6116 H   0  0  0  0  0  0  0  0  0  0  0  0  # atno 8008 bound_to 7997
  155.7361  140.0801  157.2286 H   0  0  0  0  0  0  0  0  0  0  0  0  # atno 8009 bound_to 7997
  154.4059  140.1579  156.2550 H   0  0  0  0  0  0  0  0  0  0  0  0  # atno 8010 bound_to 7997
  140.6217  143.8189  150.7183 H   0  0  0  0  0  0  0  0  0  0  0  0  # atno 10167 bound_to 10162
  156.0468  130.5694  150.7911 H   0  0  0  0  0  0  0  0  0  0  0  0  # atno 10718 bound_to 10713
  154.7709  135.4872  153.9647 H   0  0  0  0  0  0  0  0  0  0  0  0  # atno 10763 bound_to 10752
  153.1367  135.6764  153.9099 H   0  0  0  0  0  0  0  0  0  0  0  0  # atno 10764 bound_to 10752
  153.8786  135.3135  155.3423 H   0  0  0  0  0  0  0  0  0  0  0  0  # atno 10765 bound_to 10752
  140.9976  133.6972  156.1963 H   0  0  0  0  0  0  0  0  0  0  0  0  # atno 11005 bound_to 11000
  146.0610  139.3604  143.0581 LP  0  0  0  0  0  0  0  0  0  0  0  0  # atno 17320 bound_to 7965
  145.8092  140.9734  143.0957 LP  0  0  0  0  0  0  0  0  0  0  0  0  # atno 17321 bound_to 7965
  140.1781  143.4138  152.1953 LP  0  0  0  0  0  0  0  0  0  0  0  0  # atno 17342 bound_to 10162
  139.5445  144.7286  151.4628 LP  0  0  0  0  0  0  0  0  0  0  0  0  # atno 17343 bound_to 10162
  157.5351  131.0938  150.9903 LP  0  0  0  0  0  0  0  0  0  0  0  0  # atno 17370 bound_to 10713
  157.0200  130.5670  149.5330 LP  0  0  0  0  0  0  0  0  0  0  0  0  # atno 17371 bound_to 10713
  140.6941  134.4635  157.5588 LP  0  0  0  0  0  0  0  0  0  0  0  0  # atno 17394 bound_to 11000
  139.9022  134.8529  156.1848 LP  0  0  0  0  0  0  0  0  0  0  0  0  # atno 17395 bound_to 11000

$$$$
