AV-unprocessed.smi:2330|AV-procd|sdf|9311|dock4
  -GOLD-   2272012533D 1   1.00000     0.00000
 Structure written by MMmdl.
 42 43  0  0  0  0  0  0  0  0  1 V2000
  152.9583  143.5543  162.1910 C   0  0  0  0  0  0  0  0  0  0  0  0
  152.0766  143.4307  160.9404 C   0  0  2  0  0  0  0  0  0  0  0  0
  152.3616  142.1236  160.1761 C   0  0  0  0  0  0  0  0  0  0  0  0
  151.4816  141.9963  158.9218 C   0  0  0  0  0  0  0  0  0  0  0  0
  151.6384  143.2160  157.9941 C   0  0  1  0  0  0  0  0  0  0  0  0
  150.7196  143.1071  156.8652 N   0  0  0  0  0  0  0  0  0  0  0  0
  150.4192  141.9788  156.2079 C   0  0  0  0  0  0  0  0  0  0  0  0
  150.8778  140.8700  156.4828 O   0  0  0  0  0  0  0  0  0  0  0  0
  149.5706  142.2095  155.1975 N   0  0  0  0  0  0  0  0  0  0  0  0
  149.1241  141.2100  154.2314 C   0  0  0  0  0  0  0  0  0  0  0  0
  148.0464  140.2639  154.8061 C   0  0  1  0  0  0  0  0  0  0  0  0
  147.0512  140.9807  155.7293 C   0  0  0  0  0  0  0  0  0  0  0  0
  147.3567  139.4478  153.7543 C   0  0  0  0  0  0  0  0  0  0  0  0
  146.6516  138.3421  154.0151 N   0  0  0  0  0  0  0  0  0  0  0  0
  146.0874  137.7831  152.8659 C   0  0  0  0  0  0  0  0  0  0  0  0
  146.3719  138.4824  151.7207 C   0  0  0  0  0  0  0  0  0  0  0  0
  147.3659  139.8757  152.0454 S   0  0  0  0  0  0  0  0  0  0  0  0
  151.3624  144.5243  158.7568 C   0  0  0  0  0  0  0  0  0  0  0  0
  152.2485  144.6442  160.0069 C   0  0  0  0  0  0  0  0  0  0  0  0
  154.0166  143.5767  161.9295 H   0  0  0  0  0  0  0  0  0  0  0  0
  152.7997  142.7139  162.8675 H   0  0  0  0  0  0  0  0  0  0  0  0
  152.7318  144.4673  162.7424 H   0  0  0  0  0  0  0  0  0  0  0  0
  151.0378  143.4068  161.2730 H   0  0  0  0  0  0  0  0  0  0  0  0
  153.4126  142.0875  159.8856 H   0  0  0  0  0  0  0  0  0  0  0  0
  152.1928  141.2656  160.8278 H   0  0  0  0  0  0  0  0  0  0  0  0
  151.7390  141.0825  158.3847 H   0  0  0  0  0  0  0  0  0  0  0  0
  150.4382  141.8934  159.2237 H   0  0  0  0  0  0  0  0  0  0  0  0
  152.6689  143.2486  157.6353 H   0  0  0  0  0  0  0  0  0  0  0  0
  150.2877  143.9638  156.5517 H   0  0  0  0  0  0  0  0  0  0  0  0
  149.2462  143.1547  155.0546 H   0  0  0  0  0  0  0  0  0  0  0  0
  148.7651  141.6962  153.3227 H   0  0  0  0  0  0  0  0  0  0  0  0
  150.0009  140.6294  153.9433 H   0  0  0  0  0  0  0  0  0  0  0  0
  148.5727  139.5481  155.4387 H   0  0  0  0  0  0  0  0  0  0  0  0
  146.3693  140.2703  156.1978 H   0  0  0  0  0  0  0  0  0  0  0  0
  146.4510  141.7058  155.1788 H   0  0  0  0  0  0  0  0  0  0  0  0
  147.5696  141.5153  156.5257 H   0  0  0  0  0  0  0  0  0  0  0  0
  145.4946  136.8850  152.9549 H   0  0  0  0  0  0  0  0  0  0  0  0
  146.0583  138.2639  150.7108 H   0  0  0  0  0  0  0  0  0  0  0  0
  151.5333  145.3803  158.1026 H   0  0  0  0  0  0  0  0  0  0  0  0
  150.3133  144.5672  159.0537 H   0  0  0  0  0  0  0  0  0  0  0  0
  152.0035  145.5636  160.5396 H   0  0  0  0  0  0  0  0  0  0  0  0
  153.2929  144.7325  159.7042 H   0  0  0  0  0  0  0  0  0  0  0  0
  1  2  1  0  0  0  0
  1 20  1  0  0  0  0
  1 21  1  0  0  0  0
  1 22  1  0  0  0  0
  2 19  1  0  0  0  0
  2  3  1  0  0  0  0
  2 23  1  0  0  0  0
  3  4  1  0  0  0  0
  3 24  1  0  0  0  0
  3 25  1  0  0  0  0
  4  5  1  0  0  0  0
  4 26  1  0  0  0  0
  4 27  1  0  0  0  0
  5  6  1  0  0  0  0
  5 18  1  0  0  0  0
  5 28  1  0  0  0  0
  6  7  1  0  0  0  0
  6 29  1  0  0  0  0
  7  8  2  0  0  0  0
  7  9  1  0  0  0  0
  9 10  1  0  0  0  0
  9 30  1  0  0  0  0
 10 11  1  0  0  0  0
 10 31  1  0  0  0  0
 10 32  1  0  0  0  0
 11 12  1  0  0  0  0
 11 13  1  0  0  0  0
 11 33  1  0  0  0  0
 12 34  1  0  0  0  0
 12 35  1  0  0  0  0
 12 36  1  0  0  0  0
 13 17  1  0  0  0  0
 13 14  2  0  0  0  0
 14 15  1  0  0  0  0
 15 16  2  0  0  0  0
 15 37  1  0  0  0  0
 16 17  1  0  0  0  0
 16 38  1  0  0  0  0
 18 19  1  0  0  0  0
 18 39  1  0  0  0  0
 18 40  1  0  0  0  0
 19 41  1  0  0  0  0
 19 42  1  0  0  0  0
M  END
> <s_m_source_file>
AV-unprocessed.smi

> <i_m_source_file_index>
2330

> <i_lp_mmshare_version>
43012

> <i_f3d_flags>
0

> <s_epik_input>
W0NIM11bQ0BASF0xW0NIMl1bQ0gyXVtDQEhdKFtDSDJdW0NIMl0xKVtOSF1DKD1PKVtOSF1bQ0gyXVtDQEhdKFtDSDNdKWMybltjSF1bY0hdczI=

> <s_epik_cmdline>
J2VwaWtfcHl0aG9uJywgJy1waCcsICc3LjAnLCAnLXRuJywgJzgnLCAnLW1hJywgJzIwMCcsICctbWV0YWxfYmluZGluZycsICctaW1hZScsICc8aW5maWxlLm1hZT4nLCAnLW9tYWUnLCAnPG91dGZpbGUubWFlPic=

> <r_lp_tautomer_probability>
1

> <r_epik_Ionization_Penalty>
0.000331107

> <r_epik_Ionization_Penalty_Charging>
0

> <r_epik_Ionization_Penalty_Neutral>
0.000331107

> <r_epik_State_Penalty>
-0

> <r_epik_Charging_Adjusted_Penalty>
0

> <i_epik_Tot_Q>
0

> <i_epik_Tot_abs_Q>
0

> <r_epik_Metal_State_Penalty>
-0

> <b_epik_Metal_Only>
0

> <s_lp_Force_Field>
OPLS_2005

> <r_lp_Energy>
-1.29202

> <b_lp_Chiralities_Consistent>
1

> <s_lp_Variant>
AV-unprocessed.smi:2330-2

> <Gold.Version>
5.8.1

> <Gold.Id.Protein>
6NUR|6NUR_protein|mol2

> <Gold.PLP.Fitness>
45.3513

> <Gold.PLP.PLP>
-38.2574

> <Gold.PLP.part.hbond>
-2.0000

> <Gold.PLP.part.metal>
0.0000

> <Gold.PLP.part.buried>
1.5221

> <Gold.PLP.part.nonpolar>
-37.6153

> <Gold.PLP.part.repulsive>
0.4163

> <Gold.PLP.ligand.clash>
0.0000

> <Gold.PLP.ligand.torsion>
0.8877

> <Gold.PLP.Chemscore.Hbond>
1.9920

> <Gold.PLP.Chemscore.CHOScore>
0.9221

> <Gold.PLP.Chemscore.Metal>
0.0000

> <Gold.Chemscore.Hbonds>
donor molecule, donor type, donor heavy atom, donor atom, acceptor molecule, acceptor atom, score
      L1  H     6    29       P1  8028  0.96
      L1  H     9    30       P1  8028  1.00
      L1  C    16    38       P1 10171  0.93

> <Gold.PLP.Chemscore.Internal.Correction>
0.1269

> <Gold.Rescore>
     Score         DG    S(hbond)    S(metal)    S(lipo)     H(rot)  DE(clash)    DE(int)     intcor
     18.99     -23.14       1.92        0.00     127.85       1.45       2.22       1.93       ----

> <Gold.Chemscore.Fitness>
18.9883

> <Gold.Chemscore.DG>
-23.1382

> <Gold.Chemscore.ZeroCoef>
-5.4800

> <Gold.Chemscore.Hbond>
1.9225

> <Gold.Chemscore.Metal>
0.0000

> <Gold.Chemscore.Lipo>
127.8465

> <Gold.Chemscore.Internal_Hbond>
0.0000

> <Gold.Chemscore.DEClash>
2.2151

> <Gold.Chemscore.DEInternal>
1.9348

> <Gold.Chemscore.Rot>
1.4536

> <Gold.Chemscore.Internal.Correction>
   9.000000E+99

> <Gold.Chemscore.Hbonds>
donor molecule, donor type, donor heavy atom, donor atom, acceptor molecule, acceptor atom, score
      L1  H     6    29       P1  8028  0.92
      L1  H     9    30       P1  8028  0.96

> <Gold.Chemscore.Hbond.Weighted>
-6.4213

> <Gold.Chemscore.Metal.Weighted>
-0.0000

> <Gold.Chemscore.Lipo.Weighted>
-14.9580

> <Gold.Chemscore.Internal_Hbond.Weighted>
0.0000

> <Gold.Chemscore.DEClash.Weighted>
2.2151

> <Gold.Chemscore.DEInternal.Weighted>
1.9348

> <Gold.Chemscore.Rot.Weighted>
3.7212

> <Gold.Chemscore.Internal.Correction.Weighted>
   9.000000E+99

> <Gold.Protein.RotatedTorsions>
[ 6907 6896 6895 6894 ] final  -94.71 input  -60.11 | X-H torsion
[ 7974 7965 7964 7962 ] final   50.10 input  175.53 | X-H torsion
[ 8008 7997 7996 7995 ] final -115.84 input   59.86 | X-H torsion
[ 10167 10162 10161 10158 ] final -138.25 input  -65.29 | X-H torsion
[ 10718 10713 10712 10709 ] final  -56.63 input   66.30 | X-H torsion
[ 10763 10752 10751 10750 ] final  -81.90 input  -60.55 | X-H torsion
[ 11005 11000 10999 10996 ] final  150.56 input  -57.11 | X-H torsion

> <Gold.Protein.ActiveResidues>
 VAL166  LYS551  ARG553  GLY616  TRP617  ASP618  TYR619  PRO620  LYS621  CYS622 
 ASP623  PHE694  ASN695  SER759  ASP760  ASP761  ALA762  ILE779  LEU786  VAL792 
 PHE793  MET794  SER795  GLU796  ALA797  LYS798  CYS799  TRP800  GLU811  SER814 

> <Gold.Protein.RotatedAtoms>
  150.6948  134.1770  159.4233 H   0  0  0  0  0  0  0  0  0  0  0  0  # atno 6907 bound_to 6896
  151.9746  135.0057  160.0564 H   0  0  0  0  0  0  0  0  0  0  0  0  # atno 6908 bound_to 6896
  152.1811  133.4673  159.4995 H   0  0  0  0  0  0  0  0  0  0  0  0  # atno 6909 bound_to 6896
  146.0045  139.4475  142.9995 H   0  0  0  0  0  0  0  0  0  0  0  0  # atno 7974 bound_to 7965
  155.0584  140.0393  157.2568 H   0  0  0  0  0  0  0  0  0  0  0  0  # atno 8008 bound_to 7997
  154.7080  140.2687  155.6632 H   0  0  0  0  0  0  0  0  0  0  0  0  # atno 8009 bound_to 7997
  156.2781  140.2727  156.1712 H   0  0  0  0  0  0  0  0  0  0  0  0  # atno 8010 bound_to 7997
  139.8496  143.7215  152.2658 H   0  0  0  0  0  0  0  0  0  0  0  0  # atno 10167 bound_to 10162
  156.1273  130.4161  150.0331 H   0  0  0  0  0  0  0  0  0  0  0  0  # atno 10718 bound_to 10713
  154.5693  135.5610  153.7079 H   0  0  0  0  0  0  0  0  0  0  0  0  # atno 10763 bound_to 10752
  153.0043  135.6293  154.2137 H   0  0  0  0  0  0  0  0  0  0  0  0  # atno 10764 bound_to 10752
  154.2076  135.2875  155.2949 H   0  0  0  0  0  0  0  0  0  0  0  0  # atno 10765 bound_to 10752
  140.1142  134.8905  157.1979 H   0  0  0  0  0  0  0  0  0  0  0  0  # atno 11005 bound_to 11000
  145.7437  140.9998  143.1287 LP  0  0  0  0  0  0  0  0  0  0  0  0  # atno 17320 bound_to 7965
  144.6931  139.9131  143.7464 LP  0  0  0  0  0  0  0  0  0  0  0  0  # atno 17321 bound_to 7965
  139.7478  144.7542  151.0553 LP  0  0  0  0  0  0  0  0  0  0  0  0  # atno 17342 bound_to 10162
  140.7789  143.4896  150.9911 LP  0  0  0  0  0  0  0  0  0  0  0  0  # atno 17343 bound_to 10162
  156.8253  130.9373  151.3639 LP  0  0  0  0  0  0  0  0  0  0  0  0  # atno 17370 bound_to 10713
  157.6454  130.8840  149.9529 LP  0  0  0  0  0  0  0  0  0  0  0  0  # atno 17371 bound_to 10713
  140.3051  134.3087  155.7280 LP  0  0  0  0  0  0  0  0  0  0  0  0  # atno 17394 bound_to 11000
  141.2137  133.7616  156.9696 LP  0  0  0  0  0  0  0  0  0  0  0  0  # atno 17395 bound_to 11000

$$$$
