AV-unprocessed.smi:2459|AV-procd|sdf|9713|dock4
  -GOLD-   2272013353D 1   1.00000     0.00000
 Structure written by MMmdl.
 46 47  0  0  0  0  0  0  0  0  1 V2000
  151.1485  131.8496  157.0786 C   0  0  0  0  0  0  0  0  0  0  0  0
  151.1203  133.2697  157.2115 O   0  0  0  0  0  0  0  0  0  0  0  0
  150.2088  134.0086  156.3846 C   0  0  0  0  0  0  0  0  0  0  0  0
  150.0672  133.3391  154.9971 C   0  0  0  0  0  0  0  0  0  0  0  0
  148.8544  133.9564  157.1134 C   0  0  0  0  0  0  0  0  0  0  0  0
  150.6534  135.4852  156.2643 C   0  0  0  0  0  0  0  0  0  0  0  0
  151.0808  135.9075  155.1898 O   0  0  0  0  0  0  0  0  0  0  0  0
  150.5426  136.2324  157.3799 N   0  0  0  0  0  0  0  0  0  0  0  0
  150.8879  137.5955  157.5851 C   0  0  0  0  0  0  0  0  0  0  0  0
  151.3604  137.9673  158.8593 C   0  0  0  0  0  0  0  0  0  0  0  0
  151.7143  139.2266  159.1874 N   0  0  0  0  0  0  0  0  0  0  0  0
  151.6035  140.1943  158.2470 C   0  0  0  0  0  0  0  0  0  0  0  0
  151.9849  141.4958  158.6086 N   0  0  0  0  0  0  0  0  0  0  0  0
  152.7800  141.5457  159.8328 C   0  0  0  0  0  0  0  0  0  0  0  0
  153.3569  142.9548  160.0507 C   0  0  0  0  0  0  0  0  0  0  0  0
  152.2421  144.0134  160.0295 C   0  0  0  0  0  0  0  0  0  0  0  0
  151.4197  143.8949  158.7358 C   0  0  0  0  0  0  0  0  0  0  0  0
  150.8911  142.4622  158.5501 C   0  0  0  0  0  0  0  0  0  0  0  0
  151.1243  139.9332  156.9409 C   0  0  0  0  0  0  0  0  0  0  0  0
  150.9994  141.0390  155.9072 C   0  0  0  0  0  0  0  0  0  0  0  0
  150.7568  138.6121  156.6097 C   0  0  0  0  0  0  0  0  0  0  0  0
  151.9669  131.4535  157.6792 H   0  0  0  0  0  0  0  0  0  0  0  0
  151.3097  131.5235  156.0512 H   0  0  0  0  0  0  0  0  0  0  0  0
  150.2294  131.3946  157.4476 H   0  0  0  0  0  0  0  0  0  0  0  0
  149.2457  133.7748  154.4268 H   0  0  0  0  0  0  0  0  0  0  0  0
  149.8618  132.2727  155.0961 H   0  0  0  0  0  0  0  0  0  0  0  0
  150.9688  133.4482  154.3932 H   0  0  0  0  0  0  0  0  0  0  0  0
  148.0792  134.4870  156.5586 H   0  0  0  0  0  0  0  0  0  0  0  0
  148.9161  134.4042  158.1061 H   0  0  0  0  0  0  0  0  0  0  0  0
  148.5194  132.9267  157.2421 H   0  0  0  0  0  0  0  0  0  0  0  0
  150.2368  135.7355  158.2046 H   0  0  0  0  0  0  0  0  0  0  0  0
  151.4649  137.2301  159.6419 H   0  0  0  0  0  0  0  0  0  0  0  0
  152.1569  141.2651  160.6832 H   0  0  0  0  0  0  0  0  0  0  0  0
  153.5902  140.8174  159.7751 H   0  0  0  0  0  0  0  0  0  0  0  0
  153.8960  142.9958  160.9974 H   0  0  0  0  0  0  0  0  0  0  0  0
  154.0850  143.1750  159.2688 H   0  0  0  0  0  0  0  0  0  0  0  0
  151.5894  143.8747  160.8922 H   0  0  0  0  0  0  0  0  0  0  0  0
  152.6683  145.0132  160.1164 H   0  0  0  0  0  0  0  0  0  0  0  0
  150.5889  144.6005  158.7528 H   0  0  0  0  0  0  0  0  0  0  0  0
  152.0411  144.1670  157.8815 H   0  0  0  0  0  0  0  0  0  0  0  0
  150.3766  142.3773  157.5920 H   0  0  0  0  0  0  0  0  0  0  0  0
  150.1604  142.2339  159.3275 H   0  0  0  0  0  0  0  0  0  0  0  0
  150.6131  140.6585  154.9614 H   0  0  0  0  0  0  0  0  0  0  0  0
  151.9730  141.4917  155.7168 H   0  0  0  0  0  0  0  0  0  0  0  0
  150.3217  141.8159  156.2618 H   0  0  0  0  0  0  0  0  0  0  0  0
  150.3719  138.4069  155.6231 H   0  0  0  0  0  0  0  0  0  0  0  0
  1  2  1  0  0  0  0
  1 22  1  0  0  0  0
  1 23  1  0  0  0  0
  1 24  1  0  0  0  0
  2  3  1  0  0  0  0
  3  4  1  0  0  0  0
  3  5  1  0  0  0  0
  3  6  1  0  0  0  0
  4 25  1  0  0  0  0
  4 26  1  0  0  0  0
  4 27  1  0  0  0  0
  5 28  1  0  0  0  0
  5 29  1  0  0  0  0
  5 30  1  0  0  0  0
  6  7  2  0  0  0  0
  6  8  1  0  0  0  0
  8  9  1  0  0  0  0
  8 31  1  0  0  0  0
  9 21  1  0  0  0  0
  9 10  2  0  0  0  0
 10 11  1  0  0  0  0
 10 32  1  0  0  0  0
 11 12  2  0  0  0  0
 12 13  1  0  0  0  0
 12 19  1  0  0  0  0
 13 18  1  0  0  0  0
 13 14  1  0  0  0  0
 14 15  1  0  0  0  0
 14 33  1  0  0  0  0
 14 34  1  0  0  0  0
 15 16  1  0  0  0  0
 15 35  1  0  0  0  0
 15 36  1  0  0  0  0
 16 17  1  0  0  0  0
 16 37  1  0  0  0  0
 16 38  1  0  0  0  0
 17 18  1  0  0  0  0
 17 39  1  0  0  0  0
 17 40  1  0  0  0  0
 18 41  1  0  0  0  0
 18 42  1  0  0  0  0
 19 20  1  0  0  0  0
 19 21  2  0  0  0  0
 20 43  1  0  0  0  0
 20 44  1  0  0  0  0
 20 45  1  0  0  0  0
 21 46  1  0  0  0  0
M  END
> <s_m_source_file>
AV-unprocessed.smi

> <i_m_source_file_index>
2459

> <i_lp_mmshare_version>
43012

> <i_f3d_flags>
0

> <s_epik_input>
W0NIM11PQyhbQ0gzXSkoW0NIM10pQyg9TylbTkhdYzFbY0hdbmMoYyhbQ0gzXSlbY0hdMSlOMltDSDJdW0NIMl1bQ0gyXVtDSDJdW0NIMl0y

> <s_epik_cmdline>
J2VwaWtfcHl0aG9uJywgJy1waCcsICc3LjAnLCAnLXRuJywgJzgnLCAnLW1hJywgJzIwMCcsICctbWV0YWxfYmluZGluZycsICctaW1hZScsICc8aW5maWxlLm1hZT4nLCAnLW9tYWUnLCAnPG91dGZpbGUubWFlPic=

> <r_lp_tautomer_probability>
1

> <r_epik_Ionization_Penalty>
0.0966188

> <r_epik_Ionization_Penalty_Charging>
0

> <r_epik_Ionization_Penalty_Neutral>
0.0966188

> <r_epik_State_Penalty>
1.07001

> <r_epik_Charging_Adjusted_Penalty>
1.07001

> <i_epik_Tot_Q>
0

> <i_epik_Tot_abs_Q>
0

> <r_epik_Metal_State_Penalty>
1.00145

> <b_epik_Metal_Only>
0

> <s_lp_Force_Field>
OPLS_2005

> <r_lp_Energy>
29.1962

> <b_lp_Chiralities_Consistent>
1

> <s_lp_Variant>
AV-unprocessed.smi:2459-2

> <Gold.Version>
5.8.1

> <Gold.Id.Protein>
6NUR|6NUR_protein|mol2

> <Gold.PLP.Fitness>
37.0572

> <Gold.PLP.PLP>
-33.8674

> <Gold.PLP.part.hbond>
-2.0000

> <Gold.PLP.part.metal>
0.0000

> <Gold.PLP.part.buried>
-5.5160

> <Gold.PLP.part.nonpolar>
-26.8861

> <Gold.PLP.part.repulsive>
0.2285

> <Gold.PLP.ligand.clash>
0.0000

> <Gold.PLP.ligand.torsion>
1.2087

> <Gold.PLP.Chemscore.Hbond>
1.8000

> <Gold.PLP.Chemscore.CHOScore>
0.0000

> <Gold.PLP.Chemscore.Metal>
0.0000

> <Gold.Chemscore.Hbonds>
donor molecule, donor type, donor heavy atom, donor atom, acceptor molecule, acceptor atom, score
      P1  H  6896  6908       L1     2  0.80
      P1  H 10752 10763       L1     7  1.00

> <Gold.PLP.Chemscore.Internal.Correction>
0.2072

> <Gold.Rescore>
     Score         DG    S(hbond)    S(metal)    S(lipo)     H(rot)  DE(clash)    DE(int)     intcor
     17.32     -19.17       1.87        0.00      92.56       1.32       0.00       1.85       ----

> <Gold.Chemscore.Fitness>
17.3206

> <Gold.Chemscore.DG>
-19.1707

> <Gold.Chemscore.ZeroCoef>
-5.4800

> <Gold.Chemscore.Hbond>
1.8676

> <Gold.Chemscore.Metal>
0.0000

> <Gold.Chemscore.Lipo>
92.5590

> <Gold.Chemscore.Internal_Hbond>
0.0000

> <Gold.Chemscore.DEClash>
0.0000

> <Gold.Chemscore.DEInternal>
1.8501

> <Gold.Chemscore.Rot>
1.3189

> <Gold.Chemscore.Internal.Correction>
   9.000000E+99

> <Gold.Chemscore.Hbonds>
donor molecule, donor type, donor heavy atom, donor atom, acceptor molecule, acceptor atom, score
      P1  H  6896  6908       L1     2  0.23
      P1  H 10752 10763       L1     7  0.83

> <Gold.Chemscore.Hbond.Weighted>
-6.2377

> <Gold.Chemscore.Metal.Weighted>
-0.0000

> <Gold.Chemscore.Lipo.Weighted>
-10.8294

> <Gold.Chemscore.Internal_Hbond.Weighted>
0.0000

> <Gold.Chemscore.DEClash.Weighted>
0.0000

> <Gold.Chemscore.DEInternal.Weighted>
1.8501

> <Gold.Chemscore.Rot.Weighted>
3.3764

> <Gold.Chemscore.Internal.Correction.Weighted>
   9.000000E+99

> <Gold.Protein.RotatedTorsions>
[ 6907 6896 6895 6894 ] final   88.79 input  -60.11 | X-H torsion
[ 7974 7965 7964 7962 ] final   10.77 input  175.53 | X-H torsion
[ 8008 7997 7996 7995 ] final  142.09 input   59.86 | X-H torsion
[ 10167 10162 10161 10158 ] final -175.65 input  -65.29 | X-H torsion
[ 10718 10713 10712 10709 ] final   79.58 input   66.30 | X-H torsion
[ 10763 10752 10751 10750 ] final   78.78 input  -60.55 | X-H torsion
[ 11005 11000 10999 10996 ] final -120.89 input  -57.11 | X-H torsion

> <Gold.Protein.ActiveResidues>
 VAL166  LYS551  ARG553  GLY616  TRP617  ASP618  TYR619  PRO620  LYS621  CYS622 
 ASP623  PHE694  ASN695  SER759  ASP760  ASP761  ALA762  ILE779  LEU786  VAL792 
 PHE793  MET794  SER795  GLU796  ALA797  LYS798  CYS799  TRP800  GLU811  SER814 

> <Gold.Protein.RotatedAtoms>
  152.5429  134.2066  159.8733 H   0  0  0  0  0  0  0  0  0  0  0  0  # atno 6907 bound_to 6896
  151.2051  133.4581  159.2604 H   0  0  0  0  0  0  0  0  0  0  0  0  # atno 6908 bound_to 6896
  151.0951  134.9952  159.8477 H   0  0  0  0  0  0  0  0  0  0  0  0  # atno 6909 bound_to 6896
  146.2383  139.9584  142.8461 H   0  0  0  0  0  0  0  0  0  0  0  0  # atno 7974 bound_to 7965
  156.2955  140.2298  156.4671 H   0  0  0  0  0  0  0  0  0  0  0  0  # atno 8008 bound_to 7997
  154.7968  140.0451  157.1263 H   0  0  0  0  0  0  0  0  0  0  0  0  # atno 8009 bound_to 7997
  154.9581  140.3050  155.5047 H   0  0  0  0  0  0  0  0  0  0  0  0  # atno 8010 bound_to 7997
  139.5570  144.1965  152.1175 H   0  0  0  0  0  0  0  0  0  0  0  0  # atno 10167 bound_to 10162
  157.6781  130.9921  150.1954 H   0  0  0  0  0  0  0  0  0  0  0  0  # atno 10718 bound_to 10713
  153.0901  135.4864  154.8672 H   0  0  0  0  0  0  0  0  0  0  0  0  # atno 10763 bound_to 10752
  154.7258  135.3049  154.8975 H   0  0  0  0  0  0  0  0  0  0  0  0  # atno 10764 bound_to 10752
  153.9626  135.6810  153.4798 H   0  0  0  0  0  0  0  0  0  0  0  0  # atno 10765 bound_to 10752
  141.0111  134.0264  157.3413 H   0  0  0  0  0  0  0  0  0  0  0  0  # atno 11005 bound_to 11000
  145.1794  140.9760  143.4275 LP  0  0  0  0  0  0  0  0  0  0  0  0  # atno 17320 bound_to 7965
  144.9956  139.3648  143.6193 LP  0  0  0  0  0  0  0  0  0  0  0  0  # atno 17321 bound_to 7965
  140.1471  144.5149  150.6709 LP  0  0  0  0  0  0  0  0  0  0  0  0  # atno 17342 bound_to 10162
  140.6844  143.2342  151.5299 LP  0  0  0  0  0  0  0  0  0  0  0  0  # atno 17343 bound_to 10162
  156.2656  130.3716  149.8085 LP  0  0  0  0  0  0  0  0  0  0  0  0  # atno 17370 bound_to 10713
  156.5817  130.8468  151.3384 LP  0  0  0  0  0  0  0  0  0  0  0  0  # atno 17371 bound_to 10713
  139.9090  135.0186  156.7611 LP  0  0  0  0  0  0  0  0  0  0  0  0  # atno 17394 bound_to 11000
  140.6732  133.9540  155.7868 LP  0  0  0  0  0  0  0  0  0  0  0  0  # atno 17395 bound_to 11000

$$$$
