AV-unprocessed.smi:1285|AV-procd|sdf|5368|dock4
  -GOLD-   22720 4513D 1   1.00000     0.00000
 Structure written by MMmdl.
 46 47  0  0  0  0  0  0  0  0  1 V2000
  150.7786  140.5101  155.5121 C   0  0  0  0  0  0  0  0  0  0  0  0
  151.8048  139.8822  156.4725 C   0  0  0  0  0  0  0  0  0  0  0  0
  151.6131  140.2247  157.9850 C   0  0  2  0  0  0  0  0  0  0  0  0
  152.4706  139.1985  158.7743 C   0  0  0  0  0  0  0  0  0  0  0  0
  150.1083  140.0061  158.3517 C   0  0  0  0  0  0  0  0  0  0  0  0
  149.7733  138.6090  158.6197 N   0  0  0  0  0  0  0  0  0  0  0  0
  148.5385  138.1090  158.7875 C   0  0  0  0  0  0  0  0  0  0  0  0
  147.5143  138.7752  158.6320 O   0  0  0  0  0  0  0  0  0  0  0  0
  148.4652  136.6365  159.2243 C   0  0  2  0  0  0  0  0  0  0  0  0
  147.6935  135.7463  158.2291 C   0  0  0  0  0  0  0  0  0  0  0  0
  147.9203  136.5430  160.5742 N   0  0  0  0  0  0  0  0  0  0  0  0
  148.4288  135.9708  161.6679 C   0  0  0  0  0  0  0  0  0  0  0  0
  147.6867  136.1306  162.7545 N   0  0  0  0  0  0  0  0  0  0  0  0
  146.6649  136.8673  162.2262 C   0  0  0  0  0  0  0  0  0  0  0  0
  146.7592  137.1494  160.9271 N   0  0  0  0  0  0  0  0  0  0  0  0
  152.0641  141.6139  158.2824 N   0  0  0  0  0  0  0  0  0  0  0  0
  152.2044  141.9340  159.7082 C   0  0  0  0  0  0  0  0  0  0  0  0
  152.8083  143.3316  159.9284 C   0  0  0  0  0  0  0  0  0  0  0  0
  152.0105  144.3088  159.2711 O   0  0  0  0  0  0  0  0  0  0  0  0
  151.8966  144.0661  157.8741 C   0  0  0  0  0  0  0  0  0  0  0  0
  151.2815  142.6765  157.6394 C   0  0  0  0  0  0  0  0  0  0  0  0
  150.9835  140.2076  154.4852 H   0  0  0  0  0  0  0  0  0  0  0  0
  150.8115  141.5988  155.5401 H   0  0  0  0  0  0  0  0  0  0  0  0
  149.7603  140.1987  155.7447 H   0  0  0  0  0  0  0  0  0  0  0  0
  151.8068  138.8020  156.3269 H   0  0  0  0  0  0  0  0  0  0  0  0
  152.7928  140.2022  156.1393 H   0  0  0  0  0  0  0  0  0  0  0  0
  152.3444  138.1824  158.3995 H   0  0  0  0  0  0  0  0  0  0  0  0
  152.2030  139.1717  159.8308 H   0  0  0  0  0  0  0  0  0  0  0  0
  153.5340  139.4303  158.7140 H   0  0  0  0  0  0  0  0  0  0  0  0
  149.8164  140.6241  159.2010 H   0  0  0  0  0  0  0  0  0  0  0  0
  149.4663  140.3148  157.5277 H   0  0  0  0  0  0  0  0  0  0  0  0
  150.5529  137.9832  158.7600 H   0  0  0  0  0  0  0  0  0  0  0  0
  149.4909  136.2660  159.2651 H   0  0  0  0  0  0  0  0  0  0  0  0
  148.1496  135.7759  157.2390 H   0  0  0  0  0  0  0  0  0  0  0  0
  146.6533  136.0571  158.1235 H   0  0  0  0  0  0  0  0  0  0  0  0
  147.6952  134.7063  158.5566 H   0  0  0  0  0  0  0  0  0  0  0  0
  149.3669  135.4354  161.6720 H   0  0  0  0  0  0  0  0  0  0  0  0
  145.8301  137.2120  162.8183 H   0  0  0  0  0  0  0  0  0  0  0  0
  151.2346  141.8919  160.2039 H   0  0  0  0  0  0  0  0  0  0  0  0
  152.8475  141.2125  160.2092 H   0  0  0  0  0  0  0  0  0  0  0  0
  152.8491  143.5632  160.9929 H   0  0  0  0  0  0  0  0  0  0  0  0
  153.8317  143.3736  159.5520 H   0  0  0  0  0  0  0  0  0  0  0  0
  151.2689  144.8383  157.4292 H   0  0  0  0  0  0  0  0  0  0  0  0
  152.8778  144.1389  157.4020 H   0  0  0  0  0  0  0  0  0  0  0  0
  151.2158  142.5188  156.5645 H   0  0  0  0  0  0  0  0  0  0  0  0
  150.2611  142.6799  158.0223 H   0  0  0  0  0  0  0  0  0  0  0  0
  1  2  1  0  0  0  0
  1 22  1  0  0  0  0
  1 23  1  0  0  0  0
  1 24  1  0  0  0  0
  2  3  1  0  0  0  0
  2 25  1  0  0  0  0
  2 26  1  0  0  0  0
  3  4  1  0  0  0  0
  3  5  1  0  0  0  0
  3 16  1  0  0  0  0
  4 27  1  0  0  0  0
  4 28  1  0  0  0  0
  4 29  1  0  0  0  0
  5  6  1  0  0  0  0
  5 30  1  0  0  0  0
  5 31  1  0  0  0  0
  6  7  1  0  0  0  0
  6 32  1  0  0  0  0
  7  8  2  0  0  0  0
  7  9  1  0  0  0  0
  9 10  1  0  0  0  0
  9 11  1  0  0  0  0
  9 33  1  0  0  0  0
 10 34  1  0  0  0  0
 10 35  1  0  0  0  0
 10 36  1  0  0  0  0
 11 15  1  0  0  0  0
 11 12  1  0  0  0  0
 12 13  2  0  0  0  0
 12 37  1  0  0  0  0
 13 14  1  0  0  0  0
 14 15  2  0  0  0  0
 14 38  1  0  0  0  0
 16 21  1  0  0  0  0
 16 17  1  0  0  0  0
 17 18  1  0  0  0  0
 17 39  1  0  0  0  0
 17 40  1  0  0  0  0
 18 19  1  0  0  0  0
 18 41  1  0  0  0  0
 18 42  1  0  0  0  0
 19 20  1  0  0  0  0
 20 21  1  0  0  0  0
 20 43  1  0  0  0  0
 20 44  1  0  0  0  0
 21 45  1  0  0  0  0
 21 46  1  0  0  0  0
M  END
> <s_m_source_file>
AV-unprocessed.smi

> <i_m_source_file_index>
1285

> <i_lp_mmshare_version>
43012

> <i_f3d_flags>
0

> <s_epik_input>
W0NIMl0xW0NIMl1PW0NIMl1bQ0gyXU4xW0NAQF0oW0NIM10pKFtDSDJdW0NIM10pW0NIMl1bTkhdQyg9TylbQ0BIXShbQ0gzXSluMltjSF1uW2NIXW4y

> <s_epik_cmdline>
J2VwaWtfcHl0aG9uJywgJy1waCcsICc3LjAnLCAnLXRuJywgJzgnLCAnLW1hJywgJzIwMCcsICctbWV0YWxfYmluZGluZycsICctaW1hZScsICc8aW5maWxlLm1hZT4nLCAnLW9tYWUnLCAnPG91dGZpbGUubWFlPic=

> <r_lp_tautomer_probability>
1

> <r_epik_Ionization_Penalty>
0.285697

> <r_epik_Ionization_Penalty_Charging>
0

> <r_epik_Ionization_Penalty_Neutral>
0.285697

> <r_epik_State_Penalty>
0.278478

> <r_epik_Charging_Adjusted_Penalty>
0.278478

> <i_epik_Tot_Q>
0

> <i_epik_Tot_abs_Q>
0

> <r_epik_Metal_State_Penalty>
0.278477

> <b_epik_Metal_Only>
0

> <s_lp_Force_Field>
OPLS_2005

> <r_lp_Energy>
47.2582

> <b_lp_Chiralities_Consistent>
1

> <s_lp_Variant>
AV-unprocessed.smi:1285-2

> <Gold.Version>
5.8.1

> <Gold.Id.Protein>
6NUR|6NUR_protein|mol2

> <Gold.PLP.Fitness>
35.5986

> <Gold.PLP.PLP>
-34.1161

> <Gold.PLP.part.hbond>
-2.0000

> <Gold.PLP.part.metal>
0.0000

> <Gold.PLP.part.buried>
-4.2289

> <Gold.PLP.part.nonpolar>
-28.4984

> <Gold.PLP.part.repulsive>
0.2133

> <Gold.PLP.ligand.clash>
0.0000

> <Gold.PLP.ligand.torsion>
0.9326

> <Gold.PLP.Chemscore.Hbond>
1.0000

> <Gold.PLP.Chemscore.CHOScore>
0.0000

> <Gold.PLP.Chemscore.Metal>
0.0000

> <Gold.Chemscore.Hbonds>
donor molecule, donor type, donor heavy atom, donor atom, acceptor molecule, acceptor atom, score
      P1  H  6934  6947       L1    15  1.00

> <Gold.PLP.Chemscore.Internal.Correction>
0.3478

> <Gold.Rescore>
     Score         DG    S(hbond)    S(metal)    S(lipo)     H(rot)  DE(clash)    DE(int)     intcor
      5.65      -7.79       0.14        0.00      74.52       2.68       0.08       2.06       ----

> <Gold.Chemscore.Fitness>
5.6517

> <Gold.Chemscore.DG>
-7.7920

> <Gold.Chemscore.ZeroCoef>
-5.4800

> <Gold.Chemscore.Hbond>
0.1375

> <Gold.Chemscore.Metal>
0.0000

> <Gold.Chemscore.Lipo>
74.5210

> <Gold.Chemscore.Internal_Hbond>
0.0000

> <Gold.Chemscore.DEClash>
0.0757

> <Gold.Chemscore.DEInternal>
2.0646

> <Gold.Chemscore.Rot>
2.6821

> <Gold.Chemscore.Internal.Correction>
   9.000000E+99

> <Gold.Chemscore.Hbonds>
donor molecule, donor type, donor heavy atom, donor atom, acceptor molecule, acceptor atom, score
      P1  H  6934  6947       L1    15  0.20

> <Gold.Chemscore.Hbond.Weighted>
-0.4592

> <Gold.Chemscore.Metal.Weighted>
-0.0000

> <Gold.Chemscore.Lipo.Weighted>
-8.7190

> <Gold.Chemscore.Internal_Hbond.Weighted>
0.0000

> <Gold.Chemscore.DEClash.Weighted>
0.0757

> <Gold.Chemscore.DEInternal.Weighted>
2.0646

> <Gold.Chemscore.Rot.Weighted>
6.8661

> <Gold.Chemscore.Internal.Correction.Weighted>
   9.000000E+99

> <Gold.Protein.RotatedTorsions>
[ 6907 6896 6895 6894 ] final -109.92 input  -60.11 | X-H torsion
[ 7974 7965 7964 7962 ] final   54.30 input  175.53 | X-H torsion
[ 8008 7997 7996 7995 ] final -116.54 input   59.86 | X-H torsion
[ 10167 10162 10161 10158 ] final  -27.25 input  -65.29 | X-H torsion
[ 10718 10713 10712 10709 ] final -104.86 input   66.30 | X-H torsion
[ 10763 10752 10751 10750 ] final   24.90 input  -60.55 | X-H torsion
[ 11005 11000 10999 10996 ] final  111.70 input  -57.11 | X-H torsion

> <Gold.Protein.ActiveResidues>
 VAL166  LYS551  ARG553  GLY616  TRP617  ASP618  TYR619  PRO620  LYS621  CYS622 
 ASP623  PHE694  ASN695  SER759  ASP760  ASP761  ALA762  ILE779  LEU786  VAL792 
 PHE793  MET794  SER795  GLU796  ALA797  LYS798  CYS799  TRP800  GLU811  SER814 

> <Gold.Protein.RotatedAtoms>
  150.7592  133.9457  159.3469 H   0  0  0  0  0  0  0  0  0  0  0  0  # atno 6907 bound_to 6896
  151.7370  135.0860  160.0319 H   0  0  0  0  0  0  0  0  0  0  0  0  # atno 6908 bound_to 6896
  152.3553  133.6192  159.6010 H   0  0  0  0  0  0  0  0  0  0  0  0  # atno 6909 bound_to 6896
  145.9622  139.4070  143.0241 H   0  0  0  0  0  0  0  0  0  0  0  0  # atno 7974 bound_to 7965
  155.0694  140.0393  157.2603 H   0  0  0  0  0  0  0  0  0  0  0  0  # atno 8008 bound_to 7997
  154.6995  140.2670  155.6709 H   0  0  0  0  0  0  0  0  0  0  0  0  # atno 8009 bound_to 7997
  156.2755  140.2743  156.1600 H   0  0  0  0  0  0  0  0  0  0  0  0  # atno 8010 bound_to 7997
  140.7278  143.4109  151.1107 H   0  0  0  0  0  0  0  0  0  0  0  0  # atno 10167 bound_to 10162
  156.0322  130.5535  150.7457 H   0  0  0  0  0  0  0  0  0  0  0  0  # atno 10718 bound_to 10713
  153.0730  135.6595  154.0205 H   0  0  0  0  0  0  0  0  0  0  0  0  # atno 10763 bound_to 10752
  153.9846  135.2952  155.3418 H   0  0  0  0  0  0  0  0  0  0  0  0  # atno 10764 bound_to 10752
  154.7111  135.5205  153.8738 H   0  0  0  0  0  0  0  0  0  0  0  0  # atno 10765 bound_to 10752
  139.8910  134.9514  156.6473 H   0  0  0  0  0  0  0  0  0  0  0  0  # atno 11005 bound_to 11000
  145.8023  140.9765  143.0992 LP  0  0  0  0  0  0  0  0  0  0  0  0  # atno 17320 bound_to 7965
  144.6817  139.9817  143.7483 LP  0  0  0  0  0  0  0  0  0  0  0  0  # atno 17321 bound_to 7965
  139.7742  143.8449  152.3126 LP  0  0  0  0  0  0  0  0  0  0  0  0  # atno 17342 bound_to 10162
  139.8378  144.7224  150.9369 LP  0  0  0  0  0  0  0  0  0  0  0  0  # atno 17343 bound_to 10162
  157.5014  131.0919  151.0310 LP  0  0  0  0  0  0  0  0  0  0  0  0  # atno 17370 bound_to 10713
  157.0689  130.5856  149.5399 LP  0  0  0  0  0  0  0  0  0  0  0  0  # atno 17371 bound_to 10713
  140.7547  133.8867  155.8373 LP  0  0  0  0  0  0  0  0  0  0  0  0  # atno 17394 bound_to 11000
  140.9971  134.1200  157.4353 LP  0  0  0  0  0  0  0  0  0  0  0  0  # atno 17395 bound_to 11000

$$$$
