AV-unprocessed.smi:87|AV-procd|sdf|821|dock3
  -GOLD-   2262017223D 1   1.00000     0.00000
 Structure written by MMmdl.
 58 60  0  0  0  0  0  0  0  0  1 V2000
  152.7265  138.5518  154.9313 C   0  0  0  0  0  0  0  0  0  0  0  0
  151.2598  138.6230  155.3820 C   0  0  0  0  0  0  0  0  0  0  0  0
  150.9476  137.8218  156.6682 C   0  0  0  0  0  0  0  0  0  0  0  0
  151.8484  138.2649  157.8434 C   0  0  0  0  0  0  0  0  0  0  0  0
  151.7718  139.7656  158.1605 C   0  0  0  0  0  0  0  0  0  0  0  0
  151.0939  136.3004  156.4100 C   0  0  0  0  0  0  0  0  0  0  0  0
  150.1434  135.4750  157.1605 N   0  0  0  0  0  0  0  0  0  0  0  0
  148.9274  136.1362  157.6292 C   0  0  0  0  0  0  0  0  0  0  0  0
  148.3320  135.4692  158.8780 C   0  0  0  0  0  0  0  0  0  0  0  0
  148.3431  136.3605  160.0467 C   0  0  0  0  0  0  0  0  0  0  0  0
  148.3511  137.0620  160.9667 N   0  0  0  0  0  0  0  0  0  0  0  0
  149.9349  134.1966  156.7517 C   0  0  0  0  0  0  0  0  0  0  0  0
  150.3868  133.1578  157.5048 N   0  0  0  0  0  0  0  0  0  0  0  0
  150.2202  131.8994  157.0876 C   0  0  0  0  0  0  0  0  0  0  0  0
  149.6498  131.4618  155.9636 N   0  0  0  0  0  0  0  0  0  0  0  0
  149.1932  132.4991  155.2056 C   0  0  0  0  0  0  0  0  0  0  0  0
  149.2859  133.8825  155.5255 C   0  0  0  0  0  0  0  0  0  0  0  0
  148.6977  134.6419  154.5208 N   0  0  0  0  0  0  0  0  0  0  0  0
  148.3039  133.7594  153.6440 C   0  0  0  0  0  0  0  0  0  0  0  0
  148.5777  132.4499  153.9679 N   0  0  0  0  0  0  0  0  0  0  0  0
  148.2869  131.2768  153.1649 C   0  0  0  0  0  0  0  0  0  0  0  0
  146.7739  130.9905  153.0344 C   0  0  1  0  0  0  0  0  0  0  0  0
  146.1498  131.5247  154.1846 O   0  0  0  0  0  0  0  0  0  0  0  0
  146.1057  131.5846  151.7718 C   0  0  2  0  0  0  0  0  0  0  0  0
  146.0018  133.1127  151.7743 C   0  0  0  0  0  0  0  0  0  0  0  0
  144.8420  133.3515  150.8357 C   0  0  0  0  0  0  0  0  0  0  0  0
  143.9072  132.2090  151.2121 C   0  0  0  0  0  0  0  0  0  0  0  0
  144.7511  131.1482  151.6482 O   0  0  0  0  0  0  0  0  0  0  0  0
  152.8982  139.2132  154.0820 H   0  0  0  0  0  0  0  0  0  0  0  0
  153.0123  137.5478  154.6204 H   0  0  0  0  0  0  0  0  0  0  0  0
  153.3995  138.8623  155.7310 H   0  0  0  0  0  0  0  0  0  0  0  0
  151.0260  139.6758  155.5414 H   0  0  0  0  0  0  0  0  0  0  0  0
  150.6086  138.2938  154.5716 H   0  0  0  0  0  0  0  0  0  0  0  0
  149.9166  138.0377  156.9495 H   0  0  0  0  0  0  0  0  0  0  0  0
  151.6049  137.6885  158.7367 H   0  0  0  0  0  0  0  0  0  0  0  0
  152.8894  138.0392  157.6177 H   0  0  0  0  0  0  0  0  0  0  0  0
  152.4972  140.0320  158.9293 H   0  0  0  0  0  0  0  0  0  0  0  0
  150.7891  140.0567  158.5296 H   0  0  0  0  0  0  0  0  0  0  0  0
  151.9916  140.3659  157.2773 H   0  0  0  0  0  0  0  0  0  0  0  0
  150.9640  136.1074  155.3444 H   0  0  0  0  0  0  0  0  0  0  0  0
  152.1010  135.9609  156.6491 H   0  0  0  0  0  0  0  0  0  0  0  0
  149.1206  137.1887  157.8337 H   0  0  0  0  0  0  0  0  0  0  0  0
  148.1918  136.1227  156.8248 H   0  0  0  0  0  0  0  0  0  0  0  0
  147.3009  135.1647  158.6997 H   0  0  0  0  0  0  0  0  0  0  0  0
  148.8944  134.5747  159.1459 H   0  0  0  0  0  0  0  0  0  0  0  0
  150.6066  131.1344  157.7448 H   0  0  0  0  0  0  0  0  0  0  0  0
  147.8159  134.0434  152.7230 H   0  0  0  0  0  0  0  0  0  0  0  0
  148.7318  131.4215  152.1796 H   0  0  0  0  0  0  0  0  0  0  0  0
  148.7937  130.4214  153.6139 H   0  0  0  0  0  0  0  0  0  0  0  0
  146.6084  129.9126  153.0468 H   0  0  0  0  0  0  0  0  0  0  0  0
  145.2382  131.2760  154.1737 H   0  0  0  0  0  0  0  0  0  0  0  0
  146.6422  131.2671  150.8761 H   0  0  0  0  0  0  0  0  0  0  0  0
  145.7539  133.4804  152.7712 H   0  0  0  0  0  0  0  0  0  0  0  0
  146.9199  133.6026  151.4487 H   0  0  0  0  0  0  0  0  0  0  0  0
  144.3855  134.3343  150.9548 H   0  0  0  0  0  0  0  0  0  0  0  0
  145.1694  133.2467  149.8004 H   0  0  0  0  0  0  0  0  0  0  0  0
  143.2627  132.4995  152.0424 H   0  0  0  0  0  0  0  0  0  0  0  0
  143.2720  131.8982  150.3824 H   0  0  0  0  0  0  0  0  0  0  0  0
  1  2  1  0  0  0  0
  1 29  1  0  0  0  0
  1 30  1  0  0  0  0
  1 31  1  0  0  0  0
  2  3  1  0  0  0  0
  2 32  1  0  0  0  0
  2 33  1  0  0  0  0
  3  4  1  0  0  0  0
  3  6  1  0  0  0  0
  3 34  1  0  0  0  0
  4  5  1  0  0  0  0
  4 35  1  0  0  0  0
  4 36  1  0  0  0  0
  5 37  1  0  0  0  0
  5 38  1  0  0  0  0
  5 39  1  0  0  0  0
  6  7  1  0  0  0  0
  6 40  1  0  0  0  0
  6 41  1  0  0  0  0
  7  8  1  0  0  0  0
  7 12  1  0  0  0  0
  8  9  1  0  0  0  0
  8 42  1  0  0  0  0
  8 43  1  0  0  0  0
  9 10  1  0  0  0  0
  9 44  1  0  0  0  0
  9 45  1  0  0  0  0
 10 11  3  0  0  0  0
 12 17  1  0  0  0  0
 12 13  2  0  0  0  0
 13 14  1  0  0  0  0
 14 15  2  0  0  0  0
 14 46  1  0  0  0  0
 15 16  1  0  0  0  0
 16 20  1  0  0  0  0
 16 17  2  0  0  0  0
 17 18  1  0  0  0  0
 18 19  2  0  0  0  0
 19 20  1  0  0  0  0
 19 47  1  0  0  0  0
 20 21  1  0  0  0  0
 21 22  1  0  0  0  0
 21 48  1  0  0  0  0
 21 49  1  0  0  0  0
 22 23  1  0  0  0  0
 22 24  1  0  0  0  0
 22 50  1  0  0  0  0
 23 51  1  0  0  0  0
 24 28  1  0  0  0  0
 24 25  1  0  0  0  0
 24 52  1  0  0  0  0
 25 26  1  0  0  0  0
 25 53  1  0  0  0  0
 25 54  1  0  0  0  0
 26 27  1  0  0  0  0
 26 55  1  0  0  0  0
 26 56  1  0  0  0  0
 27 28  1  0  0  0  0
 27 57  1  0  0  0  0
 27 58  1  0  0  0  0
M  END
> <s_m_source_file>
AV-unprocessed.smi

> <i_m_source_file_index>
87

> <i_lp_mmshare_version>
43012

> <i_f3d_flags>
0

> <s_epik_input>
W0NIM11bQ0gyXVtDSF0oW0NIMl1bQ0gzXSlbQ0gyXU4oW0NIMl1bQ0gyXUMjTiljKG5bY0hdbjEpYyhjMTIpbltjSF1uMltDSDJdW0NASF0oW09IXSlbQ0BASF0zW0NIMl1bQ0gyXVtDSDJdTzM=

> <s_epik_cmdline>
J2VwaWtfcHl0aG9uJywgJy1waCcsICc3LjAnLCAnLXRuJywgJzgnLCAnLW1hJywgJzIwMCcsICctbWV0YWxfYmluZGluZycsICctaW1hZScsICc8aW5maWxlLm1hZT4nLCAnLW9tYWUnLCAnPG91dGZpbGUubWFlPic=

> <r_lp_tautomer_probability>
1

> <r_epik_Ionization_Penalty>
0.000348566

> <r_epik_Ionization_Penalty_Charging>
0

> <r_epik_Ionization_Penalty_Neutral>
0.000348566

> <r_epik_State_Penalty>
-0

> <r_epik_Charging_Adjusted_Penalty>
0

> <i_epik_Tot_Q>
0

> <i_epik_Tot_abs_Q>
0

> <r_epik_Metal_State_Penalty>
-0

> <b_epik_Metal_Only>
0

> <s_lp_Force_Field>
OPLS_2005

> <r_lp_Energy>
32.9267

> <b_lp_Chiralities_Consistent>
1

> <s_lp_Variant>
AV-unprocessed.smi:87-2

> <Gold.Version>
5.8.1

> <Gold.Id.Protein>
6NUR|6NUR_protein|mol2

> <Gold.PLP.Fitness>
42.3869

> <Gold.PLP.PLP>
-35.6303

> <Gold.PLP.part.hbond>
-3.0815

> <Gold.PLP.part.metal>
0.0000

> <Gold.PLP.part.buried>
-3.2357

> <Gold.PLP.part.nonpolar>
-29.5789

> <Gold.PLP.part.repulsive>
0.3060

> <Gold.PLP.ligand.clash>
0.0000

> <Gold.PLP.ligand.torsion>
2.1049

> <Gold.PLP.Chemscore.Hbond>
2.7040

> <Gold.PLP.Chemscore.CHOScore>
0.6451

> <Gold.PLP.Chemscore.Metal>
0.0000

> <Gold.Chemscore.Hbonds>
donor molecule, donor type, donor heavy atom, donor atom, acceptor molecule, acceptor atom, score
      P1  H  6896  6908       L1    13  0.82
      P1  H  6931  6943       L1    11  1.00
      P1  H  6934  6947       L1    11  0.24
      L1  C    19    47       P1  7948  0.51

> <Gold.PLP.Chemscore.Internal.Correction>
0.9192

> <Gold.Rescore>
     Score         DG    S(hbond)    S(metal)    S(lipo)     H(rot)  DE(clash)    DE(int)     intcor
     11.08     -13.75       2.57        0.00      76.93       3.64       0.17       2.50       ----

> <Gold.Chemscore.Fitness>
11.0819

> <Gold.Chemscore.DG>
-13.7538

> <Gold.Chemscore.ZeroCoef>
-5.4800

> <Gold.Chemscore.Hbond>
2.5699

> <Gold.Chemscore.Metal>
0.0000

> <Gold.Chemscore.Lipo>
76.9265

> <Gold.Chemscore.Internal_Hbond>
0.0000

> <Gold.Chemscore.DEClash>
0.1699

> <Gold.Chemscore.DEInternal>
2.5019

> <Gold.Chemscore.Rot>
3.6368

> <Gold.Chemscore.Internal.Correction>
   9.000000E+99

> <Gold.Chemscore.Hbonds>
donor molecule, donor type, donor heavy atom, donor atom, acceptor molecule, acceptor atom, score
      P1  H  6896  6908       L1    13  0.44
      P1  H  6931  6943       L1    11  0.95
      P1  H  6934  6947       L1    11  0.23

> <Gold.Chemscore.Hbond.Weighted>
-8.5836

> <Gold.Chemscore.Metal.Weighted>
-0.0000

> <Gold.Chemscore.Lipo.Weighted>
-9.0004

> <Gold.Chemscore.Internal_Hbond.Weighted>
0.0000

> <Gold.Chemscore.DEClash.Weighted>
0.1699

> <Gold.Chemscore.DEInternal.Weighted>
2.5019

> <Gold.Chemscore.Rot.Weighted>
9.3102

> <Gold.Chemscore.Internal.Correction.Weighted>
   9.000000E+99

> <Gold.Protein.RotatedTorsions>
[ 6907 6896 6895 6894 ] final  127.62 input  -60.11 | X-H torsion
[ 7974 7965 7964 7962 ] final -124.59 input  175.53 | X-H torsion
[ 8008 7997 7996 7995 ] final -129.35 input   59.86 | X-H torsion
[ 10167 10162 10161 10158 ] final  174.94 input  -65.29 | X-H torsion
[ 10718 10713 10712 10709 ] final  -61.53 input   66.30 | X-H torsion
[ 10763 10752 10751 10750 ] final -121.74 input  -60.55 | X-H torsion
[ 11005 11000 10999 10996 ] final  119.67 input  -57.11 | X-H torsion

> <Gold.Protein.ActiveResidues>
 VAL166  LYS551  ARG553  GLY616  TRP617  ASP618  TYR619  PRO620  LYS621  CYS622 
 ASP623  PHE694  ASN695  SER759  ASP760  ASP761  ALA762  ILE779  LEU786  VAL792 
 PHE793  MET794  SER795  GLU796  ALA797  LYS798  CYS799  TRP800  GLU811  SER814 

> <Gold.Protein.RotatedAtoms>
  152.3795  133.6527  159.6150 H   0  0  0  0  0  0  0  0  0  0  0  0  # atno 6907 bound_to 6896
  150.7730  133.9137  159.3386 H   0  0  0  0  0  0  0  0  0  0  0  0  # atno 6908 bound_to 6896
  151.6945  135.0942  160.0291 H   0  0  0  0  0  0  0  0  0  0  0  0  # atno 6909 bound_to 6896
  145.0065  140.7867  143.4464 H   0  0  0  0  0  0  0  0  0  0  0  0  # atno 7974 bound_to 7965
  155.2778  140.0443  157.3013 H   0  0  0  0  0  0  0  0  0  0  0  0  # atno 8008 bound_to 7997
  154.5615  140.2347  155.8297 H   0  0  0  0  0  0  0  0  0  0  0  0  # atno 8009 bound_to 7997
  156.2051  140.3015  155.9616 H   0  0  0  0  0  0  0  0  0  0  0  0  # atno 8010 bound_to 7997
  139.5159  144.3089  152.0310 H   0  0  0  0  0  0  0  0  0  0  0  0  # atno 10167 bound_to 10162
  156.0915  130.4199  150.1007 H   0  0  0  0  0  0  0  0  0  0  0  0  # atno 10718 bound_to 10713
  154.8675  135.4157  154.2670 H   0  0  0  0  0  0  0  0  0  0  0  0  # atno 10763 bound_to 10752
  153.3587  135.7002  153.6735 H   0  0  0  0  0  0  0  0  0  0  0  0  # atno 10764 bound_to 10752
  153.5645  135.3603  155.2785 H   0  0  0  0  0  0  0  0  0  0  0  0  # atno 10765 bound_to 10752
  139.9155  134.9630  156.7691 H   0  0  0  0  0  0  0  0  0  0  0  0  # atno 11005 bound_to 11000
  145.2081  139.2218  143.5157 LP  0  0  0  0  0  0  0  0  0  0  0  0  # atno 17320 bound_to 7965
  146.3462  140.1914  142.8589 LP  0  0  0  0  0  0  0  0  0  0  0  0  # atno 17321 bound_to 7965
  140.2534  144.4145  150.6213 LP  0  0  0  0  0  0  0  0  0  0  0  0  # atno 17342 bound_to 10162
  140.6209  143.2176  151.6697 LP  0  0  0  0  0  0  0  0  0  0  0  0  # atno 17343 bound_to 10162
  156.9016  130.9622  151.3575 LP  0  0  0  0  0  0  0  0  0  0  0  0  # atno 17370 bound_to 10713
  157.6066  130.8551  149.8885 LP  0  0  0  0  0  0  0  0  0  0  0  0  # atno 17371 bound_to 10713
  140.6636  133.9623  155.7818 LP  0  0  0  0  0  0  0  0  0  0  0  0  # atno 17394 bound_to 11000
  141.0627  134.0323  157.3637 LP  0  0  0  0  0  0  0  0  0  0  0  0  # atno 17395 bound_to 11000

$$$$
