AV-unprocessed.smi:2971|AV-procd|sdf|11334|dock4
  -GOLD-   2272016243D 1   1.00000     0.00000
 Structure written by MMmdl.
 37 39  0  0  0  0  0  0  0  0  2 V2000
  146.7385  137.9555  151.1725 O   0  0  0  0  0  0  0  0  0  0  0  0
  145.9597  138.1563  152.3357 C   0  0  2  0  0  0  0  0  0  0  0  0
  146.7138  139.1206  153.2648 C   0  0  0  0  0  0  0  0  0  0  0  0
  147.9968  138.5778  153.5477 O   0  0  0  0  0  0  0  0  0  0  0  0
  148.9086  139.3667  154.2172 C   0  0  0  0  0  0  0  0  0  0  0  0
  148.6820  140.7226  154.5670 C   0  0  0  0  0  0  0  0  0  0  0  0
  149.6690  141.4579  155.2518 C   0  0  0  0  0  0  0  0  0  0  0  0
  150.8913  140.8516  155.5947 C   0  0  0  0  0  0  0  0  0  0  0  0
  151.1258  139.5074  155.2515 C   0  0  0  0  0  0  0  0  0  0  0  0
  150.1393  138.7708  154.5675 C   0  0  0  0  0  0  0  0  0  0  0  0
  150.3782  137.4774  154.2436 F   0  0  0  0  0  0  0  0  0  0  0  0
  145.6978  136.7965  153.0135 C   0  0  0  0  0  0  0  0  0  0  0  0
  144.8121  135.9249  152.2277 N   0  0  0  0  0  0  0  0  0  0  0  0
  143.6481  136.2223  151.5889 C   0  0  0  0  0  0  0  0  0  0  0  0
  143.1942  135.0787  151.0055 N   0  3  0  0  0  0  0  0  0  0  0  0
  144.0822  134.0347  151.2725 C   0  0  0  0  0  0  0  0  0  0  0  0
  144.0521  132.6953  150.8964 C   0  0  0  0  0  0  0  0  0  0  0  0
  145.1239  131.8905  151.3349 C   0  0  0  0  0  0  0  0  0  0  0  0
  146.1709  132.4230  152.1149 C   0  0  0  0  0  0  0  0  0  0  0  0
  146.1902  133.7820  152.4921 C   0  0  0  0  0  0  0  0  0  0  0  0
  145.1261  134.5713  152.0560 C   0  0  0  0  0  0  0  0  0  0  0  0
  147.4965  137.4412  151.4065 H   0  0  0  0  0  0  0  0  0  0  0  0
  145.0038  138.5970  152.0491 H   0  0  0  0  0  0  0  0  0  0  0  0
  146.8502  140.0759  152.7554 H   0  0  0  0  0  0  0  0  0  0  0  0
  146.1437  139.3070  154.1768 H   0  0  0  0  0  0  0  0  0  0  0  0
  147.7585  141.2236  154.3208 H   0  0  0  0  0  0  0  0  0  0  0  0
  149.4871  142.4897  155.5139 H   0  0  0  0  0  0  0  0  0  0  0  0
  151.6477  141.4165  156.1197 H   0  0  0  0  0  0  0  0  0  0  0  0
  152.0636  139.0398  155.5130 H   0  0  0  0  0  0  0  0  0  0  0  0
  146.6298  136.2711  153.2243 H   0  0  0  0  0  0  0  0  0  0  0  0
  145.2125  136.9520  153.9778 H   0  0  0  0  0  0  0  0  0  0  0  0
  143.1698  137.1905  151.5531 H   0  0  0  0  0  0  0  0  0  0  0  0
  143.2521  132.2852  150.2975 H   0  0  0  0  0  0  0  0  0  0  0  0
  145.1447  130.8441  151.0663 H   0  0  0  0  0  0  0  0  0  0  0  0
  146.9774  131.7768  152.4297 H   0  0  0  0  0  0  0  0  0  0  0  0
  147.0008  134.1801  153.0842 H   0  0  0  0  0  0  0  0  0  0  0  0
  142.3409  135.0184  150.4649 H   0  0  0  0  0  0  0  0  0  0  0  0
  1  2  1  0  0  0  0
  1 22  1  0  0  0  0
  2  3  1  0  0  0  0
  2 12  1  0  0  0  0
  2 23  1  0  0  0  0
  3  4  1  0  0  0  0
  3 24  1  0  0  0  0
  3 25  1  0  0  0  0
  4  5  1  0  0  0  0
  5 10  1  0  0  0  0
  5  6  2  0  0  0  0
  6  7  1  0  0  0  0
  6 26  1  0  0  0  0
  7  8  2  0  0  0  0
  7 27  1  0  0  0  0
  8  9  1  0  0  0  0
  8 28  1  0  0  0  0
  9 10  2  0  0  0  0
  9 29  1  0  0  0  0
 10 11  1  0  0  0  0
 12 13  1  0  0  0  0
 12 30  1  0  0  0  0
 12 31  1  0  0  0  0
 13 21  1  0  0  0  0
 13 14  1  0  0  0  0
 14 15  2  0  0  0  0
 14 32  1  0  0  0  0
 15 16  1  0  0  0  0
 15 37  1  0  0  0  0
 16 21  2  0  0  0  0
 16 17  1  0  0  0  0
 17 18  2  0  0  0  0
 17 33  1  0  0  0  0
 18 19  1  0  0  0  0
 18 34  1  0  0  0  0
 19 20  2  0  0  0  0
 19 35  1  0  0  0  0
 20 21  1  0  0  0  0
 20 36  1  0  0  0  0
M  CHG  1  15   1
M  END
> <s_m_source_file>
AV-unprocessed.smi

> <i_m_source_file_index>
2971

> <i_lp_mmshare_version>
43012

> <i_f3d_flags>
0

> <s_epik_input>
W2NIXTFbY0hdW2NIXVtjSF1jKGMxMiluKFtjSF1uMilbQ0gyXVtDQEhdKFtPSF0pW0NIMl1PYzNbY0hdW2NIXVtjSF1bY0hdYzNG

> <s_epik_cmdline>
J2VwaWtfcHl0aG9uJywgJy1waCcsICc3LjAnLCAnLXRuJywgJzgnLCAnLW1hJywgJzIwMCcsICctbWV0YWxfYmluZGluZycsICctaW1hZScsICc8aW5maWxlLm1hZT4nLCAnLW9tYWUnLCAnPG91dGZpbGUubWFlPic=

> <r_lp_tautomer_probability>
1

> <r_epik_Ionization_Penalty>
1.38569

> <r_epik_Ionization_Penalty_Charging>
1.38568

> <r_epik_Ionization_Penalty_Neutral>
2.3993e-06

> <r_epik_State_Penalty>
1.46659

> <r_epik_Charging_Adjusted_Penalty>
2.85227

> <i_epik_Tot_Q>
1

> <i_epik_Tot_abs_Q>
1

> <r_epik_Metal_State_Penalty>
5.50731

> <b_epik_Metal_Only>
0

> <s_lp_Force_Field>
OPLS_2005

> <r_lp_Energy>
22.099

> <b_lp_Chiralities_Consistent>
1

> <s_lp_Variant>
AV-unprocessed.smi:2971-3

> <Gold.Version>
5.8.1

> <Gold.Id.Protein>
6NUR|6NUR_protein|mol2

> <Gold.PLP.Fitness>
52.6385

> <Gold.PLP.PLP>
-41.1542

> <Gold.PLP.part.hbond>
-3.3837

> <Gold.PLP.part.metal>
0.0000

> <Gold.PLP.part.buried>
-0.3981

> <Gold.PLP.part.nonpolar>
-39.0300

> <Gold.PLP.part.repulsive>
1.2751

> <Gold.PLP.ligand.clash>
0.0000

> <Gold.PLP.ligand.torsion>
0.2682

> <Gold.PLP.Chemscore.Hbond>
3.0000

> <Gold.PLP.Chemscore.CHOScore>
1.0000

> <Gold.PLP.Chemscore.Metal>
0.0000

> <Gold.Chemscore.Hbonds>
donor molecule, donor type, donor heavy atom, donor atom, acceptor molecule, acceptor atom, score
      L1  H     1    22       P1  7948  1.00
      L1  H    15    37       P1 10186  0.70
      L1  C    14    32       P1 10171  0.72

> <Gold.PLP.Chemscore.Internal.Correction>
0.0206

> <Gold.Rescore>
     Score         DG    S(hbond)    S(metal)    S(lipo)     H(rot)  DE(clash)    DE(int)     intcor
     15.35     -16.31       1.84        0.00      93.91       2.46       0.55       0.41       ----

> <Gold.Chemscore.Fitness>
15.3492

> <Gold.Chemscore.DG>
-16.3084

> <Gold.Chemscore.ZeroCoef>
-5.4800

> <Gold.Chemscore.Hbond>
1.8366

> <Gold.Chemscore.Metal>
0.0000

> <Gold.Chemscore.Lipo>
93.9136

> <Gold.Chemscore.Internal_Hbond>
0.0000

> <Gold.Chemscore.DEClash>
0.5534

> <Gold.Chemscore.DEInternal>
0.4059

> <Gold.Chemscore.Rot>
2.4584

> <Gold.Chemscore.Internal.Correction>
   9.000000E+99

> <Gold.Chemscore.Hbonds>
donor molecule, donor type, donor heavy atom, donor atom, acceptor molecule, acceptor atom, score
      L1  H     1    22       P1  7948  1.00
      L1  H    15    37       P1 10186  0.01

> <Gold.Chemscore.Hbond.Weighted>
-6.1341

> <Gold.Chemscore.Metal.Weighted>
-0.0000

> <Gold.Chemscore.Lipo.Weighted>
-10.9879

> <Gold.Chemscore.Internal_Hbond.Weighted>
0.0000

> <Gold.Chemscore.DEClash.Weighted>
0.5534

> <Gold.Chemscore.DEInternal.Weighted>
0.4059

> <Gold.Chemscore.Rot.Weighted>
6.2936

> <Gold.Chemscore.Internal.Correction.Weighted>
   9.000000E+99

> <Gold.Protein.RotatedTorsions>
[ 6907 6896 6895 6894 ] final   27.48 input  -60.11 | X-H torsion
[ 7974 7965 7964 7962 ] final  -19.09 input  175.53 | X-H torsion
[ 8008 7997 7996 7995 ] final  142.72 input   59.86 | X-H torsion
[ 10167 10162 10161 10158 ] final -109.43 input  -65.29 | X-H torsion
[ 10718 10713 10712 10709 ] final   11.77 input   66.30 | X-H torsion
[ 10763 10752 10751 10750 ] final  -63.17 input  -60.55 | X-H torsion
[ 11005 11000 10999 10996 ] final  174.14 input  -57.11 | X-H torsion

> <Gold.Protein.ActiveResidues>
 VAL166  LYS551  ARG553  GLY616  TRP617  ASP618  TYR619  PRO620  LYS621  CYS622 
 ASP623  PHE694  ASN695  SER759  ASP760  ASP761  ALA762  ILE779  LEU786  VAL792 
 PHE793  MET794  SER795  GLU796  ALA797  LYS798  CYS799  TRP800  GLU811  SER814 

> <Gold.Protein.RotatedAtoms>
  152.0028  134.9919  160.0565 H   0  0  0  0  0  0  0  0  0  0  0  0  # atno 6907 bound_to 6896
  152.1503  133.4513  159.4818 H   0  0  0  0  0  0  0  0  0  0  0  0  # atno 6908 bound_to 6896
  150.6875  134.2115  159.4404 H   0  0  0  0  0  0  0  0  0  0  0  0  # atno 6909 bound_to 6896
  146.1859  140.4014  142.8476 H   0  0  0  0  0  0  0  0  0  0  0  0  # atno 7974 bound_to 7965
  156.2944  140.2281  156.4774 H   0  0  0  0  0  0  0  0  0  0  0  0  # atno 8008 bound_to 7997
  154.7882  140.0456  157.1201 H   0  0  0  0  0  0  0  0  0  0  0  0  # atno 8009 bound_to 7997
  154.9677  140.3062  155.5005 H   0  0  0  0  0  0  0  0  0  0  0  0  # atno 8010 bound_to 7997
  140.1554  143.4164  152.1464 H   0  0  0  0  0  0  0  0  0  0  0  0  # atno 10167 bound_to 10162
  157.0005  130.6077  149.5696 H   0  0  0  0  0  0  0  0  0  0  0  0  # atno 10718 bound_to 10713
  154.3110  135.6215  153.5465 H   0  0  0  0  0  0  0  0  0  0  0  0  # atno 10763 bound_to 10752
  152.9829  135.5701  154.5177 H   0  0  0  0  0  0  0  0  0  0  0  0  # atno 10764 bound_to 10752
  154.4827  135.2864  155.1534 H   0  0  0  0  0  0  0  0  0  0  0  0  # atno 10765 bound_to 10752
  140.3481  134.7218  157.4249 H   0  0  0  0  0  0  0  0  0  0  0  0  # atno 11005 bound_to 11000
  144.8396  140.6836  143.6238 LP  0  0  0  0  0  0  0  0  0  0  0  0  # atno 17320 bound_to 7965
  145.3940  139.1611  143.4213 LP  0  0  0  0  0  0  0  0  0  0  0  0  # atno 17321 bound_to 7965
  139.5406  144.7252  151.4747 LP  0  0  0  0  0  0  0  0  0  0  0  0  # atno 17342 bound_to 10162
  140.6676  143.8363  150.6961 LP  0  0  0  0  0  0  0  0  0  0  0  0  # atno 17343 bound_to 10162
  156.0173  130.5267  150.8172 LP  0  0  0  0  0  0  0  0  0  0  0  0  # atno 17370 bound_to 10713
  157.5394  131.0940  150.9848 LP  0  0  0  0  0  0  0  0  0  0  0  0  # atno 17371 bound_to 10713
  140.0725  134.5842  155.8626 LP  0  0  0  0  0  0  0  0  0  0  0  0  # atno 17394 bound_to 11000
  141.2020  133.6622  156.5980 LP  0  0  0  0  0  0  0  0  0  0  0  0  # atno 17395 bound_to 11000

$$$$
