AV-unprocessed.smi:474|AV-procd|sdf|2665|dock1
  -GOLD-   2262023 83D 1   1.00000     0.00000
 Structure written by MMmdl.
 37 38  0  0  0  0  0  0  0  0  1 V2000
  155.2725  132.8113  161.0867 C   0  0  0  0  0  0  0  0  0  0  0  0
  154.9853  134.2529  160.8415 C   0  0  0  0  0  0  0  0  0  0  0  0
  155.1097  135.3708  161.6171 C   0  0  0  0  0  0  0  0  0  0  0  0
  154.6579  136.4107  160.7531 C   0  0  0  0  0  0  0  0  0  0  0  0
  154.5857  137.7927  161.0659 N   0  0  0  0  0  0  0  0  0  0  0  0
  154.3869  138.8289  160.2339 C   0  0  0  0  0  0  0  0  0  0  0  0
  154.2510  138.7483  159.0131 O   0  0  0  0  0  0  0  0  0  0  0  0
  154.3514  139.9889  160.9055 N   0  0  0  0  0  0  0  0  0  0  0  0
  154.1412  141.3007  160.3040 C   0  0  0  0  0  0  0  0  0  0  0  0
  153.1238  142.1323  161.1046 C   0  0  0  0  0  0  0  0  0  0  0  0
  152.5460  143.2861  160.3021 C   0  0  0  0  0  0  0  0  0  0  0  0
  151.8536  144.2838  160.8853 C   0  0  0  0  0  0  0  0  0  0  0  0
  151.2418  145.4521  160.1322 C   0  0  0  0  0  0  0  0  0  0  0  0
  151.1970  145.2129  158.6137 C   0  0  0  0  0  0  0  0  0  0  0  0
  152.5085  144.5974  158.1110 C   0  0  0  0  0  0  0  0  0  0  0  0
  152.7942  143.2500  158.7982 C   0  0  0  0  0  0  0  0  0  0  0  0
  154.2920  135.9627  159.5662 N   0  0  0  0  0  0  0  0  0  0  0  0
  154.4982  134.5790  159.6141 O   0  0  0  0  0  0  0  0  0  0  0  0
  155.8929  132.6836  161.9740 H   0  0  0  0  0  0  0  0  0  0  0  0
  155.8003  132.3713  160.2404 H   0  0  0  0  0  0  0  0  0  0  0  0
  154.3479  132.2539  161.2369 H   0  0  0  0  0  0  0  0  0  0  0  0
  155.4689  135.4180  162.6338 H   0  0  0  0  0  0  0  0  0  0  0  0
  154.6853  138.0174  162.0448 H   0  0  0  0  0  0  0  0  0  0  0  0
  154.4735  139.9634  161.9074 H   0  0  0  0  0  0  0  0  0  0  0  0
  155.1056  141.8077  160.2745 H   0  0  0  0  0  0  0  0  0  0  0  0
  153.8154  141.1912  159.2682 H   0  0  0  0  0  0  0  0  0  0  0  0
  152.3095  141.4896  161.4426 H   0  0  0  0  0  0  0  0  0  0  0  0
  153.5902  142.5333  162.0052 H   0  0  0  0  0  0  0  0  0  0  0  0
  151.7134  144.2860  161.9566 H   0  0  0  0  0  0  0  0  0  0  0  0
  150.2347  145.6350  160.5082 H   0  0  0  0  0  0  0  0  0  0  0  0
  151.8311  146.3416  160.3561 H   0  0  0  0  0  0  0  0  0  0  0  0
  150.3725  144.5397  158.3749 H   0  0  0  0  0  0  0  0  0  0  0  0
  150.9915  146.1494  158.0944 H   0  0  0  0  0  0  0  0  0  0  0  0
  152.4754  144.4635  157.0295 H   0  0  0  0  0  0  0  0  0  0  0  0
  153.3279  145.2894  158.3111 H   0  0  0  0  0  0  0  0  0  0  0  0
  153.8264  142.9557  158.6050 H   0  0  0  0  0  0  0  0  0  0  0  0
  152.1585  142.4766  158.3664 H   0  0  0  0  0  0  0  0  0  0  0  0
  1  2  1  0  0  0  0
  1 19  1  0  0  0  0
  1 20  1  0  0  0  0
  1 21  1  0  0  0  0
  2 18  1  0  0  0  0
  2  3  2  0  0  0  0
  3  4  1  0  0  0  0
  3 22  1  0  0  0  0
  4  5  1  0  0  0  0
  4 17  2  0  0  0  0
  5  6  1  0  0  0  0
  5 23  1  0  0  0  0
  6  7  2  0  0  0  0
  6  8  1  0  0  0  0
  8  9  1  0  0  0  0
  8 24  1  0  0  0  0
  9 10  1  0  0  0  0
  9 25  1  0  0  0  0
  9 26  1  0  0  0  0
 10 11  1  0  0  0  0
 10 27  1  0  0  0  0
 10 28  1  0  0  0  0
 11 16  1  0  0  0  0
 11 12  2  0  0  0  0
 12 13  1  0  0  0  0
 12 29  1  0  0  0  0
 13 14  1  0  0  0  0
 13 30  1  0  0  0  0
 13 31  1  0  0  0  0
 14 15  1  0  0  0  0
 14 32  1  0  0  0  0
 14 33  1  0  0  0  0
 15 16  1  0  0  0  0
 15 34  1  0  0  0  0
 15 35  1  0  0  0  0
 16 36  1  0  0  0  0
 16 37  1  0  0  0  0
 17 18  1  0  0  0  0
M  END
> <s_m_source_file>
AV-unprocessed.smi

> <i_m_source_file_index>
474

> <i_lp_mmshare_version>
43012

> <i_f3d_flags>
0

> <s_epik_input>
W0NIM11jMVtjSF1jKG5vMSlbTkhdQyg9TylbTkhdW0NIMl1bQ0gyXUMyPVtDSF1bQ0gyXVtDSDJdW0NIMl1bQ0gyXTI=

> <s_epik_cmdline>
J2VwaWtfcHl0aG9uJywgJy1waCcsICc3LjAnLCAnLXRuJywgJzgnLCAnLW1hJywgJzIwMCcsICctbWV0YWxfYmluZGluZycsICctaW1hZScsICc8aW5maWxlLm1hZT4nLCAnLW9tYWUnLCAnPG91dGZpbGUubWFlPic=

> <r_lp_tautomer_probability>
1

> <r_epik_Ionization_Penalty>
2.87157e-05

> <r_epik_Ionization_Penalty_Charging>
0

> <r_epik_Ionization_Penalty_Neutral>
2.87157e-05

> <r_epik_State_Penalty>
-0

> <r_epik_Charging_Adjusted_Penalty>
0

> <i_epik_Tot_Q>
0

> <i_epik_Tot_abs_Q>
0

> <r_epik_Metal_State_Penalty>
0.00793999

> <b_epik_Metal_Only>
0

> <s_lp_Force_Field>
OPLS_2005

> <r_lp_Energy>
6.67712

> <b_lp_Chiralities_Consistent>
1

> <s_lp_Variant>
AV-unprocessed.smi:474-1

> <Gold.Version>
5.8.1

> <Gold.Id.Protein>
6NUR|6NUR_protein|mol2

> <Gold.PLP.Fitness>
43.3550

> <Gold.PLP.PLP>
-40.5352

> <Gold.PLP.part.hbond>
-1.4474

> <Gold.PLP.part.metal>
0.0000

> <Gold.PLP.part.buried>
-4.0416

> <Gold.PLP.part.nonpolar>
-33.2196

> <Gold.PLP.part.repulsive>
0.0208

> <Gold.PLP.ligand.clash>
0.0000

> <Gold.PLP.ligand.torsion>
0.3626

> <Gold.PLP.Chemscore.Hbond>
1.1725

> <Gold.PLP.Chemscore.CHOScore>
0.0000

> <Gold.PLP.Chemscore.Metal>
0.0000

> <Gold.Chemscore.Hbonds>
donor molecule, donor type, donor heavy atom, donor atom, acceptor molecule, acceptor atom, score
      P1  H  6896  6909       L1    18  0.55
      P1  H  7997  8010       L1     7  0.46

> <Gold.PLP.Chemscore.Internal.Correction>
0.0276

> <Gold.Rescore>
     Score         DG    S(hbond)    S(metal)    S(lipo)     H(rot)  DE(clash)    DE(int)     intcor
     15.05     -17.00       0.84        0.00     107.04       1.48       0.25       1.71       ----

> <Gold.Chemscore.Fitness>
15.0450

> <Gold.Chemscore.DG>
-17.0034

> <Gold.Chemscore.ZeroCoef>
-5.4800

> <Gold.Chemscore.Hbond>
0.8362

> <Gold.Chemscore.Metal>
0.0000

> <Gold.Chemscore.Lipo>
107.0397

> <Gold.Chemscore.Internal_Hbond>
0.0000

> <Gold.Chemscore.DEClash>
0.2518

> <Gold.Chemscore.DEInternal>
1.7065

> <Gold.Chemscore.Rot>
1.4818

> <Gold.Chemscore.Internal.Correction>
   9.000000E+99

> <Gold.Chemscore.Hbonds>
donor molecule, donor type, donor heavy atom, donor atom, acceptor molecule, acceptor atom, score
      P1  H  6896  6909       L1    18  0.01
      P1  H  7997  8010       L1     7  0.46

> <Gold.Chemscore.Hbond.Weighted>
-2.7930

> <Gold.Chemscore.Metal.Weighted>
-0.0000

> <Gold.Chemscore.Lipo.Weighted>
-12.5236

> <Gold.Chemscore.Internal_Hbond.Weighted>
0.0000

> <Gold.Chemscore.DEClash.Weighted>
0.2518

> <Gold.Chemscore.DEInternal.Weighted>
1.7065

> <Gold.Chemscore.Rot.Weighted>
3.7933

> <Gold.Chemscore.Internal.Correction.Weighted>
   9.000000E+99

> <Gold.Protein.RotatedTorsions>
[ 6907 6896 6895 6894 ] final -154.95 input  -60.11 | X-H torsion
[ 7974 7965 7964 7962 ] final    0.74 input  175.53 | X-H torsion
[ 8008 7997 7996 7995 ] final    9.94 input   59.86 | X-H torsion
[ 10167 10162 10161 10158 ] final -129.47 input  -65.29 | X-H torsion
[ 10718 10713 10712 10709 ] final  100.47 input   66.30 | X-H torsion
[ 10763 10752 10751 10750 ] final   85.74 input  -60.55 | X-H torsion
[ 11005 11000 10999 10996 ] final  -50.62 input  -57.11 | X-H torsion

> <Gold.Protein.ActiveResidues>
 VAL166  LYS551  ARG553  GLY616  TRP617  ASP618  TYR619  PRO620  LYS621  CYS622 
 ASP623  PHE694  ASN695  SER759  ASP760  ASP761  ALA762  ILE779  LEU786  VAL792 
 PHE793  MET794  SER795  GLU796  ALA797  LYS798  CYS799  TRP800  GLU811  SER814 

> <Gold.Protein.RotatedAtoms>
  151.2652  133.4282  159.2618 H   0  0  0  0  0  0  0  0  0  0  0  0  # atno 6907 bound_to 6896
  151.0494  134.9663  159.8214 H   0  0  0  0  0  0  0  0  0  0  0  0  # atno 6908 bound_to 6896
  152.5380  134.2607  159.8987 H   0  0  0  0  0  0  0  0  0  0  0  0  # atno 6909 bound_to 6896
  146.2436  140.1092  142.8344 H   0  0  0  0  0  0  0  0  0  0  0  0  # atno 7974 bound_to 7965
  154.7867  140.2828  155.6022 H   0  0  0  0  0  0  0  0  0  0  0  0  # atno 8008 bound_to 7997
  156.2958  140.2612  156.2634 H   0  0  0  0  0  0  0  0  0  0  0  0  # atno 8009 bound_to 7997
  154.9719  140.0376  157.2228 H   0  0  0  0  0  0  0  0  0  0  0  0  # atno 8010 bound_to 7997
  139.9395  143.6179  152.2507 H   0  0  0  0  0  0  0  0  0  0  0  0  # atno 10167 bound_to 10162
  157.6853  131.0699  150.5106 H   0  0  0  0  0  0  0  0  0  0  0  0  # atno 10718 bound_to 10713
  153.1503  135.4606  154.9627 H   0  0  0  0  0  0  0  0  0  0  0  0  # atno 10763 bound_to 10752
  154.7819  135.3191  154.7972 H   0  0  0  0  0  0  0  0  0  0  0  0  # atno 10764 bound_to 10752
  153.8479  135.6924  153.4850 H   0  0  0  0  0  0  0  0  0  0  0  0  # atno 10765 bound_to 10752
  141.0826  133.6650  156.3757 H   0  0  0  0  0  0  0  0  0  0  0  0  # atno 11005 bound_to 11000
  145.0501  140.9011  143.5000 LP  0  0  0  0  0  0  0  0  0  0  0  0  # atno 17320 bound_to 7965
  145.1189  139.2707  143.5599 LP  0  0  0  0  0  0  0  0  0  0  0  0  # atno 17321 bound_to 7965
  139.6716  144.7660  151.1772 LP  0  0  0  0  0  0  0  0  0  0  0  0  # atno 17342 bound_to 10162
  140.7615  143.5856  150.8849 LP  0  0  0  0  0  0  0  0  0  0  0  0  # atno 17343 bound_to 10162
  156.5423  130.4211  149.6148 LP  0  0  0  0  0  0  0  0  0  0  0  0  # atno 17370 bound_to 10713
  156.2974  130.7158  151.2021 LP  0  0  0  0  0  0  0  0  0  0  0  0  # atno 17371 bound_to 10713
  140.5435  134.6097  157.5387 LP  0  0  0  0  0  0  0  0  0  0  0  0  # atno 17394 bound_to 11000
  139.9641  134.7403  156.0175 LP  0  0  0  0  0  0  0  0  0  0  0  0  # atno 17395 bound_to 11000

$$$$
