AV-unprocessed.smi:203|AV-procd|sdf|1588|dock10
  -GOLD-   2262019483D 1   1.00000     0.00000
 Structure written by MMmdl.
 57 61  0  0  0  0  0  0  0  0  1 V2000
  150.7733  136.9376  159.4285 O   0  0  0  0  0  0  0  0  0  0  0  0
  151.4638  137.8414  158.9637 C   0  0  0  0  0  0  0  0  0  0  0  0
  150.8990  138.9958  158.1540 C   0  0  0  0  0  0  0  0  0  0  0  0
  152.0938  139.9588  158.0091 C   0  0  1  0  0  0  0  0  0  0  0  0
  151.9281  141.2995  158.7931 C   0  0  1  0  0  0  0  0  0  0  0  0
  153.2474  141.7709  159.4608 C   0  0  0  0  0  0  0  0  0  0  0  0
  153.0626  143.0915  160.2194 C   0  0  0  0  0  0  0  0  0  0  0  0
  152.4965  144.1583  159.2766 C   0  0  0  0  0  0  0  0  0  0  0  0
  151.1868  143.6690  158.6451 C   0  0  0  0  0  0  0  0  0  0  0  0
  151.3697  142.3858  157.9671 N   0  0  0  0  0  0  0  0  0  0  0  0
  150.2730  142.0788  157.2392 C   0  0  0  0  0  0  0  0  0  0  0  0
  150.4684  141.7226  155.9459 N   0  0  0  0  0  0  0  0  0  0  0  0
  149.4236  141.3953  155.1794 C   0  0  0  0  0  0  0  0  0  0  0  0
  148.1287  141.3607  155.5024 N   0  0  0  0  0  0  0  0  0  0  0  0
  147.9309  141.7277  156.8013 C   0  0  0  0  0  0  0  0  0  0  0  0
  148.9384  142.1013  157.7337 C   0  0  0  0  0  0  0  0  0  0  0  0
  148.3605  142.4126  158.9588 N   0  0  0  0  0  0  0  0  0  0  0  0
  147.0826  142.2352  158.7610 C   0  0  0  0  0  0  0  0  0  0  0  0
  146.7372  141.8233  157.4940 N   0  0  0  0  0  0  0  0  0  0  0  0
  145.3966  141.5562  157.0045 C   0  0  0  0  0  0  0  0  0  0  0  0
  145.2759  141.7716  155.4805 C   0  0  1  0  0  0  0  0  0  0  0  0
  144.0934  141.1762  154.9844 O   0  0  0  0  0  0  0  0  0  0  0  0
  145.3042  143.2504  155.0421 C   0  0  2  0  0  0  0  0  0  0  0  0
  144.0015  144.0127  155.3051 C   0  0  0  0  0  0  0  0  0  0  0  0
  143.9569  145.0665  154.2066 C   0  0  0  0  0  0  0  0  0  0  0  0
  145.1479  144.7270  153.3094 C   0  0  0  0  0  0  0  0  0  0  0  0
  145.4663  143.3840  153.6376 O   0  0  0  0  0  0  0  0  0  0  0  0
  153.3268  139.1308  158.4370 C   0  0  0  0  0  0  0  0  0  0  0  0
  152.7847  137.9527  159.0854 N   0  0  0  0  0  0  0  0  0  0  0  0
  150.5774  138.6205  157.1817 H   0  0  0  0  0  0  0  0  0  0  0  0
  150.0344  139.4460  158.6417 H   0  0  0  0  0  0  0  0  0  0  0  0
  152.1832  140.1802  156.9451 H   0  0  0  0  0  0  0  0  0  0  0  0
  151.2153  141.1164  159.5978 H   0  0  0  0  0  0  0  0  0  0  0  0
  153.6224  141.0195  160.1546 H   0  0  0  0  0  0  0  0  0  0  0  0
  154.0256  141.9055  158.7095 H   0  0  0  0  0  0  0  0  0  0  0  0
  152.3853  142.9431  161.0614 H   0  0  0  0  0  0  0  0  0  0  0  0
  154.0142  143.4231  160.6359 H   0  0  0  0  0  0  0  0  0  0  0  0
  152.3259  145.0882  159.8194 H   0  0  0  0  0  0  0  0  0  0  0  0
  153.2220  144.3813  158.4932 H   0  0  0  0  0  0  0  0  0  0  0  0
  150.4229  143.5674  159.4175 H   0  0  0  0  0  0  0  0  0  0  0  0
  150.8246  144.4159  157.9368 H   0  0  0  0  0  0  0  0  0  0  0  0
  149.6586  141.1216  154.1615 H   0  0  0  0  0  0  0  0  0  0  0  0
  146.3510  142.4026  159.5383 H   0  0  0  0  0  0  0  0  0  0  0  0
  145.1286  140.5337  157.2738 H   0  0  0  0  0  0  0  0  0  0  0  0
  144.7060  142.2077  157.5399 H   0  0  0  0  0  0  0  0  0  0  0  0
  146.0992  141.2555  154.9849 H   0  0  0  0  0  0  0  0  0  0  0  0
  144.2410  140.9239  154.0855 H   0  0  0  0  0  0  0  0  0  0  0  0
  146.1188  143.7784  155.5431 H   0  0  0  0  0  0  0  0  0  0  0  0
  143.1358  143.3563  155.2135 H   0  0  0  0  0  0  0  0  0  0  0  0
  143.9806  144.4487  156.3042 H   0  0  0  0  0  0  0  0  0  0  0  0
  143.0198  144.9952  153.6535 H   0  0  0  0  0  0  0  0  0  0  0  0
  144.0365  146.0794  154.6027 H   0  0  0  0  0  0  0  0  0  0  0  0
  144.9215  144.8368  152.2485 H   0  0  0  0  0  0  0  0  0  0  0  0
  146.0008  145.3656  153.5445 H   0  0  0  0  0  0  0  0  0  0  0  0
  153.9066  138.8212  157.5666 H   0  0  0  0  0  0  0  0  0  0  0  0
  153.9988  139.6702  159.1044 H   0  0  0  0  0  0  0  0  0  0  0  0
  153.3636  137.2927  159.5844 H   0  0  0  0  0  0  0  0  0  0  0  0
  1  2  2  0  0  0  0
  2 29  1  0  0  0  0
  2  3  1  0  0  0  0
  3  4  1  0  0  0  0
  3 30  1  0  0  0  0
  3 31  1  0  0  0  0
  4  5  1  0  0  0  0
  4 28  1  0  0  0  0
  4 32  1  0  0  0  0
  5 10  1  0  0  0  0
  5  6  1  0  0  0  0
  5 33  1  0  0  0  0
  6  7  1  0  0  0  0
  6 34  1  0  0  0  0
  6 35  1  0  0  0  0
  7  8  1  0  0  0  0
  7 36  1  0  0  0  0
  7 37  1  0  0  0  0
  8  9  1  0  0  0  0
  8 38  1  0  0  0  0
  8 39  1  0  0  0  0
  9 10  1  0  0  0  0
  9 40  1  0  0  0  0
  9 41  1  0  0  0  0
 10 11  1  0  0  0  0
 11 16  1  0  0  0  0
 11 12  2  0  0  0  0
 12 13  1  0  0  0  0
 13 14  2  0  0  0  0
 13 42  1  0  0  0  0
 14 15  1  0  0  0  0
 15 19  1  0  0  0  0
 15 16  2  0  0  0  0
 16 17  1  0  0  0  0
 17 18  2  0  0  0  0
 18 19  1  0  0  0  0
 18 43  1  0  0  0  0
 19 20  1  0  0  0  0
 20 21  1  0  0  0  0
 20 44  1  0  0  0  0
 20 45  1  0  0  0  0
 21 22  1  0  0  0  0
 21 23  1  0  0  0  0
 21 46  1  0  0  0  0
 22 47  1  0  0  0  0
 23 27  1  0  0  0  0
 23 24  1  0  0  0  0
 23 48  1  0  0  0  0
 24 25  1  0  0  0  0
 24 49  1  0  0  0  0
 24 50  1  0  0  0  0
 25 26  1  0  0  0  0
 25 51  1  0  0  0  0
 25 52  1  0  0  0  0
 26 27  1  0  0  0  0
 26 53  1  0  0  0  0
 26 54  1  0  0  0  0
 28 29  1  0  0  0  0
 28 55  1  0  0  0  0
 28 56  1  0  0  0  0
 29 57  1  0  0  0  0
M  END
> <s_m_source_file>
AV-unprocessed.smi

> <i_m_source_file_index>
203

> <i_lp_mmshare_version>
43012

> <i_f3d_flags>
0

> <s_epik_input>
Tz1DMVtDSDJdW0NASF0oW0NIMl1bTkhdMSlbQ0BASF0yW0NIMl1bQ0gyXVtDSDJdW0NIMl1OMmMobltjSF1uMyljKGMzNCluW2NIXW40W0NIMl1bQ0BIXShbT0hdKVtDQEBIXTVbQ0gyXVtDSDJdW0NIMl1PNQ==

> <s_epik_cmdline>
J2VwaWtfcHl0aG9uJywgJy1waCcsICc3LjAnLCAnLXRuJywgJzgnLCAnLW1hJywgJzIwMCcsICctbWV0YWxfYmluZGluZycsICctaW1hZScsICc8aW5maWxlLm1hZT4nLCAnLW9tYWUnLCAnPG91dGZpbGUubWFlPic=

> <r_lp_tautomer_probability>
1

> <r_epik_Ionization_Penalty>
0.00175146

> <r_epik_Ionization_Penalty_Charging>
0

> <r_epik_Ionization_Penalty_Neutral>
0.00175146

> <r_epik_State_Penalty>
0.00109045

> <r_epik_Charging_Adjusted_Penalty>
0.00109045

> <i_epik_Tot_Q>
0

> <i_epik_Tot_abs_Q>
0

> <r_epik_Metal_State_Penalty>
-0

> <b_epik_Metal_Only>
0

> <s_lp_Force_Field>
OPLS_2005

> <r_lp_Energy>
57.1274

> <b_lp_Chiralities_Consistent>
1

> <s_lp_Variant>
AV-unprocessed.smi:203-7

> <Gold.Version>
5.8.1

> <Gold.Id.Protein>
6NUR|6NUR_protein|mol2

> <Gold.PLP.Fitness>
49.3312

> <Gold.PLP.PLP>
-47.2591

> <Gold.PLP.part.hbond>
-2.8458

> <Gold.PLP.part.metal>
0.0000

> <Gold.PLP.part.buried>
-8.4419

> <Gold.PLP.part.nonpolar>
-37.5431

> <Gold.PLP.part.repulsive>
0.6610

> <Gold.PLP.ligand.clash>
0.0000

> <Gold.PLP.ligand.torsion>
2.0486

> <Gold.PLP.Chemscore.Hbond>
1.9588

> <Gold.PLP.Chemscore.CHOScore>
0.0000

> <Gold.PLP.Chemscore.Metal>
0.0000

> <Gold.Chemscore.Hbonds>
donor molecule, donor type, donor heavy atom, donor atom, acceptor molecule, acceptor atom, score
      L1  H    22    47       P1 10175  1.00
      P1  H  6896  6908       L1     1  1.00

> <Gold.PLP.Chemscore.Internal.Correction>
0.2930

> <Gold.Rescore>
     Score         DG    S(hbond)    S(metal)    S(lipo)     H(rot)  DE(clash)    DE(int)     intcor
     13.09     -16.44       1.87        0.00      99.91       2.72       0.20       3.15       ----

> <Gold.Chemscore.Fitness>
13.0918

> <Gold.Chemscore.DG>
-16.4441

> <Gold.Chemscore.ZeroCoef>
-5.4800

> <Gold.Chemscore.Hbond>
1.8654

> <Gold.Chemscore.Metal>
0.0000

> <Gold.Chemscore.Lipo>
99.9094

> <Gold.Chemscore.Internal_Hbond>
0.0000

> <Gold.Chemscore.DEClash>
0.1972

> <Gold.Chemscore.DEInternal>
3.1550

> <Gold.Chemscore.Rot>
2.7171

> <Gold.Chemscore.Internal.Correction>
   9.000000E+99

> <Gold.Chemscore.Hbonds>
donor molecule, donor type, donor heavy atom, donor atom, acceptor molecule, acceptor atom, score
      L1  H    22    47       P1 10175  0.86
      P1  H  6896  6908       L1     1  0.99

> <Gold.Chemscore.Hbond.Weighted>
-6.2304

> <Gold.Chemscore.Metal.Weighted>
-0.0000

> <Gold.Chemscore.Lipo.Weighted>
-11.6894

> <Gold.Chemscore.Internal_Hbond.Weighted>
0.0000

> <Gold.Chemscore.DEClash.Weighted>
0.1972

> <Gold.Chemscore.DEInternal.Weighted>
3.1550

> <Gold.Chemscore.Rot.Weighted>
6.9557

> <Gold.Chemscore.Internal.Correction.Weighted>
   9.000000E+99

> <Gold.Protein.RotatedTorsions>
[ 6907 6896 6895 6894 ] final -148.07 input  -60.11 | X-H torsion
[ 7974 7965 7964 7962 ] final  -93.66 input  175.53 | X-H torsion
[ 8008 7997 7996 7995 ] final    6.79 input   59.86 | X-H torsion
[ 10167 10162 10161 10158 ] final  114.70 input  -65.29 | X-H torsion
[ 10718 10713 10712 10709 ] final -106.57 input   66.30 | X-H torsion
[ 10763 10752 10751 10750 ] final  -65.17 input  -60.55 | X-H torsion
[ 11005 11000 10999 10996 ] final   16.37 input  -57.11 | X-H torsion

> <Gold.Protein.ActiveResidues>
 VAL166  LYS551  ARG553  GLY616  TRP617  ASP618  TYR619  PRO620  LYS621  CYS622 
 ASP623  PHE694  ASN695  SER759  ASP760  ASP761  ALA762  ILE779  LEU786  VAL792 
 PHE793  MET794  SER795  GLU796  ALA797  LYS798  CYS799  TRP800  GLU811  SER814 

> <Gold.Protein.RotatedAtoms>
  151.1646  133.4823  159.2593 H   0  0  0  0  0  0  0  0  0  0  0  0  # atno 6907 bound_to 6896
  151.1419  135.0183  159.8639 H   0  0  0  0  0  0  0  0  0  0  0  0  # atno 6908 bound_to 6896
  152.5462  134.1538  159.8583 H   0  0  0  0  0  0  0  0  0  0  0  0  # atno 6909 bound_to 6896
  145.3836  140.9520  143.2380 H   0  0  0  0  0  0  0  0  0  0  0  0  # atno 7974 bound_to 7965
  154.7455  140.2757  155.6336 H   0  0  0  0  0  0  0  0  0  0  0  0  # atno 8008 bound_to 7997
  156.2884  140.2688  156.2121 H   0  0  0  0  0  0  0  0  0  0  0  0  # atno 8009 bound_to 7997
  155.0203  140.0371  157.2424 H   0  0  0  0  0  0  0  0  0  0  0  0  # atno 8010 bound_to 7997
  139.6370  144.7120  151.2315 H   0  0  0  0  0  0  0  0  0  0  0  0  # atno 10167 bound_to 10162
  156.0396  130.5619  150.7700 H   0  0  0  0  0  0  0  0  0  0  0  0  # atno 10718 bound_to 10713
  154.3411  135.6156  153.5597 H   0  0  0  0  0  0  0  0  0  0  0  0  # atno 10763 bound_to 10752
  152.9804  135.5770  154.4852 H   0  0  0  0  0  0  0  0  0  0  0  0  # atno 10764 bound_to 10752
  154.4556  135.2854  155.1727 H   0  0  0  0  0  0  0  0  0  0  0  0  # atno 10765 bound_to 10752
  140.4478  134.1255  155.7698 H   0  0  0  0  0  0  0  0  0  0  0  0  # atno 11005 bound_to 11000
  144.8490  139.5352  143.6865 LP  0  0  0  0  0  0  0  0  0  0  0  0  # atno 17320 bound_to 7965
  146.2830  139.6929  142.9215 LP  0  0  0  0  0  0  0  0  0  0  0  0  # atno 17321 bound_to 7965
  140.7470  143.6379  150.8362 LP  0  0  0  0  0  0  0  0  0  0  0  0  # atno 17342 bound_to 10162
  140.0012  143.5742  152.2875 LP  0  0  0  0  0  0  0  0  0  0  0  0  # atno 17343 bound_to 10162
  157.5196  131.0930  151.0095 LP  0  0  0  0  0  0  0  0  0  0  0  0  # atno 17370 bound_to 10713
  157.0429  130.5756  149.5359 LP  0  0  0  0  0  0  0  0  0  0  0  0  # atno 17371 bound_to 10713
  141.1677  133.8670  157.1665 LP  0  0  0  0  0  0  0  0  0  0  0  0  # atno 17394 bound_to 11000
  140.0027  135.0021  157.0224 LP  0  0  0  0  0  0  0  0  0  0  0  0  # atno 17395 bound_to 11000

$$$$
