AV-unprocessed.smi:1473|AV-procd|sdf|5969|dock2
  -GOLD-   22720 6 53D 1   1.00000     0.00000
 Structure written by MMmdl.
 35 36  0  0  0  0  0  0  0  0  2 V2000
  154.2056  137.8944  155.4882 N   0  0  0  0  0  0  0  0  0  0  0  0
  153.3515  137.5110  156.9291 S   0  0  0  0  0  0  0  0  0  0  0  0
  153.6693  136.1295  157.3201 O   0  0  0  0  0  0  0  0  0  0  0  0
  153.4879  138.6268  157.8768 O   0  0  0  0  0  0  0  0  0  0  0  0
  151.7489  137.5356  156.2964 N   0  0  0  0  0  0  0  0  0  0  0  0
  151.4499  138.2713  155.0695 C   0  0  0  0  0  0  0  0  0  0  0  0
  150.8829  139.6507  155.3419 C   0  0  0  0  0  0  0  0  0  0  0  0
  149.8592  140.1751  154.5268 C   0  0  0  0  0  0  0  0  0  0  0  0
  149.3414  141.4497  154.8212 C   0  0  0  0  0  0  0  0  0  0  0  0
  149.8242  142.1447  155.8736 N   0  3  0  0  0  0  0  0  0  0  0  0
  150.8021  141.6924  156.6977 C   0  0  0  0  0  0  0  0  0  0  0  0
  151.2143  142.5228  157.7657 N   0  0  0  0  0  0  0  0  0  0  0  0
  151.9885  141.8883  158.8330 C   0  0  0  0  0  0  0  0  0  0  0  0
  152.0840  142.8111  160.0595 C   0  0  0  0  0  0  0  0  0  0  0  0
  152.6014  144.0773  159.6693 O   0  0  0  0  0  0  0  0  0  0  0  0
  151.7448  144.7289  158.7393 C   0  0  0  0  0  0  0  0  0  0  0  0
  151.6318  143.8884  157.4560 C   0  0  0  0  0  0  0  0  0  0  0  0
  151.3565  140.4139  156.4315 C   0  0  0  0  0  0  0  0  0  0  0  0
  153.6559  137.7083  154.6495 H   0  0  0  0  0  0  0  0  0  0  0  0
  155.1362  137.4778  155.4656 H   0  0  0  0  0  0  0  0  0  0  0  0
  151.2172  136.6765  156.4369 H   0  0  0  0  0  0  0  0  0  0  0  0
  152.3510  138.3423  154.4592 H   0  0  0  0  0  0  0  0  0  0  0  0
  150.7253  137.7000  154.4888 H   0  0  0  0  0  0  0  0  0  0  0  0
  149.4733  139.6086  153.6917 H   0  0  0  0  0  0  0  0  0  0  0  0
  148.5586  141.9307  154.2528 H   0  0  0  0  0  0  0  0  0  0  0  0
  151.5427  140.9445  159.1464 H   0  0  0  0  0  0  0  0  0  0  0  0
  152.9870  141.6621  158.4565 H   0  0  0  0  0  0  0  0  0  0  0  0
  151.1078  142.9333  160.5320 H   0  0  0  0  0  0  0  0  0  0  0  0
  152.7453  142.3728  160.8070 H   0  0  0  0  0  0  0  0  0  0  0  0
  150.7623  144.8915  159.1857 H   0  0  0  0  0  0  0  0  0  0  0  0
  152.1544  145.7123  158.5077 H   0  0  0  0  0  0  0  0  0  0  0  0
  152.5903  143.8626  156.9358 H   0  0  0  0  0  0  0  0  0  0  0  0
  150.9093  144.3686  156.7958 H   0  0  0  0  0  0  0  0  0  0  0  0
  152.1279  139.9904  157.0569 H   0  0  0  0  0  0  0  0  0  0  0  0
  149.4271  143.0659  156.0598 H   0  0  0  0  0  0  0  0  0  0  0  0
  1  2  1  0  0  0  0
  1 19  1  0  0  0  0
  1 20  1  0  0  0  0
  2  3  2  0  0  0  0
  2  4  2  0  0  0  0
  2  5  1  0  0  0  0
  5  6  1  0  0  0  0
  5 21  1  0  0  0  0
  6  7  1  0  0  0  0
  6 22  1  0  0  0  0
  6 23  1  0  0  0  0
  7 18  1  0  0  0  0
  7  8  2  0  0  0  0
  8  9  1  0  0  0  0
  8 24  1  0  0  0  0
  9 10  2  0  0  0  0
  9 25  1  0  0  0  0
 10 11  1  0  0  0  0
 10 35  1  0  0  0  0
 11 12  1  0  0  0  0
 11 18  2  0  0  0  0
 12 17  1  0  0  0  0
 12 13  1  0  0  0  0
 13 14  1  0  0  0  0
 13 26  1  0  0  0  0
 13 27  1  0  0  0  0
 14 15  1  0  0  0  0
 14 28  1  0  0  0  0
 14 29  1  0  0  0  0
 15 16  1  0  0  0  0
 16 17  1  0  0  0  0
 16 30  1  0  0  0  0
 16 31  1  0  0  0  0
 17 32  1  0  0  0  0
 17 33  1  0  0  0  0
 18 34  1  0  0  0  0
M  CHG  1  10   1
M  END
> <s_m_source_file>
AV-unprocessed.smi

> <i_m_source_file_index>
1473

> <i_lp_mmshare_version>
43012

> <i_f3d_flags>
0

> <s_epik_input>
W05IMl1TKD1PKSg9TylbTkhdW0NIMl1jMVtjSF1bY0hdbmMoW2NIXTEpTjJbQ0gyXVtDSDJdT1tDSDJdW0NIMl0y

> <s_epik_cmdline>
J2VwaWtfcHl0aG9uJywgJy1waCcsICc3LjAnLCAnLXRuJywgJzgnLCAnLW1hJywgJzIwMCcsICctbWV0YWxfYmluZGluZycsICctaW1hZScsICc8aW5maWxlLm1hZT4nLCAnLW9tYWUnLCAnPG91dGZpbGUubWFlPic=

> <r_lp_tautomer_probability>
0.999994

> <r_epik_Ionization_Penalty>
2.36475

> <r_epik_Ionization_Penalty_Charging>
1.69468

> <r_epik_Ionization_Penalty_Neutral>
0.670067

> <r_epik_State_Penalty>
1.95548

> <r_epik_Charging_Adjusted_Penalty>
3.65016

> <i_epik_Tot_Q>
1

> <i_epik_Tot_abs_Q>
1

> <r_epik_Metal_State_Penalty>
4.27053

> <b_epik_Metal_Only>
0

> <s_lp_Force_Field>
OPLS_2005

> <r_lp_Energy>
21.3801

> <b_lp_Chiralities_Consistent>
1

> <s_lp_Variant>
AV-unprocessed.smi:1473-4

> <Gold.Version>
5.8.1

> <Gold.Id.Protein>
6NUR|6NUR_protein|mol2

> <Gold.PLP.Fitness>
48.9407

> <Gold.PLP.PLP>
-37.8644

> <Gold.PLP.part.hbond>
-4.9284

> <Gold.PLP.part.metal>
0.0000

> <Gold.PLP.part.buried>
-3.9911

> <Gold.PLP.part.nonpolar>
-30.5234

> <Gold.PLP.part.repulsive>
0.3087

> <Gold.PLP.ligand.clash>
0.0000

> <Gold.PLP.ligand.torsion>
1.3411

> <Gold.PLP.Chemscore.Hbond>
4.1028

> <Gold.PLP.Chemscore.CHOScore>
0.0000

> <Gold.PLP.Chemscore.Metal>
0.0000

> <Gold.Chemscore.Hbonds>
donor molecule, donor type, donor heavy atom, donor atom, acceptor molecule, acceptor atom, score
      L1  H    10    35       P1  8028  2.00
      P1  H  7997  8008       L1     4  1.00
      P1  H 10752 10765       L1     3  0.56

> <Gold.PLP.Chemscore.Internal.Correction>
1.4502

> <Gold.Rescore>
     Score         DG    S(hbond)    S(metal)    S(lipo)     H(rot)  DE(clash)    DE(int)     intcor
     15.67     -17.03       1.98        0.00      84.50       1.93       0.15       1.21       ----

> <Gold.Chemscore.Fitness>
15.6665

> <Gold.Chemscore.DG>
-17.0268

> <Gold.Chemscore.ZeroCoef>
-5.4800

> <Gold.Chemscore.Hbond>
1.9759

> <Gold.Chemscore.Metal>
0.0000

> <Gold.Chemscore.Lipo>
84.4958

> <Gold.Chemscore.Internal_Hbond>
0.0000

> <Gold.Chemscore.DEClash>
0.1517

> <Gold.Chemscore.DEInternal>
1.2086

> <Gold.Chemscore.Rot>
1.9292

> <Gold.Chemscore.Internal.Correction>
   9.000000E+99

> <Gold.Chemscore.Hbonds>
donor molecule, donor type, donor heavy atom, donor atom, acceptor molecule, acceptor atom, score
      L1  H    10    35       P1  8028  0.99
      P1  H  7997  8008       L1     4  0.72
      P1  H 10752 10765       L1     3  0.13

> <Gold.Chemscore.Hbond.Weighted>
-6.5995

> <Gold.Chemscore.Metal.Weighted>
-0.0000

> <Gold.Chemscore.Lipo.Weighted>
-9.8860

> <Gold.Chemscore.Internal_Hbond.Weighted>
0.0000

> <Gold.Chemscore.DEClash.Weighted>
0.1517

> <Gold.Chemscore.DEInternal.Weighted>
1.2086

> <Gold.Chemscore.Rot.Weighted>
4.9386

> <Gold.Chemscore.Internal.Correction.Weighted>
   9.000000E+99

> <Gold.Protein.RotatedTorsions>
[ 6907 6896 6895 6894 ] final  162.13 input  -60.11 | X-H torsion
[ 7974 7965 7964 7962 ] final    8.00 input  175.53 | X-H torsion
[ 8008 7997 7996 7995 ] final  -95.44 input   59.86 | X-H torsion
[ 10167 10162 10161 10158 ] final   36.47 input  -65.29 | X-H torsion
[ 10718 10713 10712 10709 ] final   12.41 input   66.30 | X-H torsion
[ 10763 10752 10751 10750 ] final  -83.50 input  -60.55 | X-H torsion
[ 11005 11000 10999 10996 ] final -122.63 input  -57.11 | X-H torsion

> <Gold.Protein.ActiveResidues>
 VAL166  LYS551  ARG553  GLY616  TRP617  ASP618  TYR619  PRO620  LYS621  CYS622 
 ASP623  PHE694  ASN695  SER759  ASP760  ASP761  ALA762  ILE779  LEU786  VAL792 
 PHE793  MET794  SER795  GLU796  ALA797  LYS798  CYS799  TRP800  GLU811  SER814 

> <Gold.Protein.RotatedAtoms>
  151.9452  133.3649  159.3979 H   0  0  0  0  0  0  0  0  0  0  0  0  # atno 6907 bound_to 6896
  150.6991  134.4398  159.5296 H   0  0  0  0  0  0  0  0  0  0  0  0  # atno 6908 bound_to 6896
  152.2062  134.8543  160.0553 H   0  0  0  0  0  0  0  0  0  0  0  0  # atno 6909 bound_to 6896
  146.2421  139.9998  142.8417 H   0  0  0  0  0  0  0  0  0  0  0  0  # atno 7974 bound_to 7965
  154.7614  140.0480  157.0976 H   0  0  0  0  0  0  0  0  0  0  0  0  # atno 8008 bound_to 7997
  154.9933  140.3116  155.4877 H   0  0  0  0  0  0  0  0  0  0  0  0  # atno 8009 bound_to 7997
  156.2905  140.2214  156.5039 H   0  0  0  0  0  0  0  0  0  0  0  0  # atno 8010 bound_to 7997
  140.4125  144.1573  150.6140 H   0  0  0  0  0  0  0  0  0  0  0  0  # atno 10167 bound_to 10162
  157.0097  130.6112  149.5706 H   0  0  0  0  0  0  0  0  0  0  0  0  # atno 10718 bound_to 10713
  154.5885  135.5554  153.7254 H   0  0  0  0  0  0  0  0  0  0  0  0  # atno 10763 bound_to 10752
  153.0107  135.6337  154.1883 H   0  0  0  0  0  0  0  0  0  0  0  0  # atno 10764 bound_to 10752
  154.1824  135.2886  155.3028 H   0  0  0  0  0  0  0  0  0  0  0  0  # atno 10765 bound_to 10752
  140.9981  134.0443  157.3572 H   0  0  0  0  0  0  0  0  0  0  0  0  # atno 11005 bound_to 11000
  145.1425  140.9579  143.4480 LP  0  0  0  0  0  0  0  0  0  0  0  0  # atno 17320 bound_to 7965
  145.0282  139.3364  143.6038 LP  0  0  0  0  0  0  0  0  0  0  0  0  # atno 17321 bound_to 7965
  140.4622  143.2444  151.9204 LP  0  0  0  0  0  0  0  0  0  0  0  0  # atno 17342 bound_to 10162
  139.4782  144.5455  151.8464 LP  0  0  0  0  0  0  0  0  0  0  0  0  # atno 17343 bound_to 10162
  156.0140  130.5234  150.8079 LP  0  0  0  0  0  0  0  0  0  0  0  0  # atno 17370 bound_to 10713
  157.5329  131.0937  150.9930 LP  0  0  0  0  0  0  0  0  0  0  0  0  # atno 17371 bound_to 10713
  139.9024  135.0169  156.7333 LP  0  0  0  0  0  0  0  0  0  0  0  0  # atno 17394 bound_to 11000
  140.6934  133.9370  155.7980 LP  0  0  0  0  0  0  0  0  0  0  0  0  # atno 17395 bound_to 11000

$$$$
