AV-unprocessed.smi:3341|AV-procd|sdf|12885|dock6
  -GOLD-   2272019293D 1   1.00000     0.00000
 Structure written by MMmdl.
 46 47  0  0  0  0  0  0  0  0  2 V2000
  150.5774  142.0432  157.5418 C   0  0  0  0  0  0  0  0  0  0  0  0
  150.7463  141.6004  156.0836 C   0  0  0  0  0  0  0  0  0  0  0  0
  149.7993  140.5634  155.7235 N   0  0  0  0  0  0  0  0  0  0  0  0
  149.6483  139.9309  154.5053 C   0  0  0  0  0  0  0  0  0  0  0  0
  148.6284  139.0381  154.6769 C   0  0  0  0  0  0  0  0  0  0  0  0
  148.0578  138.1334  153.7460 N   0  0  0  0  0  0  0  0  0  0  0  0
  146.7581  137.9888  153.4412 C   0  0  0  0  0  0  0  0  0  0  0  0
  145.8381  138.6490  153.9242 O   0  0  0  0  0  0  0  0  0  0  0  0
  146.5753  137.0267  152.5260 N   0  0  0  0  0  0  0  0  0  0  0  0
  145.2827  136.6216  151.9858 C   0  0  0  0  0  0  0  0  0  0  0  0
  145.3901  136.2230  150.5011 C   0  0  0  0  0  0  0  0  0  0  0  0
  145.2779  134.7564  150.2984 N   0  3  1  0  0  0  0  0  0  0  0  0
  146.2761  134.0015  151.0993 C   0  0  0  0  0  0  0  0  0  0  0  0
  146.2448  132.5038  150.7571 C   0  0  0  0  0  0  0  0  0  0  0  0
  144.8362  131.9240  150.9464 C   0  0  0  0  0  0  0  0  0  0  0  0
  143.7878  132.7388  150.1669 C   0  0  2  0  0  0  0  0  0  0  0  0
  143.8441  132.4888  148.6494 C   0  0  0  0  0  0  0  0  0  0  0  0
  143.8993  134.2378  150.5150 C   0  0  0  0  0  0  0  0  0  0  0  0
  148.2079  139.1847  156.0243 C   0  0  0  0  0  0  0  0  0  0  0  0
  148.9215  140.1076  156.6512 N   0  0  0  0  0  0  0  0  0  0  0  0
  151.3016  142.8164  157.7984 H   0  0  0  0  0  0  0  0  0  0  0  0
  150.7259  141.2074  158.2263 H   0  0  0  0  0  0  0  0  0  0  0  0
  149.5809  142.4491  157.7188 H   0  0  0  0  0  0  0  0  0  0  0  0
  150.6120  142.4486  155.4108 H   0  0  0  0  0  0  0  0  0  0  0  0
  151.7562  141.2227  155.9195 H   0  0  0  0  0  0  0  0  0  0  0  0
  150.2662  140.1728  153.6532 H   0  0  0  0  0  0  0  0  0  0  0  0
  148.7098  137.5325  153.2633 H   0  0  0  0  0  0  0  0  0  0  0  0
  147.3880  136.5340  152.1846 H   0  0  0  0  0  0  0  0  0  0  0  0
  144.9300  135.7871  152.5901 H   0  0  0  0  0  0  0  0  0  0  0  0
  144.5564  137.4262  152.1139 H   0  0  0  0  0  0  0  0  0  0  0  0
  144.5851  136.7178  149.9559 H   0  0  0  0  0  0  0  0  0  0  0  0
  146.3226  136.5865  150.0668 H   0  0  0  0  0  0  0  0  0  0  0  0
  147.2772  134.3880  150.9042 H   0  0  0  0  0  0  0  0  0  0  0  0
  146.0795  134.1510  152.1623 H   0  0  0  0  0  0  0  0  0  0  0  0
  146.5754  132.3540  149.7288 H   0  0  0  0  0  0  0  0  0  0  0  0
  146.9540  131.9650  151.3862 H   0  0  0  0  0  0  0  0  0  0  0  0
  144.8127  130.8769  150.6427 H   0  0  0  0  0  0  0  0  0  0  0  0
  144.5852  131.9391  152.0080 H   0  0  0  0  0  0  0  0  0  0  0  0
  142.8047  132.3996  150.4962 H   0  0  0  0  0  0  0  0  0  0  0  0
  144.7876  132.8199  148.2156 H   0  0  0  0  0  0  0  0  0  0  0  0
  143.0427  133.0209  148.1359 H   0  0  0  0  0  0  0  0  0  0  0  0
  143.7287  131.4285  148.4227 H   0  0  0  0  0  0  0  0  0  0  0  0
  143.6226  134.3937  151.5590 H   0  0  0  0  0  0  0  0  0  0  0  0
  143.1784  134.7971  149.9197 H   0  0  0  0  0  0  0  0  0  0  0  0
  147.4260  138.6642  156.5573 H   0  0  0  0  0  0  0  0  0  0  0  0
  145.5094  134.5842  149.3304 H   0  0  0  0  0  0  0  0  0  0  0  0
  1  2  1  0  0  0  0
  1 21  1  0  0  0  0
  1 22  1  0  0  0  0
  1 23  1  0  0  0  0
  2  3  1  0  0  0  0
  2 24  1  0  0  0  0
  2 25  1  0  0  0  0
  3 20  1  0  0  0  0
  3  4  1  0  0  0  0
  4  5  2  0  0  0  0
  4 26  1  0  0  0  0
  5  6  1  0  0  0  0
  5 19  1  0  0  0  0
  6  7  1  0  0  0  0
  6 27  1  0  0  0  0
  7  8  2  0  0  0  0
  7  9  1  0  0  0  0
  9 10  1  0  0  0  0
  9 28  1  0  0  0  0
 10 11  1  0  0  0  0
 10 29  1  0  0  0  0
 10 30  1  0  0  0  0
 11 12  1  0  0  0  0
 11 31  1  0  0  0  0
 11 32  1  0  0  0  0
 12 18  1  0  0  0  0
 12 13  1  0  0  0  0
 12 46  1  0  0  0  0
 13 14  1  0  0  0  0
 13 33  1  0  0  0  0
 13 34  1  0  0  0  0
 14 15  1  0  0  0  0
 14 35  1  0  0  0  0
 14 36  1  0  0  0  0
 15 16  1  0  0  0  0
 15 37  1  0  0  0  0
 15 38  1  0  0  0  0
 16 17  1  0  0  0  0
 16 18  1  0  0  0  0
 16 39  1  0  0  0  0
 17 40  1  0  0  0  0
 17 41  1  0  0  0  0
 17 42  1  0  0  0  0
 18 43  1  0  0  0  0
 18 44  1  0  0  0  0
 19 20  2  0  0  0  0
 19 45  1  0  0  0  0
M  CHG  1  12   1
M  END
> <s_m_source_file>
AV-unprocessed.smi

> <i_m_source_file_index>
3341

> <i_lp_mmshare_version>
43012

> <i_f3d_flags>
0

> <s_epik_input>
W0NIM11bQ0gyXW4xW2NIXWMoW2NIXW4xKVtOSF1DKD1PKVtOSF1bQ0gyXVtDSDJdTjJbQ0gyXVtDSDJdW0NIMl1bQ0BASF0oW0NIM10pW0NIMl0y

> <s_epik_cmdline>
J2VwaWtfcHl0aG9uJywgJy1waCcsICc3LjAnLCAnLXRuJywgJzgnLCAnLW1hJywgJzIwMCcsICctbWV0YWxfYmluZGluZycsICctaW1hZScsICc8aW5maWxlLm1hZT4nLCAnLW9tYWUnLCAnPG91dGZpbGUubWFlPic=

> <r_lp_tautomer_probability>
1

> <r_epik_Ionization_Penalty>
0.00203389

> <r_epik_Ionization_Penalty_Charging>
0.00188267

> <r_epik_Ionization_Penalty_Neutral>
0.000151224

> <r_epik_State_Penalty>
0.0012808

> <r_epik_Charging_Adjusted_Penalty>
0.00316346

> <i_epik_Tot_Q>
1

> <i_epik_Tot_abs_Q>
1

> <r_epik_Metal_State_Penalty>
-0

> <b_epik_Metal_Only>
0

> <s_lp_Force_Field>
OPLS_2005

> <r_lp_Energy>
23.1635

> <b_lp_Chiralities_Consistent>
1

> <s_lp_Variant>
AV-unprocessed.smi:3341-3

> <Gold.Version>
5.8.1

> <Gold.Id.Protein>
6NUR|6NUR_protein|mol2

> <Gold.PLP.Fitness>
43.3893

> <Gold.PLP.PLP>
-33.4253

> <Gold.PLP.part.hbond>
-3.0000

> <Gold.PLP.part.metal>
0.0000

> <Gold.PLP.part.buried>
-0.1287

> <Gold.PLP.part.nonpolar>
-30.7568

> <Gold.PLP.part.repulsive>
0.2628

> <Gold.PLP.ligand.clash>
0.0000

> <Gold.PLP.ligand.torsion>
1.0095

> <Gold.PLP.Chemscore.Hbond>
2.9760

> <Gold.PLP.Chemscore.CHOScore>
1.0000

> <Gold.PLP.Chemscore.Metal>
0.0000

> <Gold.Chemscore.Hbonds>
donor molecule, donor type, donor heavy atom, donor atom, acceptor molecule, acceptor atom, score
      L1  H     6    27       P1  7948  0.94
      L1  H     9    28       P1  7948  1.00
      L1  H    12    46       P1  7921  1.00
      L1  C     4    26       P1  7957  0.85

> <Gold.PLP.Chemscore.Internal.Correction>
0.0550

> <Gold.Rescore>
     Score         DG    S(hbond)    S(metal)    S(lipo)     H(rot)  DE(clash)    DE(int)     intcor
     20.06     -22.30       2.88        0.00      96.46       1.59       1.28       0.96       ----

> <Gold.Chemscore.Fitness>
20.0586

> <Gold.Chemscore.DG>
-22.3000

> <Gold.Chemscore.ZeroCoef>
-5.4800

> <Gold.Chemscore.Hbond>
2.8763

> <Gold.Chemscore.Metal>
0.0000

> <Gold.Chemscore.Lipo>
96.4620

> <Gold.Chemscore.Internal_Hbond>
0.0000

> <Gold.Chemscore.DEClash>
1.2774

> <Gold.Chemscore.DEInternal>
0.9640

> <Gold.Chemscore.Rot>
1.5909

> <Gold.Chemscore.Internal.Correction>
   9.000000E+99

> <Gold.Chemscore.Hbonds>
donor molecule, donor type, donor heavy atom, donor atom, acceptor molecule, acceptor atom, score
      L1  H     6    27       P1  7948  0.91
      L1  H     9    28       P1  7948  0.98
      L1  H    12    46       P1  7921  0.97

> <Gold.Chemscore.Hbond.Weighted>
-9.6067

> <Gold.Chemscore.Metal.Weighted>
-0.0000

> <Gold.Chemscore.Lipo.Weighted>
-11.2861

> <Gold.Chemscore.Internal_Hbond.Weighted>
0.0000

> <Gold.Chemscore.DEClash.Weighted>
1.2774

> <Gold.Chemscore.DEInternal.Weighted>
0.9640

> <Gold.Chemscore.Rot.Weighted>
4.0728

> <Gold.Chemscore.Internal.Correction.Weighted>
   9.000000E+99

> <Gold.Protein.RotatedTorsions>
[ 6907 6896 6895 6894 ] final  -27.44 input  -60.11 | X-H torsion
[ 7974 7965 7964 7962 ] final   -6.39 input  175.53 | X-H torsion
[ 8008 7997 7996 7995 ] final  -60.81 input   59.86 | X-H torsion
[ 10167 10162 10161 10158 ] final  104.86 input  -65.29 | X-H torsion
[ 10718 10713 10712 10709 ] final   10.18 input   66.30 | X-H torsion
[ 10763 10752 10751 10750 ] final  154.83 input  -60.55 | X-H torsion
[ 11005 11000 10999 10996 ] final  135.69 input  -57.11 | X-H torsion

> <Gold.Protein.ActiveResidues>
 VAL166  LYS551  ARG553  GLY616  TRP617  ASP618  TYR619  PRO620  LYS621  CYS622 
 ASP623  PHE694  ASN695  SER759  ASP760  ASP761  ALA762  ILE779  LEU786  VAL792 
 PHE793  MET794  SER795  GLU796  ALA797  LYS798  CYS799  TRP800  GLU811  SER814 

> <Gold.Protein.RotatedAtoms>
  151.1469  135.0208  159.8650 H   0  0  0  0  0  0  0  0  0  0  0  0  # atno 6907 bound_to 6896
  152.5453  134.1434  159.8498 H   0  0  0  0  0  0  0  0  0  0  0  0  # atno 6908 bound_to 6896
  151.1515  133.4859  159.2628 H   0  0  0  0  0  0  0  0  0  0  0  0  # atno 6909 bound_to 6896
  146.2332  140.2163  142.8336 H   0  0  0  0  0  0  0  0  0  0  0  0  # atno 7974 bound_to 7965
  154.4417  140.1031  156.6332 H   0  0  0  0  0  0  0  0  0  0  0  0  # atno 8008 bound_to 7997
  155.5582  140.3487  155.4466 H   0  0  0  0  0  0  0  0  0  0  0  0  # atno 8009 bound_to 7997
  156.0479  140.1297  157.0072 H   0  0  0  0  0  0  0  0  0  0  0  0  # atno 8010 bound_to 7997
  139.7141  144.7072  151.0979 H   0  0  0  0  0  0  0  0  0  0  0  0  # atno 10167 bound_to 10162
  156.9772  130.5991  149.5673 H   0  0  0  0  0  0  0  0  0  0  0  0  # atno 10718 bound_to 10713
  154.1587  135.2811  155.3115 H   0  0  0  0  0  0  0  0  0  0  0  0  # atno 10763 bound_to 10752
  154.6163  135.5482  153.7530 H   0  0  0  0  0  0  0  0  0  0  0  0  # atno 10764 bound_to 10752
  153.0199  135.6428  154.1729 H   0  0  0  0  0  0  0  0  0  0  0  0  # atno 10765 bound_to 10752
  139.9996  134.9483  157.0043 H   0  0  0  0  0  0  0  0  0  0  0  0  # atno 11005 bound_to 11000
  144.9667  140.8328  143.5480 LP  0  0  0  0  0  0  0  0  0  0  0  0  # atno 17320 bound_to 7965
  145.2140  139.2191  143.5128 LP  0  0  0  0  0  0  0  0  0  0  0  0  # atno 17321 bound_to 7965
  140.7740  143.5253  150.9487 LP  0  0  0  0  0  0  0  0  0  0  0  0  # atno 17342 bound_to 10162
  139.8939  143.6919  152.3141 LP  0  0  0  0  0  0  0  0  0  0  0  0  # atno 17343 bound_to 10162
  156.0259  130.5353  150.8404 LP  0  0  0  0  0  0  0  0  0  0  0  0  # atno 17370 bound_to 10713
  157.5552  131.0945  150.9639 LP  0  0  0  0  0  0  0  0  0  0  0  0  # atno 17371 bound_to 10713
  140.4752  134.1345  155.7209 LP  0  0  0  0  0  0  0  0  0  0  0  0  # atno 17394 bound_to 11000
  141.1632  133.8754  157.1790 LP  0  0  0  0  0  0  0  0  0  0  0  0  # atno 17395 bound_to 11000

$$$$
