AV-unprocessed.smi:2934|AV-procd|sdf|11254|dock5
  -GOLD-   2272016143D 1   1.00000     0.00000
 Structure written by MMmdl.
 43 44  0  0  0  0  0  0  0  0  1 V2000
  153.7304  140.6341  160.5156 C   0  0  0  0  0  0  0  0  0  0  0  0
  152.9267  141.2892  159.4778 N   0  0  0  0  0  0  0  0  0  0  0  0
  152.5965  140.5704  158.3706 C   0  0  0  0  0  0  0  0  0  0  0  0
  153.1219  139.4908  158.0903 O   0  0  0  0  0  0  0  0  0  0  0  0
  151.6209  141.1028  157.6111 N   0  0  0  0  0  0  0  0  0  0  0  0
  151.0668  140.5048  156.4022 C   0  0  0  0  0  0  0  0  0  0  0  0
  150.1828  141.5053  155.6319 C   0  0  0  0  0  0  0  0  0  0  0  0
  148.7020  141.1142  155.6208 C   0  0  0  0  0  0  0  0  0  0  0  0
  148.3583  139.9470  155.8100 O   0  0  0  0  0  0  0  0  0  0  0  0
  147.8312  142.1096  155.3934 N   0  0  0  0  0  0  0  0  0  0  0  0
  146.3800  141.9596  155.3204 C   0  0  0  0  0  0  0  0  0  0  0  0
  145.8299  142.4583  153.9692 C   0  0  0  0  0  0  0  0  0  0  0  0
  145.1246  143.7812  154.2668 C   0  0  0  0  0  0  0  0  0  0  0  0
  144.5957  143.6073  155.6867 C   0  0  0  0  0  0  0  0  0  0  0  0
  145.6865  142.8088  156.4038 C   0  0  0  0  0  0  0  0  0  0  0  0
  152.5703  142.6582  159.6869 C   0  0  0  0  0  0  0  0  0  0  0  0
  152.6560  143.1556  161.0099 C   0  0  0  0  0  0  0  0  0  0  0  0
  152.3333  144.5021  161.2658 C   0  0  0  0  0  0  0  0  0  0  0  0
  151.9380  145.3201  160.1926 C   0  0  0  0  0  0  0  0  0  0  0  0
  151.8859  144.7499  158.9073 C   0  0  0  0  0  0  0  0  0  0  0  0
  152.1944  143.4597  158.6582 N   0  0  0  0  0  0  0  0  0  0  0  0
  154.0387  141.3299  161.2970 H   0  0  0  0  0  0  0  0  0  0  0  0
  154.6432  140.2079  160.0960 H   0  0  0  0  0  0  0  0  0  0  0  0
  153.1633  139.8316  160.9892 H   0  0  0  0  0  0  0  0  0  0  0  0
  151.2361  141.9920  157.8959 H   0  0  0  0  0  0  0  0  0  0  0  0
  151.9044  140.1852  155.7807 H   0  0  0  0  0  0  0  0  0  0  0  0
  150.5045  139.6040  156.6550 H   0  0  0  0  0  0  0  0  0  0  0  0
  150.2750  142.5020  156.0645 H   0  0  0  0  0  0  0  0  0  0  0  0
  150.5320  141.5779  154.6006 H   0  0  0  0  0  0  0  0  0  0  0  0
  148.2003  143.0388  155.2524 H   0  0  0  0  0  0  0  0  0  0  0  0
  146.1148  140.9094  155.4572 H   0  0  0  0  0  0  0  0  0  0  0  0
  146.5948  142.5670  153.1990 H   0  0  0  0  0  0  0  0  0  0  0  0
  145.1000  141.7400  153.5935 H   0  0  0  0  0  0  0  0  0  0  0  0
  145.8475  144.5978  154.2410 H   0  0  0  0  0  0  0  0  0  0  0  0
  144.3366  144.0090  153.5483 H   0  0  0  0  0  0  0  0  0  0  0  0
  144.3813  144.5583  156.1751 H   0  0  0  0  0  0  0  0  0  0  0  0
  143.6712  143.0285  155.6642 H   0  0  0  0  0  0  0  0  0  0  0  0
  145.2765  142.1950  157.2065 H   0  0  0  0  0  0  0  0  0  0  0  0
  146.3926  143.5040  156.8612 H   0  0  0  0  0  0  0  0  0  0  0  0
  152.9592  142.5135  161.8242 H   0  0  0  0  0  0  0  0  0  0  0  0
  152.3886  144.8996  162.2685 H   0  0  0  0  0  0  0  0  0  0  0  0
  151.6831  146.3578  160.3496 H   0  0  0  0  0  0  0  0  0  0  0  0
  151.5890  145.3446  158.0562 H   0  0  0  0  0  0  0  0  0  0  0  0
  1  2  1  0  0  0  0
  1 22  1  0  0  0  0
  1 23  1  0  0  0  0
  1 24  1  0  0  0  0
  2  3  1  0  0  0  0
  2 16  1  0  0  0  0
  3  4  2  0  0  0  0
  3  5  1  0  0  0  0
  5  6  1  0  0  0  0
  5 25  1  0  0  0  0
  6  7  1  0  0  0  0
  6 26  1  0  0  0  0
  6 27  1  0  0  0  0
  7  8  1  0  0  0  0
  7 28  1  0  0  0  0
  7 29  1  0  0  0  0
  8  9  2  0  0  0  0
  8 10  1  0  0  0  0
 10 11  1  0  0  0  0
 10 30  1  0  0  0  0
 11 15  1  0  0  0  0
 11 12  1  0  0  0  0
 11 31  1  0  0  0  0
 12 13  1  0  0  0  0
 12 32  1  0  0  0  0
 12 33  1  0  0  0  0
 13 14  1  0  0  0  0
 13 34  1  0  0  0  0
 13 35  1  0  0  0  0
 14 15  1  0  0  0  0
 14 36  1  0  0  0  0
 14 37  1  0  0  0  0
 15 38  1  0  0  0  0
 15 39  1  0  0  0  0
 16 21  1  0  0  0  0
 16 17  2  0  0  0  0
 17 18  1  0  0  0  0
 17 40  1  0  0  0  0
 18 19  2  0  0  0  0
 18 41  1  0  0  0  0
 19 20  1  0  0  0  0
 19 42  1  0  0  0  0
 20 21  2  0  0  0  0
 20 43  1  0  0  0  0
M  END
> <s_m_source_file>
AV-unprocessed.smi

> <i_m_source_file_index>
2934

> <i_lp_mmshare_version>
43012

> <i_f3d_flags>
0

> <s_epik_input>
bjFbY0hdW2NIXVtjSF1bY0hdYzFOKFtDSDNdKUMoPU8pW05IXVtDSDJdW0NIMl1DKD1PKVtOSF1bQ0hdMltDSDJdW0NIMl1bQ0gyXVtDSDJdMg==

> <s_epik_cmdline>
J2VwaWtfcHl0aG9uJywgJy1waCcsICc3LjAnLCAnLXRuJywgJzgnLCAnLW1hJywgJzIwMCcsICctbWV0YWxfYmluZGluZycsICctaW1hZScsICc8aW5maWxlLm1hZT4nLCAnLW9tYWUnLCAnPG91dGZpbGUubWFlPic=

> <r_epik_Ionization_Penalty>
0.404648

> <r_epik_Ionization_Penalty_Charging>
0

> <r_epik_Ionization_Penalty_Neutral>
0.404648

> <r_epik_State_Penalty>
0.40421

> <r_epik_Charging_Adjusted_Penalty>
0.40421

> <i_epik_Tot_Q>
0

> <i_epik_Tot_abs_Q>
0

> <r_epik_Metal_State_Penalty>
0.238116

> <b_epik_Metal_Only>
0

> <s_lp_Force_Field>
OPLS_2005

> <r_lp_Energy>
32.7735

> <b_lp_Chiralities_Consistent>
1

> <s_lp_Variant>
AV-unprocessed.smi:2934-1

> <Gold.Version>
5.8.1

> <Gold.Id.Protein>
6NUR|6NUR_protein|mol2

> <Gold.PLP.Fitness>
52.8519

> <Gold.PLP.PLP>
-48.6167

> <Gold.PLP.part.hbond>
-2.0000

> <Gold.PLP.part.metal>
0.0000

> <Gold.PLP.part.buried>
-7.1402

> <Gold.PLP.part.nonpolar>
-38.7707

> <Gold.PLP.part.repulsive>
0.2704

> <Gold.PLP.ligand.clash>
0.0000

> <Gold.PLP.ligand.torsion>
0.9910

> <Gold.PLP.Chemscore.Hbond>
2.0000

> <Gold.PLP.Chemscore.CHOScore>
0.0000

> <Gold.PLP.Chemscore.Metal>
0.0000

> <Gold.Chemscore.Hbonds>
donor molecule, donor type, donor heavy atom, donor atom, acceptor molecule, acceptor atom, score
      L1  H    10    30       P1  8028  1.00
      P1  H  7997  8008       L1     4  1.00

> <Gold.PLP.Chemscore.Internal.Correction>
0.2171

> <Gold.Rescore>
     Score         DG    S(hbond)    S(metal)    S(lipo)     H(rot)  DE(clash)    DE(int)     intcor
     15.48     -18.18       1.85        0.00      93.39       1.72       0.09       2.61       ----

> <Gold.Chemscore.Fitness>
15.4841

> <Gold.Chemscore.DG>
-18.1848

> <Gold.Chemscore.ZeroCoef>
-5.4800

> <Gold.Chemscore.Hbond>
1.8522

> <Gold.Chemscore.Metal>
0.0000

> <Gold.Chemscore.Lipo>
93.3909

> <Gold.Chemscore.Internal_Hbond>
0.0000

> <Gold.Chemscore.DEClash>
0.0899

> <Gold.Chemscore.DEInternal>
2.6107

> <Gold.Chemscore.Rot>
1.7220

> <Gold.Chemscore.Internal.Correction>
   9.000000E+99

> <Gold.Chemscore.Hbonds>
donor molecule, donor type, donor heavy atom, donor atom, acceptor molecule, acceptor atom, score
      L1  H    10    30       P1  8028  0.96
      P1  H  7997  8008       L1     4  0.30

> <Gold.Chemscore.Hbond.Weighted>
-6.1863

> <Gold.Chemscore.Metal.Weighted>
-0.0000

> <Gold.Chemscore.Lipo.Weighted>
-10.9267

> <Gold.Chemscore.Internal_Hbond.Weighted>
0.0000

> <Gold.Chemscore.DEClash.Weighted>
0.0899

> <Gold.Chemscore.DEInternal.Weighted>
2.6107

> <Gold.Chemscore.Rot.Weighted>
4.4083

> <Gold.Chemscore.Internal.Correction.Weighted>
   9.000000E+99

> <Gold.Protein.RotatedTorsions>
[ 6907 6896 6895 6894 ] final   88.49 input  -60.11 | X-H torsion
[ 7974 7965 7964 7962 ] final  -15.14 input  175.53 | X-H torsion
[ 8008 7997 7996 7995 ] final  -75.44 input   59.86 | X-H torsion
[ 10167 10162 10161 10158 ] final -111.61 input  -65.29 | X-H torsion
[ 10718 10713 10712 10709 ] final  -78.26 input   66.30 | X-H torsion
[ 10763 10752 10751 10750 ] final  -31.16 input  -60.55 | X-H torsion
[ 11005 11000 10999 10996 ] final    3.98 input  -57.11 | X-H torsion

> <Gold.Protein.ActiveResidues>
 VAL166  LYS551  ARG553  GLY616  TRP617  ASP618  TYR619  PRO620  LYS621  CYS622 
 ASP623  PHE694  ASN695  SER759  ASP760  ASP761  ALA762  ILE779  LEU786  VAL792 
 PHE793  MET794  SER795  GLU796  ALA797  LYS798  CYS799  TRP800  GLU811  SER814 

> <Gold.Protein.RotatedAtoms>
  152.5425  134.2113  159.8750 H   0  0  0  0  0  0  0  0  0  0  0  0  # atno 6907 bound_to 6896
  151.2096  133.4557  159.2605 H   0  0  0  0  0  0  0  0  0  0  0  0  # atno 6908 bound_to 6896
  151.0910  134.9928  159.8458 H   0  0  0  0  0  0  0  0  0  0  0  0  # atno 6909 bound_to 6896
  146.2044  140.3450  142.8412 H   0  0  0  0  0  0  0  0  0  0  0  0  # atno 7974 bound_to 7965
  154.5417  140.0744  156.8521 H   0  0  0  0  0  0  0  0  0  0  0  0  # atno 8008 bound_to 7997
  155.3168  140.3393  155.4224 H   0  0  0  0  0  0  0  0  0  0  0  0  # atno 8009 bound_to 7997
  156.1880  140.1676  156.8133 H   0  0  0  0  0  0  0  0  0  0  0  0  # atno 8010 bound_to 7997
  140.1318  143.4354  152.1622 H   0  0  0  0  0  0  0  0  0  0  0  0  # atno 10167 bound_to 10162
  156.0122  130.4513  150.3470 H   0  0  0  0  0  0  0  0  0  0  0  0  # atno 10718 bound_to 10713
  153.7929  135.6896  153.4868 H   0  0  0  0  0  0  0  0  0  0  0  0  # atno 10763 bound_to 10752
  153.1738  135.4532  154.9936 H   0  0  0  0  0  0  0  0  0  0  0  0  # atno 10764 bound_to 10752
  154.8037  135.3348  154.7423 H   0  0  0  0  0  0  0  0  0  0  0  0  # atno 10765 bound_to 10752
  140.5870  133.9959  155.8072 H   0  0  0  0  0  0  0  0  0  0  0  0  # atno 11005 bound_to 11000
  144.8758  140.7335  143.6017 LP  0  0  0  0  0  0  0  0  0  0  0  0  # atno 17320 bound_to 7965
  145.3370  139.1743  143.4506 LP  0  0  0  0  0  0  0  0  0  0  0  0  # atno 17321 bound_to 7965
  139.5516  144.7342  151.4418 LP  0  0  0  0  0  0  0  0  0  0  0  0  # atno 17342 bound_to 10162
  140.6813  143.8076  150.7125 LP  0  0  0  0  0  0  0  0  0  0  0  0  # atno 17343 bound_to 10162
  157.1564  131.0334  151.2861 LP  0  0  0  0  0  0  0  0  0  0  0  0  # atno 17370 bound_to 10713
  157.4349  130.7511  149.7020 LP  0  0  0  0  0  0  0  0  0  0  0  0  # atno 17371 bound_to 10713
  141.0959  133.9844  157.3160 LP  0  0  0  0  0  0  0  0  0  0  0  0  # atno 17394 bound_to 11000
  139.9291  135.0200  156.8338 LP  0  0  0  0  0  0  0  0  0  0  0  0  # atno 17395 bound_to 11000

$$$$
