AV-unprocessed.smi:1258|AV-procd|sdf|5290|dock2
  -GOLD-   22720 4413D 1   1.00000     0.00000
 Structure written by MMmdl.
 33 34  0  0  0  0  0  0  0  0  1 V2000
  154.3527  141.0989  161.9086 C   0  0  0  0  0  0  0  0  0  0  0  0
  153.2820  141.8818  161.1352 C   0  0  1  0  0  0  0  0  0  0  0  0
  152.9619  143.2227  161.8230 C   0  0  0  0  0  0  0  0  0  0  0  0
  151.8965  144.0147  161.0499 C   0  0  0  0  0  0  0  0  0  0  0  0
  152.3240  144.2453  159.5911 C   0  0  0  0  0  0  0  0  0  0  0  0
  152.6626  142.9231  158.8689 C   0  0  2  0  0  0  0  0  0  0  0  0
  151.4667  142.1167  158.6285 N   0  0  0  0  0  0  0  0  0  0  0  0
  151.4551  140.8577  158.1638 C   0  0  0  0  0  0  0  0  0  0  0  0
  152.4770  140.2346  157.8738 O   0  0  0  0  0  0  0  0  0  0  0  0
  150.0774  140.2111  157.9926 C   0  0  0  0  0  0  0  0  0  0  0  0
  149.9650  138.9760  158.7469 N   0  0  0  0  0  0  0  0  0  0  0  0
  150.8688  138.0358  159.0305 C   0  0  0  0  0  0  0  0  0  0  0  0
  150.3481  137.0617  159.7613 N   0  0  0  0  0  0  0  0  0  0  0  0
  149.0314  137.4594  159.9233 N   0  0  0  0  0  0  0  0  0  0  0  0
  148.7982  138.5949  159.3240 N   0  0  0  0  0  0  0  0  0  0  0  0
  153.7025  142.1112  159.6675 C   0  0  0  0  0  0  0  0  0  0  0  0
  155.2926  141.6500  161.9533 H   0  0  0  0  0  0  0  0  0  0  0  0
  154.5532  140.1365  161.4372 H   0  0  0  0  0  0  0  0  0  0  0  0
  154.0329  140.9033  162.9325 H   0  0  0  0  0  0  0  0  0  0  0  0
  152.3736  141.2778  161.1382 H   0  0  0  0  0  0  0  0  0  0  0  0
  152.6164  143.0466  162.8424 H   0  0  0  0  0  0  0  0  0  0  0  0
  153.8698  143.8217  161.9048 H   0  0  0  0  0  0  0  0  0  0  0  0
  150.9475  143.4779  161.0769 H   0  0  0  0  0  0  0  0  0  0  0  0
  151.7208  144.9733  161.5391 H   0  0  0  0  0  0  0  0  0  0  0  0
  151.5461  144.7903  159.0553 H   0  0  0  0  0  0  0  0  0  0  0  0
  153.2031  144.8906  159.5784 H   0  0  0  0  0  0  0  0  0  0  0  0
  153.1030  143.1611  157.8988 H   0  0  0  0  0  0  0  0  0  0  0  0
  150.5794  142.5512  158.8375 H   0  0  0  0  0  0  0  0  0  0  0  0
  149.2868  140.8934  158.3102 H   0  0  0  0  0  0  0  0  0  0  0  0
  149.9120  139.9933  156.9371 H   0  0  0  0  0  0  0  0  0  0  0  0
  151.8988  138.0666  158.7067 H   0  0  0  0  0  0  0  0  0  0  0  0
  154.6542  142.6443  159.6483 H   0  0  0  0  0  0  0  0  0  0  0  0
  153.8844  141.1550  159.1751 H   0  0  0  0  0  0  0  0  0  0  0  0
  1  2  1  0  0  0  0
  1 17  1  0  0  0  0
  1 18  1  0  0  0  0
  1 19  1  0  0  0  0
  2 16  1  0  0  0  0
  2  3  1  0  0  0  0
  2 20  1  0  0  0  0
  3  4  1  0  0  0  0
  3 21  1  0  0  0  0
  3 22  1  0  0  0  0
  4  5  1  0  0  0  0
  4 23  1  0  0  0  0
  4 24  1  0  0  0  0
  5  6  1  0  0  0  0
  5 25  1  0  0  0  0
  5 26  1  0  0  0  0
  6  7  1  0  0  0  0
  6 16  1  0  0  0  0
  6 27  1  0  0  0  0
  7  8  1  0  0  0  0
  7 28  1  0  0  0  0
  8  9  2  0  0  0  0
  8 10  1  0  0  0  0
 10 11  1  0  0  0  0
 10 29  1  0  0  0  0
 10 30  1  0  0  0  0
 11 15  1  0  0  0  0
 11 12  1  0  0  0  0
 12 13  2  0  0  0  0
 12 31  1  0  0  0  0
 13 14  1  0  0  0  0
 14 15  2  0  0  0  0
 16 32  1  0  0  0  0
 16 33  1  0  0  0  0
M  END
> <s_m_source_file>
AV-unprocessed.smi

> <i_m_source_file_index>
1258

> <i_lp_mmshare_version>
43012

> <i_f3d_flags>
0

> <s_epik_input>
W0NIM11bQ0BASF0xW0NIMl1bQ0gyXVtDSDJdW0NASF0oW0NIMl0xKVtOSF1DKD1PKVtDSDJdbjJbY0hdbm5uMg==

> <s_epik_cmdline>
J2VwaWtfcHl0aG9uJywgJy1waCcsICc3LjAnLCAnLXRuJywgJzgnLCAnLW1hJywgJzIwMCcsICctbWV0YWxfYmluZGluZycsICctaW1hZScsICc8aW5maWxlLm1hZT4nLCAnLW9tYWUnLCAnPG91dGZpbGUubWFlPic=

> <r_lp_tautomer_probability>
1

> <r_epik_Ionization_Penalty>
5.03816e-07

> <r_epik_Ionization_Penalty_Charging>
0

> <r_epik_Ionization_Penalty_Neutral>
5.03816e-07

> <r_epik_State_Penalty>
-0

> <r_epik_Charging_Adjusted_Penalty>
0

> <i_epik_Tot_Q>
0

> <i_epik_Tot_abs_Q>
0

> <r_epik_Metal_State_Penalty>
-0

> <b_epik_Metal_Only>
0

> <s_lp_Force_Field>
OPLS_2005

> <r_lp_Energy>
10.3289

> <b_lp_Chiralities_Consistent>
1

> <s_lp_Variant>
AV-unprocessed.smi:1258-4

> <Gold.Version>
5.8.1

> <Gold.Id.Protein>
6NUR|6NUR_protein|mol2

> <Gold.PLP.Fitness>
41.1344

> <Gold.PLP.PLP>
-36.0684

> <Gold.PLP.part.hbond>
-4.2758

> <Gold.PLP.part.metal>
0.0000

> <Gold.PLP.part.buried>
-2.7755

> <Gold.PLP.part.nonpolar>
-27.8187

> <Gold.PLP.part.repulsive>
0.0768

> <Gold.PLP.ligand.clash>
0.0000

> <Gold.PLP.ligand.torsion>
0.4598

> <Gold.PLP.Chemscore.Hbond>
1.9920

> <Gold.PLP.Chemscore.CHOScore>
0.0000

> <Gold.PLP.Chemscore.Metal>
0.0000

> <Gold.Chemscore.Hbonds>
donor molecule, donor type, donor heavy atom, donor atom, acceptor molecule, acceptor atom, score
      P1  H  6896  6909       L1    13  0.75
      P1  H  6931  6943       L1    14  0.20
      P1  H  7997  8009       L1     9  0.48

> <Gold.PLP.Chemscore.Internal.Correction>
0.0097

> <Gold.Rescore>
     Score         DG    S(hbond)    S(metal)    S(lipo)     H(rot)  DE(clash)    DE(int)     intcor
     15.05     -16.60       1.95        0.00      81.39       1.92       0.02       1.53       ----

> <Gold.Chemscore.Fitness>
15.0456

> <Gold.Chemscore.DG>
-16.6028

> <Gold.Chemscore.ZeroCoef>
-5.4800

> <Gold.Chemscore.Hbond>
1.9482

> <Gold.Chemscore.Metal>
0.0000

> <Gold.Chemscore.Lipo>
81.3926

> <Gold.Chemscore.Internal_Hbond>
0.0000

> <Gold.Chemscore.DEClash>
0.0234

> <Gold.Chemscore.DEInternal>
1.5338

> <Gold.Chemscore.Rot>
1.9169

> <Gold.Chemscore.Internal.Correction>
   9.000000E+99

> <Gold.Chemscore.Hbonds>
donor molecule, donor type, donor heavy atom, donor atom, acceptor molecule, acceptor atom, score
      P1  H  6896  6909       L1    13  0.75
      P1  H  6931  6943       L1    14  0.01
      P1  H  7997  8009       L1     9  0.47

> <Gold.Chemscore.Hbond.Weighted>
-6.5071

> <Gold.Chemscore.Metal.Weighted>
-0.0000

> <Gold.Chemscore.Lipo.Weighted>
-9.5229

> <Gold.Chemscore.Internal_Hbond.Weighted>
0.0000

> <Gold.Chemscore.DEClash.Weighted>
0.0234

> <Gold.Chemscore.DEInternal.Weighted>
1.5338

> <Gold.Chemscore.Rot.Weighted>
4.9073

> <Gold.Chemscore.Internal.Correction.Weighted>
   9.000000E+99

> <Gold.Protein.RotatedTorsions>
[ 6907 6896 6895 6894 ] final   88.19 input  -60.11 | X-H torsion
[ 7974 7965 7964 7962 ] final   18.74 input  175.53 | X-H torsion
[ 8008 7997 7996 7995 ] final  168.00 input   59.86 | X-H torsion
[ 10167 10162 10161 10158 ] final   -7.63 input  -65.29 | X-H torsion
[ 10718 10713 10712 10709 ] final   58.62 input   66.30 | X-H torsion
[ 10763 10752 10751 10750 ] final  -53.63 input  -60.55 | X-H torsion
[ 11005 11000 10999 10996 ] final  -76.65 input  -57.11 | X-H torsion

> <Gold.Protein.ActiveResidues>
 VAL166  LYS551  ARG553  GLY616  TRP617  ASP618  TYR619  PRO620  LYS621  CYS622 
 ASP623  PHE694  ASN695  SER759  ASP760  ASP761  ALA762  ILE779  LEU786  VAL792 
 PHE793  MET794  SER795  GLU796  ALA797  LYS798  CYS799  TRP800  GLU811  SER814 

> <Gold.Protein.RotatedAtoms>
  152.5422  134.2160  159.8768 H   0  0  0  0  0  0  0  0  0  0  0  0  # atno 6907 bound_to 6896
  151.2140  133.4533  159.2606 H   0  0  0  0  0  0  0  0  0  0  0  0  # atno 6908 bound_to 6896
  151.0869  134.9905  159.8439 H   0  0  0  0  0  0  0  0  0  0  0  0  # atno 6909 bound_to 6896
  146.2174  139.8413  142.8640 H   0  0  0  0  0  0  0  0  0  0  0  0  # atno 7974 bound_to 7965
  156.1585  140.1602  156.8652 H   0  0  0  0  0  0  0  0  0  0  0  0  # atno 8008 bound_to 7997
  154.5138  140.0794  156.8077 H   0  0  0  0  0  0  0  0  0  0  0  0  # atno 8009 bound_to 7997
  155.3755  140.3402  155.4247 H   0  0  0  0  0  0  0  0  0  0  0  0  # atno 8010 bound_to 7997
  140.7034  143.6059  150.8751 H   0  0  0  0  0  0  0  0  0  0  0  0  # atno 10167 bound_to 10162
  157.5611  130.8836  149.9112 H   0  0  0  0  0  0  0  0  0  0  0  0  # atno 10718 bound_to 10713
  154.1619  135.6473  153.4988 H   0  0  0  0  0  0  0  0  0  0  0  0  # atno 10763 bound_to 10752
  153.0108  135.5362  154.6702 H   0  0  0  0  0  0  0  0  0  0  0  0  # atno 10764 bound_to 10752
  154.6018  135.2944  155.0499 H   0  0  0  0  0  0  0  0  0  0  0  0  # atno 10765 bound_to 10752
  141.1655  133.6992  156.7701 H   0  0  0  0  0  0  0  0  0  0  0  0  # atno 11005 bound_to 11000
  145.2896  141.0163  143.3670 LP  0  0  0  0  0  0  0  0  0  0  0  0  # atno 17320 bound_to 7965
  144.9087  139.4556  143.6597 LP  0  0  0  0  0  0  0  0  0  0  0  0  # atno 17321 bound_to 7965
  139.9783  143.5979  152.2951 LP  0  0  0  0  0  0  0  0  0  0  0  0  # atno 17342 bound_to 10162
  139.6591  144.7662  151.1997 LP  0  0  0  0  0  0  0  0  0  0  0  0  # atno 17343 bound_to 10162
  156.0663  130.3691  150.0871 LP  0  0  0  0  0  0  0  0  0  0  0  0  # atno 17370 bound_to 10713
  156.9034  130.9628  151.3573 LP  0  0  0  0  0  0  0  0  0  0  0  0  # atno 17371 bound_to 10713
  140.2470  134.8569  157.3630 LP  0  0  0  0  0  0  0  0  0  0  0  0  # atno 17394 bound_to 11000
  140.1739  134.4574  155.7814 LP  0  0  0  0  0  0  0  0  0  0  0  0  # atno 17395 bound_to 11000

$$$$
