AV-unprocessed.smi:2780|AV-procd|sdf|10716|dock9
  -GOLD-   2272015153D 1   1.00000     0.00000
 Structure written by MMmdl.
 47 49  0  0  0  0  0  0  0  0  2 V2000
  145.9917  135.9671  152.6129 C   0  0  0  0  0  0  0  0  0  0  0  0
  145.2940  134.7379  152.0554 C   0  0  0  0  0  0  0  0  0  0  0  0
  143.9550  134.6031  152.1246 C   0  0  0  0  0  0  0  0  0  0  0  0
  143.1746  133.4319  151.5574 C   0  0  0  0  0  0  0  0  0  0  0  0
  144.0795  132.2852  151.0797 C   0  0  0  0  0  0  0  0  0  0  0  0
  145.3555  132.8174  150.4028 C   0  0  2  0  0  0  0  0  0  0  0  0
  146.1364  131.6945  149.6990 C   0  0  0  0  0  0  0  0  0  0  0  0
  146.1928  133.6974  151.3812 C   0  0  2  0  0  0  0  0  0  0  0  0
  146.9799  132.9014  152.4537 C   0  0  0  0  0  0  0  0  0  0  0  0
  148.2570  133.5508  152.8114 N   0  3  0  0  0  0  0  0  0  0  0  0
  148.6560  133.3624  154.2188 C   0  0  0  0  0  0  0  0  0  0  0  0
  149.4010  132.0338  154.4041 C   0  0  0  0  0  0  0  0  0  0  0  0
  150.1387  132.0038  155.6536 N   0  0  0  0  0  0  0  0  0  0  0  0
  150.1833  132.9352  156.6185 C   0  0  0  0  0  0  0  0  0  0  0  0
  150.9358  132.6202  157.6716 N   0  0  0  0  0  0  0  0  0  0  0  0
  151.4360  131.3671  157.3789 N   0  0  0  0  0  0  0  0  0  0  0  0
  150.9486  131.0571  156.1720 C   0  0  0  0  0  0  0  0  0  0  0  0
  151.2181  129.7586  155.4793 C   0  0  0  0  0  0  0  0  0  0  0  0
  151.8907  128.6129  156.2030 C   0  0  0  0  0  0  0  0  0  0  0  0
  152.6254  129.3430  155.1097 C   0  0  0  0  0  0  0  0  0  0  0  0
  146.5568  136.4697  151.8276 H   0  0  0  0  0  0  0  0  0  0  0  0
  146.6794  135.7047  153.4159 H   0  0  0  0  0  0  0  0  0  0  0  0
  145.2730  136.6818  153.0155 H   0  0  0  0  0  0  0  0  0  0  0  0
  143.3631  135.3790  152.5882 H   0  0  0  0  0  0  0  0  0  0  0  0
  142.4698  133.0677  152.3054 H   0  0  0  0  0  0  0  0  0  0  0  0
  142.5823  133.8072  150.7224 H   0  0  0  0  0  0  0  0  0  0  0  0
  144.3443  131.6510  151.9258 H   0  0  0  0  0  0  0  0  0  0  0  0
  143.5192  131.6494  150.3931 H   0  0  0  0  0  0  0  0  0  0  0  0
  145.0244  133.4826  149.6030 H   0  0  0  0  0  0  0  0  0  0  0  0
  146.4098  130.8963  150.3894 H   0  0  0  0  0  0  0  0  0  0  0  0
  147.0462  132.0754  149.2346 H   0  0  0  0  0  0  0  0  0  0  0  0
  145.5348  131.2427  148.9098 H   0  0  0  0  0  0  0  0  0  0  0  0
  146.9112  134.2582  150.7810 H   0  0  0  0  0  0  0  0  0  0  0  0
  146.4029  132.8166  153.3738 H   0  0  0  0  0  0  0  0  0  0  0  0
  147.1644  131.8816  152.1161 H   0  0  0  0  0  0  0  0  0  0  0  0
  148.9817  133.1662  152.2222 H   0  0  0  0  0  0  0  0  0  0  0  0
  149.2880  134.1948  154.5308 H   0  0  0  0  0  0  0  0  0  0  0  0
  147.7633  133.3826  154.8449 H   0  0  0  0  0  0  0  0  0  0  0  0
  148.7049  131.1953  154.3861 H   0  0  0  0  0  0  0  0  0  0  0  0
  150.1022  131.8753  153.5836 H   0  0  0  0  0  0  0  0  0  0  0  0
  149.6430  133.8683  156.5537 H   0  0  0  0  0  0  0  0  0  0  0  0
  150.4133  129.5165  154.7881 H   0  0  0  0  0  0  0  0  0  0  0  0
  152.2212  128.7808  157.2264 H   0  0  0  0  0  0  0  0  0  0  0  0
  151.5377  127.6067  155.9864 H   0  0  0  0  0  0  0  0  0  0  0  0
  152.7627  128.8263  154.1621 H   0  0  0  0  0  0  0  0  0  0  0  0
  153.4449  129.9935  155.4099 H   0  0  0  0  0  0  0  0  0  0  0  0
  148.1795  134.5401  152.6233 H   0  0  0  0  0  0  0  0  0  0  0  0
  1  2  1  0  0  0  0
  1 21  1  0  0  0  0
  1 22  1  0  0  0  0
  1 23  1  0  0  0  0
  2  8  1  0  0  0  0
  2  3  2  0  0  0  0
  3  4  1  0  0  0  0
  3 24  1  0  0  0  0
  4  5  1  0  0  0  0
  4 25  1  0  0  0  0
  4 26  1  0  0  0  0
  5  6  1  0  0  0  0
  5 27  1  0  0  0  0
  5 28  1  0  0  0  0
  6  7  1  0  0  0  0
  6  8  1  0  0  0  0
  6 29  1  0  0  0  0
  7 30  1  0  0  0  0
  7 31  1  0  0  0  0
  7 32  1  0  0  0  0
  8  9  1  0  0  0  0
  8 33  1  0  0  0  0
  9 10  1  0  0  0  0
  9 34  1  0  0  0  0
  9 35  1  0  0  0  0
 10 11  1  0  0  0  0
 10 36  1  0  0  0  0
 10 47  1  0  0  0  0
 11 12  1  0  0  0  0
 11 37  1  0  0  0  0
 11 38  1  0  0  0  0
 12 13  1  0  0  0  0
 12 39  1  0  0  0  0
 12 40  1  0  0  0  0
 13 17  1  0  0  0  0
 13 14  1  0  0  0  0
 14 15  2  0  0  0  0
 14 41  1  0  0  0  0
 15 16  1  0  0  0  0
 16 17  2  0  0  0  0
 17 18  1  0  0  0  0
 18 20  1  0  0  0  0
 18 19  1  0  0  0  0
 18 42  1  0  0  0  0
 19 20  1  0  0  0  0
 19 43  1  0  0  0  0
 19 44  1  0  0  0  0
 20 45  1  0  0  0  0
 20 46  1  0  0  0  0
M  CHG  1  10   1
M  END
> <s_m_source_file>
AV-unprocessed.smi

> <i_m_source_file_index>
2780

> <i_lp_mmshare_version>
43012

> <i_f3d_flags>
0

> <s_epik_input>
W0NIM11DMT1bQ0hdW0NIMl1bQ0gyXVtDQEBIXShbQ0gzXSlbQ0BIXTFbQ0gyXVtOSF1bQ0gyXVtDSDJdbjJbY0hdbm5jMltDSF0zW0NIMl1bQ0gyXTM=

> <s_epik_cmdline>
J2VwaWtfcHl0aG9uJywgJy1waCcsICc3LjAnLCAnLXRuJywgJzgnLCAnLW1hJywgJzIwMCcsICctbWV0YWxfYmluZGluZycsICctaW1hZScsICc8aW5maWxlLm1hZT4nLCAnLW9tYWUnLCAnPG91dGZpbGUubWFlPic=

> <r_lp_tautomer_probability>
1

> <r_epik_Ionization_Penalty>
0.00176214

> <r_epik_Ionization_Penalty_Charging>
0.00175191

> <r_epik_Ionization_Penalty_Neutral>
1.02377e-05

> <r_epik_State_Penalty>
-0

> <r_epik_Charging_Adjusted_Penalty>
0.00175191

> <i_epik_Tot_Q>
1

> <i_epik_Tot_abs_Q>
1

> <r_epik_Metal_State_Penalty>
-0

> <b_epik_Metal_Only>
0

> <s_lp_Force_Field>
OPLS_2005

> <r_lp_Energy>
23.8201

> <b_lp_Chiralities_Consistent>
1

> <s_lp_Variant>
AV-unprocessed.smi:2780-4

> <Gold.Version>
5.8.1

> <Gold.Id.Protein>
6NUR|6NUR_protein|mol2

> <Gold.PLP.Fitness>
45.4117

> <Gold.PLP.PLP>
-38.7705

> <Gold.PLP.part.hbond>
-2.0000

> <Gold.PLP.part.metal>
0.0000

> <Gold.PLP.part.buried>
-1.9946

> <Gold.PLP.part.nonpolar>
-34.0376

> <Gold.PLP.part.repulsive>
0.0030

> <Gold.PLP.ligand.clash>
0.0000

> <Gold.PLP.ligand.torsion>
0.9340

> <Gold.PLP.Chemscore.Hbond>
2.7600

> <Gold.PLP.Chemscore.CHOScore>
0.0000

> <Gold.PLP.Chemscore.Metal>
0.0000

> <Gold.Chemscore.Hbonds>
donor molecule, donor type, donor heavy atom, donor atom, acceptor molecule, acceptor atom, score
      L1  H    10    47       P1  7948  1.92
      P1  H  6896  6907       L1    15  1.00

> <Gold.PLP.Chemscore.Internal.Correction>
0.2293

> <Gold.Rescore>
     Score         DG    S(hbond)    S(metal)    S(lipo)     H(rot)  DE(clash)    DE(int)     intcor
     14.41     -15.27       1.41        0.00      86.73       1.98       0.05       0.81       ----

> <Gold.Chemscore.Fitness>
14.4091

> <Gold.Chemscore.DG>
-15.2670

> <Gold.Chemscore.ZeroCoef>
-5.4800

> <Gold.Chemscore.Hbond>
1.4096

> <Gold.Chemscore.Metal>
0.0000

> <Gold.Chemscore.Lipo>
86.7294

> <Gold.Chemscore.Internal_Hbond>
0.0000

> <Gold.Chemscore.DEClash>
0.0472

> <Gold.Chemscore.DEInternal>
0.8107

> <Gold.Chemscore.Rot>
1.9799

> <Gold.Chemscore.Internal.Correction>
   9.000000E+99

> <Gold.Chemscore.Hbonds>
donor molecule, donor type, donor heavy atom, donor atom, acceptor molecule, acceptor atom, score
      L1  H    10    47       P1  7948  0.36
      P1  H  6896  6907       L1    15  0.93

> <Gold.Chemscore.Hbond.Weighted>
-4.7082

> <Gold.Chemscore.Metal.Weighted>
-0.0000

> <Gold.Chemscore.Lipo.Weighted>
-10.1473

> <Gold.Chemscore.Internal_Hbond.Weighted>
0.0000

> <Gold.Chemscore.DEClash.Weighted>
0.0472

> <Gold.Chemscore.DEInternal.Weighted>
0.8107

> <Gold.Chemscore.Rot.Weighted>
5.0685

> <Gold.Chemscore.Internal.Correction.Weighted>
   9.000000E+99

> <Gold.Protein.RotatedTorsions>
[ 6907 6896 6895 6894 ] final -165.16 input  -60.11 | X-H torsion
[ 7974 7965 7964 7962 ] final  108.90 input  175.53 | X-H torsion
[ 8008 7997 7996 7995 ] final -148.44 input   59.86 | X-H torsion
[ 10167 10162 10161 10158 ] final  -71.72 input  -65.29 | X-H torsion
[ 10718 10713 10712 10709 ] final -126.46 input   66.30 | X-H torsion
[ 10763 10752 10751 10750 ] final -168.64 input  -60.55 | X-H torsion
[ 11005 11000 10999 10996 ] final -166.19 input  -57.11 | X-H torsion

> <Gold.Protein.ActiveResidues>
 VAL166  LYS551  ARG553  GLY616  TRP617  ASP618  TYR619  PRO620  LYS621  CYS622 
 ASP623  PHE694  ASN695  SER759  ASP760  ASP761  ALA762  ILE779  LEU786  VAL792 
 PHE793  MET794  SER795  GLU796  ALA797  LYS798  CYS799  TRP800  GLU811  SER814 

> <Gold.Protein.RotatedAtoms>
  151.4232  133.3692  159.2758 H   0  0  0  0  0  0  0  0  0  0  0  0  # atno 6907 bound_to 6896
  150.9278  134.8696  159.7542 H   0  0  0  0  0  0  0  0  0  0  0  0  # atno 6908 bound_to 6896
  152.5013  134.4175  159.9521 H   0  0  0  0  0  0  0  0  0  0  0  0  # atno 6909 bound_to 6896
  145.2747  139.2654  143.3948 H   0  0  0  0  0  0  0  0  0  0  0  0  # atno 7974 bound_to 7965
  155.5916  140.0653  157.2757 H   0  0  0  0  0  0  0  0  0  0  0  0  # atno 8008 bound_to 7997
  154.4303  140.1834  156.1128 H   0  0  0  0  0  0  0  0  0  0  0  0  # atno 8009 bound_to 7997
  156.0228  140.3315  155.7060 H   0  0  0  0  0  0  0  0  0  0  0  0  # atno 8010 bound_to 7997
  140.5250  143.2327  151.7363 H   0  0  0  0  0  0  0  0  0  0  0  0  # atno 10167 bound_to 10162
  156.1767  130.6704  151.0252 H   0  0  0  0  0  0  0  0  0  0  0  0  # atno 10718 bound_to 10713
  154.6608  135.2924  154.9869 H   0  0  0  0  0  0  0  0  0  0  0  0  # atno 10763 bound_to 10752
  154.0930  135.6588  153.4859 H   0  0  0  0  0  0  0  0  0  0  0  0  # atno 10764 bound_to 10752
  153.0428  135.5224  154.7557 H   0  0  0  0  0  0  0  0  0  0  0  0  # atno 10765 bound_to 10752
  140.5673  134.5273  157.5155 H   0  0  0  0  0  0  0  0  0  0  0  0  # atno 11005 bound_to 11000
  146.3235  140.3198  142.8632 LP  0  0  0  0  0  0  0  0  0  0  0  0  # atno 17320 bound_to 7965
  144.9305  140.7969  143.5692 LP  0  0  0  0  0  0  0  0  0  0  0  0  # atno 17321 bound_to 7965
  139.4935  144.4199  151.9989 LP  0  0  0  0  0  0  0  0  0  0  0  0  # atno 17342 bound_to 10162
  140.3298  144.3330  150.5990 LP  0  0  0  0  0  0  0  0  0  0  0  0  # atno 17343 bound_to 10162
  157.6840  131.0830  150.7292 LP  0  0  0  0  0  0  0  0  0  0  0  0  # atno 17370 bound_to 10713
  156.7350  130.4721  149.5491 LP  0  0  0  0  0  0  0  0  0  0  0  0  # atno 17371 bound_to 10713
  139.9379  134.7842  156.0755 LP  0  0  0  0  0  0  0  0  0  0  0  0  # atno 17394 bound_to 11000
  141.1078  133.6654  156.2905 LP  0  0  0  0  0  0  0  0  0  0  0  0  # atno 17395 bound_to 11000

$$$$
