#       Name:                AV-unprocessed.smi:2252
#       Creating user name   scv26
#       Creation time:       Fri Mar 27 12:31:38 2020


#       File generated by GOLD software.
#

@<TRIPOS>MOLECULE
AV-unprocessed.smi:2252
    48    50     1
SMALL
NO_CHARGES


@<TRIPOS>ATOM
      1 ****        -3.7769   2.5474   2.1762 C.3            1 S1                 0.0000
      2 ****        -4.4834   1.8863   1.0953 N.pl3          1 S1                 0.0000
      3 ****        -5.8630   1.8061   0.9582 C.2            1 S1                 0.0000
      4 ****        -6.1046   1.1035  -0.1969 C.2            1 S1                 0.0000
      5 ****        -4.8946   0.7458  -0.7805 N.2            1 S1                 0.0000
      6 ****        -3.9604   1.2354   0.0341 C.2            1 S1                 0.0000
      7 ****        -2.4805   1.0927  -0.2039 C.3            1 S1                 0.0000
      8 ****        -1.8702  -0.2209   0.3351 C.3            1 S1                 0.0000
      9 ****        -0.4297  -0.2476   0.0900 N.pl3          1 S1                -1.0000
     10 ****         0.1366  -0.6755  -1.0748 C.2            1 S1                 0.0000
     11 ****        -0.3866  -1.1183  -2.1021 O.2            1 S1                 0.0000
     12 ****         1.6730  -0.5619  -1.0341 C.3            1 S1                 0.0000
     13 ****         2.0933   0.9270  -1.0358 C.3            1 S1                 0.0000
     14 ****         1.8106   1.8088  -2.2335 C.3            1 S1                 0.0000
     15 ****         3.2295   1.4230  -1.9043 C.3            1 S1                 0.0000
     16 ****         2.2625  -1.3060   0.1156 N.4            1 S1                 1.0000
     17 ****         1.9917  -2.7594   0.1406 C.3            1 S1                 0.0000
     18 ****         3.0110  -3.3240   1.1231 C.3            1 S1                 0.0000
     19 ****         4.2523  -2.4690   0.8785 C.3            1 S1                 0.0000
     20 ****         3.7249  -1.1473   0.3001 C.3            1 S1                 0.0000
     21 ****        -4.4858   2.9335   2.9088 H              1 S1                 0.0000
     22 ****        -3.1914   3.3776   1.7810 H              1 S1                 0.0000
     23 ****        -3.1108   1.8402   2.6709 H              1 S1                 0.0000
     24 ****        -6.5416   2.2452   1.6745 H              1 S1                 0.0000
     25 ****        -7.0465   0.8310  -0.6495 H              1 S1                 0.0000
     26 ****        -2.3100   1.1596  -1.2793 H              1 S1                 0.0000
     27 ****        -1.9638   1.9497   0.2292 H              1 S1                 0.0000
     28 ****        -2.0777  -0.2910   1.4031 H              1 S1                 0.0000
     29 ****        -2.3811  -1.0726  -0.1158 H              1 S1                 0.0000
     30 ****         2.0556  -1.0222  -1.9470 H              1 S1                 0.0000
     31 ****         1.9826   1.4150  -0.0687 H              1 S1                 0.0000
     32 ****         1.3553   1.3470  -3.1077 H              1 S1                 0.0000
     33 ****         1.5073   2.8352  -2.0379 H              1 S1                 0.0000
     34 ****         3.8774   2.1922  -1.4893 H              1 S1                 0.0000
     35 ****         3.7176   0.7084  -2.5639 H              1 S1                 0.0000
     36 ****         0.9669  -2.9828   0.4393 H              1 S1                 0.0000
     37 ****         2.1576  -3.1834  -0.8511 H              1 S1                 0.0000
     38 ****         2.6566  -3.1774   2.1443 H              1 S1                 0.0000
     39 ****         3.1931  -4.3895   0.9800 H              1 S1                 0.0000
     40 ****         4.8322  -2.3211   1.7902 H              1 S1                 0.0000
     41 ****         4.9019  -2.9561   0.1500 H              1 S1                 0.0000
     42 ****         4.2199  -0.9487  -0.6511 H              1 S1                 0.0000
     43 ****         3.9245  -0.3053   0.9636 H              1 S1                 0.0000
     44 ****         1.8264  -0.9306   0.9462 H              1 S1                 0.0000
     45 ****        -4.7555   0.2327  -1.6275 LP             1 S1                 0.0000
     46 ****         0.1772   0.0667   0.8200 LP             1 S1                 0.0000
     47 ****        -1.3812  -1.2047  -2.1594 LP             1 S1                 0.0000
     48 ****         0.1843  -1.3904  -2.8767 LP             1 S1                 0.0000
@<TRIPOS>BOND
    1    1    2 1     
    2    1   21 1     
    3    1   22 1     
    4    1   23 1     
    5    2    6 1     
    6    2    3 1     
    7    3    4 2     
    8    3   24 1     
    9    4    5 1     
   10    4   25 1     
   11    5    6 2     
   12    6    7 1     
   13    7    8 1     
   14    7   26 1     
   15    7   27 1     
   16    8    9 1     
   17    8   28 1     
   18    8   29 1     
   19    9   10 1     
   20   10   11 2     
   21   10   12 1     
   22   12   13 1     
   23   12   16 1     
   24   12   30 1     
   25   13   15 1     
   26   13   14 1     
   27   13   31 1     
   28   14   15 1     
   29   14   32 1     
   30   14   33 1     
   31   15   34 1     
   32   15   35 1     
   33   16   20 1     
   34   16   17 1     
   35   16   44 1     
   36   17   18 1     
   37   17   36 1     
   38   17   37 1     
   39   18   19 1     
   40   18   38 1     
   41   18   39 1     
   42   19   20 1     
   43   19   40 1     
   44   19   41 1     
   45   20   42 1     
   46   20   43 1     
   47    5   45 1     
   48    9   46 1     
   49   11   47 1     
   50   11   48 1     
@<TRIPOS>SUBSTRUCTURE
      1 S1             1
@<TRIPOS>SET
LONE_PAIRS      STATIC     ATOMS    <user>   **** ""
4 45 46 47 48
DONOR_HYDROGENS      STATIC     ATOMS    <user>   **** ""
1 44
ATOM$BLUE        STATIC     ATOMS    COLORGROUP SYSTEM
4 45 46 47 48
ATOM$RED        STATIC     ATOMS    COLORGROUP SYSTEM
1 44
