AV-unprocessed.smi:3132|AV-procd|sdf|11929|dock9
  -GOLD-   2272017313D 1   1.00000     0.00000
 Structure written by MMmdl.
 34 35  0  0  0  0  0  0  0  0  2 V2000
  151.0159  140.4812  155.4584 C   0  0  0  0  0  0  0  0  0  0  0  0
  149.8720  141.3844  155.9383 C   0  0  2  0  0  0  0  0  0  0  0  0
  148.9145  141.7404  154.7802 C   0  0  0  0  0  0  0  0  0  0  0  0
  148.2583  140.5651  154.1972 N   0  0  0  0  0  0  0  0  0  0  0  0
  146.9362  140.2138  154.2991 C   0  0  0  0  0  0  0  0  0  0  0  0
  146.7913  139.0353  153.6138 C   0  0  0  0  0  0  0  0  0  0  0  0
  148.0282  138.7211  153.1174 N   0  3  0  0  0  0  0  0  0  0  0  0
  148.9183  139.6540  153.4709 C   0  0  0  0  0  0  0  0  0  0  0  0
  150.4393  142.5929  156.5349 N   0  0  0  0  0  0  0  0  0  0  0  0
  151.3924  142.6272  157.4798 C   0  0  0  0  0  0  0  0  0  0  0  0
  151.9240  141.6167  157.9414 O   0  0  0  0  0  0  0  0  0  0  0  0
  151.7666  144.0135  158.0136 C   0  0  2  0  0  0  0  0  0  0  0  0
  152.9292  144.0058  159.0231 C   0  0  0  0  0  0  0  0  0  0  0  0
  152.2540  144.2998  160.3481 C   0  0  0  0  0  0  0  0  0  0  0  0
  151.0783  145.1609  159.9107 C   0  0  0  0  0  0  0  0  0  0  0  0
  150.6378  144.5273  158.7195 O   0  0  0  0  0  0  0  0  0  0  0  0
  150.6308  139.5558  155.0288 H   0  0  0  0  0  0  0  0  0  0  0  0
  151.6757  140.2096  156.2834 H   0  0  0  0  0  0  0  0  0  0  0  0
  151.6206  140.9746  154.6965 H   0  0  0  0  0  0  0  0  0  0  0  0
  149.3180  140.8250  156.6943 H   0  0  0  0  0  0  0  0  0  0  0  0
  148.1386  142.4297  155.1164 H   0  0  0  0  0  0  0  0  0  0  0  0
  149.4570  142.2430  153.9779 H   0  0  0  0  0  0  0  0  0  0  0  0
  146.2180  140.8069  154.8467 H   0  0  0  0  0  0  0  0  0  0  0  0
  145.9244  138.4124  153.4482 H   0  0  0  0  0  0  0  0  0  0  0  0
  149.9658  139.6633  153.2269 H   0  0  0  0  0  0  0  0  0  0  0  0
  150.0599  143.4746  156.2205 H   0  0  0  0  0  0  0  0  0  0  0  0
  152.0039  144.6829  157.1849 H   0  0  0  0  0  0  0  0  0  0  0  0
  153.4957  143.0737  159.0482 H   0  0  0  0  0  0  0  0  0  0  0  0
  153.6305  144.8047  158.7787 H   0  0  0  0  0  0  0  0  0  0  0  0
  151.8933  143.3747  160.8001 H   0  0  0  0  0  0  0  0  0  0  0  0
  152.9089  144.7997  161.0623 H   0  0  0  0  0  0  0  0  0  0  0  0
  150.2865  145.2070  160.6584 H   0  0  0  0  0  0  0  0  0  0  0  0
  151.4032  146.1778  159.6851 H   0  0  0  0  0  0  0  0  0  0  0  0
  148.2416  137.8997  152.5656 H   0  0  0  0  0  0  0  0  0  0  0  0
  1  2  1  0  0  0  0
  1 17  1  0  0  0  0
  1 18  1  0  0  0  0
  1 19  1  0  0  0  0
  2  3  1  0  0  0  0
  2  9  1  0  0  0  0
  2 20  1  0  0  0  0
  3  4  1  0  0  0  0
  3 21  1  0  0  0  0
  3 22  1  0  0  0  0
  4  8  1  0  0  0  0
  4  5  1  0  0  0  0
  5  6  2  0  0  0  0
  5 23  1  0  0  0  0
  6  7  1  0  0  0  0
  6 24  1  0  0  0  0
  7  8  2  0  0  0  0
  7 34  1  0  0  0  0
  8 25  1  0  0  0  0
  9 10  1  0  0  0  0
  9 26  1  0  0  0  0
 10 11  2  0  0  0  0
 10 12  1  0  0  0  0
 12 16  1  0  0  0  0
 12 13  1  0  0  0  0
 12 27  1  0  0  0  0
 13 14  1  0  0  0  0
 13 28  1  0  0  0  0
 13 29  1  0  0  0  0
 14 15  1  0  0  0  0
 14 30  1  0  0  0  0
 14 31  1  0  0  0  0
 15 16  1  0  0  0  0
 15 32  1  0  0  0  0
 15 33  1  0  0  0  0
M  CHG  1   7   1
M  END
> <s_m_source_file>
AV-unprocessed.smi

> <i_m_source_file_index>
3132

> <i_lp_mmshare_version>
43012

> <i_f3d_flags>
0

> <s_epik_input>
W2NIXTFuW2NIXVtjSF1uMVtDSDJdW0NAQEhdKFtDSDNdKVtOSF1DKD1PKVtDQEBIXTJbQ0gyXVtDSDJdW0NIMl1PMg==

> <s_epik_cmdline>
J2VwaWtfcHl0aG9uJywgJy1waCcsICc3LjAnLCAnLXRuJywgJzgnLCAnLW1hJywgJzIwMCcsICctbWV0YWxfYmluZGluZycsICctaW1hZScsICc8aW5maWxlLm1hZT4nLCAnLW9tYWUnLCAnPG91dGZpbGUubWFlPic=

> <r_lp_tautomer_probability>
1

> <r_epik_Ionization_Penalty>
0.250802

> <r_epik_Ionization_Penalty_Charging>
0

> <r_epik_Ionization_Penalty_Neutral>
0.250802

> <r_epik_State_Penalty>
0.242139

> <r_epik_Charging_Adjusted_Penalty>
0.242139

> <i_epik_Tot_Q>
1

> <i_epik_Tot_abs_Q>
1

> <r_epik_Metal_State_Penalty>
0.533361

> <b_epik_Metal_Only>
0

> <s_lp_Force_Field>
OPLS_2005

> <r_lp_Energy>
20.2127

> <b_lp_Chiralities_Consistent>
1

> <s_lp_Variant>
AV-unprocessed.smi:3132-1

> <Gold.Version>
5.8.1

> <Gold.Id.Protein>
6NUR|6NUR_protein|mol2

> <Gold.PLP.Fitness>
44.1694

> <Gold.PLP.PLP>
-35.4379

> <Gold.PLP.part.hbond>
-3.0000

> <Gold.PLP.part.metal>
0.0000

> <Gold.PLP.part.buried>
0.9014

> <Gold.PLP.part.nonpolar>
-33.2916

> <Gold.PLP.part.repulsive>
0.2941

> <Gold.PLP.ligand.clash>
0.0000

> <Gold.PLP.ligand.torsion>
0.2440

> <Gold.PLP.Chemscore.Hbond>
2.9920

> <Gold.PLP.Chemscore.CHOScore>
0.0730

> <Gold.PLP.Chemscore.Metal>
0.0000

> <Gold.Chemscore.Hbonds>
donor molecule, donor type, donor heavy atom, donor atom, acceptor molecule, acceptor atom, score
      L1  H     7    34       P1  7948  2.00
      L1  H     9    26       P1  8028  1.00
      L1  C     8    25       P1  7957  0.28

> <Gold.PLP.Chemscore.Internal.Correction>
0.0244

> <Gold.Rescore>
     Score         DG    S(hbond)    S(metal)    S(lipo)     H(rot)  DE(clash)    DE(int)     intcor
     13.41     -16.06       1.95        0.00      77.12       1.93       1.55       1.10       ----

> <Gold.Chemscore.Fitness>
13.4064

> <Gold.Chemscore.DG>
-16.0563

> <Gold.Chemscore.ZeroCoef>
-5.4800

> <Gold.Chemscore.Hbond>
1.9450

> <Gold.Chemscore.Metal>
0.0000

> <Gold.Chemscore.Lipo>
77.1183

> <Gold.Chemscore.Internal_Hbond>
0.0000

> <Gold.Chemscore.DEClash>
1.5470

> <Gold.Chemscore.DEInternal>
1.1029

> <Gold.Chemscore.Rot>
1.9308

> <Gold.Chemscore.Internal.Correction>
   9.000000E+99

> <Gold.Chemscore.Hbonds>
donor molecule, donor type, donor heavy atom, donor atom, acceptor molecule, acceptor atom, score
      L1  H     7    34       P1  7948  1.00
      L1  H     9    26       P1  8028  1.00

> <Gold.Chemscore.Hbond.Weighted>
-6.4964

> <Gold.Chemscore.Metal.Weighted>
-0.0000

> <Gold.Chemscore.Lipo.Weighted>
-9.0228

> <Gold.Chemscore.Internal_Hbond.Weighted>
0.0000

> <Gold.Chemscore.DEClash.Weighted>
1.5470

> <Gold.Chemscore.DEInternal.Weighted>
1.1029

> <Gold.Chemscore.Rot.Weighted>
4.9429

> <Gold.Chemscore.Internal.Correction.Weighted>
   9.000000E+99

> <Gold.Protein.RotatedTorsions>
[ 6907 6896 6895 6894 ] final  116.08 input  -60.11 | X-H torsion
[ 7974 7965 7964 7962 ] final  -57.50 input  175.53 | X-H torsion
[ 8008 7997 7996 7995 ] final  -41.16 input   59.86 | X-H torsion
[ 10167 10162 10161 10158 ] final  -45.01 input  -65.29 | X-H torsion
[ 10718 10713 10712 10709 ] final  167.28 input   66.30 | X-H torsion
[ 10763 10752 10751 10750 ] final  139.27 input  -60.55 | X-H torsion
[ 11005 11000 10999 10996 ] final  -10.41 input  -57.11 | X-H torsion

> <Gold.Protein.ActiveResidues>
 VAL166  LYS551  ARG553  GLY616  TRP617  ASP618  TYR619  PRO620  LYS621  CYS622 
 ASP623  PHE694  ASN695  SER759  ASP760  ASP761  ALA762  ILE779  LEU786  VAL792 
 PHE793  MET794  SER795  GLU796  ALA797  LYS798  CYS799  TRP800  GLU811  SER814 

> <Gold.Protein.RotatedAtoms>
  152.4701  133.8010  159.6952 H   0  0  0  0  0  0  0  0  0  0  0  0  # atno 6907 bound_to 6896
  150.8685  133.7530  159.2975 H   0  0  0  0  0  0  0  0  0  0  0  0  # atno 6908 bound_to 6896
  151.5072  135.1067  159.9896 H   0  0  0  0  0  0  0  0  0  0  0  0  # atno 6909 bound_to 6896
  145.8504  140.8356  142.9989 H   0  0  0  0  0  0  0  0  0  0  0  0  # atno 7974 bound_to 7965
  154.4006  140.1507  156.3145 H   0  0  0  0  0  0  0  0  0  0  0  0  # atno 8008 bound_to 7997
  155.8586  140.3454  155.5719 H   0  0  0  0  0  0  0  0  0  0  0  0  # atno 8009 bound_to 7997
  155.7905  140.0856  157.2002 H   0  0  0  0  0  0  0  0  0  0  0  0  # atno 8010 bound_to 7997
  140.6875  143.2901  151.3578 H   0  0  0  0  0  0  0  0  0  0  0  0  # atno 10167 bound_to 10162
  157.0537  131.0320  151.2671 H   0  0  0  0  0  0  0  0  0  0  0  0  # atno 10718 bound_to 10713
  153.9033  135.3019  155.3448 H   0  0  0  0  0  0  0  0  0  0  0  0  # atno 10763 bound_to 10752
  154.7659  135.4910  153.9557 H   0  0  0  0  0  0  0  0  0  0  0  0  # atno 10764 bound_to 10752
  153.1232  135.6787  153.9400 H   0  0  0  0  0  0  0  0  0  0  0  0  # atno 10765 bound_to 10752
  140.7444  133.8644  155.8994 H   0  0  0  0  0  0  0  0  0  0  0  0  # atno 11005 bound_to 11000
  144.6729  140.0944  143.7463 LP  0  0  0  0  0  0  0  0  0  0  0  0  # atno 17320 bound_to 7965
  145.9364  139.2640  143.1294 LP  0  0  0  0  0  0  0  0  0  0  0  0  # atno 17321 bound_to 7965
  139.6246  144.0840  152.2422 LP  0  0  0  0  0  0  0  0  0  0  0  0  # atno 17342 bound_to 10162
  140.0295  144.6091  150.7499 LP  0  0  0  0  0  0  0  0  0  0  0  0  # atno 17343 bound_to 10162
  157.5010  130.7880  149.7604 LP  0  0  0  0  0  0  0  0  0  0  0  0  # atno 17370 bound_to 10713
  155.9999  130.3886  150.2645 LP  0  0  0  0  0  0  0  0  0  0  0  0  # atno 17371 bound_to 10713
  140.9808  134.1408  157.4496 LP  0  0  0  0  0  0  0  0  0  0  0  0  # atno 17394 bound_to 11000
  139.8799  135.0009  156.6040 LP  0  0  0  0  0  0  0  0  0  0  0  0  # atno 17395 bound_to 11000

$$$$
