AV-unprocessed.smi:1619|AV-procd|sdf|6489|dock9
  -GOLD-   22720 7153D 1   1.00000     0.00000
 Structure written by MMmdl.
 45 47  0  0  0  0  0  0  0  0  3 V2000
  152.8377  142.3655  159.4288 C   0  0  0  0  0  0  0  0  0  0  0  0
  152.1210  141.6997  158.2661 C   0  0  0  0  0  0  0  0  0  0  0  0
  151.2419  142.4791  157.4805 C   0  0  0  0  0  0  0  0  0  0  0  0
  150.6042  141.8430  156.4219 C   0  0  0  0  0  0  0  0  0  0  0  0
  149.6967  142.3252  155.4763 N   0  3  0  0  0  0  0  0  0  0  0  0
  149.3459  141.3189  154.6282 C   0  0  0  0  0  0  0  0  0  0  0  0
  150.0184  140.2012  155.0175 N   0  0  0  0  0  0  0  0  0  0  0  0
  150.0084  138.8447  154.4527 C   0  0  0  0  0  0  0  0  0  0  0  0
  148.8095  138.0032  154.9333 C   0  0  2  0  0  0  0  0  0  0  0  0
  149.0180  136.6501  154.5754 O   0  0  0  0  0  0  0  0  0  0  0  0
  147.4835  138.4884  154.3156 C   0  0  0  0  0  0  0  0  0  0  0  0
  147.1064  137.7247  153.1012 N   0  3  0  0  0  0  0  0  0  0  0  0
  146.1822  136.5940  153.3220 C   0  0  0  0  0  0  0  0  0  0  0  0
  145.5553  136.2964  151.9560 C   0  0  0  0  0  0  0  0  0  0  0  0
  145.7959  137.5515  151.1084 C   0  0  0  0  0  0  0  0  0  0  0  0
  146.4898  138.5449  152.0425 C   0  0  0  0  0  0  0  0  0  0  0  0
  150.8136  140.4804  156.1341 C   0  0  0  0  0  0  0  0  0  0  0  0
  151.6742  139.6970  156.8991 C   0  0  0  0  0  0  0  0  0  0  0  0
  152.3348  140.3265  157.9784 C   0  0  0  0  0  0  0  0  0  0  0  0
  153.2843  139.4992  158.8284 C   0  0  0  0  0  0  0  0  0  0  0  0
  152.5376  143.4083  159.5377 H   0  0  0  0  0  0  0  0  0  0  0  0
  153.9169  142.3431  159.2756 H   0  0  0  0  0  0  0  0  0  0  0  0
  152.6097  141.8551  160.3647 H   0  0  0  0  0  0  0  0  0  0  0  0
  151.0743  143.5249  157.6934 H   0  0  0  0  0  0  0  0  0  0  0  0
  148.6612  141.3958  153.7958 H   0  0  0  0  0  0  0  0  0  0  0  0
  150.0177  138.9269  153.3650 H   0  0  0  0  0  0  0  0  0  0  0  0
  150.9471  138.3655  154.7345 H   0  0  0  0  0  0  0  0  0  0  0  0
  148.7542  138.0619  156.0202 H   0  0  0  0  0  0  0  0  0  0  0  0
  149.1273  136.5969  153.6380 H   0  0  0  0  0  0  0  0  0  0  0  0
  146.6777  138.4156  155.0478 H   0  0  0  0  0  0  0  0  0  0  0  0
  147.5699  139.5452  154.0575 H   0  0  0  0  0  0  0  0  0  0  0  0
  146.6942  135.7249  153.7361 H   0  0  0  0  0  0  0  0  0  0  0  0
  145.4007  136.8910  154.0236 H   0  0  0  0  0  0  0  0  0  0  0  0
  146.0410  135.4370  151.4920 H   0  0  0  0  0  0  0  0  0  0  0  0
  144.4942  136.0625  152.0498 H   0  0  0  0  0  0  0  0  0  0  0  0
  146.4472  137.3088  150.2678 H   0  0  0  0  0  0  0  0  0  0  0  0
  144.8706  137.9598  150.7006 H   0  0  0  0  0  0  0  0  0  0  0  0
  145.7463  139.2099  152.4856 H   0  0  0  0  0  0  0  0  0  0  0  0
  147.2274  139.1601  151.5257 H   0  0  0  0  0  0  0  0  0  0  0  0
  151.8358  138.6519  156.6810 H   0  0  0  0  0  0  0  0  0  0  0  0
  153.3565  138.4742  158.4641 H   0  0  0  0  0  0  0  0  0  0  0  0
  152.9391  139.4616  159.8617 H   0  0  0  0  0  0  0  0  0  0  0  0
  154.2858  139.9294  158.8126 H   0  0  0  0  0  0  0  0  0  0  0  0
  147.9530  137.3393  152.7067 H   0  0  0  0  0  0  0  0  0  0  0  0
  149.3420  143.2710  155.4119 H   0  0  0  0  0  0  0  0  0  0  0  0
  1  2  1  0  0  0  0
  1 21  1  0  0  0  0
  1 22  1  0  0  0  0
  1 23  1  0  0  0  0
  2 19  1  0  0  0  0
  2  3  2  0  0  0  0
  3  4  1  0  0  0  0
  3 24  1  0  0  0  0
  4 17  2  0  0  0  0
  4  5  1  0  0  0  0
  5  6  2  0  0  0  0
  5 45  1  0  0  0  0
  6  7  1  0  0  0  0
  6 25  1  0  0  0  0
  7  8  1  0  0  0  0
  7 17  1  0  0  0  0
  8  9  1  0  0  0  0
  8 26  1  0  0  0  0
  8 27  1  0  0  0  0
  9 10  1  0  0  0  0
  9 11  1  0  0  0  0
  9 28  1  0  0  0  0
 10 29  1  0  0  0  0
 11 12  1  0  0  0  0
 11 30  1  0  0  0  0
 11 31  1  0  0  0  0
 12 16  1  0  0  0  0
 12 13  1  0  0  0  0
 12 44  1  0  0  0  0
 13 14  1  0  0  0  0
 13 32  1  0  0  0  0
 13 33  1  0  0  0  0
 14 15  1  0  0  0  0
 14 34  1  0  0  0  0
 14 35  1  0  0  0  0
 15 16  1  0  0  0  0
 15 36  1  0  0  0  0
 15 37  1  0  0  0  0
 16 38  1  0  0  0  0
 16 39  1  0  0  0  0
 17 18  1  0  0  0  0
 18 19  2  0  0  0  0
 18 40  1  0  0  0  0
 19 20  1  0  0  0  0
 20 41  1  0  0  0  0
 20 42  1  0  0  0  0
 20 43  1  0  0  0  0
M  CHG  1   5   1
M  CHG  1  12   1
M  END
> <s_m_source_file>
AV-unprocessed.smi

> <i_m_source_file_index>
1619

> <i_lp_mmshare_version>
43012

> <i_f3d_flags>
0

> <s_epik_input>
W0NIM11jKFtjSF0xKWMoW0NIM10pW2NIXWMoYzEyKW4oW2NIXW4yKVtDSDJdW0NASF0oW09IXSlbQ0gyXU4zW0NIMl1bQ0gyXVtDSDJdW0NIMl0z

> <s_epik_cmdline>
J2VwaWtfcHl0aG9uJywgJy1waCcsICc3LjAnLCAnLXRuJywgJzgnLCAnLW1hJywgJzIwMCcsICctbWV0YWxfYmluZGluZycsICctaW1hZScsICc8aW5maWxlLm1hZT4nLCAnLW9tYWUnLCAnPG91dGZpbGUubWFlPic=

> <r_epik_Ionization_Penalty>
1.18067

> <r_epik_Ionization_Penalty_Charging>
1.18067

> <r_epik_Ionization_Penalty_Neutral>
1.08888e-06

> <r_epik_State_Penalty>
1.26407

> <r_epik_Charging_Adjusted_Penalty>
2.44473

> <i_epik_Tot_Q>
2

> <i_epik_Tot_abs_Q>
2

> <r_epik_Metal_State_Penalty>
5.27628

> <b_epik_Metal_Only>
0

> <s_lp_Force_Field>
OPLS_2005

> <r_lp_Energy>
41.212

> <b_lp_Chiralities_Consistent>
1

> <s_lp_Variant>
AV-unprocessed.smi:1619-3

> <Gold.Version>
5.8.1

> <Gold.Id.Protein>
6NUR|6NUR_protein|mol2

> <Gold.PLP.Fitness>
49.9029

> <Gold.PLP.PLP>
-37.5852

> <Gold.PLP.part.hbond>
-3.0000

> <Gold.PLP.part.metal>
0.0000

> <Gold.PLP.part.buried>
1.5635

> <Gold.PLP.part.nonpolar>
-37.6131

> <Gold.PLP.part.repulsive>
0.2300

> <Gold.PLP.ligand.clash>
0.0000

> <Gold.PLP.ligand.torsion>
1.3464

> <Gold.PLP.Chemscore.Hbond>
5.0000

> <Gold.PLP.Chemscore.CHOScore>
0.0000

> <Gold.PLP.Chemscore.Metal>
0.0000

> <Gold.Chemscore.Hbonds>
donor molecule, donor type, donor heavy atom, donor atom, acceptor molecule, acceptor atom, score
      L1  H     5    45       P1  8028  2.00
      L1  H    10    29       P1  7948  1.00
      L1  H    12    44       P1  7948  2.00

> <Gold.PLP.Chemscore.Internal.Correction>
0.0105

> <Gold.Rescore>
     Score         DG    S(hbond)    S(metal)    S(lipo)     H(rot)  DE(clash)    DE(int)     intcor
     18.81     -21.73       2.98        0.00      99.46       2.08       1.66       1.27       ----

> <Gold.Chemscore.Fitness>
18.8051

> <Gold.Chemscore.DG>
-21.7326

> <Gold.Chemscore.ZeroCoef>
-5.4800

> <Gold.Chemscore.Hbond>
2.9772

> <Gold.Chemscore.Metal>
0.0000

> <Gold.Chemscore.Lipo>
99.4565

> <Gold.Chemscore.Internal_Hbond>
0.0000

> <Gold.Chemscore.DEClash>
1.6617

> <Gold.Chemscore.DEInternal>
1.2659

> <Gold.Chemscore.Rot>
2.0811

> <Gold.Chemscore.Internal.Correction>
   9.000000E+99

> <Gold.Chemscore.Hbonds>
donor molecule, donor type, donor heavy atom, donor atom, acceptor molecule, acceptor atom, score
      L1  H     5    45       P1  8028  0.93
      L1  H    10    29       P1  7948  0.99
      L1  H    12    44       P1  7948  0.99

> <Gold.Chemscore.Hbond.Weighted>
-9.9437

> <Gold.Chemscore.Metal.Weighted>
-0.0000

> <Gold.Chemscore.Lipo.Weighted>
-11.6364

> <Gold.Chemscore.Internal_Hbond.Weighted>
0.0000

> <Gold.Chemscore.DEClash.Weighted>
1.6617

> <Gold.Chemscore.DEInternal.Weighted>
1.2659

> <Gold.Chemscore.Rot.Weighted>
5.3275

> <Gold.Chemscore.Internal.Correction.Weighted>
   9.000000E+99

> <Gold.Protein.RotatedTorsions>
[ 6907 6896 6895 6894 ] final   48.30 input  -60.11 | X-H torsion
[ 7974 7965 7964 7962 ] final  -70.02 input  175.53 | X-H torsion
[ 8008 7997 7996 7995 ] final   65.06 input   59.86 | X-H torsion
[ 10167 10162 10161 10158 ] final   30.94 input  -65.29 | X-H torsion
[ 10718 10713 10712 10709 ] final  -26.00 input   66.30 | X-H torsion
[ 10763 10752 10751 10750 ] final   23.65 input  -60.55 | X-H torsion
[ 11005 11000 10999 10996 ] final   99.86 input  -57.11 | X-H torsion

> <Gold.Protein.ActiveResidues>
 VAL166  LYS551  ARG553  GLY616  TRP617  ASP618  TYR619  PRO620  LYS621  CYS622 
 ASP623  PHE694  ASN695  SER759  ASP760  ASP761  ALA762  ILE779  LEU786  VAL792 
 PHE793  MET794  SER795  GLU796  ALA797  LYS798  CYS799  TRP800  GLU811  SER814 

> <Gold.Protein.RotatedAtoms>
  152.2779  134.7861  160.0401 H   0  0  0  0  0  0  0  0  0  0  0  0  # atno 6907 bound_to 6896
  151.8450  133.3425  159.3663 H   0  0  0  0  0  0  0  0  0  0  0  0  # atno 6908 bound_to 6896
  150.7178  134.5283  159.5732 H   0  0  0  0  0  0  0  0  0  0  0  0  # atno 6909 bound_to 6896
  145.6963  140.9134  143.0754 H   0  0  0  0  0  0  0  0  0  0  0  0  # atno 7974 bound_to 7965
  155.6557  140.3497  155.4764 H   0  0  0  0  0  0  0  0  0  0  0  0  # atno 8008 bound_to 7997
  155.9810  140.1174  157.0749 H   0  0  0  0  0  0  0  0  0  0  0  0  # atno 8009 bound_to 7997
  154.4192  140.1138  156.5422 H   0  0  0  0  0  0  0  0  0  0  0  0  # atno 8010 bound_to 7997
  140.4633  144.0874  150.6218 H   0  0  0  0  0  0  0  0  0  0  0  0  # atno 10167 bound_to 10162
  156.4569  130.4495  149.6953 H   0  0  0  0  0  0  0  0  0  0  0  0  # atno 10718 bound_to 10713
  153.0822  135.6622  154.0021 H   0  0  0  0  0  0  0  0  0  0  0  0  # atno 10763 bound_to 10752
  153.9640  135.2971  155.3433 H   0  0  0  0  0  0  0  0  0  0  0  0  # atno 10764 bound_to 10752
  154.7224  135.5159  153.8904 H   0  0  0  0  0  0  0  0  0  0  0  0  # atno 10765 bound_to 10752
  139.8770  134.9114  156.4669 H   0  0  0  0  0  0  0  0  0  0  0  0  # atno 11005 bound_to 11000
  144.6981  139.8889  143.7452 LP  0  0  0  0  0  0  0  0  0  0  0  0  # atno 17320 bound_to 7965
  146.0837  139.3825  143.0448 LP  0  0  0  0  0  0  0  0  0  0  0  0  # atno 17321 bound_to 7965
  140.4067  143.2677  151.9882 LP  0  0  0  0  0  0  0  0  0  0  0  0  # atno 17342 bound_to 10162
  139.4809  144.5951  151.7705 LP  0  0  0  0  0  0  0  0  0  0  0  0  # atno 17343 bound_to 10162
  156.3757  130.7553  151.2541 LP  0  0  0  0  0  0  0  0  0  0  0  0  # atno 17370 bound_to 10713
  157.7500  131.0310  150.4162 LP  0  0  0  0  0  0  0  0  0  0  0  0  # atno 17371 bound_to 10713
  140.8824  133.7908  155.9481 LP  0  0  0  0  0  0  0  0  0  0  0  0  # atno 17394 bound_to 11000
  140.8840  134.2576  157.5129 LP  0  0  0  0  0  0  0  0  0  0  0  0  # atno 17395 bound_to 11000

$$$$
