AV-unprocessed.smi:3034|AV-procd|sdf|11579|dock6
  -GOLD-   2272016543D 1   1.00000     0.00000
 Structure written by MMmdl.
 31 31  0  0  0  0  0  0  0  0  2 V2000
  149.7197  137.7337  154.9613 C   0  0  0  0  0  0  0  0  0  0  0  0
  150.8049  138.6474  154.3820 C   0  0  0  0  0  0  0  0  0  0  0  0
  151.5135  139.4663  155.4675 C   0  0  0  0  0  0  0  0  0  0  0  0
  152.4176  138.3740  156.6553 S   0  0  0  0  0  0  0  0  0  0  0  0
  151.3958  137.5315  157.2997 O   0  0  0  0  0  0  0  0  0  0  0  0
  153.4228  137.6738  155.8415 O   0  0  0  0  0  0  0  0  0  0  0  0
  153.1204  139.4425  157.6613 N   0  5  0  0  0  0  0  0  0  0  0  0
  152.3291  140.3804  158.4508 C   0  0  0  0  0  0  0  0  0  0  0  0
  153.2338  141.1746  159.4297 C   0  0  2  0  0  0  0  0  0  0  0  0
  153.4189  140.3900  160.5929 O   0  0  0  0  0  0  0  0  0  0  0  0
  152.7340  142.5843  159.7647 C   0  0  0  0  0  0  0  0  0  0  0  0
  152.4628  142.9427  161.1056 C   0  0  0  0  0  0  0  0  0  0  0  0
  152.0167  144.2490  161.3819 C   0  0  0  0  0  0  0  0  0  0  0  0
  151.8469  145.1485  160.3127 C   0  0  0  0  0  0  0  0  0  0  0  0
  152.1277  144.6976  159.0083 C   0  0  0  0  0  0  0  0  0  0  0  0
  152.5550  143.4474  158.7322 N   0  0  0  0  0  0  0  0  0  0  0  0
  149.2295  137.1629  154.1725 H   0  0  0  0  0  0  0  0  0  0  0  0
  148.9544  138.3126  155.4794 H   0  0  0  0  0  0  0  0  0  0  0  0
  150.1425  137.0243  155.6731 H   0  0  0  0  0  0  0  0  0  0  0  0
  151.5369  138.0443  153.8436 H   0  0  0  0  0  0  0  0  0  0  0  0
  150.3575  139.3186  153.6484 H   0  0  0  0  0  0  0  0  0  0  0  0
  152.2353  140.1486  155.0199 H   0  0  0  0  0  0  0  0  0  0  0  0
  150.7884  140.0595  156.0240 H   0  0  0  0  0  0  0  0  0  0  0  0
  151.7778  141.0859  157.8278 H   0  0  0  0  0  0  0  0  0  0  0  0
  151.5703  139.8449  159.0229 H   0  0  0  0  0  0  0  0  0  0  0  0
  154.2231  141.2715  158.9800 H   0  0  0  0  0  0  0  0  0  0  0  0
  153.4135  140.9660  161.3414 H   0  0  0  0  0  0  0  0  0  0  0  0
  152.6113  142.2353  161.9081 H   0  0  0  0  0  0  0  0  0  0  0  0
  151.8117  144.5562  162.3965 H   0  0  0  0  0  0  0  0  0  0  0  0
  151.5094  146.1591  160.4878 H   0  0  0  0  0  0  0  0  0  0  0  0
  152.0059  145.3592  158.1635 H   0  0  0  0  0  0  0  0  0  0  0  0
  1  2  1  0  0  0  0
  1 17  1  0  0  0  0
  1 18  1  0  0  0  0
  1 19  1  0  0  0  0
  2  3  1  0  0  0  0
  2 20  1  0  0  0  0
  2 21  1  0  0  0  0
  3  4  1  0  0  0  0
  3 22  1  0  0  0  0
  3 23  1  0  0  0  0
  4  5  2  0  0  0  0
  4  6  2  0  0  0  0
  4  7  1  0  0  0  0
  7  8  1  0  0  0  0
  8  9  1  0  0  0  0
  8 24  1  0  0  0  0
  8 25  1  0  0  0  0
  9 10  1  0  0  0  0
  9 11  1  0  0  0  0
  9 26  1  0  0  0  0
 10 27  1  0  0  0  0
 11 16  1  0  0  0  0
 11 12  2  0  0  0  0
 12 13  1  0  0  0  0
 12 28  1  0  0  0  0
 13 14  2  0  0  0  0
 13 29  1  0  0  0  0
 14 15  1  0  0  0  0
 14 30  1  0  0  0  0
 15 16  2  0  0  0  0
 15 31  1  0  0  0  0
M  CHG  1   7  -1
M  END
> <s_m_source_file>
AV-unprocessed.smi

> <i_m_source_file_index>
3034

> <i_lp_mmshare_version>
43012

> <i_f3d_flags>
0

> <s_epik_input>
W0NIM11bQ0gyXVtDSDJdUyg9TykoPU8pW05IXVtDSDJdW0NASF0oW09IXSljMVtjSF1bY0hdW2NIXVtjSF1uMQ==

> <s_epik_cmdline>
J2VwaWtfcHl0aG9uJywgJy1waCcsICc3LjAnLCAnLXRuJywgJzgnLCAnLW1hJywgJzIwMCcsICctbWV0YWxfYmluZGluZycsICctaW1hZScsICc8aW5maWxlLm1hZT4nLCAnLW9tYWUnLCAnPG91dGZpbGUubWFlPic=

> <r_epik_Ionization_Penalty>
6.18156

> <r_epik_Ionization_Penalty_Charging>
6.17474

> <r_epik_Ionization_Penalty_Neutral>
0.0068235

> <r_epik_State_Penalty>
6.17598

> <r_epik_Charging_Adjusted_Penalty>
12.3507

> <i_epik_Tot_Q>
-1

> <i_epik_Tot_abs_Q>
1

> <r_epik_Metal_State_Penalty>
2.11803

> <b_epik_Metal_Only>
1

> <s_lp_Force_Field>
OPLS_2005

> <r_lp_Energy>
-0.388479

> <b_lp_Chiralities_Consistent>
1

> <s_lp_Variant>
AV-unprocessed.smi:3034-3

> <Gold.Version>
5.8.1

> <Gold.Id.Protein>
6NUR|6NUR_protein|mol2

> <Gold.PLP.Fitness>
43.0384

> <Gold.PLP.PLP>
-37.7099

> <Gold.PLP.part.hbond>
-2.0000

> <Gold.PLP.part.metal>
0.0000

> <Gold.PLP.part.buried>
-5.0545

> <Gold.PLP.part.nonpolar>
-30.2040

> <Gold.PLP.part.repulsive>
0.0040

> <Gold.PLP.ligand.clash>
0.0000

> <Gold.PLP.ligand.torsion>
0.8843

> <Gold.PLP.Chemscore.Hbond>
2.0143

> <Gold.PLP.Chemscore.CHOScore>
0.0000

> <Gold.PLP.Chemscore.Metal>
0.0000

> <Gold.Chemscore.Hbonds>
donor molecule, donor type, donor heavy atom, donor atom, acceptor molecule, acceptor atom, score
      P1  H  7997  8008       L1     7  2.00
      P1  H 10752 10764       L1     6  0.08

> <Gold.PLP.Chemscore.Internal.Correction>
1.0543

> <Gold.Rescore>
     Score         DG    S(hbond)    S(metal)    S(lipo)     H(rot)  DE(clash)    DE(int)     intcor
     12.72     -13.84       0.93        0.00      95.06       2.29       0.15       0.96       ----

> <Gold.Chemscore.Fitness>
12.7201

> <Gold.Chemscore.DG>
-13.8362

> <Gold.Chemscore.ZeroCoef>
-5.4800

> <Gold.Chemscore.Hbond>
0.9268

> <Gold.Chemscore.Metal>
0.0000

> <Gold.Chemscore.Lipo>
95.0594

> <Gold.Chemscore.Internal_Hbond>
0.0000

> <Gold.Chemscore.DEClash>
0.1524

> <Gold.Chemscore.DEInternal>
0.9637

> <Gold.Chemscore.Rot>
2.2895

> <Gold.Chemscore.Internal.Correction>
   9.000000E+99

> <Gold.Chemscore.Hbonds>
donor molecule, donor type, donor heavy atom, donor atom, acceptor molecule, acceptor atom, score
      P1  H  7997  8008       L1     7  0.23
      P1  H 10752 10764       L1     6  0.09

> <Gold.Chemscore.Hbond.Weighted>
-3.0955

> <Gold.Chemscore.Metal.Weighted>
-0.0000

> <Gold.Chemscore.Lipo.Weighted>
-11.1219

> <Gold.Chemscore.Internal_Hbond.Weighted>
0.0000

> <Gold.Chemscore.DEClash.Weighted>
0.1524

> <Gold.Chemscore.DEInternal.Weighted>
0.9637

> <Gold.Chemscore.Rot.Weighted>
5.8612

> <Gold.Chemscore.Internal.Correction.Weighted>
   9.000000E+99

> <Gold.Protein.RotatedTorsions>
[ 6907 6896 6895 6894 ] final  152.52 input  -60.11 | X-H torsion
[ 7974 7965 7964 7962 ] final  169.71 input  175.53 | X-H torsion
[ 8008 7997 7996 7995 ] final  -55.83 input   59.86 | X-H torsion
[ 10167 10162 10161 10158 ] final   60.28 input  -65.29 | X-H torsion
[ 10718 10713 10712 10709 ] final    8.93 input   66.30 | X-H torsion
[ 10763 10752 10751 10750 ] final   -3.37 input  -60.55 | X-H torsion
[ 11005 11000 10999 10996 ] final  163.86 input  -57.11 | X-H torsion

> <Gold.Protein.ActiveResidues>
 VAL166  LYS551  ARG553  GLY616  TRP617  ASP618  TYR619  PRO620  LYS621  CYS622 
 ASP623  PHE694  ASN695  SER759  ASP760  ASP761  ALA762  ILE779  LEU786  VAL792 
 PHE793  MET794  SER795  GLU796  ALA797  LYS798  CYS799  TRP800  GLU811  SER814 

> <Gold.Protein.RotatedAtoms>
  152.0855  133.4174  159.4520 H   0  0  0  0  0  0  0  0  0  0  0  0  # atno 6907 bound_to 6896
  150.6862  134.2932  159.4684 H   0  0  0  0  0  0  0  0  0  0  0  0  # atno 6908 bound_to 6896
  152.0778  134.9490  160.0624 H   0  0  0  0  0  0  0  0  0  0  0  0  # atno 6909 bound_to 6896
  144.7346  139.9094  143.6414 H   0  0  0  0  0  0  0  0  0  0  0  0  # atno 7974 bound_to 7965
  154.4208  140.1144  156.5540 H   0  0  0  0  0  0  0  0  0  0  0  0  # atno 8008 bound_to 7997
  155.6381  140.3496  155.4686 H   0  0  0  0  0  0  0  0  0  0  0  0  # atno 8009 bound_to 7997
  155.9893  140.1176  157.0642 H   0  0  0  0  0  0  0  0  0  0  0  0  # atno 8010 bound_to 7997
  140.1673  144.4312  150.6679 H   0  0  0  0  0  0  0  0  0  0  0  0  # atno 10167 bound_to 10162
  156.9588  130.5925  149.5661 H   0  0  0  0  0  0  0  0  0  0  0  0  # atno 10718 bound_to 10713
  153.3704  135.6994  153.6642 H   0  0  0  0  0  0  0  0  0  0  0  0  # atno 10763 bound_to 10752
  153.5295  135.3595  155.2669 H   0  0  0  0  0  0  0  0  0  0  0  0  # atno 10764 bound_to 10752
  154.8680  135.4177  154.2981 H   0  0  0  0  0  0  0  0  0  0  0  0  # atno 10765 bound_to 10752
  140.2401  134.8058  157.3402 H   0  0  0  0  0  0  0  0  0  0  0  0  # atno 11005 bound_to 11000
  146.1012  139.4008  143.0345 LP  0  0  0  0  0  0  0  0  0  0  0  0  # atno 17320 bound_to 7965
  145.7576  140.9948  143.1217 LP  0  0  0  0  0  0  0  0  0  0  0  0  # atno 17321 bound_to 7965
  140.6605  143.2250  151.5867 LP  0  0  0  0  0  0  0  0  0  0  0  0  # atno 17342 bound_to 10162
  139.5354  144.2796  152.1239 LP  0  0  0  0  0  0  0  0  0  0  0  0  # atno 17343 bound_to 10162
  156.0331  130.5421  150.8585 LP  0  0  0  0  0  0  0  0  0  0  0  0  # atno 17370 bound_to 10713
  157.5672  131.0946  150.9472 LP  0  0  0  0  0  0  0  0  0  0  0  0  # atno 17371 bound_to 10713
  140.1662  134.4666  155.7861 LP  0  0  0  0  0  0  0  0  0  0  0  0  # atno 17394 bound_to 11000
  141.2211  133.6922  156.7630 LP  0  0  0  0  0  0  0  0  0  0  0  0  # atno 17395 bound_to 11000

$$$$
