AV-unprocessed.smi:2636|AV-procd|sdf|10257|dock1
  -GOLD-   2272014263D 1   1.00000     0.00000
 Structure written by MMmdl.
 36 37  0  0  0  0  0  0  0  0  1 V2000
  150.5129  134.0902  154.9916 C   0  0  0  0  0  0  0  0  0  0  0  0
  151.1320  135.4766  155.0526 C   0  0  0  0  0  0  0  0  0  0  0  0
  150.6323  136.5282  154.3538 C   0  0  0  0  0  0  0  0  0  0  0  0
  151.1781  137.8006  154.3943 N   0  0  0  0  0  0  0  0  0  0  0  0
  150.6665  138.9010  153.5971 C   0  0  0  0  0  0  0  0  0  0  0  0
  150.7179  140.0686  154.3519 O   0  0  0  0  0  0  0  0  0  0  0  0
  149.7700  140.0955  155.4058 C   0  0  0  0  0  0  0  0  0  0  0  0
  150.4230  140.5642  156.6872 C   0  0  0  0  0  0  0  0  0  0  0  0
  150.7884  141.8366  156.9269 C   0  0  0  0  0  0  0  0  0  0  0  0
  151.4257  142.3523  158.1517 C   0  0  0  0  0  0  0  0  0  0  0  0
  151.8373  141.5088  159.2108 C   0  0  0  0  0  0  0  0  0  0  0  0
  152.4449  142.0489  160.3613 C   0  0  0  0  0  0  0  0  0  0  0  0
  152.6488  143.4371  160.4671 C   0  0  0  0  0  0  0  0  0  0  0  0
  152.2436  144.2849  159.4198 C   0  0  0  0  0  0  0  0  0  0  0  0
  151.6361  143.7437  158.2701 C   0  0  0  0  0  0  0  0  0  0  0  0
  152.3292  138.0467  155.1716 C   0  0  0  0  0  0  0  0  0  0  0  0
  152.8774  139.1474  155.2337 O   0  0  0  0  0  0  0  0  0  0  0  0
  152.8402  136.9675  155.8910 N   0  0  0  0  0  0  0  0  0  0  0  0
  152.3166  135.6713  155.8949 C   0  0  0  0  0  0  0  0  0  0  0  0
  152.8575  134.8007  156.5749 O   0  0  0  0  0  0  0  0  0  0  0  0
  153.6609  137.1353  156.4543 H   0  0  0  0  0  0  0  0  0  0  0  0
  149.6332  134.0686  154.3479 H   0  0  0  0  0  0  0  0  0  0  0  0
  150.2071  133.7645  155.9865 H   0  0  0  0  0  0  0  0  0  0  0  0
  151.2316  133.3692  154.6005 H   0  0  0  0  0  0  0  0  0  0  0  0
  149.7627  136.3675  153.7326 H   0  0  0  0  0  0  0  0  0  0  0  0
  151.2828  139.0080  152.7025 H   0  0  0  0  0  0  0  0  0  0  0  0
  149.6459  138.6700  153.2815 H   0  0  0  0  0  0  0  0  0  0  0  0
  148.9377  140.7535  155.1495 H   0  0  0  0  0  0  0  0  0  0  0  0
  149.3630  139.0970  155.5711 H   0  0  0  0  0  0  0  0  0  0  0  0
  150.5858  139.7936  157.4246 H   0  0  0  0  0  0  0  0  0  0  0  0
  150.6026  142.5682  156.1537 H   0  0  0  0  0  0  0  0  0  0  0  0
  151.6951  140.4404  159.1605 H   0  0  0  0  0  0  0  0  0  0  0  0
  152.7554  141.3958  161.1636 H   0  0  0  0  0  0  0  0  0  0  0  0
  153.1149  143.8506  161.3493 H   0  0  0  0  0  0  0  0  0  0  0  0
  152.3988  145.3509  159.4970 H   0  0  0  0  0  0  0  0  0  0  0  0
  151.3315  144.4075  157.4741 H   0  0  0  0  0  0  0  0  0  0  0  0
  1  2  1  0  0  0  0
  1 22  1  0  0  0  0
  1 23  1  0  0  0  0
  1 24  1  0  0  0  0
  2 19  1  0  0  0  0
  2  3  2  0  0  0  0
  3  4  1  0  0  0  0
  3 25  1  0  0  0  0
  4  5  1  0  0  0  0
  4 16  1  0  0  0  0
  5  6  1  0  0  0  0
  5 26  1  0  0  0  0
  5 27  1  0  0  0  0
  6  7  1  0  0  0  0
  7  8  1  0  0  0  0
  7 28  1  0  0  0  0
  7 29  1  0  0  0  0
  8  9  2  0  0  0  0
  8 30  1  0  0  0  0
  9 10  1  0  0  0  0
  9 31  1  0  0  0  0
 10 15  1  0  0  0  0
 10 11  2  0  0  0  0
 11 12  1  0  0  0  0
 11 32  1  0  0  0  0
 12 13  2  0  0  0  0
 12 33  1  0  0  0  0
 13 14  1  0  0  0  0
 13 34  1  0  0  0  0
 14 15  2  0  0  0  0
 14 35  1  0  0  0  0
 15 36  1  0  0  0  0
 16 17  2  0  0  0  0
 16 18  1  0  0  0  0
 18 21  1  0  0  0  0
 18 19  1  0  0  0  0
 19 20  2  0  0  0  0
M  END
> <s_m_source_file>
AV-unprocessed.smi

> <i_m_source_file_index>
2636

> <i_lp_mmshare_version>
43012

> <i_f3d_flags>
0

> <s_epik_input>
Tz1jMVtuSF1jKD1PKW4oW2NIXWMxW0NIM10pW0NIMl1PW0NIMl0vW0NIXT1bQ0hdL2MyW2NIXVtjSF1bY0hdW2NIXVtjSF0y

> <s_epik_cmdline>
J2VwaWtfcHl0aG9uJywgJy1waCcsICc3LjAnLCAnLXRuJywgJzgnLCAnLW1hJywgJzIwMCcsICctbWV0YWxfYmluZGluZycsICctaW1hZScsICc8aW5maWxlLm1hZT4nLCAnLW9tYWUnLCAnPG91dGZpbGUubWFlPic=

> <r_lp_tautomer_probability>
0.999537

> <r_epik_Ionization_Penalty>
0.00179702

> <r_epik_Ionization_Penalty_Charging>
0.00179702

> <r_epik_Ionization_Penalty_Neutral>
9.83266e-13

> <r_epik_State_Penalty>
0.00121868

> <r_epik_Charging_Adjusted_Penalty>
0.0030157

> <i_epik_Tot_Q>
0

> <i_epik_Tot_abs_Q>
0

> <r_epik_Metal_State_Penalty>
0.826903

> <b_epik_Metal_Only>
0

> <s_epik_Chemistry_Notes>
This compound contains an acetal/aminal-like group ( X-CH(R)-Y where X, Y are N, S, or O) that may be acid/base labile, releasing an aldehyde.

> <s_lp_Force_Field>
OPLS_2005

> <r_lp_Energy>
1.95272

> <b_lp_Chiralities_Consistent>
1

> <s_lp_Variant>
AV-unprocessed.smi:2636-1

> <Gold.Version>
5.8.1

> <Gold.Id.Protein>
6NUR|6NUR_protein|mol2

> <Gold.PLP.Fitness>
49.1818

> <Gold.PLP.PLP>
-41.5778

> <Gold.PLP.part.hbond>
-3.0000

> <Gold.PLP.part.metal>
0.0000

> <Gold.PLP.part.buried>
-4.7075

> <Gold.PLP.part.nonpolar>
-34.8116

> <Gold.PLP.part.repulsive>
0.2619

> <Gold.PLP.ligand.clash>
0.0000

> <Gold.PLP.ligand.torsion>
0.7160

> <Gold.PLP.Chemscore.Hbond>
2.0000

> <Gold.PLP.Chemscore.CHOScore>
1.0000

> <Gold.PLP.Chemscore.Metal>
0.0000

> <Gold.Chemscore.Hbonds>
donor molecule, donor type, donor heavy atom, donor atom, acceptor molecule, acceptor atom, score
      P1  H  7989  7998       L1     6  0.83
      P1  H  7997  8010       L1    17  1.00
      L1  C     3    25       P1  7948  0.94

> <Gold.PLP.Chemscore.Internal.Correction>
0.0360

> <Gold.Rescore>
     Score         DG    S(hbond)    S(metal)    S(lipo)     H(rot)  DE(clash)    DE(int)     intcor
     17.45     -19.95       2.16        0.00     104.00       1.92       0.04       2.46       ----

> <Gold.Chemscore.Fitness>
17.4470

> <Gold.Chemscore.DG>
-19.9502

> <Gold.Chemscore.ZeroCoef>
-5.4800

> <Gold.Chemscore.Hbond>
2.1623

> <Gold.Chemscore.Metal>
0.0000

> <Gold.Chemscore.Lipo>
103.9952

> <Gold.Chemscore.Internal_Hbond>
0.0000

> <Gold.Chemscore.DEClash>
0.0403

> <Gold.Chemscore.DEInternal>
2.4628

> <Gold.Chemscore.Rot>
1.9216

> <Gold.Chemscore.Internal.Correction>
   9.000000E+99

> <Gold.Chemscore.Hbonds>
donor molecule, donor type, donor heavy atom, donor atom, acceptor molecule, acceptor atom, score
      P1  H  7989  7998       L1     6  0.18
      P1  H  7997  8010       L1    17  0.96

> <Gold.Chemscore.Hbond.Weighted>
-7.2220

> <Gold.Chemscore.Metal.Weighted>
-0.0000

> <Gold.Chemscore.Lipo.Weighted>
-12.1674

> <Gold.Chemscore.Internal_Hbond.Weighted>
0.0000

> <Gold.Chemscore.DEClash.Weighted>
0.0403

> <Gold.Chemscore.DEInternal.Weighted>
2.4628

> <Gold.Chemscore.Rot.Weighted>
4.9193

> <Gold.Chemscore.Internal.Correction.Weighted>
   9.000000E+99

> <Gold.Protein.RotatedTorsions>
[ 6907 6896 6895 6894 ] final  -84.41 input  -60.11 | X-H torsion
[ 7974 7965 7964 7962 ] final -150.03 input  175.53 | X-H torsion
[ 8008 7997 7996 7995 ] final   89.11 input   59.86 | X-H torsion
[ 10167 10162 10161 10158 ] final  -93.99 input  -65.29 | X-H torsion
[ 10718 10713 10712 10709 ] final  160.46 input   66.30 | X-H torsion
[ 10763 10752 10751 10750 ] final  104.13 input  -60.55 | X-H torsion
[ 11005 11000 10999 10996 ] final -136.65 input  -57.11 | X-H torsion

> <Gold.Protein.ActiveResidues>
 VAL166  LYS551  ARG553  GLY616  TRP617  ASP618  TYR619  PRO620  LYS621  CYS622 
 ASP623  PHE694  ASN695  SER759  ASP760  ASP761  ALA762  ILE779  LEU786  VAL792 
 PHE793  MET794  SER795  GLU796  ALA797  LYS798  CYS799  TRP800  GLU811  SER814 

> <Gold.Protein.RotatedAtoms>
  150.6877  134.3362  159.4848 H   0  0  0  0  0  0  0  0  0  0  0  0  # atno 6907 bound_to 6896
  152.1221  134.9195  160.0572 H   0  0  0  0  0  0  0  0  0  0  0  0  # atno 6908 bound_to 6896
  152.0397  133.3937  159.4368 H   0  0  0  0  0  0  0  0  0  0  0  0  # atno 6909 bound_to 6896
  144.7932  140.4986  143.5758 H   0  0  0  0  0  0  0  0  0  0  0  0  # atno 7974 bound_to 7965
  155.9960  140.3364  155.6799 H   0  0  0  0  0  0  0  0  0  0  0  0  # atno 8008 bound_to 7997
  155.6355  140.0689  157.2653 H   0  0  0  0  0  0  0  0  0  0  0  0  # atno 8009 bound_to 7997
  154.4234  140.1752  156.1505 H   0  0  0  0  0  0  0  0  0  0  0  0  # atno 8010 bound_to 7997
  140.3190  143.3060  152.0066 H   0  0  0  0  0  0  0  0  0  0  0  0  # atno 10167 bound_to 10162
  157.1501  131.0562  151.2284 H   0  0  0  0  0  0  0  0  0  0  0  0  # atno 10718 bound_to 10713
  153.3619  135.3953  155.1724 H   0  0  0  0  0  0  0  0  0  0  0  0  # atno 10763 bound_to 10752
  154.8680  135.3681  154.5089 H   0  0  0  0  0  0  0  0  0  0  0  0  # atno 10764 bound_to 10752
  153.5549  135.7082  153.5634 H   0  0  0  0  0  0  0  0  0  0  0  0  # atno 10765 bound_to 10752
  140.8785  134.1961  157.4606 H   0  0  0  0  0  0  0  0  0  0  0  0  # atno 11005 bound_to 11000
  145.5741  139.1485  143.3272 LP  0  0  0  0  0  0  0  0  0  0  0  0  # atno 17320 bound_to 7965
  146.2191  140.5873  142.9025 LP  0  0  0  0  0  0  0  0  0  0  0  0  # atno 17321 bound_to 7965
  139.4878  144.6325  151.7041 LP  0  0  0  0  0  0  0  0  0  0  0  0  # atno 17342 bound_to 10162
  140.5500  144.0441  150.6123 LP  0  0  0  0  0  0  0  0  0  0  0  0  # atno 17343 bound_to 10162
  157.4228  130.7447  149.6927 LP  0  0  0  0  0  0  0  0  0  0  0  0  # atno 17370 bound_to 10713
  155.9772  130.4066  150.3728 LP  0  0  0  0  0  0  0  0  0  0  0  0  # atno 17371 bound_to 10713
  139.8717  134.9807  156.5085 LP  0  0  0  0  0  0  0  0  0  0  0  0  # atno 17394 bound_to 11000
  140.8489  133.8147  155.9149 LP  0  0  0  0  0  0  0  0  0  0  0  0  # atno 17395 bound_to 11000

$$$$
