AV-unprocessed.smi:103|AV-procd|sdf|985|dock2
  -GOLD-   2262017553D 1   1.00000     0.00000
 Structure written by MMmdl.
 53 55  0  0  0  0  0  0  0  0  1 V2000
  147.3703  141.4915  153.5332 C   0  0  0  0  0  0  0  0  0  0  0  0
  148.3225  141.1847  154.6816 C   0  0  0  0  0  0  0  0  0  0  0  0
  148.1607  141.6764  155.7987 O   0  0  0  0  0  0  0  0  0  0  0  0
  149.3103  140.3468  154.3178 O   0  0  0  0  0  0  0  0  0  0  0  0
  150.0632  139.6489  155.3011 C   0  0  0  0  0  0  0  0  0  0  0  0
  149.1778  138.6446  156.0617 C   0  0  2  0  0  0  0  0  0  0  0  0
  148.1008  139.3118  156.7061 O   0  0  0  0  0  0  0  0  0  0  0  0
  147.6463  138.5400  157.7673 C   0  0  1  0  0  0  0  0  0  0  0  0
  146.5429  137.6294  157.2640 N   0  0  0  0  0  0  0  0  0  0  0  0
  145.2319  137.5851  157.7045 C   0  0  0  0  0  0  0  0  0  0  0  0
  144.5163  138.5478  159.0346 S   0  0  0  0  0  0  0  0  0  0  0  0
  144.1658  140.1486  158.1996 C   0  0  0  0  0  0  0  0  0  0  0  0
  143.2486  137.9029  159.4096 O   0  0  0  0  0  0  0  0  0  0  0  0
  145.5752  138.7473  160.0368 O   0  0  0  0  0  0  0  0  0  0  0  0
  144.4541  136.6869  157.1679 N   0  0  0  0  0  0  0  0  0  0  0  0
  145.2598  136.1135  156.1998 C   0  0  0  0  0  0  0  0  0  0  0  0
  145.0494  135.1009  155.2300 C   0  0  0  0  0  0  0  0  0  0  0  0
  143.8831  134.4556  155.0883 N   0  0  0  0  0  0  0  0  0  0  0  0
  146.0694  134.7708  154.4060 N   0  0  0  0  0  0  0  0  0  0  0  0
  147.2392  135.4031  154.5263 C   0  0  0  0  0  0  0  0  0  0  0  0
  147.5819  136.3639  155.3868 N   0  0  0  0  0  0  0  0  0  0  0  0
  146.5585  136.7026  156.2269 C   0  0  0  0  0  0  0  0  0  0  0  0
  148.8900  137.8490  158.3526 C   0  0  1  0  0  0  0  0  0  0  0  0
  148.6445  136.5390  158.8500 O   0  0  0  0  0  0  0  0  0  0  0  0
  148.1215  136.3661  160.0749 C   0  0  0  0  0  0  0  0  0  0  0  0
  147.9981  134.8959  160.4499 C   0  0  0  0  0  0  0  0  0  0  0  0
  147.7532  137.2590  160.8380 O   0  0  0  0  0  0  0  0  0  0  0  0
  149.8841  137.8572  157.1877 C   0  0  2  0  0  0  0  0  0  0  0  0
  151.0972  138.4814  157.5977 O   0  0  0  0  0  0  0  0  0  0  0  0
  151.7405  138.0563  158.7006 C   0  0  0  0  0  0  0  0  0  0  0  0
  152.9767  138.8895  159.0115 C   0  0  0  0  0  0  0  0  0  0  0  0
  151.4058  137.1123  159.4163 O   0  0  0  0  0  0  0  0  0  0  0  0
  147.9218  141.8738  152.6742 H   0  0  0  0  0  0  0  0  0  0  0  0
  146.6365  142.2398  153.8332 H   0  0  0  0  0  0  0  0  0  0  0  0
  146.8389  140.5886  153.2316 H   0  0  0  0  0  0  0  0  0  0  0  0
  150.8449  139.1050  154.7704 H   0  0  0  0  0  0  0  0  0  0  0  0
  150.5692  140.3316  155.9856 H   0  0  0  0  0  0  0  0  0  0  0  0
  148.7630  137.9389  155.3435 H   0  0  0  0  0  0  0  0  0  0  0  0
  147.1647  139.1595  158.5191 H   0  0  0  0  0  0  0  0  0  0  0  0
  143.7385  140.8466  158.9191 H   0  0  0  0  0  0  0  0  0  0  0  0
  143.4616  139.9936  157.3834 H   0  0  0  0  0  0  0  0  0  0  0  0
  145.0935  140.5600  157.8025 H   0  0  0  0  0  0  0  0  0  0  0  0
  143.1051  134.6857  155.6898 H   0  0  0  0  0  0  0  0  0  0  0  0
  143.7826  133.7448  154.3782 H   0  0  0  0  0  0  0  0  0  0  0  0
  148.0120  135.0941  153.8378 H   0  0  0  0  0  0  0  0  0  0  0  0
  149.2743  138.4907  159.1478 H   0  0  0  0  0  0  0  0  0  0  0  0
  148.8809  134.3437  160.1264 H   0  0  0  0  0  0  0  0  0  0  0  0
  147.1209  134.4584  159.9726 H   0  0  0  0  0  0  0  0  0  0  0  0
  147.8979  134.7840  161.5298 H   0  0  0  0  0  0  0  0  0  0  0  0
  150.0922  136.8471  156.8315 H   0  0  0  0  0  0  0  0  0  0  0  0
  153.4736  139.1974  158.0913 H   0  0  0  0  0  0  0  0  0  0  0  0
  153.6841  138.3135  159.6085 H   0  0  0  0  0  0  0  0  0  0  0  0
  152.6982  139.7822  159.5715 H   0  0  0  0  0  0  0  0  0  0  0  0
  1  2  1  0  0  0  0
  1 33  1  0  0  0  0
  1 34  1  0  0  0  0
  1 35  1  0  0  0  0
  2  3  2  0  0  0  0
  2  4  1  0  0  0  0
  4  5  1  0  0  0  0
  5  6  1  0  0  0  0
  5 36  1  0  0  0  0
  5 37  1  0  0  0  0
  6 28  1  0  0  0  0
  6  7  1  0  0  0  0
  6 38  1  0  0  0  0
  7  8  1  0  0  0  0
  8  9  1  0  0  0  0
  8 23  1  0  0  0  0
  8 39  1  0  0  0  0
  9 22  1  0  0  0  0
  9 10  1  0  0  0  0
 10 11  1  0  0  0  0
 10 15  2  0  0  0  0
 11 12  1  0  0  0  0
 11 13  2  0  0  0  0
 11 14  2  0  0  0  0
 12 40  1  0  0  0  0
 12 41  1  0  0  0  0
 12 42  1  0  0  0  0
 15 16  1  0  0  0  0
 16 22  2  0  0  0  0
 16 17  1  0  0  0  0
 17 18  1  0  0  0  0
 17 19  2  0  0  0  0
 18 43  1  0  0  0  0
 18 44  1  0  0  0  0
 19 20  1  0  0  0  0
 20 21  2  0  0  0  0
 20 45  1  0  0  0  0
 21 22  1  0  0  0  0
 23 24  1  0  0  0  0
 23 28  1  0  0  0  0
 23 46  1  0  0  0  0
 24 25  1  0  0  0  0
 25 26  1  0  0  0  0
 25 27  2  0  0  0  0
 26 47  1  0  0  0  0
 26 48  1  0  0  0  0
 26 49  1  0  0  0  0
 28 29  1  0  0  0  0
 28 50  1  0  0  0  0
 29 30  1  0  0  0  0
 30 31  1  0  0  0  0
 30 32  2  0  0  0  0
 31 51  1  0  0  0  0
 31 52  1  0  0  0  0
 31 53  1  0  0  0  0
M  END
> <s_m_source_file>
AV-unprocessed.smi

> <i_m_source_file_index>
103

> <i_lp_mmshare_version>
43012

> <i_f3d_flags>
0

> <s_epik_input>
W0NIM11DKD1PKU9bQ0gyXVtDQEBIXTFPW0NASF0oW0NAQEhdKE9DKD1PKVtDSDNdKVtDQEhdMU9DKD1PKVtDSDNdKW4oYyhuMilTKD1PKSg9TylbQ0gzXSljKGMyMyluW2NIXW5jM1tOSDJd

> <s_epik_cmdline>
J2VwaWtfcHl0aG9uJywgJy1waCcsICc3LjAnLCAnLXRuJywgJzgnLCAnLW1hJywgJzIwMCcsICctbWV0YWxfYmluZGluZycsICctaW1hZScsICc8aW5maWxlLm1hZT4nLCAnLW9tYWUnLCAnPG91dGZpbGUubWFlPic=

> <r_lp_tautomer_probability>
1

> <r_epik_Ionization_Penalty>
1.51338e-05

> <r_epik_Ionization_Penalty_Charging>
0

> <r_epik_Ionization_Penalty_Neutral>
1.51338e-05

> <r_epik_State_Penalty>
-0

> <r_epik_Charging_Adjusted_Penalty>
0

> <i_epik_Tot_Q>
0

> <i_epik_Tot_abs_Q>
0

> <r_epik_Metal_State_Penalty>
-0

> <b_epik_Metal_Only>
0

> <s_epik_Chemistry_Notes>
This compound has an ester and may undergo hydrolysis at high or low pH. This compound contains an acetal/aminal-like group ( X-CH(R)-Y where X, Y are N, S, or O) that may be acid/base labile, releasing an aldehyde.

> <s_lp_Force_Field>
OPLS_2005

> <r_lp_Energy>
17.8584

> <b_lp_Chiralities_Consistent>
1

> <s_lp_Variant>
AV-unprocessed.smi:103-9

> <Gold.Version>
5.8.1

> <Gold.Id.Protein>
6NUR|6NUR_protein|mol2

> <Gold.PLP.Fitness>
34.8435

> <Gold.PLP.PLP>
-23.4321

> <Gold.PLP.part.hbond>
-5.0000

> <Gold.PLP.part.metal>
0.0000

> <Gold.PLP.part.buried>
-6.1655

> <Gold.PLP.part.nonpolar>
-12.6648

> <Gold.PLP.part.repulsive>
0.3672

> <Gold.PLP.ligand.clash>
0.0000

> <Gold.PLP.ligand.torsion>
1.5368

> <Gold.PLP.Chemscore.Hbond>
3.0162

> <Gold.PLP.Chemscore.CHOScore>
0.9959

> <Gold.PLP.Chemscore.Metal>
0.0000

> <Gold.Chemscore.Hbonds>
donor molecule, donor type, donor heavy atom, donor atom, acceptor molecule, acceptor atom, score
      L1  H    18    44       P1 10957  0.13
      P1  H  6896  6909       L1    32  1.00
      P1  H  6931  6943       L1    27  0.82
      P1  H  6934  6947       L1    27  0.86
      L1  C    20    45       P1  7948  1.00

> <Gold.PLP.Chemscore.Internal.Correction>
2.4485

> <Gold.Rescore>
     Score         DG    S(hbond)    S(metal)    S(lipo)     H(rot)  DE(clash)    DE(int)     intcor
      2.90     -10.91       3.87        0.00      28.81       4.25       0.00       8.01       ----

> <Gold.Chemscore.Fitness>
2.8990

> <Gold.Chemscore.DG>
-10.9137

> <Gold.Chemscore.ZeroCoef>
-5.4800

> <Gold.Chemscore.Hbond>
3.8719

> <Gold.Chemscore.Metal>
0.0000

> <Gold.Chemscore.Lipo>
28.8065

> <Gold.Chemscore.Internal_Hbond>
0.0000

> <Gold.Chemscore.DEClash>
0.0009

> <Gold.Chemscore.DEInternal>
8.0138

> <Gold.Chemscore.Rot>
4.2456

> <Gold.Chemscore.Internal.Correction>
   9.000000E+99

> <Gold.Chemscore.Hbonds>
donor molecule, donor type, donor heavy atom, donor atom, acceptor molecule, acceptor atom, score
      L1  H    18    44       P1 10957  0.14
      P1  H  6896  6909       L1    32  0.93
      P1  H  6931  6943       L1    27  0.80
      P1  H  6934  6947       L1    27  0.85

> <Gold.Chemscore.Hbond.Weighted>
-12.9320

> <Gold.Chemscore.Metal.Weighted>
-0.0000

> <Gold.Chemscore.Lipo.Weighted>
-3.3704

> <Gold.Chemscore.Internal_Hbond.Weighted>
0.0000

> <Gold.Chemscore.DEClash.Weighted>
0.0009

> <Gold.Chemscore.DEInternal.Weighted>
8.0138

> <Gold.Chemscore.Rot.Weighted>
10.8687

> <Gold.Chemscore.Internal.Correction.Weighted>
   9.000000E+99

> <Gold.Protein.RotatedTorsions>
[ 6907 6896 6895 6894 ] final  104.16 input  -60.11 | X-H torsion
[ 7974 7965 7964 7962 ] final   61.10 input  175.53 | X-H torsion
[ 8008 7997 7996 7995 ] final   64.41 input   59.86 | X-H torsion
[ 10167 10162 10161 10158 ] final   54.93 input  -65.29 | X-H torsion
[ 10718 10713 10712 10709 ] final  -10.73 input   66.30 | X-H torsion
[ 10763 10752 10751 10750 ] final  -35.01 input  -60.55 | X-H torsion
[ 11005 11000 10999 10996 ] final  129.39 input  -57.11 | X-H torsion

> <Gold.Protein.ActiveResidues>
 VAL166  LYS551  ARG553  GLY616  TRP617  ASP618  TYR619  PRO620  LYS621  CYS622 
 ASP623  PHE694  ASN695  SER759  ASP760  ASP761  ALA762  ILE779  LEU786  VAL792 
 PHE793  MET794  SER795  GLU796  ALA797  LYS798  CYS799  TRP800  GLU811  SER814 

> <Gold.Protein.RotatedAtoms>
  152.5273  133.9717  159.7764 H   0  0  0  0  0  0  0  0  0  0  0  0  # atno 6907 bound_to 6896
  150.9988  133.6068  159.2705 H   0  0  0  0  0  0  0  0  0  0  0  0  # atno 6908 bound_to 6896
  151.3185  135.0819  159.9350 H   0  0  0  0  0  0  0  0  0  0  0  0  # atno 6909 bound_to 6896
  145.8886  139.3494  143.0663 H   0  0  0  0  0  0  0  0  0  0  0  0  # atno 7974 bound_to 7965
  155.6456  140.3497  155.4730 H   0  0  0  0  0  0  0  0  0  0  0  0  # atno 8008 bound_to 7997
  155.9890  140.1190  157.0679 H   0  0  0  0  0  0  0  0  0  0  0  0  # atno 8009 bound_to 7997
  154.4213  140.1123  156.5525 H   0  0  0  0  0  0  0  0  0  0  0  0  # atno 8010 bound_to 7997
  140.2249  144.3749  150.6436 H   0  0  0  0  0  0  0  0  0  0  0  0  # atno 10167 bound_to 10162
  156.6693  130.5004  149.6005 H   0  0  0  0  0  0  0  0  0  0  0  0  # atno 10718 bound_to 10713
  153.8562  135.6844  153.4787 H   0  0  0  0  0  0  0  0  0  0  0  0  # atno 10763 bound_to 10752
  153.1368  135.4674  154.9433 H   0  0  0  0  0  0  0  0  0  0  0  0  # atno 10764 bound_to 10752
  154.7780  135.3259  154.8000 H   0  0  0  0  0  0  0  0  0  0  0  0  # atno 10765 bound_to 10752
  139.9613  134.9601  156.9141 H   0  0  0  0  0  0  0  0  0  0  0  0  # atno 11005 bound_to 11000
  145.8936  140.9288  143.0539 LP  0  0  0  0  0  0  0  0  0  0  0  0  # atno 17320 bound_to 7965
  144.6729  140.0939  143.7464 LP  0  0  0  0  0  0  0  0  0  0  0  0  # atno 17321 bound_to 7965
  140.6228  143.2178  151.6659 LP  0  0  0  0  0  0  0  0  0  0  0  0  # atno 17342 bound_to 10162
  139.5131  144.3455  152.0701 LP  0  0  0  0  0  0  0  0  0  0  0  0  # atno 17343 bound_to 10162
  156.1951  130.6584  151.1105 LP  0  0  0  0  0  0  0  0  0  0  0  0  # atno 17370 bound_to 10713
  157.7083  131.0746  150.6591 LP  0  0  0  0  0  0  0  0  0  0  0  0  # atno 17371 bound_to 10713
  140.5495  134.0641  155.7365 LP  0  0  0  0  0  0  0  0  0  0  0  0  # atno 17394 bound_to 11000
  141.1290  133.9335  157.2576 LP  0  0  0  0  0  0  0  0  0  0  0  0  # atno 17395 bound_to 11000

$$$$
