AV-unprocessed.smi:3102|AV-procd|sdf|11812|dock10
  -GOLD-   2272017183D 1   1.00000     0.00000
 Structure written by MMmdl.
 31 32  0  0  0  0  0  0  0  0  1 V2000
  154.3591  140.6566  161.3748 C   0  0  0  0  0  0  0  0  0  0  0  0
  153.7716  141.9245  161.1040 O   0  0  0  0  0  0  0  0  0  0  0  0
  152.8821  142.0229  160.0538 C   0  0  0  0  0  0  0  0  0  0  0  0
  152.2267  140.8577  159.6132 C   0  0  0  0  0  0  0  0  0  0  0  0
  151.3209  140.9531  158.5406 C   0  0  0  0  0  0  0  0  0  0  0  0
  151.0942  142.2112  157.9340 C   0  0  0  0  0  0  0  0  0  0  0  0
  150.2071  142.3874  156.8587 N   0  0  0  0  0  0  0  0  0  0  0  0
  149.8253  141.2780  155.9940 C   0  0  2  0  0  0  0  0  0  0  0  0
  148.8632  141.6700  154.8891 C   0  0  0  0  0  0  0  0  0  0  0  0
  148.2599  140.3200  154.5143 C   0  0  0  0  0  0  0  0  0  0  0  0
  148.2600  139.5474  155.7124 O   0  0  0  0  0  0  0  0  0  0  0  0
  149.0058  140.2168  156.7253 C   0  0  0  0  0  0  0  0  0  0  0  0
  151.8000  143.3239  158.4550 C   0  0  0  0  0  0  0  0  0  0  0  0
  151.6234  144.7168  157.8752 C   0  0  0  0  0  0  0  0  0  0  0  0
  152.6707  143.2342  159.4844 N   0  0  0  0  0  0  0  0  0  0  0  0
  155.0307  140.7452  162.2287 H   0  0  0  0  0  0  0  0  0  0  0  0
  154.9467  140.2996  160.5279 H   0  0  0  0  0  0  0  0  0  0  0  0
  153.6025  139.9117  161.6253 H   0  0  0  0  0  0  0  0  0  0  0  0
  152.4153  139.9070  160.0892 H   0  0  0  0  0  0  0  0  0  0  0  0
  150.8160  140.0604  158.2044 H   0  0  0  0  0  0  0  0  0  0  0  0
  150.0496  143.3238  156.5143 H   0  0  0  0  0  0  0  0  0  0  0  0
  150.7102  140.8013  155.5709 H   0  0  0  0  0  0  0  0  0  0  0  0
  148.0844  142.3300  155.2750 H   0  0  0  0  0  0  0  0  0  0  0  0
  149.3445  142.1669  154.0466 H   0  0  0  0  0  0  0  0  0  0  0  0
  147.2558  140.4142  154.1002 H   0  0  0  0  0  0  0  0  0  0  0  0
  148.8849  139.8154  153.7767 H   0  0  0  0  0  0  0  0  0  0  0  0
  149.6277  139.5224  157.2908 H   0  0  0  0  0  0  0  0  0  0  0  0
  148.2989  140.6782  157.4168 H   0  0  0  0  0  0  0  0  0  0  0  0
  151.9052  144.7280  156.8219 H   0  0  0  0  0  0  0  0  0  0  0  0
  152.2407  145.4498  158.3964 H   0  0  0  0  0  0  0  0  0  0  0  0
  150.5835  145.0337  157.9584 H   0  0  0  0  0  0  0  0  0  0  0  0
  1  2  1  0  0  0  0
  1 16  1  0  0  0  0
  1 17  1  0  0  0  0
  1 18  1  0  0  0  0
  2  3  1  0  0  0  0
  3 15  1  0  0  0  0
  3  4  2  0  0  0  0
  4  5  1  0  0  0  0
  4 19  1  0  0  0  0
  5  6  2  0  0  0  0
  5 20  1  0  0  0  0
  6  7  1  0  0  0  0
  6 13  1  0  0  0  0
  7  8  1  0  0  0  0
  7 21  1  0  0  0  0
  8 12  1  0  0  0  0
  8  9  1  0  0  0  0
  8 22  1  0  0  0  0
  9 10  1  0  0  0  0
  9 23  1  0  0  0  0
  9 24  1  0  0  0  0
 10 11  1  0  0  0  0
 10 25  1  0  0  0  0
 10 26  1  0  0  0  0
 11 12  1  0  0  0  0
 12 27  1  0  0  0  0
 12 28  1  0  0  0  0
 13 14  1  0  0  0  0
 13 15  2  0  0  0  0
 14 29  1  0  0  0  0
 14 30  1  0  0  0  0
 14 31  1  0  0  0  0
M  END
> <s_m_source_file>
AV-unprocessed.smi

> <i_m_source_file_index>
3102

> <i_lp_mmshare_version>
43012

> <i_f3d_flags>
0

> <s_epik_input>
W0NIM11PYzFbY0hdW2NIXWMoYyhuMSlbQ0gzXSlbTkhdW0NAQEhdMltDSDJdW0NIMl1PW0NIMl0y

> <s_epik_cmdline>
J2VwaWtfcHl0aG9uJywgJy1waCcsICc3LjAnLCAnLXRuJywgJzgnLCAnLW1hJywgJzIwMCcsICctbWV0YWxfYmluZGluZycsICctaW1hZScsICc8aW5maWxlLm1hZT4nLCAnLW9tYWUnLCAnPG91dGZpbGUubWFlPic=

> <r_lp_tautomer_probability>
1

> <r_epik_Ionization_Penalty>
0.00117248

> <r_epik_Ionization_Penalty_Charging>
0

> <r_epik_Ionization_Penalty_Neutral>
0.00117248

> <r_epik_State_Penalty>
0.000742146

> <r_epik_Charging_Adjusted_Penalty>
0.000742146

> <i_epik_Tot_Q>
0

> <i_epik_Tot_abs_Q>
0

> <r_epik_Metal_State_Penalty>
-0

> <b_epik_Metal_Only>
0

> <s_lp_Force_Field>
OPLS_2005

> <r_lp_Energy>
20.6196

> <b_lp_Chiralities_Consistent>
1

> <s_lp_Variant>
AV-unprocessed.smi:3102-1

> <Gold.Version>
5.8.1

> <Gold.Id.Protein>
6NUR|6NUR_protein|mol2

> <Gold.PLP.Fitness>
32.9276

> <Gold.PLP.PLP>
-30.8276

> <Gold.PLP.part.hbond>
-1.0000

> <Gold.PLP.part.metal>
0.0000

> <Gold.PLP.part.buried>
-3.2164

> <Gold.PLP.part.nonpolar>
-26.0923

> <Gold.PLP.part.repulsive>
0.0939

> <Gold.PLP.ligand.clash>
0.0000

> <Gold.PLP.ligand.torsion>
0.4465

> <Gold.PLP.Chemscore.Hbond>
0.9913

> <Gold.PLP.Chemscore.CHOScore>
0.0000

> <Gold.PLP.Chemscore.Metal>
0.0000

> <Gold.Chemscore.Hbonds>
donor molecule, donor type, donor heavy atom, donor atom, acceptor molecule, acceptor atom, score
      L1  H     7    21       P1  8028  1.00

> <Gold.PLP.Chemscore.Internal.Correction>
0.0194

> <Gold.Rescore>
     Score         DG    S(hbond)    S(metal)    S(lipo)     H(rot)  DE(clash)    DE(int)     intcor
     14.56     -15.14       0.99        0.00      80.09       1.18       0.10       0.47       ----

> <Gold.Chemscore.Fitness>
14.5621

> <Gold.Chemscore.DG>
-15.1385

> <Gold.Chemscore.ZeroCoef>
-5.4800

> <Gold.Chemscore.Hbond>
0.9944

> <Gold.Chemscore.Metal>
0.0000

> <Gold.Chemscore.Lipo>
80.0859

> <Gold.Chemscore.Internal_Hbond>
0.0000

> <Gold.Chemscore.DEClash>
0.1043

> <Gold.Chemscore.DEInternal>
0.4722

> <Gold.Chemscore.Rot>
1.1847

> <Gold.Chemscore.Internal.Correction>
   9.000000E+99

> <Gold.Chemscore.Hbonds>
donor molecule, donor type, donor heavy atom, donor atom, acceptor molecule, acceptor atom, score
      L1  H     7    21       P1  8028  0.92

> <Gold.Chemscore.Hbond.Weighted>
-3.3213

> <Gold.Chemscore.Metal.Weighted>
-0.0000

> <Gold.Chemscore.Lipo.Weighted>
-9.3701

> <Gold.Chemscore.Internal_Hbond.Weighted>
0.0000

> <Gold.Chemscore.DEClash.Weighted>
0.1043

> <Gold.Chemscore.DEInternal.Weighted>
0.4722

> <Gold.Chemscore.Rot.Weighted>
3.0328

> <Gold.Chemscore.Internal.Correction.Weighted>
   9.000000E+99

> <Gold.Protein.RotatedTorsions>
[ 6907 6896 6895 6894 ] final   46.97 input  -60.11 | X-H torsion
[ 7974 7965 7964 7962 ] final  120.85 input  175.53 | X-H torsion
[ 8008 7997 7996 7995 ] final   46.57 input   59.86 | X-H torsion
[ 10167 10162 10161 10158 ] final -173.98 input  -65.29 | X-H torsion
[ 10718 10713 10712 10709 ] final  127.50 input   66.30 | X-H torsion
[ 10763 10752 10751 10750 ] final    8.52 input  -60.55 | X-H torsion
[ 11005 11000 10999 10996 ] final   96.68 input  -57.11 | X-H torsion

> <Gold.Protein.ActiveResidues>
 VAL166  LYS551  ARG553  GLY616  TRP617  ASP618  TYR619  PRO620  LYS621  CYS622 
 ASP623  PHE694  ASN695  SER759  ASP760  ASP761  ALA762  ILE779  LEU786  VAL792 
 PHE793  MET794  SER795  GLU796  ALA797  LYS798  CYS799  TRP800  GLU811  SER814 

> <Gold.Protein.RotatedAtoms>
  152.2626  134.8018  160.0427 H   0  0  0  0  0  0  0  0  0  0  0  0  # atno 6907 bound_to 6896
  151.8659  133.3461  159.3727 H   0  0  0  0  0  0  0  0  0  0  0  0  # atno 6908 bound_to 6896
  150.7122  134.5088  159.5641 H   0  0  0  0  0  0  0  0  0  0  0  0  # atno 6909 bound_to 6896
  145.1263  139.3356  143.4688 H   0  0  0  0  0  0  0  0  0  0  0  0  # atno 7974 bound_to 7965
  155.3546  140.3415  155.4240 H   0  0  0  0  0  0  0  0  0  0  0  0  # atno 8008 bound_to 7997
  156.1746  140.1643  156.8421 H   0  0  0  0  0  0  0  0  0  0  0  0  # atno 8009 bound_to 7997
  154.5268  140.0754  156.8256 H   0  0  0  0  0  0  0  0  0  0  0  0  # atno 8010 bound_to 7997
  139.5659  144.1757  152.1311 H   0  0  0  0  0  0  0  0  0  0  0  0  # atno 10167 bound_to 10162
  157.5327  131.1098  150.8983 H   0  0  0  0  0  0  0  0  0  0  0  0  # atno 10718 bound_to 10713
  153.2242  135.6885  153.7965 H   0  0  0  0  0  0  0  0  0  0  0  0  # atno 10763 bound_to 10752
  153.7153  135.3276  155.3256 H   0  0  0  0  0  0  0  0  0  0  0  0  # atno 10764 bound_to 10752
  154.8284  135.4600  154.1101 H   0  0  0  0  0  0  0  0  0  0  0  0  # atno 10765 bound_to 10752
  139.8780  134.8963  156.4195 H   0  0  0  0  0  0  0  0  0  0  0  0  # atno 11005 bound_to 11000
  146.3517  140.1243  142.8599 LP  0  0  0  0  0  0  0  0  0  0  0  0  # atno 17320 bound_to 7965
  145.0685  140.9138  143.4896 LP  0  0  0  0  0  0  0  0  0  0  0  0  # atno 17321 bound_to 7965
  140.1280  144.5314  150.6820 LP  0  0  0  0  0  0  0  0  0  0  0  0  # atno 17342 bound_to 10162
  140.6942  143.2394  151.5047 LP  0  0  0  0  0  0  0  0  0  0  0  0  # atno 17343 bound_to 10162
  156.9560  130.5437  149.5284 LP  0  0  0  0  0  0  0  0  0  0  0  0  # atno 17370 bound_to 10713
  156.0435  130.5514  150.8826 LP  0  0  0  0  0  0  0  0  0  0  0  0  # atno 17371 bound_to 10713
  140.9143  133.7689  155.9830 LP  0  0  0  0  0  0  0  0  0  0  0  0  # atno 17394 bound_to 11000
  140.8511  134.2953  157.5275 LP  0  0  0  0  0  0  0  0  0  0  0  0  # atno 17395 bound_to 11000

$$$$
