AV-unprocessed.smi:1813|AV-procd|sdf|7345|dock9
  -GOLD-   22720 9 03D 1   1.00000     0.00000
 Structure written by MMmdl.
 39 40  0  0  0  0  0  0  0  0  3 V2000
  153.6207  137.8241  156.6645 C   0  0  0  0  0  0  0  0  0  0  0  0
  153.1068  139.1062  156.1972 N   0  5  0  0  0  0  0  0  0  0  0  0
  152.1174  139.2251  155.2716 C   0  0  0  0  0  0  0  0  0  0  0  0
  151.4099  140.1912  154.9671 O   0  0  0  0  0  0  0  0  0  0  0  0
  151.9200  137.9139  154.5022 C   0  0  0  0  0  0  0  0  0  0  0  0
  150.7973  137.1402  155.0887 N   0  3  2  0  0  0  0  0  0  0  0  0
  150.9021  135.6885  154.7955 C   0  0  0  0  0  0  0  0  0  0  0  0
  149.8140  134.8912  155.5358 C   0  0  0  0  0  0  0  0  0  0  0  0
  148.3981  135.4085  155.2130 C   0  0  2  0  0  0  0  0  0  0  0  0
  148.0021  135.0939  153.8404 N   0  0  0  0  0  0  0  0  0  0  0  0
  146.9787  134.3003  153.4917 C   0  0  0  0  0  0  0  0  0  0  0  0
  146.2528  133.7325  154.3083 O   0  0  0  0  0  0  0  0  0  0  0  0
  146.8629  134.2133  152.1548 N   0  0  0  0  0  0  0  0  0  0  0  0
  145.9165  133.4684  151.4030 C   0  0  0  0  0  0  0  0  0  0  0  0
  146.1537  132.9509  150.1920 N   0  0  0  0  0  0  0  0  0  0  0  0
  145.0438  132.2690  149.6866 C   0  0  0  0  0  0  0  0  0  0  0  0
  143.9619  132.2794  150.5315 C   0  0  0  0  0  0  0  0  0  0  0  0
  144.2969  133.1484  152.0055 S   0  0  0  0  0  0  0  0  0  0  0  0
  148.3344  136.9259  155.4577 C   0  0  0  0  0  0  0  0  0  0  0  0
  149.4589  137.6784  154.7233 C   0  0  0  0  0  0  0  0  0  0  0  0
  154.4447  137.9493  157.3666 H   0  0  0  0  0  0  0  0  0  0  0  0
  153.9995  137.2044  155.8513 H   0  0  0  0  0  0  0  0  0  0  0  0
  152.8609  137.2372  157.1816 H   0  0  0  0  0  0  0  0  0  0  0  0
  151.7615  138.0674  153.4323 H   0  0  0  0  0  0  0  0  0  0  0  0
  152.8498  137.3512  154.5968 H   0  0  0  0  0  0  0  0  0  0  0  0
  150.8285  135.5264  153.7190 H   0  0  0  0  0  0  0  0  0  0  0  0
  151.8817  135.3212  155.1038 H   0  0  0  0  0  0  0  0  0  0  0  0
  149.9011  133.8302  155.2991 H   0  0  0  0  0  0  0  0  0  0  0  0
  149.9857  134.9721  156.6101 H   0  0  0  0  0  0  0  0  0  0  0  0
  147.6854  134.9278  155.8859 H   0  0  0  0  0  0  0  0  0  0  0  0
  148.5415  135.5218  153.1019 H   0  0  0  0  0  0  0  0  0  0  0  0
  147.5292  134.7402  151.6098 H   0  0  0  0  0  0  0  0  0  0  0  0
  145.1113  131.8044  148.7138 H   0  0  0  0  0  0  0  0  0  0  0  0
  142.9925  131.8294  150.3767 H   0  0  0  0  0  0  0  0  0  0  0  0
  147.3621  137.3181  155.1569 H   0  0  0  0  0  0  0  0  0  0  0  0
  148.4198  137.1193  156.5279 H   0  0  0  0  0  0  0  0  0  0  0  0
  149.3953  138.7367  154.9769 H   0  0  0  0  0  0  0  0  0  0  0  0
  149.3206  137.6081  153.6435 H   0  0  0  0  0  0  0  0  0  0  0  0
  150.8911  137.2369  156.0899 H   0  0  0  0  0  0  0  0  0  0  0  0
  1  2  1  0  0  0  0
  1 21  1  0  0  0  0
  1 22  1  0  0  0  0
  1 23  1  0  0  0  0
  2  3  1  0  0  0  0
  3  4  2  0  0  0  0
  3  5  1  0  0  0  0
  5  6  1  0  0  0  0
  5 24  1  0  0  0  0
  5 25  1  0  0  0  0
  6 20  1  0  0  0  0
  6  7  1  0  0  0  0
  6 39  1  0  0  0  0
  7  8  1  0  0  0  0
  7 26  1  0  0  0  0
  7 27  1  0  0  0  0
  8  9  1  0  0  0  0
  8 28  1  0  0  0  0
  8 29  1  0  0  0  0
  9 10  1  0  0  0  0
  9 19  1  0  0  0  0
  9 30  1  0  0  0  0
 10 11  1  0  0  0  0
 10 31  1  0  0  0  0
 11 12  2  0  0  0  0
 11 13  1  0  0  0  0
 13 14  1  0  0  0  0
 13 32  1  0  0  0  0
 14 18  1  0  0  0  0
 14 15  2  0  0  0  0
 15 16  1  0  0  0  0
 16 17  2  0  0  0  0
 16 33  1  0  0  0  0
 17 18  1  0  0  0  0
 17 34  1  0  0  0  0
 19 20  1  0  0  0  0
 19 35  1  0  0  0  0
 19 36  1  0  0  0  0
 20 37  1  0  0  0  0
 20 38  1  0  0  0  0
M  CHG  1   2  -1
M  CHG  1   6   1
M  END
> <s_m_source_file>
AV-unprocessed.smi

> <i_m_source_file_index>
1813

> <i_lp_mmshare_version>
43012

> <i_f3d_flags>
0

> <s_epik_input>
W0NIM11bTkhdQyg9TylbQ0gyXU4xW0NIMl1bQ0gyXVtDSF0oW0NIMl1bQ0gyXTEpW05IXUMoPU8pW05IXWMybltjSF1bY0hdczI=

> <s_epik_cmdline>
J2VwaWtfcHl0aG9uJywgJy1waCcsICc3LjAnLCAnLXRuJywgJzgnLCAnLW1hJywgJzIwMCcsICctbWV0YWxfYmluZGluZycsICctaW1hZScsICc8aW5maWxlLm1hZT4nLCAnLW9tYWUnLCAnPG91dGZpbGUubWFlPic=

> <r_lp_tautomer_probability>
0.999

> <r_epik_Ionization_Penalty>
6.14232

> <r_epik_Ionization_Penalty_Charging>
6.14218

> <r_epik_Ionization_Penalty_Neutral>
0.000139308

> <r_epik_State_Penalty>
6.98503

> <r_epik_Charging_Adjusted_Penalty>
13.1272

> <i_epik_Tot_Q>
0

> <i_epik_Tot_abs_Q>
2

> <r_epik_Metal_State_Penalty>
2.95036

> <b_epik_Metal_Only>
1

> <s_lp_Force_Field>
OPLS_2005

> <r_lp_Energy>
8.34863

> <b_lp_Chiralities_Consistent>
1

> <s_lp_Variant>
AV-unprocessed.smi:1813-6

> <Gold.Version>
5.8.1

> <Gold.Id.Protein>
6NUR|6NUR_protein|mol2

> <Gold.PLP.Fitness>
44.1445

> <Gold.PLP.PLP>
-29.6360

> <Gold.PLP.part.hbond>
-3.9440

> <Gold.PLP.part.metal>
0.0000

> <Gold.PLP.part.buried>
-4.9911

> <Gold.PLP.part.nonpolar>
-21.1290

> <Gold.PLP.part.repulsive>
0.4078

> <Gold.PLP.ligand.clash>
0.0000

> <Gold.PLP.ligand.torsion>
0.7736

> <Gold.PLP.Chemscore.Hbond>
4.7905

> <Gold.PLP.Chemscore.CHOScore>
0.5445

> <Gold.PLP.Chemscore.Metal>
0.0000

> <Gold.Chemscore.Hbonds>
donor molecule, donor type, donor heavy atom, donor atom, acceptor molecule, acceptor atom, score
      L1  H    10    31       P1  7948  0.84
      L1  H    13    32       P1  7948  0.83
      P1  H  7989  7998       L1     4  1.00
      P1  H  7997  8008       L1     2  2.00
      L1  C    17    34       P1 10952  0.46

> <Gold.PLP.Chemscore.Internal.Correction>
0.0507

> <Gold.Rescore>
     Score         DG    S(hbond)    S(metal)    S(lipo)     H(rot)  DE(clash)    DE(int)     intcor
     16.52     -18.23       3.19        0.00      55.94       1.73       0.10       1.61       ----

> <Gold.Chemscore.Fitness>
16.5191

> <Gold.Chemscore.DG>
-18.2314

> <Gold.Chemscore.ZeroCoef>
-5.4800

> <Gold.Chemscore.Hbond>
3.1852

> <Gold.Chemscore.Metal>
0.0000

> <Gold.Chemscore.Lipo>
55.9387

> <Gold.Chemscore.Internal_Hbond>
0.0000

> <Gold.Chemscore.DEClash>
0.1011

> <Gold.Chemscore.DEInternal>
1.6111

> <Gold.Chemscore.Rot>
1.7312

> <Gold.Chemscore.Internal.Correction>
   9.000000E+99

> <Gold.Chemscore.Hbonds>
donor molecule, donor type, donor heavy atom, donor atom, acceptor molecule, acceptor atom, score
      L1  H    10    31       P1  7948  0.80
      L1  H    13    32       P1  7948  0.34
      P1  H  7989  7998       L1     4  0.93
      P1  H  7997  8008       L1     2  0.29

> <Gold.Chemscore.Hbond.Weighted>
-10.6384

> <Gold.Chemscore.Metal.Weighted>
-0.0000

> <Gold.Chemscore.Lipo.Weighted>
-6.5448

> <Gold.Chemscore.Internal_Hbond.Weighted>
0.0000

> <Gold.Chemscore.DEClash.Weighted>
0.1011

> <Gold.Chemscore.DEInternal.Weighted>
1.6111

> <Gold.Chemscore.Rot.Weighted>
4.4319

> <Gold.Chemscore.Internal.Correction.Weighted>
   9.000000E+99

> <Gold.Protein.RotatedTorsions>
[ 6907 6896 6895 6894 ] final  -52.36 input  -60.11 | X-H torsion
[ 7974 7965 7964 7962 ] final  -44.87 input  175.53 | X-H torsion
[ 8008 7997 7996 7995 ] final  -54.37 input   59.86 | X-H torsion
[ 10167 10162 10161 10158 ] final   73.67 input  -65.29 | X-H torsion
[ 10718 10713 10712 10709 ] final -139.71 input   66.30 | X-H torsion
[ 10763 10752 10751 10750 ] final   30.51 input  -60.55 | X-H torsion
[ 11005 11000 10999 10996 ] final  -64.82 input  -57.11 | X-H torsion

> <Gold.Protein.ActiveResidues>
 VAL166  LYS551  ARG553  GLY616  TRP617  ASP618  TYR619  PRO620  LYS621  CYS622 
 ASP623  PHE694  ASN695  SER759  ASP760  ASP761  ALA762  ILE779  LEU786  VAL792 
 PHE793  MET794  SER795  GLU796  ALA797  LYS798  CYS799  TRP800  GLU811  SER814 

> <Gold.Protein.RotatedAtoms>
  150.8525  134.7854  159.7019 H   0  0  0  0  0  0  0  0  0  0  0  0  # atno 6907 bound_to 6896
  152.4586  134.5233  159.9799 H   0  0  0  0  0  0  0  0  0  0  0  0  # atno 6908 bound_to 6896
  151.5351  133.3404  159.2961 H   0  0  0  0  0  0  0  0  0  0  0  0  # atno 6909 bound_to 6896
  145.9877  140.7214  142.9332 H   0  0  0  0  0  0  0  0  0  0  0  0  # atno 7974 bound_to 7965
  154.4160  140.1178  156.5304 H   0  0  0  0  0  0  0  0  0  0  0  0  # atno 8008 bound_to 7997
  155.6611  140.3496  155.4764 H   0  0  0  0  0  0  0  0  0  0  0  0  # atno 8009 bound_to 7997
  155.9712  140.1142  157.0800 H   0  0  0  0  0  0  0  0  0  0  0  0  # atno 8010 bound_to 7997
  140.0219  144.5533  150.7575 H   0  0  0  0  0  0  0  0  0  0  0  0  # atno 10167 bound_to 10162
  156.3139  130.7497  151.1579 H   0  0  0  0  0  0  0  0  0  0  0  0  # atno 10718 bound_to 10713
  153.0368  135.6462  154.1055 H   0  0  0  0  0  0  0  0  0  0  0  0  # atno 10763 bound_to 10752
  154.0768  135.2876  155.3299 H   0  0  0  0  0  0  0  0  0  0  0  0  # atno 10764 bound_to 10752
  154.6557  135.5410  153.8020 H   0  0  0  0  0  0  0  0  0  0  0  0  # atno 10765 bound_to 10752
  141.1436  133.6672  156.5892 H   0  0  0  0  0  0  0  0  0  0  0  0  # atno 11005 bound_to 11000
  144.6880  140.3017  143.7262 LP  0  0  0  0  0  0  0  0  0  0  0  0  # atno 17320 bound_to 7965
  145.7675  139.1846  143.2231 LP  0  0  0  0  0  0  0  0  0  0  0  0  # atno 17321 bound_to 7965
  140.7338  143.2722  151.3853 LP  0  0  0  0  0  0  0  0  0  0  0  0  # atno 17342 bound_to 10162
  139.6134  144.1053  152.2321 LP  0  0  0  0  0  0  0  0  0  0  0  0  # atno 17343 bound_to 10162
  157.7397  131.0526  150.5214 LP  0  0  0  0  0  0  0  0  0  0  0  0  # atno 17370 bound_to 10713
  156.5357  130.4195  149.6179 LP  0  0  0  0  0  0  0  0  0  0  0  0  # atno 17371 bound_to 10713
  140.3776  134.7551  157.4640 LP  0  0  0  0  0  0  0  0  0  0  0  0  # atno 17394 bound_to 11000
  140.0662  134.5926  155.8693 LP  0  0  0  0  0  0  0  0  0  0  0  0  # atno 17395 bound_to 11000

$$$$
