AV-unprocessed.smi:702|AV-procd|sdf|3420|dock5
  -GOLD-   22720 0403D 1   1.00000     0.00000
 Structure written by MMmdl.
 51 53  0  0  0  0  0  0  0  0  3 V2000
  143.5941  138.3351  153.9694 C   0  0  0  0  0  0  0  0  0  0  0  0
  145.0949  138.4483  153.6165 C   0  0  2  0  0  0  0  0  0  0  0  0
  145.5862  137.1164  153.2495 N   0  0  0  0  0  0  0  0  0  0  0  0
  145.0182  136.2654  152.3820 C   0  0  0  0  0  0  0  0  0  0  0  0
  144.0073  136.5291  151.7329 O   0  0  0  0  0  0  0  0  0  0  0  0
  145.6945  135.1040  152.3325 N   0  0  0  0  0  0  0  0  0  0  0  0
  145.3987  133.9260  151.5914 C   0  0  0  0  0  0  0  0  0  0  0  0
  145.9279  132.7077  152.0733 C   0  0  0  0  0  0  0  0  0  0  0  0
  145.6725  131.5107  151.3739 C   0  0  0  0  0  0  0  0  0  0  0  0
  144.9316  131.5368  150.2458 N   0  3  0  0  0  0  0  0  0  0  0  0
  144.4153  132.6765  149.7384 C   0  0  0  0  0  0  0  0  0  0  0  0
  144.6384  133.9051  150.3936 C   0  0  0  0  0  0  0  0  0  0  0  0
  146.0273  139.1096  154.7000 C   0  0  0  0  0  0  0  0  0  0  0  0
  146.2821  138.1331  155.8299 N   0  3  0  0  0  0  0  0  0  0  0  0
  147.1505  138.6418  156.9330 C   0  0  0  0  0  0  0  0  0  0  0  0
  147.5064  137.5088  157.9087 C   0  0  0  0  0  0  0  0  0  0  0  0
  146.3162  136.9532  158.4470 O   0  0  0  0  0  0  0  0  0  0  0  0
  145.4985  136.3891  157.4327 C   0  0  0  0  0  0  0  0  0  0  0  0
  145.0797  137.4807  156.4333 C   0  0  0  0  0  0  0  0  0  0  0  0
  147.3674  139.6009  154.0768 C   0  0  0  0  0  0  0  0  0  0  0  0
  147.2798  141.1259  153.9882 C   0  0  0  0  0  0  0  0  0  0  0  0
  146.4151  141.5131  155.1817 C   0  0  0  0  0  0  0  0  0  0  0  0
  145.3502  140.4165  155.2252 C   0  0  0  0  0  0  0  0  0  0  0  0
  143.1581  139.3012  154.2197 H   0  0  0  0  0  0  0  0  0  0  0  0
  143.3925  137.6555  154.7957 H   0  0  0  0  0  0  0  0  0  0  0  0
  143.0340  137.9569  153.1133 H   0  0  0  0  0  0  0  0  0  0  0  0
  145.0821  139.0837  152.7336 H   0  0  0  0  0  0  0  0  0  0  0  0
  146.4149  136.8026  153.7339 H   0  0  0  0  0  0  0  0  0  0  0  0
  146.4761  135.0256  152.9667 H   0  0  0  0  0  0  0  0  0  0  0  0
  146.5213  132.6844  152.9762 H   0  0  0  0  0  0  0  0  0  0  0  0
  146.0364  130.5408  151.6806 H   0  0  0  0  0  0  0  0  0  0  0  0
  143.8459  132.5735  148.8260 H   0  0  0  0  0  0  0  0  0  0  0  0
  144.2279  134.8016  149.9565 H   0  0  0  0  0  0  0  0  0  0  0  0
  148.0852  139.0578  156.5706 H   0  0  0  0  0  0  0  0  0  0  0  0
  146.6457  139.4409  157.4763 H   0  0  0  0  0  0  0  0  0  0  0  0
  148.0953  136.7363  157.4111 H   0  0  0  0  0  0  0  0  0  0  0  0
  148.1147  137.8951  158.7267 H   0  0  0  0  0  0  0  0  0  0  0  0
  146.0288  135.5802  156.9272 H   0  0  0  0  0  0  0  0  0  0  0  0
  144.6164  135.9484  157.8978 H   0  0  0  0  0  0  0  0  0  0  0  0
  144.4623  138.2178  156.9465 H   0  0  0  0  0  0  0  0  0  0  0  0
  144.4411  137.0053  155.6935 H   0  0  0  0  0  0  0  0  0  0  0  0
  148.2200  139.3621  154.7104 H   0  0  0  0  0  0  0  0  0  0  0  0
  147.5845  139.1455  153.1103 H   0  0  0  0  0  0  0  0  0  0  0  0
  148.2598  141.6035  154.0078 H   0  0  0  0  0  0  0  0  0  0  0  0
  146.7854  141.4217  153.0624 H   0  0  0  0  0  0  0  0  0  0  0  0
  147.0126  141.4975  156.0938 H   0  0  0  0  0  0  0  0  0  0  0  0
  145.9861  142.5106  155.0821 H   0  0  0  0  0  0  0  0  0  0  0  0
  144.5421  140.7385  154.5732 H   0  0  0  0  0  0  0  0  0  0  0  0
  144.8687  140.3213  156.1972 H   0  0  0  0  0  0  0  0  0  0  0  0
  146.8022  137.3806  155.4021 H   0  0  0  0  0  0  0  0  0  0  0  0
  144.7579  130.6595  149.7541 H   0  0  0  0  0  0  0  0  0  0  0  0
  1  2  1  0  0  0  0
  1 24  1  0  0  0  0
  1 25  1  0  0  0  0
  1 26  1  0  0  0  0
  2  3  1  0  0  0  0
  2 13  1  0  0  0  0
  2 27  1  0  0  0  0
  3  4  1  0  0  0  0
  3 28  1  0  0  0  0
  4  5  2  0  0  0  0
  4  6  1  0  0  0  0
  6  7  1  0  0  0  0
  6 29  1  0  0  0  0
  7 12  1  0  0  0  0
  7  8  2  0  0  0  0
  8  9  1  0  0  0  0
  8 30  1  0  0  0  0
  9 10  2  0  0  0  0
  9 31  1  0  0  0  0
 10 11  1  0  0  0  0
 10 51  1  0  0  0  0
 11 12  2  0  0  0  0
 11 32  1  0  0  0  0
 12 33  1  0  0  0  0
 13 23  1  0  0  0  0
 13 14  1  0  0  0  0
 13 20  1  0  0  0  0
 14 19  1  0  0  0  0
 14 15  1  0  0  0  0
 14 50  1  0  0  0  0
 15 16  1  0  0  0  0
 15 34  1  0  0  0  0
 15 35  1  0  0  0  0
 16 17  1  0  0  0  0
 16 36  1  0  0  0  0
 16 37  1  0  0  0  0
 17 18  1  0  0  0  0
 18 19  1  0  0  0  0
 18 38  1  0  0  0  0
 18 39  1  0  0  0  0
 19 40  1  0  0  0  0
 19 41  1  0  0  0  0
 20 21  1  0  0  0  0
 20 42  1  0  0  0  0
 20 43  1  0  0  0  0
 21 22  1  0  0  0  0
 21 44  1  0  0  0  0
 21 45  1  0  0  0  0
 22 23  1  0  0  0  0
 22 46  1  0  0  0  0
 22 47  1  0  0  0  0
 23 48  1  0  0  0  0
 23 49  1  0  0  0  0
M  CHG  1  10   1
M  CHG  1  14   1
M  END
> <s_m_source_file>
AV-unprocessed.smi

> <i_m_source_file_index>
702

> <i_lp_mmshare_version>
43012

> <i_f3d_flags>
0

> <s_epik_input>
W0NIMl0xW0NIMl1PW0NIMl1bQ0gyXU4xQzIoW0NIMl1bQ0gyXVtDSDJdW0NIMl0yKVtDQEhdKFtDSDNdKVtOSF1DKD1PKVtOSF1jM1tjSF1bY0hdbltjSF1bY0hdMw==

> <s_epik_cmdline>
J2VwaWtfcHl0aG9uJywgJy1waCcsICc3LjAnLCAnLXRuJywgJzgnLCAnLW1hJywgJzIwMCcsICctbWV0YWxfYmluZGluZycsICctaW1hZScsICc8aW5maWxlLm1hZT4nLCAnLW9tYWUnLCAnPG91dGZpbGUubWFlPic=

> <r_epik_Ionization_Penalty>
1.42147

> <r_epik_Ionization_Penalty_Charging>
1.42145

> <r_epik_Ionization_Penalty_Neutral>
1.94713e-05

> <r_epik_State_Penalty>
1.44789

> <r_epik_Charging_Adjusted_Penalty>
2.86934

> <i_epik_Tot_Q>
2

> <i_epik_Tot_abs_Q>
2

> <r_epik_Metal_State_Penalty>
1.5401

> <b_epik_Metal_Only>
0

> <s_lp_Force_Field>
OPLS_2005

> <r_lp_Energy>
70.747

> <b_lp_Chiralities_Consistent>
1

> <s_lp_Variant>
AV-unprocessed.smi:702-5

> <Gold.Version>
5.8.1

> <Gold.Id.Protein>
6NUR|6NUR_protein|mol2

> <Gold.PLP.Fitness>
48.5993

> <Gold.PLP.PLP>
-34.5267

> <Gold.PLP.part.hbond>
-4.0000

> <Gold.PLP.part.metal>
0.0000

> <Gold.PLP.part.buried>
-2.3187

> <Gold.PLP.part.nonpolar>
-28.5032

> <Gold.PLP.part.repulsive>
0.3970

> <Gold.PLP.ligand.clash>
0.0000

> <Gold.PLP.ligand.torsion>
0.5406

> <Gold.PLP.Chemscore.Hbond>
5.0000

> <Gold.PLP.Chemscore.CHOScore>
0.0000

> <Gold.PLP.Chemscore.Metal>
0.0000

> <Gold.PLP.Chemscore.Internal.Correction>
0.1539

> <Gold.Rescore>
     Score         DG    S(hbond)    S(metal)    S(lipo)     H(rot)  DE(clash)    DE(int)     intcor
     21.92     -23.44       3.48        0.00      86.50       1.48       0.38       1.15       ----

> <Gold.Chemscore.Fitness>
21.9160

> <Gold.Chemscore.DG>
-23.4437

> <Gold.Chemscore.ZeroCoef>
-5.4800

> <Gold.Chemscore.Hbond>
3.4818

> <Gold.Chemscore.Metal>
0.0000

> <Gold.Chemscore.Lipo>
86.4957

> <Gold.Chemscore.Internal_Hbond>
0.0000

> <Gold.Chemscore.DEClash>
0.3763

> <Gold.Chemscore.DEInternal>
1.1513

> <Gold.Chemscore.Rot>
1.4787

> <Gold.Chemscore.Internal.Correction>
   9.000000E+99

> <Gold.Chemscore.Hbond.Weighted>
-11.6291

> <Gold.Chemscore.Metal.Weighted>
-0.0000

> <Gold.Chemscore.Lipo.Weighted>
-10.1200

> <Gold.Chemscore.Internal_Hbond.Weighted>
0.0000

> <Gold.Chemscore.DEClash.Weighted>
0.3763

> <Gold.Chemscore.DEInternal.Weighted>
1.1513

> <Gold.Chemscore.Rot.Weighted>
3.7854

> <Gold.Chemscore.Internal.Correction.Weighted>
   9.000000E+99

> <Gold.Protein.RotatedTorsions>
[ 6907 6896 6895 6894 ] final  -15.17 input  -60.11 | X-H torsion
[ 7974 7965 7964 7962 ] final  -74.27 input  175.53 | X-H torsion
[ 8008 7997 7996 7995 ] final  139.90 input   59.86 | X-H torsion
[ 10167 10162 10161 10158 ] final   63.09 input  -65.29 | X-H torsion
[ 10718 10713 10712 10709 ] final  -53.36 input   66.30 | X-H torsion
[ 10763 10752 10751 10750 ] final   53.38 input  -60.55 | X-H torsion
[ 11005 11000 10999 10996 ] final  144.73 input  -57.11 | X-H torsion

> <Gold.Protein.ActiveResidues>
 VAL166  LYS551  ARG553  GLY616  TRP617  ASP618  TYR619  PRO620  LYS621  CYS622 
 ASP623  PHE694  ASN695  SER759  ASP760  ASP761  ALA762  ILE779  LEU786  VAL792 
 PHE793  MET794  SER795  GLU796  ALA797  LYS798  CYS799  TRP800  GLU811  SER814 

> <Gold.Protein.RotatedAtoms>
  151.3281  135.0835  159.9328 H   0  0  0  0  0  0  0  0  0  0  0  0  # atno 6907 bound_to 6896
  152.5241  133.9571  159.7710 H   0  0  0  0  0  0  0  0  0  0  0  0  # atno 6908 bound_to 6896
  150.9904  133.6102  159.2739 H   0  0  0  0  0  0  0  0  0  0  0  0  # atno 6909 bound_to 6896
  145.6413  140.9310  143.1034 H   0  0  0  0  0  0  0  0  0  0  0  0  # atno 7974 bound_to 7965
  156.2985  140.2355  156.4313 H   0  0  0  0  0  0  0  0  0  0  0  0  # atno 8008 bound_to 7997
  154.8268  140.0435  157.1469 H   0  0  0  0  0  0  0  0  0  0  0  0  # atno 8009 bound_to 7997
  154.9253  140.3009  155.5199 H   0  0  0  0  0  0  0  0  0  0  0  0  # atno 8010 bound_to 7997
  140.1368  144.4591  150.6833 H   0  0  0  0  0  0  0  0  0  0  0  0  # atno 10167 bound_to 10162
  156.1542  130.4150  149.9896 H   0  0  0  0  0  0  0  0  0  0  0  0  # atno 10718 bound_to 10713
  152.9795  135.5781  154.4732 H   0  0  0  0  0  0  0  0  0  0  0  0  # atno 10763 bound_to 10752
  154.4291  135.2773  155.1926 H   0  0  0  0  0  0  0  0  0  0  0  0  # atno 10764 bound_to 10752
  154.3642  135.6182  153.5760 H   0  0  0  0  0  0  0  0  0  0  0  0  # atno 10765 bound_to 10752
  140.0655  134.9181  157.1257 H   0  0  0  0  0  0  0  0  0  0  0  0  # atno 11005 bound_to 11000
  144.7156  139.8208  143.7399 LP  0  0  0  0  0  0  0  0  0  0  0  0  # atno 17320 bound_to 7965
  146.1279  139.4308  143.0187 LP  0  0  0  0  0  0  0  0  0  0  0  0  # atno 17321 bound_to 7965
  140.6784  143.2315  151.5447 LP  0  0  0  0  0  0  0  0  0  0  0  0  # atno 17342 bound_to 10162
  139.5492  144.2441  152.1499 LP  0  0  0  0  0  0  0  0  0  0  0  0  # atno 17343 bound_to 10162
  156.7744  130.9198  151.3645 LP  0  0  0  0  0  0  0  0  0  0  0  0  # atno 17370 bound_to 10713
  157.6681  130.9026  149.9979 LP  0  0  0  0  0  0  0  0  0  0  0  0  # atno 17371 bound_to 10713
  140.3705  134.2395  155.7178 LP  0  0  0  0  0  0  0  0  0  0  0  0  # atno 17394 bound_to 11000
  141.1991  133.8020  157.0552 LP  0  0  0  0  0  0  0  0  0  0  0  0  # atno 17395 bound_to 11000

$$$$
