#       Name:                AV-unprocessed.smi:1461
#       Creating user name   scv26
#       Creation time:       Fri Mar 27 06:01:27 2020


#       File generated by GOLD software.
#

@<TRIPOS>MOLECULE
AV-unprocessed.smi:1461
    45    46     1
SMALL
NO_CHARGES


@<TRIPOS>ATOM
      1 ****        -2.8509  -1.8180  -4.3336 C.3            1 S1                 0.0000
      2 ****        -2.0825  -1.2259  -3.1431 C.3            1 S1                 0.0000
      3 ****        -2.4913   0.2383  -2.9054 C.3            1 S1                 0.0000
      4 ****        -0.5597  -1.3908  -3.3410 C.3            1 S1                 0.0000
      5 ****         0.2153  -0.8858  -2.2119 N.am           1 S1                 0.0000
      6 ****         0.3647  -1.5145  -1.0379 C.2            1 S1                 0.0000
      7 ****        -0.1263  -2.6144  -0.7847 O.2            1 S1                 0.0000
      8 ****         1.0929  -0.7799  -0.1812 N.am           1 S1                 0.0000
      9 ****         1.3587  -1.0596   1.1880 C.ar           1 S1                 0.0000
     10 ****         1.6215  -2.3841   1.6226 C.ar           1 S1                 0.0000
     11 ****         1.9497  -2.6300   2.9690 C.ar           1 S1                 0.0000
     12 ****         2.0268  -1.5448   3.8586 C.ar           1 S1                 0.0000
     13 ****         1.7843  -0.2951   3.4118 N.pl3          1 S1                 1.0000
     14 ****         1.4489   0.0049   2.1319 C.ar           1 S1                 0.0000
     15 ****         1.2126   1.3626   1.8147 N.3            1 S1                 0.0000
     16 ****         1.4832   2.4080   2.7946 C.3            1 S1                 0.0000
     17 ****         0.8061   3.6574   2.2376 C.3            1 S1                 0.0000
     18 ****        -0.4351   3.0836   1.5606 C.3            1 S1                 0.0000
     19 ****         0.0331   1.7230   1.0334 C.3            1 S1                 0.0000
     20 ****        -2.6083  -1.2976  -5.2607 H              1 S1                 0.0000
     21 ****        -3.9283  -1.7448  -4.1829 H              1 S1                 0.0000
     22 ****        -2.6103  -2.8726  -4.4713 H              1 S1                 0.0000
     23 ****        -2.3743  -1.7952  -2.2597 H              1 S1                 0.0000
     24 ****        -2.2104   0.8695  -3.7489 H              1 S1                 0.0000
     25 ****        -2.0217   0.6476  -2.0108 H              1 S1                 0.0000
     26 ****        -3.5697   0.3254  -2.7705 H              1 S1                 0.0000
     27 ****        -0.3096  -2.4392  -3.5130 H              1 S1                 0.0000
     28 ****        -0.2411  -0.8509  -4.2333 H              1 S1                 0.0000
     29 ****         0.6557   0.0146  -2.3326 H              1 S1                 0.0000
     30 ****         1.3604   0.1398  -0.5000 H              1 S1                 0.0000
     31 ****         1.5970  -3.2162   0.9347 H              1 S1                 0.0000
     32 ****         2.1512  -3.6350   3.3098 H              1 S1                 0.0000
     33 ****         2.2776  -1.6356   4.9056 H              1 S1                 0.0000
     34 ****         1.0407   2.1497   3.7576 H              1 S1                 0.0000
     35 ****         2.5542   2.5564   2.9352 H              1 S1                 0.0000
     36 ****         0.5726   4.3941   3.0067 H              1 S1                 0.0000
     37 ****         1.4493   4.1323   1.4954 H              1 S1                 0.0000
     38 ****        -1.2218   2.9392   2.3025 H              1 S1                 0.0000
     39 ****        -0.8290   3.7291   0.7751 H              1 S1                 0.0000
     40 ****         0.3205   1.8097  -0.0148 H              1 S1                 0.0000
     41 ****        -0.7571   0.9750   1.1102 H              1 S1                 0.0000
     42 ****         1.8500   0.4713   4.0818 H              1 S1                 0.0000
     43 ****        -0.6723  -3.0891  -1.4750 LP             1 S1                 0.0000
     44 ****         0.0208  -3.0334   0.1113 LP             1 S1                 0.0000
     45 ****         1.9960   1.3562   1.1932 LP             1 S1                 0.0000
@<TRIPOS>BOND
    1    1    2 1     
    2    1   20 1     
    3    1   21 1     
    4    1   22 1     
    5    2    3 1     
    6    2    4 1     
    7    2   23 1     
    8    3   24 1     
    9    3   25 1     
   10    3   26 1     
   11    4    5 1     
   12    4   27 1     
   13    4   28 1     
   14    5    6 am    
   15    5   29 1     
   16    6    7 2     
   17    6    8 am    
   18    8    9 1     
   19    8   30 1     
   20    9   14 ar    
   21    9   10 ar    
   22   10   11 ar    
   23   10   31 1     
   24   11   12 ar    
   25   11   32 1     
   26   12   13 ar    
   27   12   33 1     
   28   13   14 ar    
   29   13   42 1     
   30   14   15 1     
   31   15   19 1     
   32   15   16 1     
   33   16   17 1     
   34   16   34 1     
   35   16   35 1     
   36   17   18 1     
   37   17   36 1     
   38   17   37 1     
   39   18   19 1     
   40   18   38 1     
   41   18   39 1     
   42   19   40 1     
   43   19   41 1     
   44    7   43 1     
   45    7   44 1     
   46   15   45 1     
@<TRIPOS>SUBSTRUCTURE
      1 S1             1
@<TRIPOS>SET
LONE_PAIRS      STATIC     ATOMS    <user>   **** ""
3 43 44 45
DONOR_HYDROGENS      STATIC     ATOMS    <user>   **** ""
3 29 30 42
ATOM$BLUE        STATIC     ATOMS    COLORGROUP SYSTEM
3 43 44 45
ATOM$RED        STATIC     ATOMS    COLORGROUP SYSTEM
3 29 30 42
