AV-unprocessed.smi:34|AV-procd|sdf|229|dock7
  -GOLD-   2262015553D 1   1.00000     0.00000
 Structure written by MMmdl.
 55 59  0  0  0  0  0  0  0  0  1 V2000
  150.4922  142.0590  156.4531 O   0  0  0  0  0  0  0  0  0  0  0  0
  151.3159  141.6784  157.2855 C   0  0  0  0  0  0  0  0  0  0  0  0
  151.9197  140.3589  157.2295 N   0  0  0  0  0  0  0  0  0  0  0  0
  151.7509  139.4024  156.2868 C   0  0  0  0  0  0  0  0  0  0  0  0
  151.3912  139.6941  155.0091 N   0  0  0  0  0  0  0  0  0  0  0  0
  151.2332  138.7139  154.1156 C   0  0  0  0  0  0  0  0  0  0  0  0
  151.3835  137.3996  154.2877 N   0  0  0  0  0  0  0  0  0  0  0  0
  151.7507  137.0959  155.5654 C   0  0  0  0  0  0  0  0  0  0  0  0
  151.9559  138.0364  156.6134 C   0  0  0  0  0  0  0  0  0  0  0  0
  152.3227  137.3725  157.7764 N   0  0  0  0  0  0  0  0  0  0  0  0
  152.3274  136.1129  157.4327 C   0  0  0  0  0  0  0  0  0  0  0  0
  151.9891  135.8541  156.1230 N   0  0  0  0  0  0  0  0  0  0  0  0
  151.8968  134.5114  155.4641 C   0  0  2  0  0  0  0  0  0  0  0  0
  151.2931  133.5931  156.3280 O   0  0  0  0  0  0  0  0  0  0  0  0
  151.9654  132.3300  156.2886 C   0  0  2  0  0  0  0  0  0  0  0  0
  152.6425  132.0851  157.6467 C   0  0  0  0  0  0  0  0  0  0  0  0
  151.7769  132.5299  158.6788 O   0  0  0  0  0  0  0  0  0  0  0  0
  152.0324  132.2130  159.9634 C   0  0  0  0  0  0  0  0  0  0  0  0
  152.6088  131.1804  160.3115 O   0  0  0  0  0  0  0  0  0  0  0  0
  151.5557  133.2512  160.9217 C   0  0  0  0  0  0  0  0  0  0  0  0
  151.5962  132.9839  162.3101 C   0  0  0  0  0  0  0  0  0  0  0  0
  151.1577  133.9475  163.2391 C   0  0  0  0  0  0  0  0  0  0  0  0
  150.6732  135.1900  162.7911 C   0  0  0  0  0  0  0  0  0  0  0  0
  150.6275  135.4679  161.4127 C   0  0  0  0  0  0  0  0  0  0  0  0
  151.0663  134.5059  160.4822 C   0  0  0  0  0  0  0  0  0  0  0  0
  152.9506  132.4586  155.1214 C   0  0  2  0  0  0  0  0  0  0  0  0
  154.0324  131.6819  155.2040 F   0  0  0  0  0  0  0  0  0  0  0  0
  153.2640  133.9415  155.0655 C   0  0  2  0  0  0  0  0  0  0  0  0
  154.3089  134.3132  155.9480 O   0  0  0  0  0  0  0  0  0  0  0  0
  151.6854  142.5197  158.4719 C   0  0  0  0  0  0  0  0  0  0  0  0
  151.0176  143.7426  158.7058 C   0  0  0  0  0  0  0  0  0  0  0  0
  151.3648  144.5445  159.8104 C   0  0  0  0  0  0  0  0  0  0  0  0
  152.3892  144.1347  160.6846 C   0  0  0  0  0  0  0  0  0  0  0  0
  153.0686  142.9242  160.4514 C   0  0  0  0  0  0  0  0  0  0  0  0
  152.7213  142.1204  159.3479 C   0  0  0  0  0  0  0  0  0  0  0  0
  152.5372  140.1239  157.9927 H   0  0  0  0  0  0  0  0  0  0  0  0
  150.9437  139.0258  153.1227 H   0  0  0  0  0  0  0  0  0  0  0  0
  152.5736  135.3289  158.1343 H   0  0  0  0  0  0  0  0  0  0  0  0
  151.2430  134.6661  154.6046 H   0  0  0  0  0  0  0  0  0  0  0  0
  151.2498  131.5313  156.0896 H   0  0  0  0  0  0  0  0  0  0  0  0
  152.8357  131.0213  157.7887 H   0  0  0  0  0  0  0  0  0  0  0  0
  153.6032  132.5975  157.6935 H   0  0  0  0  0  0  0  0  0  0  0  0
  151.9659  132.0375  162.6774 H   0  0  0  0  0  0  0  0  0  0  0  0
  151.1945  133.7325  164.2968 H   0  0  0  0  0  0  0  0  0  0  0  0
  150.3372  135.9292  163.5033 H   0  0  0  0  0  0  0  0  0  0  0  0
  150.2563  136.4214  161.0673 H   0  0  0  0  0  0  0  0  0  0  0  0
  151.0187  134.7518  159.4316 H   0  0  0  0  0  0  0  0  0  0  0  0
  152.4414  132.1725  154.1999 H   0  0  0  0  0  0  0  0  0  0  0  0
  153.5234  134.2715  154.0591 H   0  0  0  0  0  0  0  0  0  0  0  0
  153.9265  134.5822  156.7693 H   0  0  0  0  0  0  0  0  0  0  0  0
  150.2298  144.0712  158.0435 H   0  0  0  0  0  0  0  0  0  0  0  0
  150.8448  145.4745  159.9859 H   0  0  0  0  0  0  0  0  0  0  0  0
  152.6558  144.7504  161.5310 H   0  0  0  0  0  0  0  0  0  0  0  0
  153.8590  142.6123  161.1181 H   0  0  0  0  0  0  0  0  0  0  0  0
  153.2608  141.1991  159.1820 H   0  0  0  0  0  0  0  0  0  0  0  0
  1  2  2  0  0  0  0
  2  3  1  0  0  0  0
  2 30  1  0  0  0  0
  3  4  1  0  0  0  0
  3 36  1  0  0  0  0
  4  9  1  0  0  0  0
  4  5  2  0  0  0  0
  5  6  1  0  0  0  0
  6  7  2  0  0  0  0
  6 37  1  0  0  0  0
  7  8  1  0  0  0  0
  8 12  1  0  0  0  0
  8  9  2  0  0  0  0
  9 10  1  0  0  0  0
 10 11  2  0  0  0  0
 11 12  1  0  0  0  0
 11 38  1  0  0  0  0
 12 13  1  0  0  0  0
 13 28  1  0  0  0  0
 13 14  1  0  0  0  0
 13 39  1  0  0  0  0
 14 15  1  0  0  0  0
 15 16  1  0  0  0  0
 15 26  1  0  0  0  0
 15 40  1  0  0  0  0
 16 17  1  0  0  0  0
 16 41  1  0  0  0  0
 16 42  1  0  0  0  0
 17 18  1  0  0  0  0
 18 19  2  0  0  0  0
 18 20  1  0  0  0  0
 20 25  1  0  0  0  0
 20 21  2  0  0  0  0
 21 22  1  0  0  0  0
 21 43  1  0  0  0  0
 22 23  2  0  0  0  0
 22 44  1  0  0  0  0
 23 24  1  0  0  0  0
 23 45  1  0  0  0  0
 24 25  2  0  0  0  0
 24 46  1  0  0  0  0
 25 47  1  0  0  0  0
 26 27  1  0  0  0  0
 26 28  1  0  0  0  0
 26 48  1  0  0  0  0
 28 29  1  0  0  0  0
 28 49  1  0  0  0  0
 29 50  1  0  0  0  0
 30 35  1  0  0  0  0
 30 31  2  0  0  0  0
 31 32  1  0  0  0  0
 31 51  1  0  0  0  0
 32 33  2  0  0  0  0
 32 52  1  0  0  0  0
 33 34  1  0  0  0  0
 33 53  1  0  0  0  0
 34 35  2  0  0  0  0
 34 54  1  0  0  0  0
 35 55  1  0  0  0  0
M  END
> <s_m_source_file>
AV-unprocessed.smi

> <i_m_source_file_index>
34

> <i_lp_mmshare_version>
43012

> <i_f3d_flags>
0

> <s_epik_input>
W2NIXTFbY0hdW2NIXVtjSF1bY0hdYzFDKD1PKVtOSF1jKG5bY0hdbjIpYyhjMjMpbltjSF1uM1tDQEBIXTRPW0NASF0oW0NAQEhdKEYpW0NASF00W09IXSlbQ0gyXU9DKD1PKWM1W2NIXVtjSF1bY0hdW2NIXVtjSF01

> <s_epik_cmdline>
J2VwaWtfcHl0aG9uJywgJy1waCcsICc3LjAnLCAnLXRuJywgJzgnLCAnLW1hJywgJzIwMCcsICctbWV0YWxfYmluZGluZycsICctaW1hZScsICc8aW5maWxlLm1hZT4nLCAnLW9tYWUnLCAnPG91dGZpbGUubWFlPic=

> <r_lp_tautomer_probability>
1

> <r_epik_Ionization_Penalty>
0.00257489

> <r_epik_Ionization_Penalty_Charging>
0

> <r_epik_Ionization_Penalty_Neutral>
0.00257489

> <r_epik_State_Penalty>
0.00519398

> <r_epik_Charging_Adjusted_Penalty>
0.00519398

> <i_epik_Tot_Q>
0

> <i_epik_Tot_abs_Q>
0

> <r_epik_Metal_State_Penalty>
0.335891

> <b_epik_Metal_Only>
0

> <s_epik_Chemistry_Notes>
This compound has an ester and may undergo hydrolysis at high or low pH. This compound contains an acetal/aminal-like group ( X-CH(R)-Y where X, Y are N, S, or O) that may be acid/base labile, releasing an aldehyde.

> <s_lp_Force_Field>
OPLS_2005

> <r_lp_Energy>
55.6649

> <b_lp_Chiralities_Consistent>
1

> <s_lp_Variant>
AV-unprocessed.smi:34-15

> <Gold.Version>
5.8.1

> <Gold.Id.Protein>
6NUR|6NUR_protein|mol2

> <Gold.PLP.Fitness>
59.3137

> <Gold.PLP.PLP>
-57.1952

> <Gold.PLP.part.hbond>
-1.2321

> <Gold.PLP.part.metal>
0.0000

> <Gold.PLP.part.buried>
-9.0296

> <Gold.PLP.part.nonpolar>
-47.8374

> <Gold.PLP.part.repulsive>
0.7969

> <Gold.PLP.ligand.clash>
0.0000

> <Gold.PLP.ligand.torsion>
1.3513

> <Gold.PLP.Chemscore.Hbond>
0.4500

> <Gold.PLP.Chemscore.CHOScore>
1.0000

> <Gold.PLP.Chemscore.Metal>
0.0000

> <Gold.Chemscore.Hbonds>
donor molecule, donor type, donor heavy atom, donor atom, acceptor molecule, acceptor atom, score
      P1  H  7989  7998       L1     5  0.30
      L1  C     6    37       P1  7957  0.93

> <Gold.PLP.Chemscore.Internal.Correction>
0.4711

> <Gold.Rescore>
     Score         DG    S(hbond)    S(metal)    S(lipo)     H(rot)  DE(clash)    DE(int)     intcor
     11.11     -14.36       0.00        0.00     135.41       2.72       0.03       3.22       ----

> <Gold.Chemscore.Fitness>
11.1070

> <Gold.Chemscore.DG>
-14.3559

> <Gold.Chemscore.ZeroCoef>
-5.4800

> <Gold.Chemscore.Hbond>
0.0000

> <Gold.Chemscore.Metal>
0.0000

> <Gold.Chemscore.Lipo>
135.4095

> <Gold.Chemscore.Internal_Hbond>
0.0000

> <Gold.Chemscore.DEClash>
0.0310

> <Gold.Chemscore.DEInternal>
3.2178

> <Gold.Chemscore.Rot>
2.7215

> <Gold.Chemscore.Internal.Correction>
   9.000000E+99

> <Gold.Chemscore.Hbond.Weighted>
-0.0000

> <Gold.Chemscore.Metal.Weighted>
-0.0000

> <Gold.Chemscore.Lipo.Weighted>
-15.8429

> <Gold.Chemscore.Internal_Hbond.Weighted>
0.0000

> <Gold.Chemscore.DEClash.Weighted>
0.0310

> <Gold.Chemscore.DEInternal.Weighted>
3.2178

> <Gold.Chemscore.Rot.Weighted>
6.9670

> <Gold.Chemscore.Internal.Correction.Weighted>
   9.000000E+99

> <Gold.Protein.RotatedTorsions>
[ 6907 6896 6895 6894 ] final -138.74 input  -60.11 | X-H torsion
[ 7974 7965 7964 7962 ] final  104.35 input  175.53 | X-H torsion
[ 8008 7997 7996 7995 ] final -114.69 input   59.86 | X-H torsion
[ 10167 10162 10161 10158 ] final   19.35 input  -65.29 | X-H torsion
[ 10718 10713 10712 10709 ] final   55.20 input   66.30 | X-H torsion
[ 10763 10752 10751 10750 ] final  135.70 input  -60.55 | X-H torsion
[ 11005 11000 10999 10996 ] final  127.81 input  -57.11 | X-H torsion

> <Gold.Protein.ActiveResidues>
 VAL166  LYS551  ARG553  GLY616  TRP617  ASP618  TYR619  PRO620  LYS621  CYS622 
 ASP623  PHE694  ASN695  SER759  ASP760  ASP761  ALA762  ILE779  LEU786  VAL792 
 PHE793  MET794  SER795  GLU796  ALA797  LYS798  CYS799  TRP800  GLU811  SER814 

> <Gold.Protein.RotatedAtoms>
  151.0389  133.5724  159.2652 H   0  0  0  0  0  0  0  0  0  0  0  0  # atno 6907 bound_to 6896
  151.2778  135.0704  159.9168 H   0  0  0  0  0  0  0  0  0  0  0  0  # atno 6908 bound_to 6896
  152.5360  134.0108  159.7991 H   0  0  0  0  0  0  0  0  0  0  0  0  # atno 6909 bound_to 6896
  145.3340  139.2479  143.3645 H   0  0  0  0  0  0  0  0  0  0  0  0  # atno 7974 bound_to 7965
  155.0402  140.0392  157.2507 H   0  0  0  0  0  0  0  0  0  0  0  0  # atno 8008 bound_to 7997
  154.7223  140.2714  155.6507 H   0  0  0  0  0  0  0  0  0  0  0  0  # atno 8009 bound_to 7997
  156.2820  140.2700  156.1898 H   0  0  0  0  0  0  0  0  0  0  0  0  # atno 8010 bound_to 7997
  140.5586  143.9379  150.6626 H   0  0  0  0  0  0  0  0  0  0  0  0  # atno 10167 bound_to 10162
  157.5324  130.8640  149.8706 H   0  0  0  0  0  0  0  0  0  0  0  0  # atno 10718 bound_to 10713
  153.8443  135.3087  155.3428 H   0  0  0  0  0  0  0  0  0  0  0  0  # atno 10763 bound_to 10752
  154.7919  135.4777  154.0075 H   0  0  0  0  0  0  0  0  0  0  0  0  # atno 10764 bound_to 10752
  153.1557  135.6851  153.8909 H   0  0  0  0  0  0  0  0  0  0  0  0  # atno 10765 bound_to 10752
  139.9527  134.9619  156.8909 H   0  0  0  0  0  0  0  0  0  0  0  0  # atno 11005 bound_to 11000
  146.3034  140.3923  142.8696 LP  0  0  0  0  0  0  0  0  0  0  0  0  # atno 17320 bound_to 7965
  144.8842  140.7440  143.5967 LP  0  0  0  0  0  0  0  0  0  0  0  0  # atno 17321 bound_to 7965
  140.2824  143.3380  152.1139 LP  0  0  0  0  0  0  0  0  0  0  0  0  # atno 17342 bound_to 10162
  139.5059  144.6804  151.6023 LP  0  0  0  0  0  0  0  0  0  0  0  0  # atno 17343 bound_to 10162
  156.0433  130.3734  150.1381 LP  0  0  0  0  0  0  0  0  0  0  0  0  # atno 17370 bound_to 10713
  156.9565  130.9791  151.3488 LP  0  0  0  0  0  0  0  0  0  0  0  0  # atno 17371 bound_to 10713
  140.5681  134.0469  155.7421 LP  0  0  0  0  0  0  0  0  0  0  0  0  # atno 17394 bound_to 11000
  141.1193  133.9488  157.2761 LP  0  0  0  0  0  0  0  0  0  0  0  0  # atno 17395 bound_to 11000

$$$$
