#       Name:                AV-unprocessed.smi:1629
#       Creating user name   scv26
#       Creation time:       Fri Mar 27 07:19:38 2020


#       File generated by GOLD software.
#

@<TRIPOS>MOLECULE
AV-unprocessed.smi:1629
    48    49     1
SMALL
NO_CHARGES


@<TRIPOS>ATOM
      1 ****        -5.0190   1.0040   0.8025 C.3            1 S1                 0.0000
      2 ****        -3.8959   0.0763  -0.3175 S.o2           1 S1                 0.0000
      3 ****        -3.6077  -1.2376   0.2774 O.2            1 S1                 0.0000
      4 ****        -4.4226   0.1723  -1.6875 O.2            1 S1                 0.0000
      5 ****        -2.4465   1.0098  -0.2403 N.3            1 S1                 0.0000
      6 ****        -1.4895   0.9507  -1.3498 C.3            1 S1                 0.0000
      7 ****        -0.9210  -0.4821  -1.5005 C.3            1 S1                 0.0000
      8 ****         0.2949  -0.5191  -2.4432 C.3            1 S1                 0.0000
      9 ****         1.2922   0.4434  -1.9518 N.am           1 S1                 0.0000
     10 ****         2.3819   0.1548  -1.1964 C.2            1 S1                 0.0000
     11 ****         3.0955   1.0225  -0.6912 O.2            1 S1                 0.0000
     12 ****         2.6071  -1.1586  -1.0105 N.am           1 S1                 0.0000
     13 ****         3.5980  -1.7294  -0.0990 C.3            1 S1                 0.0000
     14 ****         2.9604  -2.2455   1.2082 C.3            1 S1                 0.0000
     15 ****         2.0442  -1.2401   1.8881 C.ar           1 S1                 0.0000
     16 ****         0.6433  -1.4094   1.8587 C.ar           1 S1                 0.0000
     17 ****        -0.1660  -0.4235   2.4547 C.ar           1 S1                 0.0000
     18 ****         0.4540   0.6850   3.0616 C.ar           1 S1                 0.0000
     19 ****         1.8615   0.7542   3.0518 C.ar           1 S1                 0.0000
     20 ****         2.6465  -0.1860   2.4828 N.ar           1 S1                 0.0000
     21 ****         0.7947   1.8157  -2.0882 C.3            1 S1                 0.0000
     22 ****        -0.3773   1.9962  -1.1064 C.3            1 S1                 0.0000
     23 ****        -5.9893   0.5086   0.8343 H              1 S1                 0.0000
     24 ****        -5.1444   2.0210   0.4314 H              1 S1                 0.0000
     25 ****        -4.5937   1.0322   1.8053 H              1 S1                 0.0000
     26 ****        -1.9746   0.8752   0.6535 H              1 S1                 0.0000
     27 ****        -2.0074   1.2163  -2.2721 H              1 S1                 0.0000
     28 ****        -0.6243  -0.8654  -0.5257 H              1 S1                 0.0000
     29 ****        -1.6918  -1.1577  -1.8723 H              1 S1                 0.0000
     30 ****         0.6765  -1.5364  -2.5317 H              1 S1                 0.0000
     31 ****        -0.0113  -0.2403  -3.4524 H              1 S1                 0.0000
     32 ****         1.9874  -1.8089  -1.4710 H              1 S1                 0.0000
     33 ****         4.1102  -2.5467  -0.6070 H              1 S1                 0.0000
     34 ****         4.3691  -0.9949   0.1382 H              1 S1                 0.0000
     35 ****         2.3889  -3.1497   0.9950 H              1 S1                 0.0000
     36 ****         3.7425  -2.5435   1.9077 H              1 S1                 0.0000
     37 ****         0.1955  -2.2644   1.3741 H              1 S1                 0.0000
     38 ****        -1.2422  -0.5130   2.4400 H              1 S1                 0.0000
     39 ****        -0.1341   1.4625   3.5258 H              1 S1                 0.0000
     40 ****         2.3705   1.5884   3.5111 H              1 S1                 0.0000
     41 ****         1.5662   2.5634  -1.8982 H              1 S1                 0.0000
     42 ****         0.4608   1.9907  -3.1119 H              1 S1                 0.0000
     43 ****        -0.7849   3.0040  -1.1929 H              1 S1                 0.0000
     44 ****         0.0002   1.9040  -0.0863 H              1 S1                 0.0000
     45 ****        -2.8051   1.9381  -0.3382 LP             1 S1                 0.0000
     46 ****         2.8816   1.9894  -0.8304 LP             1 S1                 0.0000
     47 ****         3.8888   0.7601  -0.1418 LP             1 S1                 0.0000
     48 ****         3.6431  -0.1049   2.5009 LP             1 S1                 0.0000
@<TRIPOS>BOND
    1    1    2 1     
    2    1   23 1     
    3    1   24 1     
    4    1   25 1     
    5    2    3 2     
    6    2    4 2     
    7    2    5 1     
    8    5    6 1     
    9    5   26 1     
   10    6   22 1     
   11    6    7 1     
   12    6   27 1     
   13    7    8 1     
   14    7   28 1     
   15    7   29 1     
   16    8    9 1     
   17    8   30 1     
   18    8   31 1     
   19    9   10 am    
   20    9   21 1     
   21   10   11 2     
   22   10   12 am    
   23   12   13 1     
   24   12   32 1     
   25   13   14 1     
   26   13   33 1     
   27   13   34 1     
   28   14   15 1     
   29   14   35 1     
   30   14   36 1     
   31   15   20 ar    
   32   15   16 ar    
   33   16   17 ar    
   34   16   37 1     
   35   17   18 ar    
   36   17   38 1     
   37   18   19 ar    
   38   18   39 1     
   39   19   20 ar    
   40   19   40 1     
   41   21   22 1     
   42   21   41 1     
   43   21   42 1     
   44   22   43 1     
   45   22   44 1     
   46    5   45 1     
   47   11   46 1     
   48   11   47 1     
   49   20   48 1     
@<TRIPOS>SUBSTRUCTURE
      1 S1             1
@<TRIPOS>SET
LONE_PAIRS      STATIC     ATOMS    <user>   **** ""
6 3 4 45 46 47 48
DONOR_HYDROGENS      STATIC     ATOMS    <user>   **** ""
2 26 32
ATOM$BLUE        STATIC     ATOMS    COLORGROUP SYSTEM
6 3 4 45 46 47 48
ATOM$RED        STATIC     ATOMS    COLORGROUP SYSTEM
2 26 32
