#       Name:                AV-unprocessed.smi:1522
#       Creating user name   scv26
#       Creation time:       Fri Mar 27 06:27:53 2020


#       File generated by GOLD software.
#

@<TRIPOS>MOLECULE
AV-unprocessed.smi:1522
    39    40     1
SMALL
NO_CHARGES


@<TRIPOS>ATOM
      1 ****        -1.5790   1.1667   0.1658 C.3            1 S1                 0.0000
      2 ****        -1.0333  -0.2790   0.1953 C.3            1 S1                 0.0000
      3 ****         0.5139  -0.2859   0.1568 C.3            1 S1                 0.0000
      4 ****         1.0370   0.4066  -1.0170 N.am           1 S1                 0.0000
      5 ****         2.2079   1.0575  -1.0618 C.2            1 S1                 0.0000
      6 ****         2.9805   1.1267  -0.1059 O.2            1 S1                 0.0000
      7 ****         2.4127   1.6115  -2.2699 N.am           1 S1                 0.0000
      8 ****         3.5134   2.3990  -2.7007 C.2            1 S1                 0.0000
      9 ****         4.5501   2.7237  -1.9122 N.2            1 S1                 0.0000
     10 ****         5.4864   3.5026  -2.5795 N.2            1 S1                 0.0000
     11 ****         5.1195   3.7350  -3.8429 C.2            1 S1                 0.0000
     12 ****         3.5937   3.0250  -4.3414 S.3            1 S1                 0.0000
     13 ****        -1.5426  -1.0166   1.3891 N.4            1 S1                 1.0000
     14 ****        -3.0152  -1.0699   1.5184 C.3            1 S1                 0.0000
     15 ****        -3.3169  -2.2225   2.4788 C.3            1 S1                 0.0000
     16 ****        -2.0677  -3.1067   2.4628 C.3            1 S1                 0.0000
     17 ****        -1.0911  -2.4206   1.5045 C.3            1 S1                 0.0000
     18 ****        -1.2120   1.7223  -0.6972 H              1 S1                 0.0000
     19 ****        -1.2847   1.7177   1.0597 H              1 S1                 0.0000
     20 ****        -2.6666   1.1920   0.1001 H              1 S1                 0.0000
     21 ****        -1.3976  -0.7936  -0.6954 H              1 S1                 0.0000
     22 ****         0.8993   0.1652   1.0731 H              1 S1                 0.0000
     23 ****         0.9019  -1.3038   0.1183 H              1 S1                 0.0000
     24 ****         0.4668   0.3925  -1.8501 H              1 S1                 0.0000
     25 ****         1.6931   1.4610  -2.9614 H              1 S1                 0.0000
     26 ****         5.7523   4.3287  -4.4857 H              1 S1                 0.0000
     27 ****        -3.4275  -0.1276   1.8804 H              1 S1                 0.0000
     28 ****        -3.4591  -1.2814   0.5441 H              1 S1                 0.0000
     29 ****        -3.4865  -1.8411   3.4866 H              1 S1                 0.0000
     30 ****        -4.2120  -2.7688   2.1798 H              1 S1                 0.0000
     31 ****        -1.6406  -3.1623   3.4650 H              1 S1                 0.0000
     32 ****        -2.2896  -4.1256   2.1437 H              1 S1                 0.0000
     33 ****        -1.1420  -2.9011   0.5260 H              1 S1                 0.0000
     34 ****        -0.0633  -2.4902   1.8621 H              1 S1                 0.0000
     35 ****        -1.2010  -0.5385   2.2108 H              1 S1                 0.0000
     36 ****         2.7463   0.6835   0.7594 LP             1 S1                 0.0000
     37 ****         3.8423   1.6262  -0.1947 LP             1 S1                 0.0000
     38 ****         4.6378   2.4386  -0.9577 LP             1 S1                 0.0000
     39 ****         6.3296   3.8465  -2.1661 LP             1 S1                 0.0000
@<TRIPOS>BOND
    1    1    2 1     
    2    1   18 1     
    3    1   19 1     
    4    1   20 1     
    5    2    3 1     
    6    2   13 1     
    7    2   21 1     
    8    3    4 1     
    9    3   22 1     
   10    3   23 1     
   11    4    5 am    
   12    4   24 1     
   13    5    6 2     
   14    5    7 am    
   15    7    8 1     
   16    7   25 1     
   17    8   12 1     
   18    8    9 2     
   19    9   10 1     
   20   10   11 2     
   21   11   12 1     
   22   11   26 1     
   23   13   17 1     
   24   13   14 1     
   25   13   35 1     
   26   14   15 1     
   27   14   27 1     
   28   14   28 1     
   29   15   16 1     
   30   15   29 1     
   31   15   30 1     
   32   16   17 1     
   33   16   31 1     
   34   16   32 1     
   35   17   33 1     
   36   17   34 1     
   37    6   36 1     
   38    6   37 1     
   39    9   38 1     
   40   10   39 1     
@<TRIPOS>SUBSTRUCTURE
      1 S1             1
@<TRIPOS>SET
LONE_PAIRS      STATIC     ATOMS    <user>   **** ""
4 36 37 38 39
DONOR_HYDROGENS      STATIC     ATOMS    <user>   **** ""
3 24 25 35
ATOM$BLUE        STATIC     ATOMS    COLORGROUP SYSTEM
4 36 37 38 39
ATOM$RED        STATIC     ATOMS    COLORGROUP SYSTEM
3 24 25 35
