AV-unprocessed.smi:35|AV-procd|sdf|278|dock3
  -GOLD-   2262016 53D 1   1.00000     0.00000
 Structure written by MMmdl.
 28 29  0  0  0  0  0  0  0  0  2 V2000
  153.7280  137.3639  159.7987 O   0  0  0  0  0  0  0  0  0  0  0  0
  153.0735  138.3755  159.5538 C   0  0  0  0  0  0  0  0  0  0  0  0
  151.9003  138.3490  158.8586 N   0  5  0  0  0  0  0  0  0  0  0  0
  151.1842  139.4771  158.5776 C   0  0  0  0  0  0  0  0  0  0  0  0
  150.1170  139.4587  157.9637 O   0  0  0  0  0  0  0  0  0  0  0  0
  151.6832  140.7385  159.0078 N   0  0  0  0  0  0  0  0  0  0  0  0
  150.8773  141.9866  158.6896 C   0  0  1  0  0  0  0  0  0  0  0  0
  150.7391  142.7617  159.8459 O   0  0  0  0  0  0  0  0  0  0  0  0
  151.7240  143.7908  159.8538 C   0  0  2  0  0  0  0  0  0  0  0  0
  151.3666  144.8979  160.8600 C   0  0  0  0  0  0  0  0  0  0  0  0
  151.1946  144.3399  162.1450 O   0  0  0  0  0  0  0  0  0  0  0  0
  151.7512  144.2103  158.3810 C   0  0  2  0  0  0  0  0  0  0  0  0
  150.6794  145.0955  158.0967 O   0  0  0  0  0  0  0  0  0  0  0  0
  151.6157  142.8698  157.6591 C   0  0  2  0  0  0  0  0  0  0  0  0
  150.9337  142.9828  156.4242 O   0  0  0  0  0  0  0  0  0  0  0  0
  152.8578  140.7906  159.7433 C   0  0  0  0  0  0  0  0  0  0  0  0
  153.5562  139.6714  160.0216 C   0  0  0  0  0  0  0  0  0  0  0  0
  155.2190  139.8997  161.0753 Br  0  0  0  0  0  0  0  0  0  0  0  0
  149.8990  141.6258  158.3668 H   0  0  0  0  0  0  0  0  0  0  0  0
  152.6976  143.3635  160.1014 H   0  0  0  0  0  0  0  0  0  0  0  0
  152.1778  145.6237  160.9234 H   0  0  0  0  0  0  0  0  0  0  0  0
  150.4678  145.4372  160.5592 H   0  0  0  0  0  0  0  0  0  0  0  0
  151.9024  144.6391  162.6956 H   0  0  0  0  0  0  0  0  0  0  0  0
  152.6833  144.7125  158.1207 H   0  0  0  0  0  0  0  0  0  0  0  0
  150.3928  144.9348  157.2102 H   0  0  0  0  0  0  0  0  0  0  0  0
  152.6110  142.4601  157.4793 H   0  0  0  0  0  0  0  0  0  0  0  0
  150.3680  143.7394  156.4712 H   0  0  0  0  0  0  0  0  0  0  0  0
  153.2371  141.7308  160.1120 H   0  0  0  0  0  0  0  0  0  0  0  0
  1  2  2  0  0  0  0
  2 17  1  0  0  0  0
  2  3  1  0  0  0  0
  3  4  1  0  0  0  0
  4  5  2  0  0  0  0
  4  6  1  0  0  0  0
  6  7  1  0  0  0  0
  6 16  1  0  0  0  0
  7 14  1  0  0  0  0
  7  8  1  0  0  0  0
  7 19  1  0  0  0  0
  8  9  1  0  0  0  0
  9 10  1  0  0  0  0
  9 12  1  0  0  0  0
  9 20  1  0  0  0  0
 10 11  1  0  0  0  0
 10 21  1  0  0  0  0
 10 22  1  0  0  0  0
 11 23  1  0  0  0  0
 12 13  1  0  0  0  0
 12 14  1  0  0  0  0
 12 24  1  0  0  0  0
 13 25  1  0  0  0  0
 14 15  1  0  0  0  0
 14 26  1  0  0  0  0
 15 27  1  0  0  0  0
 16 17  2  0  0  0  0
 16 28  1  0  0  0  0
 17 18  1  0  0  0  0
M  CHG  1   3  -1
M  END
> <s_m_source_file>
AV-unprocessed.smi

> <i_m_source_file_index>
35

> <i_lp_mmshare_version>
43012

> <i_f3d_flags>
0

> <s_epik_input>
Tz1jMVtuSF1jKD1PKW4oW2NIXWMxQnIpW0NAQEhdMk9bQ0BASF0oW0NIMl1bT0hdKVtDQEBIXShbT0hdKVtDQEhdMltPSF0=

> <s_epik_cmdline>
J2VwaWtfcHl0aG9uJywgJy1waCcsICc3LjAnLCAnLXRuJywgJzgnLCAnLW1hJywgJzIwMCcsICctbWV0YWxfYmluZGluZycsICctaW1hZScsICc8aW5maWxlLm1hZT4nLCAnLW9tYWUnLCAnPG91dGZpbGUubWFlPic=

> <r_epik_Ionization_Penalty>
1.06112

> <r_epik_Ionization_Penalty_Charging>
2.1796e-09

> <r_epik_Ionization_Penalty_Neutral>
1.06112

> <r_epik_State_Penalty>
1.11484

> <r_epik_Charging_Adjusted_Penalty>
1.11484

> <i_epik_Tot_Q>
-1

> <i_epik_Tot_abs_Q>
1

> <r_epik_Metal_State_Penalty>
0.0032876

> <b_epik_Metal_Only>
0

> <s_epik_Chemistry_Notes>
This compound contains an acetal/aminal-like group ( X-CH(R)-Y where X, Y are N, S, or O) that may be acid/base labile, releasing an aldehyde.

> <s_lp_Force_Field>
OPLS_2005

> <r_lp_Energy>
41.3474

> <b_lp_Chiralities_Consistent>
1

> <s_lp_Variant>
AV-unprocessed.smi:35-32

> <Gold.Version>
5.8.1

> <Gold.Id.Protein>
6NUR|6NUR_protein|mol2

> <Gold.PLP.Fitness>
38.7611

> <Gold.PLP.PLP>
-33.2384

> <Gold.PLP.part.hbond>
-5.7000

> <Gold.PLP.part.metal>
0.0000

> <Gold.PLP.part.buried>
-5.1907

> <Gold.PLP.part.nonpolar>
-22.6340

> <Gold.PLP.part.repulsive>
0.0142

> <Gold.PLP.ligand.clash>
0.0000

> <Gold.PLP.ligand.torsion>
0.2486

> <Gold.PLP.Chemscore.Hbond>
2.0000

> <Gold.PLP.Chemscore.CHOScore>
0.0000

> <Gold.PLP.Chemscore.Metal>
0.0000

> <Gold.Chemscore.Hbonds>
donor molecule, donor type, donor heavy atom, donor atom, acceptor molecule, acceptor atom, score
      L1  H    13    25       P1  8028  0.76
      L1  H    15    27       P1  8028  0.94

> <Gold.PLP.Chemscore.Internal.Correction>
0.0199

> <Gold.Rescore>
     Score         DG    S(hbond)    S(metal)    S(lipo)     H(rot)  DE(clash)    DE(int)     intcor
      8.02      -9.52       1.69        0.00      65.48       3.63       1.48       0.03       ----

> <Gold.Chemscore.Fitness>
8.0151

> <Gold.Chemscore.DG>
-9.5189

> <Gold.Chemscore.ZeroCoef>
-5.4800

> <Gold.Chemscore.Hbond>
1.6949

> <Gold.Chemscore.Metal>
0.0000

> <Gold.Chemscore.Lipo>
65.4770

> <Gold.Chemscore.Internal_Hbond>
0.0000

> <Gold.Chemscore.DEClash>
1.4751

> <Gold.Chemscore.DEInternal>
0.0288

> <Gold.Chemscore.Rot>
3.6261

> <Gold.Chemscore.Internal.Correction>
   9.000000E+99

> <Gold.Chemscore.Hbonds>
donor molecule, donor type, donor heavy atom, donor atom, acceptor molecule, acceptor atom, score
      L1  H    13    25       P1  8028  0.19
      L1  H    15    27       P1  8028  0.90

> <Gold.Chemscore.Hbond.Weighted>
-5.6609

> <Gold.Chemscore.Metal.Weighted>
-0.0000

> <Gold.Chemscore.Lipo.Weighted>
-7.6608

> <Gold.Chemscore.Internal_Hbond.Weighted>
0.0000

> <Gold.Chemscore.DEClash.Weighted>
1.4751

> <Gold.Chemscore.DEInternal.Weighted>
0.0288

> <Gold.Chemscore.Rot.Weighted>
9.2828

> <Gold.Chemscore.Internal.Correction.Weighted>
   9.000000E+99

> <Gold.Protein.RotatedTorsions>
[ 6907 6896 6895 6894 ] final   65.51 input  -60.11 | X-H torsion
[ 7974 7965 7964 7962 ] final -114.91 input  175.53 | X-H torsion
[ 8008 7997 7996 7995 ] final  -24.91 input   59.86 | X-H torsion
[ 10167 10162 10161 10158 ] final   88.10 input  -65.29 | X-H torsion
[ 10718 10713 10712 10709 ] final -134.74 input   66.30 | X-H torsion
[ 10763 10752 10751 10750 ] final -104.88 input  -60.55 | X-H torsion
[ 11005 11000 10999 10996 ] final   88.48 input  -57.11 | X-H torsion

> <Gold.Protein.ActiveResidues>
 VAL166  LYS551  ARG553  GLY616  TRP617  ASP618  TYR619  PRO620  LYS621  CYS622 
 ASP623  PHE694  ASN695  SER759  ASP760  ASP761  ALA762  ILE779  LEU786  VAL792 
 PHE793  MET794  SER795  GLU796  ALA797  LYS798  CYS799  TRP800  GLU811  SER814 

> <Gold.Protein.RotatedAtoms>
  152.4413  134.5585  159.9887 H   0  0  0  0  0  0  0  0  0  0  0  0  # atno 6907 bound_to 6896
  151.5682  133.3388  159.2992 H   0  0  0  0  0  0  0  0  0  0  0  0  # atno 6908 bound_to 6896
  150.8320  134.7610  159.6925 H   0  0  0  0  0  0  0  0  0  0  0  0  # atno 6909 bound_to 6896
  145.1146  140.8632  143.3850 H   0  0  0  0  0  0  0  0  0  0  0  0  # atno 7974 bound_to 7965
  154.4503  140.1940  156.0538 H   0  0  0  0  0  0  0  0  0  0  0  0  # atno 8008 bound_to 7997
  156.0634  140.3294  155.7461 H   0  0  0  0  0  0  0  0  0  0  0  0  # atno 8009 bound_to 7997
  155.5376  140.0583  157.2867 H   0  0  0  0  0  0  0  0  0  0  0  0  # atno 8010 bound_to 7997
  139.8707  144.6494  150.8952 H   0  0  0  0  0  0  0  0  0  0  0  0  # atno 10167 bound_to 10162
  156.2587  130.7196  151.1122 H   0  0  0  0  0  0  0  0  0  0  0  0  # atno 10718 bound_to 10713
  154.7908  135.4770  154.0049 H   0  0  0  0  0  0  0  0  0  0  0  0  # atno 10763 bound_to 10752
  153.1629  135.6812  153.8724 H   0  0  0  0  0  0  0  0  0  0  0  0  # atno 10764 bound_to 10752
  153.8332  135.3189  155.3398 H   0  0  0  0  0  0  0  0  0  0  0  0  # atno 10765 bound_to 10752
  139.8895  134.8490  156.3006 H   0  0  0  0  0  0  0  0  0  0  0  0  # atno 11005 bound_to 11000
  145.0809  139.2961  143.5784 LP  0  0  0  0  0  0  0  0  0  0  0  0  # atno 17320 bound_to 7965
  146.3524  140.0315  142.8650 LP  0  0  0  0  0  0  0  0  0  0  0  0  # atno 17321 bound_to 7965
  140.7761  143.3666  151.1727 LP  0  0  0  0  0  0  0  0  0  0  0  0  # atno 17342 bound_to 10162
  139.7286  143.9108  152.3011 LP  0  0  0  0  0  0  0  0  0  0  0  0  # atno 17343 bound_to 10162
  157.7242  131.0661  150.6004 LP  0  0  0  0  0  0  0  0  0  0  0  0  # atno 17370 bound_to 10713
  156.6090  130.4375  149.5866 LP  0  0  0  0  0  0  0  0  0  0  0  0  # atno 17371 bound_to 10713
  140.9916  133.7205  156.0822 LP  0  0  0  0  0  0  0  0  0  0  0  0  # atno 17394 bound_to 11000
  140.7618  134.3931  157.5524 LP  0  0  0  0  0  0  0  0  0  0  0  0  # atno 17395 bound_to 11000

$$$$
