#       Name:                AV-unprocessed.smi:1554
#       Creating user name   scv26
#       Creation time:       Fri Mar 27 06:42:34 2020


#       File generated by GOLD software.
#

@<TRIPOS>MOLECULE
AV-unprocessed.smi:1554
    53    55     1
SMALL
NO_CHARGES


@<TRIPOS>ATOM
      1 ****        -1.7355   5.8639  -3.2434 C.3            1 S1                 0.0000
      2 ****        -1.4280   4.6597  -2.3705 C.ar           1 S1                 0.0000
      3 ****        -1.1619   4.8568  -0.9967 C.ar           1 S1                 0.0000
      4 ****        -0.8675   3.7643  -0.1518 C.ar           1 S1                 0.0000
      5 ****        -0.5792   3.7272   1.2018 N.2            1 S1                 0.0000
      6 ****        -0.3921   2.4256   1.4002 C.2            1 S1                 0.0000
      7 ****        -0.5259   1.6136   0.3343 N.pl3          1 S1                 0.0000
      8 ****        -0.3617   0.1710   0.3113 C.3            1 S1                 0.0000
      9 ****         1.1161  -0.2513   0.1804 C.3            1 S1                 0.0000
     10 ****         1.6511   0.2716  -1.0194 O.3            1 S1                 0.0000
     11 ****         1.2971  -1.7819   0.1438 C.3            1 S1                 0.0000
     12 ****         0.8824  -2.4977   1.3510 N.3            1 S1                 0.0000
     13 ****         1.7279  -2.1954   2.5041 C.3            1 S1                 0.0000
     14 ****         1.2991  -2.9844   3.7530 C.3            1 S1                 0.0000
     15 ****         1.3053  -4.3785   3.4649 O.3            1 S1                 0.0000
     16 ****         0.4500  -4.7244   2.3794 C.3            1 S1                 0.0000
     17 ****         0.5277  -6.2402   2.1698 C.3            1 S1                 0.0000
     18 ****         0.8869  -3.9395   1.1271 C.3            1 S1                 0.0000
     19 ****        -0.8460   2.4584  -0.7234 C.ar           1 S1                 0.0000
     20 ****        -1.1114   2.2494  -2.0885 C.ar           1 S1                 0.0000
     21 ****        -1.4046   3.3519  -2.9182 C.ar           1 S1                 0.0000
     22 ****        -1.6892   3.1155  -4.3909 C.3            1 S1                 0.0000
     23 ****        -1.6751   6.7933  -2.6760 H              1 S1                 0.0000
     24 ****        -2.7412   5.7882  -3.6576 H              1 S1                 0.0000
     25 ****        -1.0248   5.9300  -4.0676 H              1 S1                 0.0000
     26 ****        -1.1795   5.8528  -0.5792 H              1 S1                 0.0000
     27 ****        -0.1399   2.0386   2.3768 H              1 S1                 0.0000
     28 ****        -0.7899  -0.2317   1.2301 H              1 S1                 0.0000
     29 ****        -0.9522  -0.2367  -0.5102 H              1 S1                 0.0000
     30 ****         1.6959   0.1809   0.9956 H              1 S1                 0.0000
     31 ****         1.1547  -0.0735  -1.7455 H              1 S1                 0.0000
     32 ****         0.7298  -2.1643  -0.7062 H              1 S1                 0.0000
     33 ****         2.3418  -2.0156  -0.0689 H              1 S1                 0.0000
     34 ****         2.7687  -2.4263   2.2713 H              1 S1                 0.0000
     35 ****         1.6875  -1.1321   2.7375 H              1 S1                 0.0000
     36 ****         1.9829  -2.7886   4.5789 H              1 S1                 0.0000
     37 ****         0.3043  -2.6787   4.0807 H              1 S1                 0.0000
     38 ****        -0.5760  -4.4577   2.6386 H              1 S1                 0.0000
     39 ****        -0.1225  -6.5576   1.3542 H              1 S1                 0.0000
     40 ****         0.2183  -6.7738   3.0686 H              1 S1                 0.0000
     41 ****         1.5442  -6.5535   1.9298 H              1 S1                 0.0000
     42 ****         0.2206  -4.1850   0.2991 H              1 S1                 0.0000
     43 ****         1.8856  -4.2622   0.8277 H              1 S1                 0.0000
     44 ****        -1.0865   1.2488  -2.4935 H              1 S1                 0.0000
     45 ****        -1.6474   2.0546  -4.6392 H              1 S1                 0.0000
     46 ****        -0.9560   3.6332  -5.0098 H              1 S1                 0.0000
     47 ****        -2.6828   3.4809  -4.6512 H              1 S1                 0.0000
     48 ****        -0.5258   4.4804   1.8573 LP             1 S1                 0.0000
     49 ****         2.6096   0.0006  -1.1074 LP             1 S1                 0.0000
     50 ****         1.5862   1.2695  -1.0107 LP             1 S1                 0.0000
     51 ****        -0.0453  -2.1843   1.5540 LP             1 S1                 0.0000
     52 ****         1.0033  -4.8739   4.2793 LP             1 S1                 0.0000
     53 ****         2.2391  -4.6526   3.2351 LP             1 S1                 0.0000
@<TRIPOS>BOND
    1    1    2 1     
    2    1   23 1     
    3    1   24 1     
    4    1   25 1     
    5    2   21 ar    
    6    2    3 ar    
    7    3    4 ar    
    8    3   26 1     
    9    4   19 ar    
   10    4    5 1     
   11    5    6 2     
   12    6    7 1     
   13    6   27 1     
   14    7    8 1     
   15    7   19 1     
   16    8    9 1     
   17    8   28 1     
   18    8   29 1     
   19    9   10 1     
   20    9   11 1     
   21    9   30 1     
   22   10   31 1     
   23   11   12 1     
   24   11   32 1     
   25   11   33 1     
   26   12   18 1     
   27   12   13 1     
   28   13   14 1     
   29   13   34 1     
   30   13   35 1     
   31   14   15 1     
   32   14   36 1     
   33   14   37 1     
   34   15   16 1     
   35   16   17 1     
   36   16   18 1     
   37   16   38 1     
   38   17   39 1     
   39   17   40 1     
   40   17   41 1     
   41   18   42 1     
   42   18   43 1     
   43   19   20 ar    
   44   20   21 ar    
   45   20   44 1     
   46   21   22 1     
   47   22   45 1     
   48   22   46 1     
   49   22   47 1     
   50    5   48 1     
   51   10   49 1     
   52   10   50 1     
   53   12   51 1     
   54   15   52 1     
   55   15   53 1     
@<TRIPOS>SUBSTRUCTURE
      1 S1             1
@<TRIPOS>SET
LONE_PAIRS      STATIC     ATOMS    <user>   **** ""
6 48 49 50 51 52 53
DONOR_HYDROGENS      STATIC     ATOMS    <user>   **** ""
1 31
ATOM$BLUE        STATIC     ATOMS    COLORGROUP SYSTEM
6 48 49 50 51 52 53
ATOM$RED        STATIC     ATOMS    COLORGROUP SYSTEM
1 31
