AV-unprocessed.smi:3331|AV-procd|sdf|12824|dock4
  -GOLD-   2272019203D 1   1.00000     0.00000
 Structure written by MMmdl.
 46 47  0  0  0  0  0  0  0  0  1 V2000
  154.2691  141.0782  161.1047 C   0  0  0  0  0  0  0  0  0  0  0  0
  153.0872  141.5715  160.2588 C   0  0  1  0  0  0  0  0  0  0  0  0
  152.8968  143.1004  160.3847 C   0  0  0  0  0  0  0  0  0  0  0  0
  151.7956  143.6384  159.4424 C   0  0  1  0  0  0  0  0  0  0  0  0
  151.7100  145.1699  159.4883 C   0  0  0  0  0  0  0  0  0  0  0  0
  152.0235  143.1240  158.0051 C   0  0  0  0  0  0  0  0  0  0  0  0
  152.0688  141.6570  158.0399 N   0  0  0  0  0  0  0  0  0  0  0  0
  151.0521  140.8887  157.5736 C   0  0  0  0  0  0  0  0  0  0  0  0
  151.0318  139.6674  157.7422 O   0  0  0  0  0  0  0  0  0  0  0  0
  149.8827  141.5345  156.7918 C   0  0  2  0  0  0  0  0  0  0  0  0
  148.5739  141.3751  157.5812 C   0  0  0  0  0  0  0  0  0  0  0  0
  149.7149  140.9617  155.4453 N   0  0  0  0  0  0  0  0  0  0  0  0
  148.8994  141.7903  154.5613 C   0  0  0  0  0  0  0  0  0  0  0  0
  147.5981  141.0542  154.2067 C   0  0  0  0  0  0  0  0  0  0  0  0
  146.4262  141.8069  154.6173 N   0  0  0  0  0  0  0  0  0  0  0  0
  145.9340  142.9833  154.0925 C   0  0  0  0  0  0  0  0  0  0  0  0
  144.8291  143.3212  154.8200 C   0  0  0  0  0  0  0  0  0  0  0  0
  144.7247  142.2763  155.7804 C   0  0  0  0  0  0  0  0  0  0  0  0
  145.6807  141.3704  155.6554 N   0  0  0  0  0  0  0  0  0  0  0  0
  153.2489  141.1859  158.7749 C   0  0  0  0  0  0  0  0  0  0  0  0
  155.2082  141.5204  160.7706 H   0  0  0  0  0  0  0  0  0  0  0  0
  154.3700  139.9943  161.0420 H   0  0  0  0  0  0  0  0  0  0  0  0
  154.1341  141.3364  162.1553 H   0  0  0  0  0  0  0  0  0  0  0  0
  152.1862  141.0858  160.6374 H   0  0  0  0  0  0  0  0  0  0  0  0
  152.6636  143.3627  161.4173 H   0  0  0  0  0  0  0  0  0  0  0  0
  153.8393  143.5968  160.1490 H   0  0  0  0  0  0  0  0  0  0  0  0
  150.8377  143.2467  159.7892 H   0  0  0  0  0  0  0  0  0  0  0  0
  152.6368  145.6297  159.1437 H   0  0  0  0  0  0  0  0  0  0  0  0
  151.5191  145.5222  160.5023 H   0  0  0  0  0  0  0  0  0  0  0  0
  150.9015  145.5357  158.8549 H   0  0  0  0  0  0  0  0  0  0  0  0
  151.2455  143.5066  157.3430 H   0  0  0  0  0  0  0  0  0  0  0  0
  152.9629  143.5102  157.6066 H   0  0  0  0  0  0  0  0  0  0  0  0
  150.0686  142.5980  156.6481 H   0  0  0  0  0  0  0  0  0  0  0  0
  148.6499  141.8122  158.5773 H   0  0  0  0  0  0  0  0  0  0  0  0
  148.3060  140.3242  157.7010 H   0  0  0  0  0  0  0  0  0  0  0  0
  147.7471  141.8707  157.0717 H   0  0  0  0  0  0  0  0  0  0  0  0
  149.3373  140.0258  155.4763 H   0  0  0  0  0  0  0  0  0  0  0  0
  148.6744  142.7271  155.0719 H   0  0  0  0  0  0  0  0  0  0  0  0
  149.4249  142.0524  153.6424 H   0  0  0  0  0  0  0  0  0  0  0  0
  147.5382  140.8577  153.1353 H   0  0  0  0  0  0  0  0  0  0  0  0
  147.5731  140.0835  154.7038 H   0  0  0  0  0  0  0  0  0  0  0  0
  146.4097  143.4790  153.2594 H   0  0  0  0  0  0  0  0  0  0  0  0
  144.1945  144.1850  154.6890 H   0  0  0  0  0  0  0  0  0  0  0  0
  143.9876  142.1500  156.5594 H   0  0  0  0  0  0  0  0  0  0  0  0
  154.1389  141.6646  158.3632 H   0  0  0  0  0  0  0  0  0  0  0  0
  153.4361  140.1197  158.6638 H   0  0  0  0  0  0  0  0  0  0  0  0
  1  2  1  0  0  0  0
  1 21  1  0  0  0  0
  1 22  1  0  0  0  0
  1 23  1  0  0  0  0
  2 20  1  0  0  0  0
  2  3  1  0  0  0  0
  2 24  1  0  0  0  0
  3  4  1  0  0  0  0
  3 25  1  0  0  0  0
  3 26  1  0  0  0  0
  4  5  1  0  0  0  0
  4  6  1  0  0  0  0
  4 27  1  0  0  0  0
  5 28  1  0  0  0  0
  5 29  1  0  0  0  0
  5 30  1  0  0  0  0
  6  7  1  0  0  0  0
  6 31  1  0  0  0  0
  6 32  1  0  0  0  0
  7  8  1  0  0  0  0
  7 20  1  0  0  0  0
  8  9  2  0  0  0  0
  8 10  1  0  0  0  0
 10 11  1  0  0  0  0
 10 12  1  0  0  0  0
 10 33  1  0  0  0  0
 11 34  1  0  0  0  0
 11 35  1  0  0  0  0
 11 36  1  0  0  0  0
 12 13  1  0  0  0  0
 12 37  1  0  0  0  0
 13 14  1  0  0  0  0
 13 38  1  0  0  0  0
 13 39  1  0  0  0  0
 14 15  1  0  0  0  0
 14 40  1  0  0  0  0
 14 41  1  0  0  0  0
 15 19  1  0  0  0  0
 15 16  1  0  0  0  0
 16 17  2  0  0  0  0
 16 42  1  0  0  0  0
 17 18  1  0  0  0  0
 17 43  1  0  0  0  0
 18 19  2  0  0  0  0
 18 44  1  0  0  0  0
 20 45  1  0  0  0  0
 20 46  1  0  0  0  0
M  END
> <s_m_source_file>
AV-unprocessed.smi

> <i_m_source_file_index>
3331

> <i_lp_mmshare_version>
43012

> <i_f3d_flags>
0

> <s_epik_input>
W0NIM11bQ0BASF0xW0NIMl1bQ0BASF0oW0NIM10pW0NIMl1OKFtDSDJdMSlDKD1PKVtDQEhdKFtDSDNdKVtOSF1bQ0gyXVtDSDJdbjJbY0hdW2NIXVtjSF1uMg==

> <s_epik_cmdline>
J2VwaWtfcHl0aG9uJywgJy1waCcsICc3LjAnLCAnLXRuJywgJzgnLCAnLW1hJywgJzIwMCcsICctbWV0YWxfYmluZGluZycsICctaW1hZScsICc8aW5maWxlLm1hZT4nLCAnLW9tYWUnLCAnPG91dGZpbGUubWFlPic=

> <r_lp_tautomer_probability>
1

> <r_epik_Ionization_Penalty>
0.767994

> <r_epik_Ionization_Penalty_Charging>
0

> <r_epik_Ionization_Penalty_Neutral>
0.767994

> <r_epik_State_Penalty>
0.795453

> <r_epik_Charging_Adjusted_Penalty>
0.795453

> <i_epik_Tot_Q>
0

> <i_epik_Tot_abs_Q>
0

> <r_epik_Metal_State_Penalty>
0.794784

> <b_epik_Metal_Only>
0

> <s_lp_Force_Field>
OPLS_2005

> <r_lp_Energy>
28.4276

> <b_lp_Chiralities_Consistent>
1

> <s_lp_Variant>
AV-unprocessed.smi:3331-8

> <Gold.Version>
5.8.1

> <Gold.Id.Protein>
6NUR|6NUR_protein|mol2

> <Gold.PLP.Fitness>
46.0013

> <Gold.PLP.PLP>
-47.9331

> <Gold.PLP.part.hbond>
0.0000

> <Gold.PLP.part.metal>
0.0000

> <Gold.PLP.part.buried>
-5.1885

> <Gold.PLP.part.nonpolar>
-41.8250

> <Gold.PLP.part.repulsive>
0.1033

> <Gold.PLP.ligand.clash>
0.0000

> <Gold.PLP.ligand.torsion>
1.0074

> <Gold.PLP.Chemscore.Hbond>
0.0000

> <Gold.PLP.Chemscore.CHOScore>
0.0000

> <Gold.PLP.Chemscore.Metal>
0.0000

> <Gold.PLP.Chemscore.Internal.Correction>
0.0829

> <Gold.Rescore>
     Score         DG    S(hbond)    S(metal)    S(lipo)     H(rot)  DE(clash)    DE(int)     intcor
     14.07     -15.27       0.00        0.00     120.07       1.66       0.14       1.06       ----

> <Gold.Chemscore.Fitness>
14.0707

> <Gold.Chemscore.DG>
-15.2661

> <Gold.Chemscore.ZeroCoef>
-5.4800

> <Gold.Chemscore.Hbond>
0.0000

> <Gold.Chemscore.Metal>
0.0000

> <Gold.Chemscore.Lipo>
120.0696

> <Gold.Chemscore.Internal_Hbond>
0.0000

> <Gold.Chemscore.DEClash>
0.1364

> <Gold.Chemscore.DEInternal>
1.0590

> <Gold.Chemscore.Rot>
1.6649

> <Gold.Chemscore.Internal.Correction>
   9.000000E+99

> <Gold.Chemscore.Hbond.Weighted>
-0.0000

> <Gold.Chemscore.Metal.Weighted>
-0.0000

> <Gold.Chemscore.Lipo.Weighted>
-14.0481

> <Gold.Chemscore.Internal_Hbond.Weighted>
0.0000

> <Gold.Chemscore.DEClash.Weighted>
0.1364

> <Gold.Chemscore.DEInternal.Weighted>
1.0590

> <Gold.Chemscore.Rot.Weighted>
4.2621

> <Gold.Chemscore.Internal.Correction.Weighted>
   9.000000E+99

> <Gold.Protein.RotatedTorsions>
[ 6907 6896 6895 6894 ] final   76.47 input  -60.11 | X-H torsion
[ 7974 7965 7964 7962 ] final  -25.35 input  175.53 | X-H torsion
[ 8008 7997 7996 7995 ] final  167.48 input   59.86 | X-H torsion
[ 10167 10162 10161 10158 ] final   -0.80 input  -65.29 | X-H torsion
[ 10718 10713 10712 10709 ] final  -32.47 input   66.30 | X-H torsion
[ 10763 10752 10751 10750 ] final  141.53 input  -60.55 | X-H torsion
[ 11005 11000 10999 10996 ] final  168.00 input  -57.11 | X-H torsion

> <Gold.Protein.ActiveResidues>
 VAL166  LYS551  ARG553  GLY616  TRP617  ASP618  TYR619  PRO620  LYS621  CYS622 
 ASP623  PHE694  ASN695  SER759  ASP760  ASP761  ALA762  ILE779  LEU786  VAL792 
 PHE793  MET794  SER795  GLU796  ALA797  LYS798  CYS799  TRP800  GLU811  SER814 

> <Gold.Protein.RotatedAtoms>
  152.5074  134.3963  159.9401 H   0  0  0  0  0  0  0  0  0  0  0  0  # atno 6907 bound_to 6896
  151.3925  133.3778  159.2730 H   0  0  0  0  0  0  0  0  0  0  0  0  # atno 6908 bound_to 6896
  150.9422  134.8850  159.7678 H   0  0  0  0  0  0  0  0  0  0  0  0  # atno 6909 bound_to 6896
  146.1496  140.4875  142.8617 H   0  0  0  0  0  0  0  0  0  0  0  0  # atno 7974 bound_to 7965
  156.1630  140.1616  156.8580 H   0  0  0  0  0  0  0  0  0  0  0  0  # atno 8008 bound_to 7997
  154.5179  140.0785  156.8152 H   0  0  0  0  0  0  0  0  0  0  0  0  # atno 8009 bound_to 7997
  155.3669  140.3398  155.4244 H   0  0  0  0  0  0  0  0  0  0  0  0  # atno 8010 bound_to 7997
  140.6783  143.6851  150.8073 H   0  0  0  0  0  0  0  0  0  0  0  0  # atno 10167 bound_to 10162
  156.3745  130.4345  149.7518 H   0  0  0  0  0  0  0  0  0  0  0  0  # atno 10718 bound_to 10713
  153.9407  135.2980  155.3443 H   0  0  0  0  0  0  0  0  0  0  0  0  # atno 10763 bound_to 10752
  154.7478  135.4994  153.9239 H   0  0  0  0  0  0  0  0  0  0  0  0  # atno 10764 bound_to 10752
  153.1044  135.6743  153.9720 H   0  0  0  0  0  0  0  0  0  0  0  0  # atno 10765 bound_to 10752
  140.2826  134.7738  157.3771 H   0  0  0  0  0  0  0  0  0  0  0  0  # atno 11005 bound_to 11000
  144.7888  140.5991  143.6555 LP  0  0  0  0  0  0  0  0  0  0  0  0  # atno 17320 bound_to 7965
  145.4854  139.1492  143.3739 LP  0  0  0  0  0  0  0  0  0  0  0  0  # atno 17321 bound_to 7965
  140.0547  143.5214  152.2656 LP  0  0  0  0  0  0  0  0  0  0  0  0  # atno 17342 bound_to 10162
  139.6089  144.7603  151.2998 LP  0  0  0  0  0  0  0  0  0  0  0  0  # atno 17343 bound_to 10162
  156.4632  130.7962  151.2981 LP  0  0  0  0  0  0  0  0  0  0  0  0  # atno 17370 bound_to 10713
  157.7487  131.0059  150.3131 LP  0  0  0  0  0  0  0  0  0  0  0  0  # atno 17371 bound_to 10713
  140.1269  134.5146  155.8137 LP  0  0  0  0  0  0  0  0  0  0  0  0  # atno 17394 bound_to 11000
  141.2160  133.6776  156.6968 LP  0  0  0  0  0  0  0  0  0  0  0  0  # atno 17395 bound_to 11000

$$$$
