AV-unprocessed.smi:1514|AV-procd|sdf|6114|dock7
  -GOLD-   22720 6243D 1   1.00000     0.00000
 Structure written by MMmdl.
 48 49  0  0  0  0  0  0  0  0  2 V2000
  150.9641  142.4173  157.5703 C   0  0  0  0  0  0  0  0  0  0  0  0
  150.7034  141.8694  156.1594 C   0  0  0  0  0  0  0  0  0  0  0  0
  149.2616  141.8566  155.8065 N   0  3  0  0  0  0  0  0  0  0  0  0
  148.4696  140.8550  156.5641 C   0  0  0  0  0  0  0  0  0  0  0  0
  146.9753  140.9464  156.1869 C   0  0  0  0  0  0  0  0  0  0  0  0
  146.7546  140.7563  154.7514 N   0  0  0  0  0  0  0  0  0  0  0  0
  146.9712  139.3672  154.3333 C   0  0  0  0  0  0  0  0  0  0  0  0
  146.7297  139.1461  152.8289 C   0  0  0  0  0  0  0  0  0  0  0  0
  146.9423  137.7530  152.4573 N   0  0  0  0  0  0  0  0  0  0  0  0
  145.9582  136.8753  152.2223 C   0  0  0  0  0  0  0  0  0  0  0  0
  144.7638  137.1648  152.2964 O   0  0  0  0  0  0  0  0  0  0  0  0
  146.4518  135.6658  151.9045 N   0  0  0  0  0  0  0  0  0  0  0  0
  145.7772  134.5272  151.5942 C   0  0  0  0  0  0  0  0  0  0  0  0
  144.5958  134.3826  150.9196 C   0  0  0  0  0  0  0  0  0  0  0  0
  144.4104  132.9694  150.9116 C   0  0  0  0  0  0  0  0  0  0  0  0
  143.2787  132.1903  150.3089 C   0  0  0  0  0  0  0  0  0  0  0  0
  145.3929  132.3197  151.5261 N   0  0  0  0  0  0  0  0  0  0  0  0
  146.2423  133.2807  151.9499 N   0  0  0  0  0  0  0  0  0  0  0  0
  147.4455  132.9195  152.6739 C   0  0  0  0  0  0  0  0  0  0  0  0
  147.5347  141.7584  154.0169 C   0  0  0  0  0  0  0  0  0  0  0  0
  149.0396  141.6846  154.3501 C   0  0  0  0  0  0  0  0  0  0  0  0
  152.0351  142.5034  157.7549 H   0  0  0  0  0  0  0  0  0  0  0  0
  150.5567  141.7674  158.3443 H   0  0  0  0  0  0  0  0  0  0  0  0
  150.5282  143.4085  157.6966 H   0  0  0  0  0  0  0  0  0  0  0  0
  151.2349  142.5069  155.4515 H   0  0  0  0  0  0  0  0  0  0  0  0
  151.1244  140.8689  156.0517 H   0  0  0  0  0  0  0  0  0  0  0  0
  148.8599  139.8526  156.3833 H   0  0  0  0  0  0  0  0  0  0  0  0
  148.5665  141.0362  157.6339 H   0  0  0  0  0  0  0  0  0  0  0  0
  146.3961  140.2129  156.7493 H   0  0  0  0  0  0  0  0  0  0  0  0
  146.5870  141.9252  156.4721 H   0  0  0  0  0  0  0  0  0  0  0  0
  147.9725  139.0291  154.5970 H   0  0  0  0  0  0  0  0  0  0  0  0
  146.2802  138.7281  154.8848 H   0  0  0  0  0  0  0  0  0  0  0  0
  145.7287  139.4631  152.5357 H   0  0  0  0  0  0  0  0  0  0  0  0
  147.4248  139.7680  152.2630 H   0  0  0  0  0  0  0  0  0  0  0  0
  147.8989  137.4389  152.3821 H   0  0  0  0  0  0  0  0  0  0  0  0
  147.4577  135.5862  151.8891 H   0  0  0  0  0  0  0  0  0  0  0  0
  143.9572  135.1428  150.4956 H   0  0  0  0  0  0  0  0  0  0  0  0
  142.4926  132.8535  149.9476 H   0  0  0  0  0  0  0  0  0  0  0  0
  142.8319  131.5153  151.0394 H   0  0  0  0  0  0  0  0  0  0  0  0
  143.6214  131.5910  149.4652 H   0  0  0  0  0  0  0  0  0  0  0  0
  147.3777  133.2833  153.6993 H   0  0  0  0  0  0  0  0  0  0  0  0
  148.3134  133.3704  152.1919 H   0  0  0  0  0  0  0  0  0  0  0  0
  147.5745  131.8364  152.6894 H   0  0  0  0  0  0  0  0  0  0  0  0
  147.3768  141.6580  152.9438 H   0  0  0  0  0  0  0  0  0  0  0  0
  147.1562  142.7473  154.2797 H   0  0  0  0  0  0  0  0  0  0  0  0
  149.5592  142.4771  153.8102 H   0  0  0  0  0  0  0  0  0  0  0  0
  149.4739  140.7433  154.0110 H   0  0  0  0  0  0  0  0  0  0  0  0
  148.8937  142.7668  156.0439 H   0  0  0  0  0  0  0  0  0  0  0  0
  1  2  1  0  0  0  0
  1 22  1  0  0  0  0
  1 23  1  0  0  0  0
  1 24  1  0  0  0  0
  2  3  1  0  0  0  0
  2 25  1  0  0  0  0
  2 26  1  0  0  0  0
  3 21  1  0  0  0  0
  3  4  1  0  0  0  0
  3 48  1  0  0  0  0
  4  5  1  0  0  0  0
  4 27  1  0  0  0  0
  4 28  1  0  0  0  0
  5  6  1  0  0  0  0
  5 29  1  0  0  0  0
  5 30  1  0  0  0  0
  6  7  1  0  0  0  0
  6 20  1  0  0  0  0
  7  8  1  0  0  0  0
  7 31  1  0  0  0  0
  7 32  1  0  0  0  0
  8  9  1  0  0  0  0
  8 33  1  0  0  0  0
  8 34  1  0  0  0  0
  9 10  1  0  0  0  0
  9 35  1  0  0  0  0
 10 11  2  0  0  0  0
 10 12  1  0  0  0  0
 12 13  1  0  0  0  0
 12 36  1  0  0  0  0
 13 18  1  0  0  0  0
 13 14  2  0  0  0  0
 14 15  1  0  0  0  0
 14 37  1  0  0  0  0
 15 16  1  0  0  0  0
 15 17  2  0  0  0  0
 16 38  1  0  0  0  0
 16 39  1  0  0  0  0
 16 40  1  0  0  0  0
 17 18  1  0  0  0  0
 18 19  1  0  0  0  0
 19 41  1  0  0  0  0
 19 42  1  0  0  0  0
 19 43  1  0  0  0  0
 20 21  1  0  0  0  0
 20 44  1  0  0  0  0
 20 45  1  0  0  0  0
 21 46  1  0  0  0  0
 21 47  1  0  0  0  0
M  CHG  1   3   1
M  END
> <s_m_source_file>
AV-unprocessed.smi

> <i_m_source_file_index>
1514

> <i_lp_mmshare_version>
43012

> <i_f3d_flags>
0

> <s_epik_input>
W0NIM11bQ0gyXU4xW0NIMl1bQ0gyXU4oW0NIMl1bQ0gyXTEpW0NIMl1bQ0gyXVtOSF1DKD1PKVtOSF1jMltjSF1jKFtDSDNdKW5uMltDSDNd

> <s_epik_cmdline>
J2VwaWtfcHl0aG9uJywgJy1waCcsICc3LjAnLCAnLXRuJywgJzgnLCAnLW1hJywgJzIwMCcsICctbWV0YWxfYmluZGluZycsICctaW1hZScsICc8aW5maWxlLm1hZT4nLCAnLW9tYWUnLCAnPG91dGZpbGUubWFlPic=

> <r_lp_tautomer_probability>
1

> <r_epik_Ionization_Penalty>
0.0527919

> <r_epik_Ionization_Penalty_Charging>
0.052373

> <r_epik_Ionization_Penalty_Neutral>
0.000418955

> <r_epik_State_Penalty>
0.130843

> <r_epik_Charging_Adjusted_Penalty>
0.183216

> <i_epik_Tot_Q>
1

> <i_epik_Tot_abs_Q>
1

> <r_epik_Metal_State_Penalty>
0.130841

> <b_epik_Metal_Only>
0

> <s_lp_Force_Field>
OPLS_2005

> <r_lp_Energy>
24.8956

> <b_lp_Chiralities_Consistent>
1

> <s_lp_Variant>
AV-unprocessed.smi:1514-1

> <Gold.Version>
5.8.1

> <Gold.Id.Protein>
6NUR|6NUR_protein|mol2

> <Gold.PLP.Fitness>
44.9744

> <Gold.PLP.PLP>
-34.5100

> <Gold.PLP.part.hbond>
-2.8037

> <Gold.PLP.part.metal>
0.0000

> <Gold.PLP.part.buried>
-3.8202

> <Gold.PLP.part.nonpolar>
-30.1062

> <Gold.PLP.part.repulsive>
1.2589

> <Gold.PLP.ligand.clash>
0.0000

> <Gold.PLP.ligand.torsion>
0.4400

> <Gold.PLP.Chemscore.Hbond>
3.7680

> <Gold.PLP.Chemscore.CHOScore>
0.0000

> <Gold.PLP.Chemscore.Metal>
0.0000

> <Gold.Chemscore.Hbonds>
donor molecule, donor type, donor heavy atom, donor atom, acceptor molecule, acceptor atom, score
      L1  H     3    48       P1  8028  1.89
      L1  H     9    35       P1  7948  0.94
      L1  H    12    36       P1  7948  1.00

> <Gold.PLP.Chemscore.Internal.Correction>
0.0403

> <Gold.Rescore>
     Score         DG    S(hbond)    S(metal)    S(lipo)     H(rot)  DE(clash)    DE(int)     intcor
     18.49     -19.34       2.85        0.00      74.15       1.69       0.44       0.42       ----

> <Gold.Chemscore.Fitness>
18.4850

> <Gold.Chemscore.DG>
-19.3404

> <Gold.Chemscore.ZeroCoef>
-5.4800

> <Gold.Chemscore.Hbond>
2.8488

> <Gold.Chemscore.Metal>
0.0000

> <Gold.Chemscore.Lipo>
74.1478

> <Gold.Chemscore.Internal_Hbond>
0.0000

> <Gold.Chemscore.DEClash>
0.4396

> <Gold.Chemscore.DEInternal>
0.4158

> <Gold.Chemscore.Rot>
1.6914

> <Gold.Chemscore.Internal.Correction>
   9.000000E+99

> <Gold.Chemscore.Hbonds>
donor molecule, donor type, donor heavy atom, donor atom, acceptor molecule, acceptor atom, score
      L1  H     3    48       P1  8028  0.90
      L1  H     9    35       P1  7948  0.91
      L1  H    12    36       P1  7948  0.95

> <Gold.Chemscore.Hbond.Weighted>
-9.5150

> <Gold.Chemscore.Metal.Weighted>
-0.0000

> <Gold.Chemscore.Lipo.Weighted>
-8.6753

> <Gold.Chemscore.Internal_Hbond.Weighted>
0.0000

> <Gold.Chemscore.DEClash.Weighted>
0.4396

> <Gold.Chemscore.DEInternal.Weighted>
0.4158

> <Gold.Chemscore.Rot.Weighted>
4.3299

> <Gold.Chemscore.Internal.Correction.Weighted>
   9.000000E+99

> <Gold.Protein.RotatedTorsions>
[ 6907 6896 6895 6894 ] final  149.58 input  -60.11 | X-H torsion
[ 7974 7965 7964 7962 ] final  122.17 input  175.53 | X-H torsion
[ 8008 7997 7996 7995 ] final  166.69 input   59.86 | X-H torsion
[ 10167 10162 10161 10158 ] final -175.45 input  -65.29 | X-H torsion
[ 10718 10713 10712 10709 ] final  165.74 input   66.30 | X-H torsion
[ 10763 10752 10751 10750 ] final   51.81 input  -60.55 | X-H torsion
[ 11005 11000 10999 10996 ] final  -45.36 input  -57.11 | X-H torsion

> <Gold.Protein.ActiveResidues>
 VAL166  LYS551  ARG553  GLY616  TRP617  ASP618  TYR619  PRO620  LYS621  CYS622 
 ASP623  PHE694  ASN695  SER759  ASP760  ASP761  ALA762  ILE779  LEU786  VAL792 
 PHE793  MET794  SER795  GLU796  ALA797  LYS798  CYS799  TRP800  GLU811  SER814 

> <Gold.Protein.RotatedAtoms>
  152.1261  133.4381  159.4698 H   0  0  0  0  0  0  0  0  0  0  0  0  # atno 6907 bound_to 6896
  150.6875  134.2477  159.4507 H   0  0  0  0  0  0  0  0  0  0  0  0  # atno 6908 bound_to 6896
  152.0357  134.9741  160.0624 H   0  0  0  0  0  0  0  0  0  0  0  0  # atno 6909 bound_to 6896
  145.1107  139.3455  143.4764 H   0  0  0  0  0  0  0  0  0  0  0  0  # atno 7974 bound_to 7965
  156.1697  140.1636  156.8469 H   0  0  0  0  0  0  0  0  0  0  0  0  # atno 8008 bound_to 7997
  154.5244  140.0771  156.8265 H   0  0  0  0  0  0  0  0  0  0  0  0  # atno 8009 bound_to 7997
  155.3538  140.3391  155.4242 H   0  0  0  0  0  0  0  0  0  0  0  0  # atno 8010 bound_to 7997
  139.5580  144.1941  152.1192 H   0  0  0  0  0  0  0  0  0  0  0  0  # atno 10167 bound_to 10162
  157.0758  131.0378  151.2594 H   0  0  0  0  0  0  0  0  0  0  0  0  # atno 10718 bound_to 10713
  152.9786  135.5833  154.4476 H   0  0  0  0  0  0  0  0  0  0  0  0  # atno 10763 bound_to 10752
  154.4069  135.2769  155.2063 H   0  0  0  0  0  0  0  0  0  0  0  0  # atno 10764 bound_to 10752
  154.3870  135.6134  153.5876 H   0  0  0  0  0  0  0  0  0  0  0  0  # atno 10765 bound_to 10752
  141.0510  133.6743  156.3002 H   0  0  0  0  0  0  0  0  0  0  0  0  # atno 11005 bound_to 11000
  146.3526  140.1025  142.8607 LP  0  0  0  0  0  0  0  0  0  0  0  0  # atno 17320 bound_to 7965
  145.0850  140.9246  143.4803 LP  0  0  0  0  0  0  0  0  0  0  0  0  # atno 17321 bound_to 7965
  140.1448  144.5168  150.6722 LP  0  0  0  0  0  0  0  0  0  0  0  0  # atno 17342 bound_to 10162
  140.6856  143.2348  151.5270 LP  0  0  0  0  0  0  0  0  0  0  0  0  # atno 17343 bound_to 10162
  157.4841  130.7782  149.7442 LP  0  0  0  0  0  0  0  0  0  0  0  0  # atno 17370 bound_to 10713
  155.9937  130.3922  150.2888 LP  0  0  0  0  0  0  0  0  0  0  0  0  # atno 17371 bound_to 10713
  140.6055  134.5512  157.5525 LP  0  0  0  0  0  0  0  0  0  0  0  0  # atno 17394 bound_to 11000
  139.9350  134.7891  156.0826 LP  0  0  0  0  0  0  0  0  0  0  0  0  # atno 17395 bound_to 11000

$$$$
