AV-unprocessed.smi:1620|AV-procd|sdf|6492|dock7
  -GOLD-   22720 7153D 1   1.00000     0.00000
 Structure written by MMmdl.
 40 40  0  0  0  0  0  0  0  0  1 V2000
  138.8804  139.2492  154.0846 C   0  0  0  0  0  0  0  0  0  0  0  0
  140.1614  139.4548  154.9158 C   0  0  0  0  0  0  0  0  0  0  0  0
  140.6492  140.9060  154.7543 C   0  0  0  0  0  0  0  0  0  0  0  0
  141.2735  138.4206  154.5753 C   0  0  1  0  0  0  0  0  0  0  0  0
  142.5854  138.6107  155.3667 C   0  0  0  0  0  0  0  0  0  0  0  0
  140.7929  137.0189  154.6926 N   0  0  0  0  0  0  0  0  0  0  0  0
  139.6824  136.8027  155.6300 C   0  0  0  0  0  0  0  0  0  0  0  0
  141.3549  135.9332  154.0961 C   0  0  0  0  0  0  0  0  0  0  0  0
  140.9030  134.7952  154.2341 O   0  0  0  0  0  0  0  0  0  0  0  0
  142.3924  136.2140  153.2839 N   0  0  0  0  0  0  0  0  0  0  0  0
  143.1720  135.3101  152.5193 C   0  0  0  0  0  0  0  0  0  0  0  0
  144.1868  135.6948  151.6052 C   0  0  0  0  0  0  0  0  0  0  0  0
  144.7432  134.6378  151.0338 N   0  0  0  0  0  0  0  0  0  0  0  0
  144.0984  133.5692  151.5667 N   0  0  0  0  0  0  0  0  0  0  0  0
  144.4616  132.2270  151.1471 C   0  0  0  0  0  0  0  0  0  0  0  0
  145.9807  132.0524  151.0964 C   0  0  0  0  0  0  0  0  0  0  0  0
  146.4500  130.9678  150.4735 N   0  0  0  0  0  0  0  0  0  0  0  0
  146.7215  132.8883  151.6092 O   0  0  0  0  0  0  0  0  0  0  0  0
  143.1324  133.9449  152.4799 C   0  0  0  0  0  0  0  0  0  0  0  0
  139.0848  139.3253  153.0162 H   0  0  0  0  0  0  0  0  0  0  0  0
  138.1278  139.9987  154.3312 H   0  0  0  0  0  0  0  0  0  0  0  0
  138.4280  138.2750  154.2703 H   0  0  0  0  0  0  0  0  0  0  0  0
  139.8842  139.3307  155.9628 H   0  0  0  0  0  0  0  0  0  0  0  0
  140.9965  141.0977  153.7386 H   0  0  0  0  0  0  0  0  0  0  0  0
  141.4656  141.1371  155.4380 H   0  0  0  0  0  0  0  0  0  0  0  0
  139.8492  141.6150  154.9685 H   0  0  0  0  0  0  0  0  0  0  0  0
  141.5678  138.6299  153.5471 H   0  0  0  0  0  0  0  0  0  0  0  0
  143.0770  139.5471  155.1042 H   0  0  0  0  0  0  0  0  0  0  0  0
  143.2935  137.8112  155.1454 H   0  0  0  0  0  0  0  0  0  0  0  0
  142.4202  138.6213  156.4440 H   0  0  0  0  0  0  0  0  0  0  0  0
  138.9431  136.1155  155.2151 H   0  0  0  0  0  0  0  0  0  0  0  0
  139.1487  137.7217  155.8691 H   0  0  0  0  0  0  0  0  0  0  0  0
  140.0528  136.3802  156.5649 H   0  0  0  0  0  0  0  0  0  0  0  0
  142.6574  137.1861  153.2182 H   0  0  0  0  0  0  0  0  0  0  0  0
  144.5313  136.6842  151.3426 H   0  0  0  0  0  0  0  0  0  0  0  0
  144.0236  131.4967  151.8295 H   0  0  0  0  0  0  0  0  0  0  0  0
  144.0324  132.0421  150.1614 H   0  0  0  0  0  0  0  0  0  0  0  0
  147.4466  130.8180  150.4071 H   0  0  0  0  0  0  0  0  0  0  0  0
  145.8065  130.3074  150.0622 H   0  0  0  0  0  0  0  0  0  0  0  0
  142.5225  133.2198  152.9983 H   0  0  0  0  0  0  0  0  0  0  0  0
  1  2  1  0  0  0  0
  1 20  1  0  0  0  0
  1 21  1  0  0  0  0
  1 22  1  0  0  0  0
  2  3  1  0  0  0  0
  2  4  1  0  0  0  0
  2 23  1  0  0  0  0
  3 24  1  0  0  0  0
  3 25  1  0  0  0  0
  3 26  1  0  0  0  0
  4  5  1  0  0  0  0
  4  6  1  0  0  0  0
  4 27  1  0  0  0  0
  5 28  1  0  0  0  0
  5 29  1  0  0  0  0
  5 30  1  0  0  0  0
  6  7  1  0  0  0  0
  6  8  1  0  0  0  0
  7 31  1  0  0  0  0
  7 32  1  0  0  0  0
  7 33  1  0  0  0  0
  8  9  2  0  0  0  0
  8 10  1  0  0  0  0
 10 11  1  0  0  0  0
 10 34  1  0  0  0  0
 11 19  2  0  0  0  0
 11 12  1  0  0  0  0
 12 13  2  0  0  0  0
 12 35  1  0  0  0  0
 13 14  1  0  0  0  0
 14 15  1  0  0  0  0
 14 19  1  0  0  0  0
 15 16  1  0  0  0  0
 15 36  1  0  0  0  0
 15 37  1  0  0  0  0
 16 17  1  0  0  0  0
 16 18  2  0  0  0  0
 17 38  1  0  0  0  0
 17 39  1  0  0  0  0
 19 40  1  0  0  0  0
M  END
> <s_m_source_file>
AV-unprocessed.smi

> <i_m_source_file_index>
1620

> <i_lp_mmshare_version>
43012

> <i_f3d_flags>
0

> <s_epik_input>
W0NIM11bQ0hdKFtDSDNdKVtDQEhdKFtDSDNdKU4oW0NIM10pQyg9TylbTkhdYzFbY0hdbm4oW2NIXTEpW0NIMl1DKD1PKVtOSDJd

> <s_epik_cmdline>
J2VwaWtfcHl0aG9uJywgJy1waCcsICc3LjAnLCAnLXRuJywgJzgnLCAnLW1hJywgJzIwMCcsICctbWV0YWxfYmluZGluZycsICctaW1hZScsICc8aW5maWxlLm1hZT4nLCAnLW9tYWUnLCAnPG91dGZpbGUubWFlPic=

> <r_lp_tautomer_probability>
1

> <r_epik_Ionization_Penalty>
4.85642e-05

> <r_epik_Ionization_Penalty_Charging>
0

> <r_epik_Ionization_Penalty_Neutral>
4.85642e-05

> <r_epik_State_Penalty>
-0

> <r_epik_Charging_Adjusted_Penalty>
0

> <i_epik_Tot_Q>
0

> <i_epik_Tot_abs_Q>
0

> <r_epik_Metal_State_Penalty>
-0

> <b_epik_Metal_Only>
0

> <s_lp_Force_Field>
OPLS_2005

> <r_lp_Energy>
32.9866

> <b_lp_Chiralities_Consistent>
1

> <s_lp_Variant>
AV-unprocessed.smi:1620-2

> <Gold.Version>
5.8.1

> <Gold.Id.Protein>
6NUR|6NUR_protein|mol2

> <Gold.PLP.Fitness>
42.5237

> <Gold.PLP.PLP>
-32.3352

> <Gold.PLP.part.hbond>
-3.0000

> <Gold.PLP.part.metal>
0.0000

> <Gold.PLP.part.buried>
-6.5124

> <Gold.PLP.part.nonpolar>
-24.1685

> <Gold.PLP.part.repulsive>
0.6159

> <Gold.PLP.ligand.clash>
0.0000

> <Gold.PLP.ligand.torsion>
0.8888

> <Gold.PLP.Chemscore.Hbond>
1.9263

> <Gold.PLP.Chemscore.CHOScore>
1.9971

> <Gold.PLP.Chemscore.Metal>
0.0000

> <Gold.Chemscore.Hbonds>
donor molecule, donor type, donor heavy atom, donor atom, acceptor molecule, acceptor atom, score
      L1  H    17    38       P1 10747  0.99
      P1  H 11000 11005       L1     9  1.00
      L1  C    12    35       P1 10171  1.00
      L1  C    19    40       P1 10957  1.00

> <Gold.PLP.Chemscore.Internal.Correction>
0.1961

> <Gold.Rescore>
     Score         DG    S(hbond)    S(metal)    S(lipo)     H(rot)  DE(clash)    DE(int)     intcor
      8.42     -12.32       1.97        0.00      48.16       2.10       0.03       3.88       ----

> <Gold.Chemscore.Fitness>
8.4207

> <Gold.Chemscore.DG>
-12.3245

> <Gold.Chemscore.ZeroCoef>
-5.4800

> <Gold.Chemscore.Hbond>
1.9748

> <Gold.Chemscore.Metal>
0.0000

> <Gold.Chemscore.Lipo>
48.1606

> <Gold.Chemscore.Internal_Hbond>
0.0000

> <Gold.Chemscore.DEClash>
0.0270

> <Gold.Chemscore.DEInternal>
3.8768

> <Gold.Chemscore.Rot>
2.1039

> <Gold.Chemscore.Internal.Correction>
   9.000000E+99

> <Gold.Chemscore.Hbonds>
donor molecule, donor type, donor heavy atom, donor atom, acceptor molecule, acceptor atom, score
      L1  H    17    38       P1 10747  0.92
      P1  H 11000 11005       L1     9  0.98

> <Gold.Chemscore.Hbond.Weighted>
-6.5957

> <Gold.Chemscore.Metal.Weighted>
-0.0000

> <Gold.Chemscore.Lipo.Weighted>
-5.6348

> <Gold.Chemscore.Internal_Hbond.Weighted>
0.0000

> <Gold.Chemscore.DEClash.Weighted>
0.0270

> <Gold.Chemscore.DEInternal.Weighted>
3.8768

> <Gold.Chemscore.Rot.Weighted>
5.3860

> <Gold.Chemscore.Internal.Correction.Weighted>
   9.000000E+99

> <Gold.Protein.RotatedTorsions>
[ 6907 6896 6895 6894 ] final   50.89 input  -60.11 | X-H torsion
[ 7974 7965 7964 7962 ] final    7.12 input  175.53 | X-H torsion
[ 8008 7997 7996 7995 ] final -144.49 input   59.86 | X-H torsion
[ 10167 10162 10161 10158 ] final -147.14 input  -65.29 | X-H torsion
[ 10718 10713 10712 10709 ] final -159.95 input   66.30 | X-H torsion
[ 10763 10752 10751 10750 ] final   96.35 input  -60.55 | X-H torsion
[ 11005 11000 10999 10996 ] final   25.69 input  -57.11 | X-H torsion

> <Gold.Protein.ActiveResidues>
 VAL166  LYS551  ARG553  GLY616  TRP617  ASP618  TYR619  PRO620  LYS621  CYS622 
 ASP623  PHE694  ASN695  SER759  ASP760  ASP761  ALA762  ILE779  LEU786  VAL792 
 PHE793  MET794  SER795  GLU796  ALA797  LYS798  CYS799  TRP800  GLU811  SER814 

> <Gold.Protein.RotatedAtoms>
  152.3068  134.7546  160.0345 H   0  0  0  0  0  0  0  0  0  0  0  0  # atno 6907 bound_to 6896
  151.8040  133.3368  159.3543 H   0  0  0  0  0  0  0  0  0  0  0  0  # atno 6908 bound_to 6896
  150.7300  134.5657  159.5909 H   0  0  0  0  0  0  0  0  0  0  0  0  # atno 6909 bound_to 6896
  146.2429  140.0131  142.8405 H   0  0  0  0  0  0  0  0  0  0  0  0  # atno 7974 bound_to 7965
  155.5278  140.0597  157.2895 H   0  0  0  0  0  0  0  0  0  0  0  0  # atno 8008 bound_to 7997
  154.4495  140.1941  156.0508 H   0  0  0  0  0  0  0  0  0  0  0  0  # atno 8009 bound_to 7997
  156.0673  140.3264  155.7538 H   0  0  0  0  0  0  0  0  0  0  0  0  # atno 8010 bound_to 7997
  139.7649  143.8323  152.2614 H   0  0  0  0  0  0  0  0  0  0  0  0  # atno 10167 bound_to 10162
  156.5753  130.8706  151.2849 H   0  0  0  0  0  0  0  0  0  0  0  0  # atno 10718 bound_to 10713
  153.2640  135.4221  155.0922 H   0  0  0  0  0  0  0  0  0  0  0  0  # atno 10763 bound_to 10752
  154.8431  135.3456  154.6338 H   0  0  0  0  0  0  0  0  0  0  0  0  # atno 10764 bound_to 10752
  153.6758  135.7041  153.5190 H   0  0  0  0  0  0  0  0  0  0  0  0  # atno 10765 bound_to 10752
  140.3451  134.2290  155.7685 H   0  0  0  0  0  0  0  0  0  0  0  0  # atno 11005 bound_to 11000
  145.1309  140.9517  143.4545 LP  0  0  0  0  0  0  0  0  0  0  0  0  # atno 17320 bound_to 7965
  145.0388  139.3277  143.5987 LP  0  0  0  0  0  0  0  0  0  0  0  0  # atno 17321 bound_to 7965
  139.8340  144.7241  150.9415 LP  0  0  0  0  0  0  0  0  0  0  0  0  # atno 17342 bound_to 10162
  140.7810  143.4044  151.1096 LP  0  0  0  0  0  0  0  0  0  0  0  0  # atno 17343 bound_to 10162
  157.7339  130.9737  150.2001 LP  0  0  0  0  0  0  0  0  0  0  0  0  # atno 17370 bound_to 10713
  156.2679  130.3718  149.8062 LP  0  0  0  0  0  0  0  0  0  0  0  0  # atno 17371 bound_to 10713
  141.2028  133.7929  157.0373 LP  0  0  0  0  0  0  0  0  0  0  0  0  # atno 17394 bound_to 11000
  140.0749  134.9681  157.1529 LP  0  0  0  0  0  0  0  0  0  0  0  0  # atno 17395 bound_to 11000

$$$$
