AV-unprocessed.smi:2588|AV-procd|sdf|10148|dock2
  -GOLD-   2272014163D 1   1.00000     0.00000
 Structure written by MMmdl.
 40 41  0  0  0  0  0  0  0  0  2 V2000
  147.5063  141.7745  153.9050 C   0  0  0  0  0  0  0  0  0  0  0  0
  148.7236  140.8259  153.8811 C   0  0  0  0  0  0  0  0  0  0  0  0
  148.2063  139.3717  153.9150 C   0  0  0  0  0  0  0  0  0  0  0  0
  149.6985  141.1229  154.9826 N   0  3  2  0  0  0  0  0  0  0  0  0
  150.8423  140.1641  155.0257 C   0  0  0  0  0  0  0  0  0  0  0  0
  151.8802  140.5441  156.0948 C   0  0  0  0  0  0  0  0  0  0  0  0
  151.2376  140.6374  157.4830 C   0  0  1  0  0  0  0  0  0  0  0  0
  152.2318  141.0528  158.4678 N   0  0  0  0  0  0  0  0  0  0  0  0
  152.7758  140.2543  159.3992 C   0  0  0  0  0  0  0  0  0  0  0  0
  152.4664  139.0694  159.5327 O   0  0  0  0  0  0  0  0  0  0  0  0
  153.8076  140.9098  160.3274 C   0  0  0  0  0  0  0  0  0  0  0  0
  153.2108  141.8232  161.3034 N   0  0  0  0  0  0  0  0  0  0  0  0
  153.6219  141.7400  162.5973 N   0  0  0  0  0  0  0  0  0  0  0  0
  153.0201  142.5963  163.3370 C   0  0  0  0  0  0  0  0  0  0  0  0
  151.8426  143.6371  162.5260 S   0  0  0  0  0  0  0  0  0  0  0  0
  152.2418  142.7794  161.0121 C   0  0  0  0  0  0  0  0  0  0  0  0
  151.7183  143.0334  159.9288 O   0  0  0  0  0  0  0  0  0  0  0  0
  150.0720  141.6345  157.4184 C   0  0  0  0  0  0  0  0  0  0  0  0
  149.0613  141.2434  156.3275 C   0  0  0  0  0  0  0  0  0  0  0  0
  146.7532  141.4646  153.1798 H   0  0  0  0  0  0  0  0  0  0  0  0
  147.7688  142.7978  153.6400 H   0  0  0  0  0  0  0  0  0  0  0  0
  147.0298  141.7856  154.8860 H   0  0  0  0  0  0  0  0  0  0  0  0
  149.2389  140.9688  152.9298 H   0  0  0  0  0  0  0  0  0  0  0  0
  147.4067  139.2221  153.1886 H   0  0  0  0  0  0  0  0  0  0  0  0
  147.8086  139.1119  154.8967 H   0  0  0  0  0  0  0  0  0  0  0  0
  148.9814  138.6510  153.6560 H   0  0  0  0  0  0  0  0  0  0  0  0
  150.4662  139.1565  155.2105 H   0  0  0  0  0  0  0  0  0  0  0  0
  151.3653  140.1373  154.0718 H   0  0  0  0  0  0  0  0  0  0  0  0
  152.6827  139.8053  156.1042 H   0  0  0  0  0  0  0  0  0  0  0  0
  152.3406  141.4976  155.8308 H   0  0  0  0  0  0  0  0  0  0  0  0
  150.8556  139.6511  157.7552 H   0  0  0  0  0  0  0  0  0  0  0  0
  152.5386  142.0143  158.4323 H   0  0  0  0  0  0  0  0  0  0  0  0
  154.3591  140.1346  160.8619 H   0  0  0  0  0  0  0  0  0  0  0  0
  154.5381  141.4396  159.7141 H   0  0  0  0  0  0  0  0  0  0  0  0
  153.1674  142.7381  164.4075 H   0  0  0  0  0  0  0  0  0  0  0  0
  149.5635  141.6831  158.3822 H   0  0  0  0  0  0  0  0  0  0  0  0
  150.4515  142.6381  157.2197 H   0  0  0  0  0  0  0  0  0  0  0  0
  148.2902  142.0117  156.3265 H   0  0  0  0  0  0  0  0  0  0  0  0
  148.5750  140.3014  156.5861 H   0  0  0  0  0  0  0  0  0  0  0  0
  150.0925  142.0295  154.7751 H   0  0  0  0  0  0  0  0  0  0  0  0
  1  2  1  0  0  0  0
  1 20  1  0  0  0  0
  1 21  1  0  0  0  0
  1 22  1  0  0  0  0
  2  3  1  0  0  0  0
  2  4  1  0  0  0  0
  2 23  1  0  0  0  0
  3 24  1  0  0  0  0
  3 25  1  0  0  0  0
  3 26  1  0  0  0  0
  4 19  1  0  0  0  0
  4  5  1  0  0  0  0
  4 40  1  0  0  0  0
  5  6  1  0  0  0  0
  5 27  1  0  0  0  0
  5 28  1  0  0  0  0
  6  7  1  0  0  0  0
  6 29  1  0  0  0  0
  6 30  1  0  0  0  0
  7  8  1  0  0  0  0
  7 18  1  0  0  0  0
  7 31  1  0  0  0  0
  8  9  1  0  0  0  0
  8 32  1  0  0  0  0
  9 10  2  0  0  0  0
  9 11  1  0  0  0  0
 11 12  1  0  0  0  0
 11 33  1  0  0  0  0
 11 34  1  0  0  0  0
 12 16  1  0  0  0  0
 12 13  1  0  0  0  0
 13 14  2  0  0  0  0
 14 15  1  0  0  0  0
 14 35  1  0  0  0  0
 15 16  1  0  0  0  0
 16 17  2  0  0  0  0
 18 19  1  0  0  0  0
 18 36  1  0  0  0  0
 18 37  1  0  0  0  0
 19 38  1  0  0  0  0
 19 39  1  0  0  0  0
M  CHG  1   4   1
M  END
> <s_m_source_file>
AV-unprocessed.smi

> <i_m_source_file_index>
2588

> <i_lp_mmshare_version>
43012

> <i_f3d_flags>
0

> <s_epik_input>
W0NIM11bQ0hdKFtDSDNdKU4xW0NIMl1bQ0gyXVtDSF0oW0NIMl1bQ0gyXTEpW05IXUMoPU8pW0NIMl1uMm5bY0hdc2MyPU8=

> <s_epik_cmdline>
J2VwaWtfcHl0aG9uJywgJy1waCcsICc3LjAnLCAnLXRuJywgJzgnLCAnLW1hJywgJzIwMCcsICctbWV0YWxfYmluZGluZycsICctaW1hZScsICc8aW5maWxlLm1hZT4nLCAnLW9tYWUnLCAnPG91dGZpbGUubWFlPic=

> <r_lp_tautomer_probability>
1

> <r_epik_Ionization_Penalty>
0.00923155

> <r_epik_Ionization_Penalty_Charging>
0.00923117

> <r_epik_Ionization_Penalty_Neutral>
3.88423e-07

> <r_epik_State_Penalty>
0.0069994

> <r_epik_Charging_Adjusted_Penalty>
0.0162306

> <i_epik_Tot_Q>
1

> <i_epik_Tot_abs_Q>
1

> <r_epik_Metal_State_Penalty>
0.0069994

> <b_epik_Metal_Only>
0

> <s_lp_Force_Field>
OPLS_2005

> <r_lp_Energy>
22.17

> <b_lp_Chiralities_Consistent>
1

> <s_lp_Variant>
AV-unprocessed.smi:2588-1

> <Gold.Version>
5.8.1

> <Gold.Id.Protein>
6NUR|6NUR_protein|mol2

> <Gold.PLP.Fitness>
39.1864

> <Gold.PLP.PLP>
-40.2313

> <Gold.PLP.part.hbond>
-1.0000

> <Gold.PLP.part.metal>
0.0000

> <Gold.PLP.part.buried>
-4.4890

> <Gold.PLP.part.nonpolar>
-34.2487

> <Gold.PLP.part.repulsive>
0.2503

> <Gold.PLP.ligand.clash>
0.0000

> <Gold.PLP.ligand.torsion>
0.5511

> <Gold.PLP.Chemscore.Hbond>
0.0000

> <Gold.PLP.Chemscore.CHOScore>
0.0000

> <Gold.PLP.Chemscore.Metal>
0.0000

> <Gold.PLP.Chemscore.Internal.Correction>
0.0573

> <Gold.Rescore>
     Score         DG    S(hbond)    S(metal)    S(lipo)     H(rot)  DE(clash)    DE(int)     intcor
      7.68      -9.89       0.00        0.00      78.73       1.88       0.01       2.20       ----

> <Gold.Chemscore.Fitness>
7.6841

> <Gold.Chemscore.DG>
-9.8899

> <Gold.Chemscore.ZeroCoef>
-5.4800

> <Gold.Chemscore.Hbond>
0.0000

> <Gold.Chemscore.Metal>
0.0000

> <Gold.Chemscore.Lipo>
78.7306

> <Gold.Chemscore.Internal_Hbond>
0.0000

> <Gold.Chemscore.DEClash>
0.0082

> <Gold.Chemscore.DEInternal>
2.1976

> <Gold.Chemscore.Rot>
1.8756

> <Gold.Chemscore.Internal.Correction>
   9.000000E+99

> <Gold.Chemscore.Hbond.Weighted>
-0.0000

> <Gold.Chemscore.Metal.Weighted>
-0.0000

> <Gold.Chemscore.Lipo.Weighted>
-9.2115

> <Gold.Chemscore.Internal_Hbond.Weighted>
0.0000

> <Gold.Chemscore.DEClash.Weighted>
0.0082

> <Gold.Chemscore.DEInternal.Weighted>
2.1976

> <Gold.Chemscore.Rot.Weighted>
4.8015

> <Gold.Chemscore.Internal.Correction.Weighted>
   9.000000E+99

> <Gold.Protein.RotatedTorsions>
[ 6907 6896 6895 6894 ] final  -57.19 input  -60.11 | X-H torsion
[ 7974 7965 7964 7962 ] final   97.59 input  175.53 | X-H torsion
[ 8008 7997 7996 7995 ] final -130.96 input   59.86 | X-H torsion
[ 10167 10162 10161 10158 ] final  -42.44 input  -65.29 | X-H torsion
[ 10718 10713 10712 10709 ] final -100.94 input   66.30 | X-H torsion
[ 10763 10752 10751 10750 ] final   -9.18 input  -60.55 | X-H torsion
[ 11005 11000 10999 10996 ] final -161.98 input  -57.11 | X-H torsion

> <Gold.Protein.ActiveResidues>
 VAL166  LYS551  ARG553  GLY616  TRP617  ASP618  TYR619  PRO620  LYS621  CYS622 
 ASP623  PHE694  ASN695  SER759  ASP760  ASP761  ALA762  ILE779  LEU786  VAL792 
 PHE793  MET794  SER795  GLU796  ALA797  LYS798  CYS799  TRP800  GLU811  SER814 

> <Gold.Protein.RotatedAtoms>
  150.8106  134.7258  159.6684 H   0  0  0  0  0  0  0  0  0  0  0  0  # atno 6907 bound_to 6896
  152.4226  134.5924  159.9987 H   0  0  0  0  0  0  0  0  0  0  0  0  # atno 6908 bound_to 6896
  151.6135  133.3308  159.3108 H   0  0  0  0  0  0  0  0  0  0  0  0  # atno 6909 bound_to 6896
  145.4234  139.2319  143.3184 H   0  0  0  0  0  0  0  0  0  0  0  0  # atno 7974 bound_to 7965
  155.3045  140.0454  157.3031 H   0  0  0  0  0  0  0  0  0  0  0  0  # atno 8008 bound_to 7997
  154.5468  140.2305  155.8517 H   0  0  0  0  0  0  0  0  0  0  0  0  # atno 8009 bound_to 7997
  156.1931  140.3045  155.9379 H   0  0  0  0  0  0  0  0  0  0  0  0  # atno 8010 bound_to 7997
  140.6969  143.3038  151.3209 H   0  0  0  0  0  0  0  0  0  0  0  0  # atno 10167 bound_to 10162
  156.0178  130.5350  150.6890 H   0  0  0  0  0  0  0  0  0  0  0  0  # atno 10718 bound_to 10713
  153.4511  135.7015  153.6108 H   0  0  0  0  0  0  0  0  0  0  0  0  # atno 10763 bound_to 10752
  153.4443  135.3773  155.2247 H   0  0  0  0  0  0  0  0  0  0  0  0  # atno 10764 bound_to 10752
  154.8728  135.3981  154.3923 H   0  0  0  0  0  0  0  0  0  0  0  0  # atno 10765 bound_to 10752
  140.6143  134.4816  157.5218 H   0  0  0  0  0  0  0  0  0  0  0  0  # atno 11005 bound_to 11000
  146.2645  140.4961  142.8840 LP  0  0  0  0  0  0  0  0  0  0  0  0  # atno 17320 bound_to 7965
  144.8230  140.6582  143.6340 LP  0  0  0  0  0  0  0  0  0  0  0  0  # atno 17321 bound_to 7965
  139.6435  144.0494  152.2573 LP  0  0  0  0  0  0  0  0  0  0  0  0  # atno 17342 bound_to 10162
  140.0007  144.6295  150.7732 LP  0  0  0  0  0  0  0  0  0  0  0  0  # atno 17343 bound_to 10162
  157.4576  131.0879  151.0780 LP  0  0  0  0  0  0  0  0  0  0  0  0  # atno 17370 bound_to 10713
  157.1277  130.6089  149.5521 LP  0  0  0  0  0  0  0  0  0  0  0  0  # atno 17371 bound_to 10713
  139.9179  134.8208  156.1306 LP  0  0  0  0  0  0  0  0  0  0  0  0  # atno 17394 bound_to 11000
  141.0786  133.6764  156.2289 LP  0  0  0  0  0  0  0  0  0  0  0  0  # atno 17395 bound_to 11000

$$$$
