AV-unprocessed.smi:2196|AV-procd|sdf|8908|dock3
  -GOLD-   2272012123D 1   1.00000     0.00000
 Structure written by MMmdl.
 45 46  0  0  0  0  0  0  0  0  1 V2000
  146.7115  129.5718  152.3151 C   0  0  0  0  0  0  0  0  0  0  0  0
  146.6060  130.5797  153.4671 C   0  0  0  0  0  0  0  0  0  0  0  0
  147.6727  131.5765  153.4289 N   0  0  0  0  0  0  0  0  0  0  0  0
  147.8118  132.3346  152.1852 C   0  0  0  0  0  0  0  0  0  0  0  0
  146.5053  132.9096  151.6668 C   0  0  0  0  0  0  0  0  0  0  0  0
  145.5448  132.0602  151.0790 C   0  0  0  0  0  0  0  0  0  0  0  0
  144.3197  132.5855  150.6242 C   0  0  0  0  0  0  0  0  0  0  0  0
  144.0508  133.9614  150.7571 C   0  0  0  0  0  0  0  0  0  0  0  0
  145.0069  134.8120  151.3449 C   0  0  0  0  0  0  0  0  0  0  0  0
  146.2324  134.2874  151.7992 C   0  0  0  0  0  0  0  0  0  0  0  0
  148.5726  131.7207  154.4854 C   0  0  0  0  0  0  0  0  0  0  0  0
  149.5565  132.6673  154.5177 C   0  0  0  0  0  0  0  0  0  0  0  0
  149.7277  133.5263  153.4435 N   0  0  0  0  0  0  0  0  0  0  0  0
  150.4109  132.8091  155.6148 N   0  0  0  0  0  0  0  0  0  0  0  0
  151.4490  133.8163  155.6985 C   0  0  0  0  0  0  0  0  0  0  0  0
  150.8888  135.2436  155.6141 C   0  0  0  0  0  0  0  0  0  0  0  0
  151.9298  136.1202  155.2193 O   0  0  0  0  0  0  0  0  0  0  0  0
  151.4396  137.3177  154.6422 C   0  0  0  0  0  0  0  0  0  0  0  0
  150.2450  131.9857  156.7534 C   0  0  0  0  0  0  0  0  0  0  0  0
  150.9296  132.0859  157.7721 O   0  0  0  0  0  0  0  0  0  0  0  0
  149.2450  131.0224  156.6963 N   0  0  0  0  0  0  0  0  0  0  0  0
  148.3794  130.8152  155.6256 C   0  0  0  0  0  0  0  0  0  0  0  0
  147.5284  129.9296  155.7033 O   0  0  0  0  0  0  0  0  0  0  0  0
  149.1285  130.4292  157.5047 H   0  0  0  0  0  0  0  0  0  0  0  0
  145.9195  128.8257  152.3814 H   0  0  0  0  0  0  0  0  0  0  0  0
  147.6661  129.0458  152.3407 H   0  0  0  0  0  0  0  0  0  0  0  0
  146.6230  130.0608  151.3446 H   0  0  0  0  0  0  0  0  0  0  0  0
  145.6393  131.0839  153.4386 H   0  0  0  0  0  0  0  0  0  0  0  0
  146.6366  130.0399  154.4146 H   0  0  0  0  0  0  0  0  0  0  0  0
  148.5382  133.1347  152.3273 H   0  0  0  0  0  0  0  0  0  0  0  0
  148.2245  131.6968  151.4022 H   0  0  0  0  0  0  0  0  0  0  0  0
  145.7430  131.0024  150.9852 H   0  0  0  0  0  0  0  0  0  0  0  0
  143.5849  131.9320  150.1775 H   0  0  0  0  0  0  0  0  0  0  0  0
  143.1103  134.3636  150.4107 H   0  0  0  0  0  0  0  0  0  0  0  0
  144.7992  135.8665  151.4503 H   0  0  0  0  0  0  0  0  0  0  0  0
  146.9572  134.9435  152.2583 H   0  0  0  0  0  0  0  0  0  0  0  0
  149.1379  133.4724  152.6256 H   0  0  0  0  0  0  0  0  0  0  0  0
  150.4887  134.1892  153.4058 H   0  0  0  0  0  0  0  0  0  0  0  0
  152.0153  133.6505  156.6168 H   0  0  0  0  0  0  0  0  0  0  0  0
  152.1543  133.6163  154.8926 H   0  0  0  0  0  0  0  0  0  0  0  0
  150.0729  135.2845  154.8905 H   0  0  0  0  0  0  0  0  0  0  0  0
  150.4876  135.5522  156.5808 H   0  0  0  0  0  0  0  0  0  0  0  0
  152.2755  137.9561  154.3568 H   0  0  0  0  0  0  0  0  0  0  0  0
  150.8198  137.8710  155.3489 H   0  0  0  0  0  0  0  0  0  0  0  0
  150.8517  137.1119  153.7467 H   0  0  0  0  0  0  0  0  0  0  0  0
  1  2  1  0  0  0  0
  1 25  1  0  0  0  0
  1 26  1  0  0  0  0
  1 27  1  0  0  0  0
  2  3  1  0  0  0  0
  2 28  1  0  0  0  0
  2 29  1  0  0  0  0
  3  4  1  0  0  0  0
  3 11  1  0  0  0  0
  4  5  1  0  0  0  0
  4 30  1  0  0  0  0
  4 31  1  0  0  0  0
  5 10  1  0  0  0  0
  5  6  2  0  0  0  0
  6  7  1  0  0  0  0
  6 32  1  0  0  0  0
  7  8  2  0  0  0  0
  7 33  1  0  0  0  0
  8  9  1  0  0  0  0
  8 34  1  0  0  0  0
  9 10  2  0  0  0  0
  9 35  1  0  0  0  0
 10 36  1  0  0  0  0
 11 22  1  0  0  0  0
 11 12  2  0  0  0  0
 12 13  1  0  0  0  0
 12 14  1  0  0  0  0
 13 37  1  0  0  0  0
 13 38  1  0  0  0  0
 14 15  1  0  0  0  0
 14 19  1  0  0  0  0
 15 16  1  0  0  0  0
 15 39  1  0  0  0  0
 15 40  1  0  0  0  0
 16 17  1  0  0  0  0
 16 41  1  0  0  0  0
 16 42  1  0  0  0  0
 17 18  1  0  0  0  0
 18 43  1  0  0  0  0
 18 44  1  0  0  0  0
 18 45  1  0  0  0  0
 19 20  2  0  0  0  0
 19 21  1  0  0  0  0
 21 24  1  0  0  0  0
 21 22  1  0  0  0  0
 22 23  2  0  0  0  0
M  END
> <s_m_source_file>
AV-unprocessed.smi

> <i_m_source_file_index>
2196

> <i_lp_mmshare_version>
43012

> <i_f3d_flags>
0

> <s_epik_input>
W0NIM11PW0NIMl1bQ0gyXW4oYyg9TylbbkhdYzE9TyljKFtOSDJdKWMxTihbQ0gyXVtDSDNdKVtDSDJdYzJbY0hdW2NIXVtjSF1bY0hdW2NIXTI=

> <s_epik_cmdline>
J2VwaWtfcHl0aG9uJywgJy1waCcsICc3LjAnLCAnLXRuJywgJzgnLCAnLW1hJywgJzIwMCcsICctbWV0YWxfYmluZGluZycsICctaW1hZScsICc8aW5maWxlLm1hZT4nLCAnLW9tYWUnLCAnPG91dGZpbGUubWFlPic=

> <r_lp_tautomer_probability>
1

> <r_epik_Ionization_Penalty>
0.000571321

> <r_epik_Ionization_Penalty_Charging>
3.00664e-06

> <r_epik_Ionization_Penalty_Neutral>
0.000568314

> <r_epik_State_Penalty>
-0

> <r_epik_Charging_Adjusted_Penalty>
3.00664e-06

> <i_epik_Tot_Q>
0

> <i_epik_Tot_abs_Q>
0

> <r_epik_Metal_State_Penalty>
-0

> <b_epik_Metal_Only>
0

> <s_lp_Force_Field>
OPLS_2005

> <r_lp_Energy>
20.6449

> <b_lp_Chiralities_Consistent>
1

> <s_lp_Variant>
AV-unprocessed.smi:2196-1

> <Gold.Version>
5.8.1

> <Gold.Id.Protein>
6NUR|6NUR_protein|mol2

> <Gold.PLP.Fitness>
39.7759

> <Gold.PLP.PLP>
-34.8453

> <Gold.PLP.part.hbond>
-2.9566

> <Gold.PLP.part.metal>
0.0000

> <Gold.PLP.part.buried>
-0.1851

> <Gold.PLP.part.nonpolar>
-32.3535

> <Gold.PLP.part.repulsive>
0.1837

> <Gold.PLP.ligand.clash>
21.4381

> <Gold.PLP.ligand.torsion>
0.5775

> <Gold.PLP.Chemscore.Hbond>
2.0000

> <Gold.PLP.Chemscore.CHOScore>
0.0000

> <Gold.PLP.Chemscore.Metal>
0.0000

> <Gold.Chemscore.Hbonds>
donor molecule, donor type, donor heavy atom, donor atom, acceptor molecule, acceptor atom, score
      P1  H  6896  6907       L1    20  1.00
      P1  H 10752 10764       L1    17  0.36

> <Gold.PLP.Chemscore.Internal.Correction>
21.5237

> <Gold.Rescore>
     Score         DG    S(hbond)    S(metal)    S(lipo)     H(rot)  DE(clash)    DE(int)     intcor
     10.64     -16.48       1.79        0.00      87.86       2.06       1.96       3.88       ----

> <Gold.Chemscore.Fitness>
10.6353

> <Gold.Chemscore.DG>
-16.4769

> <Gold.Chemscore.ZeroCoef>
-5.4800

> <Gold.Chemscore.Hbond>
1.7916

> <Gold.Chemscore.Metal>
0.0000

> <Gold.Chemscore.Lipo>
87.8563

> <Gold.Chemscore.Internal_Hbond>
0.0000

> <Gold.Chemscore.DEClash>
1.9620

> <Gold.Chemscore.DEInternal>
3.8795

> <Gold.Chemscore.Rot>
2.0571

> <Gold.Chemscore.Internal.Correction>
   9.000000E+99

> <Gold.Chemscore.Hbonds>
donor molecule, donor type, donor heavy atom, donor atom, acceptor molecule, acceptor atom, score
      P1  H  6896  6907       L1    20  0.99
      P1  H 10752 10764       L1    17  0.31

> <Gold.Chemscore.Hbond.Weighted>
-5.9838

> <Gold.Chemscore.Metal.Weighted>
-0.0000

> <Gold.Chemscore.Lipo.Weighted>
-10.2792

> <Gold.Chemscore.Internal_Hbond.Weighted>
0.0000

> <Gold.Chemscore.DEClash.Weighted>
1.9620

> <Gold.Chemscore.DEInternal.Weighted>
3.8795

> <Gold.Chemscore.Rot.Weighted>
5.2661

> <Gold.Chemscore.Internal.Correction.Weighted>
   9.000000E+99

> <Gold.Protein.RotatedTorsions>
[ 6907 6896 6895 6894 ] final -161.83 input  -60.11 | X-H torsion
[ 7974 7965 7964 7962 ] final   58.91 input  175.53 | X-H torsion
[ 8008 7997 7996 7995 ] final  -96.74 input   59.86 | X-H torsion
[ 10167 10162 10161 10158 ] final  -62.98 input  -65.29 | X-H torsion
[ 10718 10713 10712 10709 ] final  -67.32 input   66.30 | X-H torsion
[ 10763 10752 10751 10750 ] final  -50.03 input  -60.55 | X-H torsion
[ 11005 11000 10999 10996 ] final -146.74 input  -57.11 | X-H torsion

> <Gold.Protein.ActiveResidues>
 VAL166  LYS551  ARG553  GLY616  TRP617  ASP618  TYR619  PRO620  LYS621  CYS622 
 ASP623  PHE694  ASN695  SER759  ASP760  ASP761  ALA762  ILE779  LEU786  VAL792 
 PHE793  MET794  SER795  GLU796  ALA797  LYS798  CYS799  TRP800  GLU811  SER814 

> <Gold.Protein.RotatedAtoms>
  151.3708  133.3855  159.2699 H   0  0  0  0  0  0  0  0  0  0  0  0  # atno 6907 bound_to 6896
  150.9653  134.9035  159.7765 H   0  0  0  0  0  0  0  0  0  0  0  0  # atno 6908 bound_to 6896
  152.5164  134.3668  159.9356 H   0  0  0  0  0  0  0  0  0  0  0  0  # atno 6909 bound_to 6896
  145.9129  139.3668  143.0524 H   0  0  0  0  0  0  0  0  0  0  0  0  # atno 7974 bound_to 7965
  154.7785  140.0469  157.1108 H   0  0  0  0  0  0  0  0  0  0  0  0  # atno 8008 bound_to 7997
  154.9734  140.3092  155.4958 H   0  0  0  0  0  0  0  0  0  0  0  0  # atno 8009 bound_to 7997
  156.2932  140.2249  156.4828 H   0  0  0  0  0  0  0  0  0  0  0  0  # atno 8010 bound_to 7997
  140.5902  143.2340  151.6155 H   0  0  0  0  0  0  0  0  0  0  0  0  # atno 10167 bound_to 10162
  156.0564  130.4276  150.1837 H   0  0  0  0  0  0  0  0  0  0  0  0  # atno 10718 bound_to 10713
  154.1038  135.6559  153.4873 H   0  0  0  0  0  0  0  0  0  0  0  0  # atno 10763 bound_to 10752
  153.0279  135.5231  154.7260 H   0  0  0  0  0  0  0  0  0  0  0  0  # atno 10764 bound_to 10752
  154.6420  135.2989  155.0061 H   0  0  0  0  0  0  0  0  0  0  0  0  # atno 10765 bound_to 10752
  140.7788  134.3103  157.5052 H   0  0  0  0  0  0  0  0  0  0  0  0  # atno 11005 bound_to 11000
  145.8648  140.9454  143.0681 LP  0  0  0  0  0  0  0  0  0  0  0  0  # atno 17320 bound_to 7965
  144.6745  140.0577  143.7477 LP  0  0  0  0  0  0  0  0  0  0  0  0  # atno 17321 bound_to 7965
  139.5223  144.3167  152.0946 LP  0  0  0  0  0  0  0  0  0  0  0  0  # atno 17342 bound_to 10162
  140.2331  144.4348  150.6291 LP  0  0  0  0  0  0  0  0  0  0  0  0  # atno 17343 bound_to 10162
  156.9912  130.9894  151.3414 LP  0  0  0  0  0  0  0  0  0  0  0  0  # atno 17370 bound_to 10713
  157.5537  130.8199  149.8178 LP  0  0  0  0  0  0  0  0  0  0  0  0  # atno 17371 bound_to 10713
  139.8745  134.9306  156.3506 LP  0  0  0  0  0  0  0  0  0  0  0  0  # atno 17394 bound_to 11000
  140.9502  133.7456  156.0262 LP  0  0  0  0  0  0  0  0  0  0  0  0  # atno 17395 bound_to 11000

$$$$
