#       Name:                AV-unprocessed.smi:1046
#       Creating user name   scv26
#       Creation time:       Fri Mar 27 02:58:30 2020


#       File generated by GOLD software.
#

@<TRIPOS>MOLECULE
AV-unprocessed.smi:1046
    59    61     1
SMALL
NO_CHARGES


@<TRIPOS>ATOM
      1 ****        -5.3814   0.3726   2.5818 C.3            1 S1                 0.0000
      2 ****        -4.3144   0.9062   1.6409 C.ar           1 S1                 0.0000
      3 ****        -3.4591   1.9312   2.1049 C.ar           1 S1                 0.0000
      4 ****        -2.4952   2.4016   1.2209 C.ar           1 S1                 0.0000
      5 ****        -1.5214   3.3917   1.3690 N.pl3          1 S1                 1.0000
      6 ****        -0.8062   3.5028   0.2152 C.2            1 S1                 0.0000
      7 ****        -1.3020   2.5890  -0.6637 N.pl3          1 S1                 0.0000
      8 ****        -0.9046   2.2895  -2.0455 C.3            1 S1                 0.0000
      9 ****        -0.0587   1.0056  -2.1696 C.3            1 S1                 0.0000
     10 ****         0.2115   0.8132  -3.5432 O.3            1 S1                 0.0000
     11 ****         1.2766   1.0824  -1.3967 C.3            1 S1                 0.0000
     12 ****         2.0235  -0.2011  -1.4027 N.4            1 S1                 1.0000
     13 ****         1.4771  -1.2087  -0.4537 C.3            1 S1                 0.0000
     14 ****         2.2798  -2.5226  -0.5427 C.3            1 S1                 0.0000
     15 ****         3.7138  -2.3444  -0.3015 N.3            1 S1                 0.0000
     16 ****         4.0634  -2.0253   1.0868 C.3            1 S1                 0.0000
     17 ****         3.7830  -3.1447   2.1020 C.3            1 S1                 0.0000
     18 ****         4.2343  -2.7394   3.3756 O.3            1 S1                 0.0000
     19 ****         4.2227  -1.3564  -1.2521 C.3            1 S1                 0.0000
     20 ****         3.4802  -0.0062  -1.1823 C.3            1 S1                 0.0000
     21 ****        -2.3634   1.8866  -0.0831 C.ar           1 S1                 0.0000
     22 ****        -3.1992   0.8789  -0.5576 C.ar           1 S1                 0.0000
     23 ****        -4.1878   0.3887   0.3254 C.ar           1 S1                 0.0000
     24 ****        -5.1169  -0.7084  -0.1660 C.3            1 S1                 0.0000
     25 ****        -5.2739   0.7893   3.5837 H              1 S1                 0.0000
     26 ****        -5.3162  -0.7123   2.6668 H              1 S1                 0.0000
     27 ****        -6.3747   0.6331   2.2153 H              1 S1                 0.0000
     28 ****        -3.5542   2.3334   3.1032 H              1 S1                 0.0000
     29 ****         0.0080   4.1895   0.0329 H              1 S1                 0.0000
     30 ****        -1.8096   2.2228  -2.6515 H              1 S1                 0.0000
     31 ****        -0.3461   3.1496  -2.4184 H              1 S1                 0.0000
     32 ****        -0.6542   0.1612  -1.8254 H              1 S1                 0.0000
     33 ****         0.5889  -0.0442  -3.6673 H              1 S1                 0.0000
     34 ****         1.8884   1.8684  -1.8427 H              1 S1                 0.0000
     35 ****         1.1132   1.3807  -0.3607 H              1 S1                 0.0000
     36 ****         1.4929  -0.8139   0.5629 H              1 S1                 0.0000
     37 ****         0.4340  -1.4183  -0.6873 H              1 S1                 0.0000
     38 ****         1.8650  -3.2601   0.1434 H              1 S1                 0.0000
     39 ****         2.1418  -2.9477  -1.5379 H              1 S1                 0.0000
     40 ****         5.1304  -1.8023   1.1313 H              1 S1                 0.0000
     41 ****         3.5591  -1.1150   1.4097 H              1 S1                 0.0000
     42 ****         2.7189  -3.3683   2.1720 H              1 S1                 0.0000
     43 ****         4.2969  -4.0630   1.8165 H              1 S1                 0.0000
     44 ****         4.0778  -3.4416   3.9889 H              1 S1                 0.0000
     45 ****         5.2901  -1.2012  -1.0902 H              1 S1                 0.0000
     46 ****         4.1329  -1.7568  -2.2630 H              1 S1                 0.0000
     47 ****         3.8778   0.6593  -1.9494 H              1 S1                 0.0000
     48 ****         3.6507   0.4849  -0.2233 H              1 S1                 0.0000
     49 ****        -3.1048   0.4874  -1.5598 H              1 S1                 0.0000
     50 ****        -4.9471  -0.9328  -1.2196 H              1 S1                 0.0000
     51 ****        -6.1596  -0.4099  -0.0549 H              1 S1                 0.0000
     52 ****        -4.9562  -1.6256   0.4011 H              1 S1                 0.0000
     53 ****         1.9338  -0.5877  -2.3313 H              1 S1                 0.0000
     54 ****        -1.3593   3.9561   2.1936 H              1 S1                 0.0000
     55 ****         0.8546   1.5110  -3.8588 LP             1 S1                 0.0000
     56 ****        -0.6389   0.8834  -4.0647 LP             1 S1                 0.0000
     57 ****         4.1621  -3.2255  -0.4521 LP             1 S1                 0.0000
     58 ****         3.7361  -1.9220   3.6651 LP             1 S1                 0.0000
     59 ****         5.2129  -2.5372   3.3376 LP             1 S1                 0.0000
@<TRIPOS>BOND
    1    1    2 1     
    2    1   25 1     
    3    1   26 1     
    4    1   27 1     
    5    2   23 ar    
    6    2    3 ar    
    7    3    4 ar    
    8    3   28 1     
    9    4   21 ar    
   10    4    5 1     
   11    5    6 2     
   12    5   54 1     
   13    6    7 1     
   14    6   29 1     
   15    7    8 1     
   16    7   21 1     
   17    8    9 1     
   18    8   30 1     
   19    8   31 1     
   20    9   10 1     
   21    9   11 1     
   22    9   32 1     
   23   10   33 1     
   24   11   12 1     
   25   11   34 1     
   26   11   35 1     
   27   12   20 1     
   28   12   13 1     
   29   12   53 1     
   30   13   14 1     
   31   13   36 1     
   32   13   37 1     
   33   14   15 1     
   34   14   38 1     
   35   14   39 1     
   36   15   16 1     
   37   15   19 1     
   38   16   17 1     
   39   16   40 1     
   40   16   41 1     
   41   17   18 1     
   42   17   42 1     
   43   17   43 1     
   44   18   44 1     
   45   19   20 1     
   46   19   45 1     
   47   19   46 1     
   48   20   47 1     
   49   20   48 1     
   50   21   22 ar    
   51   22   23 ar    
   52   22   49 1     
   53   23   24 1     
   54   24   50 1     
   55   24   51 1     
   56   24   52 1     
   57   10   55 1     
   58   10   56 1     
   59   15   57 1     
   60   18   58 1     
   61   18   59 1     
@<TRIPOS>SUBSTRUCTURE
      1 S1             1
@<TRIPOS>SET
LONE_PAIRS      STATIC     ATOMS    <user>   **** ""
5 55 56 57 58 59
DONOR_HYDROGENS      STATIC     ATOMS    <user>   **** ""
4 54 33 53 44
ATOM$BLUE        STATIC     ATOMS    COLORGROUP SYSTEM
5 55 56 57 58 59
ATOM$RED        STATIC     ATOMS    COLORGROUP SYSTEM
4 54 33 53 44
