AV-unprocessed.smi:2149|AV-procd|sdf|8755|dock2
  -GOLD-   2272011533D 1   1.00000     0.00000
 Structure written by MMmdl.
 43 44  0  0  0  0  0  0  0  0  2 V2000
  151.2539  138.3108  156.4801 C   0  0  0  0  0  0  0  0  0  0  0  0
  151.3656  138.4730  154.6502 S   0  0  0  0  0  0  0  0  0  0  0  0
  152.3223  139.5517  154.3579 O   0  0  0  0  0  0  0  0  0  0  0  0
  151.5582  137.1402  154.0587 O   0  0  0  0  0  0  0  0  0  0  0  0
  149.7840  139.0279  154.2022 N   0  0  0  0  0  0  0  0  0  0  0  0
  149.4985  140.4678  154.3652 C   0  0  0  0  0  0  0  0  0  0  0  0
  148.2483  140.8882  153.5766 C   0  0  0  0  0  0  0  0  0  0  0  0
  147.0409  140.0259  153.9544 C   0  0  0  0  0  0  0  0  0  0  0  0
  147.3793  138.5456  153.7151 C   0  0  2  0  0  0  0  0  0  0  0  0
  146.1935  137.6429  154.0809 C   0  0  0  0  0  0  0  0  0  0  0  0
  145.5385  137.8587  155.1014 O   0  0  0  0  0  0  0  0  0  0  0  0
  145.9296  136.6292  153.2418 N   0  0  0  0  0  0  0  0  0  0  0  0
  144.8601  135.6545  153.4205 C   0  0  0  0  0  0  0  0  0  0  0  0
  144.0073  135.5125  152.1481 C   0  0  0  0  0  0  0  0  0  0  0  0
  144.4773  134.3736  151.2646 C   0  0  0  0  0  0  0  0  0  0  0  0
  145.7593  133.7972  151.3976 C   0  0  0  0  0  0  0  0  0  0  0  0
  146.1315  132.7407  150.5399 C   0  0  0  0  0  0  0  0  0  0  0  0
  145.2165  132.2852  149.5680 C   0  0  0  0  0  0  0  0  0  0  0  0
  143.9501  132.8984  149.4780 C   0  0  0  0  0  0  0  0  0  0  0  0
  143.6303  133.9070  150.3186 N   0  3  0  0  0  0  0  0  0  0  0  0
  148.6393  138.1468  154.5136 C   0  0  0  0  0  0  0  0  0  0  0  0
  152.2331  138.0418  156.8757 H   0  0  0  0  0  0  0  0  0  0  0  0
  150.5387  137.5339  156.7457 H   0  0  0  0  0  0  0  0  0  0  0  0
  150.9401  139.2608  156.9115 H   0  0  0  0  0  0  0  0  0  0  0  0
  149.3651  140.6830  155.4263 H   0  0  0  0  0  0  0  0  0  0  0  0
  150.3516  141.0560  154.0308 H   0  0  0  0  0  0  0  0  0  0  0  0
  148.0278  141.9392  153.7652 H   0  0  0  0  0  0  0  0  0  0  0  0
  148.4436  140.8008  152.5070 H   0  0  0  0  0  0  0  0  0  0  0  0
  146.7814  140.1972  155.0004 H   0  0  0  0  0  0  0  0  0  0  0  0
  146.1742  140.3213  153.3616 H   0  0  0  0  0  0  0  0  0  0  0  0
  147.5962  138.4131  152.6533 H   0  0  0  0  0  0  0  0  0  0  0  0
  146.5141  136.5247  152.4247 H   0  0  0  0  0  0  0  0  0  0  0  0
  145.2814  134.6907  153.7120 H   0  0  0  0  0  0  0  0  0  0  0  0
  144.2358  135.9841  154.2515 H   0  0  0  0  0  0  0  0  0  0  0  0
  142.9625  135.3503  152.4161 H   0  0  0  0  0  0  0  0  0  0  0  0
  144.0352  136.4358  151.5675 H   0  0  0  0  0  0  0  0  0  0  0  0
  146.4499  134.1585  152.1460 H   0  0  0  0  0  0  0  0  0  0  0  0
  147.1073  132.2854  150.6268 H   0  0  0  0  0  0  0  0  0  0  0  0
  145.4823  131.4777  148.9014 H   0  0  0  0  0  0  0  0  0  0  0  0
  143.1893  132.6148  148.7653 H   0  0  0  0  0  0  0  0  0  0  0  0
  148.8985  137.1147  154.2774 H   0  0  0  0  0  0  0  0  0  0  0  0
  148.4521  138.1865  155.5879 H   0  0  0  0  0  0  0  0  0  0  0  0
  142.7080  134.3360  150.2369 H   0  0  0  0  0  0  0  0  0  0  0  0
  1  2  1  0  0  0  0
  1 22  1  0  0  0  0
  1 23  1  0  0  0  0
  1 24  1  0  0  0  0
  2  3  2  0  0  0  0
  2  4  2  0  0  0  0
  2  5  1  0  0  0  0
  5 21  1  0  0  0  0
  5  6  1  0  0  0  0
  6  7  1  0  0  0  0
  6 25  1  0  0  0  0
  6 26  1  0  0  0  0
  7  8  1  0  0  0  0
  7 27  1  0  0  0  0
  7 28  1  0  0  0  0
  8  9  1  0  0  0  0
  8 29  1  0  0  0  0
  8 30  1  0  0  0  0
  9 10  1  0  0  0  0
  9 21  1  0  0  0  0
  9 31  1  0  0  0  0
 10 11  2  0  0  0  0
 10 12  1  0  0  0  0
 12 13  1  0  0  0  0
 12 32  1  0  0  0  0
 13 14  1  0  0  0  0
 13 33  1  0  0  0  0
 13 34  1  0  0  0  0
 14 15  1  0  0  0  0
 14 35  1  0  0  0  0
 14 36  1  0  0  0  0
 15 20  1  0  0  0  0
 15 16  2  0  0  0  0
 16 17  1  0  0  0  0
 16 37  1  0  0  0  0
 17 18  2  0  0  0  0
 17 38  1  0  0  0  0
 18 19  1  0  0  0  0
 18 39  1  0  0  0  0
 19 20  2  0  0  0  0
 19 40  1  0  0  0  0
 20 43  1  0  0  0  0
 21 41  1  0  0  0  0
 21 42  1  0  0  0  0
M  CHG  1  20   1
M  END
> <s_m_source_file>
AV-unprocessed.smi

> <i_m_source_file_index>
2149

> <i_lp_mmshare_version>
43012

> <i_f3d_flags>
0

> <s_epik_input>
W0NIM11TKD1PKSg9TylOMVtDSDJdW0NIMl1bQ0gyXVtDQEhdKFtDSDJdMSlDKD1PKVtOSF1bQ0gyXVtDSDJdYzJbY0hdW2NIXVtjSF1bY0hdbjI=

> <s_epik_cmdline>
J2VwaWtfcHl0aG9uJywgJy1waCcsICc3LjAnLCAnLXRuJywgJzgnLCAnLW1hJywgJzIwMCcsICctbWV0YWxfYmluZGluZycsICctaW1hZScsICc8aW5maWxlLm1hZT4nLCAnLW9tYWUnLCAnPG91dGZpbGUubWFlPic=

> <r_epik_Ionization_Penalty>
1.83523

> <r_epik_Ionization_Penalty_Charging>
1.83523

> <r_epik_Ionization_Penalty_Neutral>
2.62835e-08

> <r_epik_State_Penalty>
1.95153

> <r_epik_Charging_Adjusted_Penalty>
3.78676

> <i_epik_Tot_Q>
1

> <i_epik_Tot_abs_Q>
1

> <r_epik_Metal_State_Penalty>
1.97791

> <b_epik_Metal_Only>
0

> <s_lp_Force_Field>
OPLS_2005

> <r_lp_Energy>
9.7414

> <b_lp_Chiralities_Consistent>
1

> <s_lp_Variant>
AV-unprocessed.smi:2149-4

> <Gold.Version>
5.8.1

> <Gold.Id.Protein>
6NUR|6NUR_protein|mol2

> <Gold.PLP.Fitness>
41.2200

> <Gold.PLP.PLP>
-32.2319

> <Gold.PLP.part.hbond>
-3.0000

> <Gold.PLP.part.metal>
0.0000

> <Gold.PLP.part.buried>
-4.9608

> <Gold.PLP.part.nonpolar>
-25.1413

> <Gold.PLP.part.repulsive>
0.5296

> <Gold.PLP.ligand.clash>
0.0000

> <Gold.PLP.ligand.torsion>
1.5109

> <Gold.PLP.Chemscore.Hbond>
3.7520

> <Gold.PLP.Chemscore.CHOScore>
0.0000

> <Gold.PLP.Chemscore.Metal>
0.0000

> <Gold.Chemscore.Hbonds>
donor molecule, donor type, donor heavy atom, donor atom, acceptor molecule, acceptor atom, score
      L1  H    20    43       P1 10186  2.00
      P1  H  7989  7998       L1     3  0.66
      P1  H 10752 10763       L1     4  0.98

> <Gold.PLP.Chemscore.Internal.Correction>
0.7538

> <Gold.Rescore>
     Score         DG    S(hbond)    S(metal)    S(lipo)     H(rot)  DE(clash)    DE(int)     intcor
     18.10     -19.93       2.88        0.00      83.98       1.95       0.24       1.59       ----

> <Gold.Chemscore.Fitness>
18.1033

> <Gold.Chemscore.DG>
-19.9303

> <Gold.Chemscore.ZeroCoef>
-5.4800

> <Gold.Chemscore.Hbond>
2.8767

> <Gold.Chemscore.Metal>
0.0000

> <Gold.Chemscore.Lipo>
83.9765

> <Gold.Chemscore.Internal_Hbond>
0.0000

> <Gold.Chemscore.DEClash>
0.2399

> <Gold.Chemscore.DEInternal>
1.5872

> <Gold.Chemscore.Rot>
1.9466

> <Gold.Chemscore.Internal.Correction>
   9.000000E+99

> <Gold.Chemscore.Hbonds>
donor molecule, donor type, donor heavy atom, donor atom, acceptor molecule, acceptor atom, score
      L1  H    12    32       P1  7948  0.01
      L1  H    20    43       P1 10186  0.80
      P1  H  7989  7998       L1     3  0.60
      P1  H 10752 10763       L1     4  0.92

> <Gold.Chemscore.Hbond.Weighted>
-9.6083

> <Gold.Chemscore.Metal.Weighted>
-0.0000

> <Gold.Chemscore.Lipo.Weighted>
-9.8253

> <Gold.Chemscore.Internal_Hbond.Weighted>
0.0000

> <Gold.Chemscore.DEClash.Weighted>
0.2399

> <Gold.Chemscore.DEInternal.Weighted>
1.5872

> <Gold.Chemscore.Rot.Weighted>
4.9832

> <Gold.Chemscore.Internal.Correction.Weighted>
   9.000000E+99

> <Gold.Protein.RotatedTorsions>
[ 6907 6896 6895 6894 ] final  -76.98 input  -60.11 | X-H torsion
[ 7974 7965 7964 7962 ] final   84.91 input  175.53 | X-H torsion
[ 8008 7997 7996 7995 ] final  117.76 input   59.86 | X-H torsion
[ 10167 10162 10161 10158 ] final  124.13 input  -65.29 | X-H torsion
[ 10718 10713 10712 10709 ] final  156.80 input   66.30 | X-H torsion
[ 10763 10752 10751 10750 ] final   43.37 input  -60.55 | X-H torsion
[ 11005 11000 10999 10996 ] final  -87.32 input  -57.11 | X-H torsion

> <Gold.Protein.ActiveResidues>
 VAL166  LYS551  ARG553  GLY616  TRP617  ASP618  TYR619  PRO620  LYS621  CYS622 
 ASP623  PHE694  ASN695  SER759  ASP760  ASP761  ALA762  ILE779  LEU786  VAL792 
 PHE793  MET794  SER795  GLU796  ALA797  LYS798  CYS799  TRP800  GLU811  SER814 

> <Gold.Protein.RotatedAtoms>
  150.7011  134.4490  159.5327 H   0  0  0  0  0  0  0  0  0  0  0  0  # atno 6907 bound_to 6896
  152.2186  134.8431  160.0498 H   0  0  0  0  0  0  0  0  0  0  0  0  # atno 6908 bound_to 6896
  151.9290  133.3571  159.3961 H   0  0  0  0  0  0  0  0  0  0  0  0  # atno 6909 bound_to 6896
  145.5924  139.2340  143.2291 H   0  0  0  0  0  0  0  0  0  0  0  0  # atno 7974 bound_to 7965
  156.2511  140.2889  156.0728 H   0  0  0  0  0  0  0  0  0  0  0  0  # atno 8008 bound_to 7997
  155.1652  140.0400  157.2868 H   0  0  0  0  0  0  0  0  0  0  0  0  # atno 8009 bound_to 7997
  154.6365  140.2512  155.7379 H   0  0  0  0  0  0  0  0  0  0  0  0  # atno 8010 bound_to 7997
  139.5759  144.6963  151.3654 H   0  0  0  0  0  0  0  0  0  0  0  0  # atno 10167 bound_to 10162
  157.2001  131.0674  151.2030 H   0  0  0  0  0  0  0  0  0  0  0  0  # atno 10718 bound_to 10713
  152.9862  135.6103  154.3100 H   0  0  0  0  0  0  0  0  0  0  0  0  # atno 10763 bound_to 10752
  154.2816  135.2777  155.2696 H   0  0  0  0  0  0  0  0  0  0  0  0  # atno 10764 bound_to 10752
  154.5032  135.5861  153.6604 H   0  0  0  0  0  0  0  0  0  0  0  0  # atno 10765 bound_to 10752
  141.1618  133.7504  156.9289 H   0  0  0  0  0  0  0  0  0  0  0  0  # atno 11005 bound_to 11000
  146.1637  140.6750  142.9266 LP  0  0  0  0  0  0  0  0  0  0  0  0  # atno 17320 bound_to 7965
  144.7345  140.4769  143.6913 LP  0  0  0  0  0  0  0  0  0  0  0  0  # atno 17321 bound_to 7965
  140.7042  143.7556  150.7453 LP  0  0  0  0  0  0  0  0  0  0  0  0  # atno 17342 bound_to 10162
  140.1076  143.4729  152.2389 LP  0  0  0  0  0  0  0  0  0  0  0  0  # atno 17343 bound_to 10162
  157.3776  130.7214  149.6607 LP  0  0  0  0  0  0  0  0  0  0  0  0  # atno 17370 bound_to 10713
  155.9701  130.4181  150.4313 LP  0  0  0  0  0  0  0  0  0  0  0  0  # atno 17371 bound_to 10713
  140.1400  134.9300  157.2453 LP  0  0  0  0  0  0  0  0  0  0  0  0  # atno 17394 bound_to 11000
  140.2848  134.3308  155.7332 LP  0  0  0  0  0  0  0  0  0  0  0  0  # atno 17395 bound_to 11000

$$$$
