#       Name:                AV-unprocessed.smi:866
#       Creating user name   scv26
#       Creation time:       Fri Mar 27 01:47:28 2020


#       File generated by GOLD software.
#

@<TRIPOS>MOLECULE
AV-unprocessed.smi:866
    37    37     1
SMALL
NO_CHARGES


@<TRIPOS>ATOM
      1 ****        -5.8121   1.7095   0.5261 C.3            1 S1                 0.0000
      2 ****        -4.3796   1.7047   0.0754 C.2            1 S1                 0.0000
      3 ****        -3.8798   1.8386  -1.2513 C.2            1 S1                 0.0000
      4 ****        -2.5586   1.7935  -1.3099 N.2            1 S1                 0.0000
      5 ****        -2.1699   1.6273  -0.0283 N.pl3          1 S1                 0.0000
      6 ****        -0.7578   1.5408   0.2890 C.3            1 S1                 0.0000
      7 ****        -0.1513   0.2051  -0.1646 C.3            1 S1                 0.0000
      8 ****         1.2858   0.1387   0.1744 N.4            1 S1                 1.0000
      9 ****         1.9559  -1.1447  -0.1362 C.3            1 S1                 0.0000
     10 ****         2.1893  -1.2946  -1.6530 C.3            1 S1                 0.0000
     11 ****         3.2722  -1.2361   0.6698 C.3            1 S1                 0.0000
     12 ****         3.9353  -2.6188   0.6373 C.2            1 S1                 0.0000
     13 ****         5.2698  -2.6501   0.6106 N.am           1 S1                 0.0000
     14 ****         3.2575  -3.6443   0.6418 O.2            1 S1                 0.0000
     15 ****        -3.2480   1.5726   0.8293 C.2            1 S1                 0.0000
     16 ****        -6.4698   2.1565  -0.2196 H              1 S1                 0.0000
     17 ****        -5.9433   2.2756   1.4486 H              1 S1                 0.0000
     18 ****        -6.1776   0.6997   0.7128 H              1 S1                 0.0000
     19 ****        -4.4356   1.9672  -2.1686 H              1 S1                 0.0000
     20 ****        -0.2450   2.3771  -0.1885 H              1 S1                 0.0000
     21 ****        -0.6362   1.6670   1.3658 H              1 S1                 0.0000
     22 ****        -0.6759  -0.6210   0.3175 H              1 S1                 0.0000
     23 ****        -0.2816   0.0872  -1.2402 H              1 S1                 0.0000
     24 ****         1.7736   0.8858  -0.2989 H              1 S1                 0.0000
     25 ****         1.2930  -1.9449   0.1974 H              1 S1                 0.0000
     26 ****         2.6794  -2.2388  -1.8909 H              1 S1                 0.0000
     27 ****         2.8181  -0.4911  -2.0380 H              1 S1                 0.0000
     28 ****         1.2536  -1.2808  -2.2112 H              1 S1                 0.0000
     29 ****         3.9765  -0.4811   0.3161 H              1 S1                 0.0000
     30 ****         3.0757  -1.0039   1.7174 H              1 S1                 0.0000
     31 ****         5.7583  -3.5336   0.5847 H              1 S1                 0.0000
     32 ****         5.7898  -1.7839   0.6126 H              1 S1                 0.0000
     33 ****        -3.1234   1.4456   1.8947 H              1 S1                 0.0000
     34 ****         1.3629   0.2875   1.1704 H              1 S1                 0.0000
     35 ****        -1.9787   1.8662  -2.1213 LP             1 S1                 0.0000
     36 ****         2.2596  -3.5840   0.6669 LP             1 S1                 0.0000
     37 ****         3.7039  -4.5388   0.6203 LP             1 S1                 0.0000
@<TRIPOS>BOND
    1    1    2 1     
    2    1   16 1     
    3    1   17 1     
    4    1   18 1     
    5    2   15 2     
    6    2    3 1     
    7    3    4 2     
    8    3   19 1     
    9    4    5 1     
   10    5    6 1     
   11    5   15 1     
   12    6    7 1     
   13    6   20 1     
   14    6   21 1     
   15    7    8 1     
   16    7   22 1     
   17    7   23 1     
   18    8    9 1     
   19    8   24 1     
   20    8   34 1     
   21    9   10 1     
   22    9   11 1     
   23    9   25 1     
   24   10   26 1     
   25   10   27 1     
   26   10   28 1     
   27   11   12 1     
   28   11   29 1     
   29   11   30 1     
   30   12   13 am    
   31   12   14 2     
   32   13   31 1     
   33   13   32 1     
   34   15   33 1     
   35    4   35 1     
   36   14   36 1     
   37   14   37 1     
@<TRIPOS>SUBSTRUCTURE
      1 S1             1
@<TRIPOS>SET
LONE_PAIRS      STATIC     ATOMS    <user>   **** ""
3 35 36 37
DONOR_HYDROGENS      STATIC     ATOMS    <user>   **** ""
4 24 34 31 32
ATOM$BLUE        STATIC     ATOMS    COLORGROUP SYSTEM
3 35 36 37
ATOM$RED        STATIC     ATOMS    COLORGROUP SYSTEM
4 24 34 31 32
