AV-unprocessed.smi:3274|AV-procd|sdf|12526|dock7
  -GOLD-   2272018443D 1   1.00000     0.00000
 Structure written by MMmdl.
 43 44  0  0  0  0  0  0  0  0  2 V2000
  151.9147  144.9522  158.1022 C   0  0  0  0  0  0  0  0  0  0  0  0
  152.1759  144.1117  159.3413 C   0  0  0  0  0  0  0  0  0  0  0  0
  152.2245  144.6792  160.5628 C   0  0  0  0  0  0  0  0  0  0  0  0
  152.5375  143.9380  161.8512 C   0  0  0  0  0  0  0  0  0  0  0  0
  152.6314  142.4141  161.6674 C   0  0  0  0  0  0  0  0  0  0  0  0
  153.2682  142.0470  160.3157 C   0  0  1  0  0  0  0  0  0  0  0  0
  153.5821  140.5445  160.2113 C   0  0  0  0  0  0  0  0  0  0  0  0
  152.4297  142.6126  159.1346 C   0  0  1  0  0  0  0  0  0  0  0  0
  151.1143  141.8261  158.8960 C   0  0  0  0  0  0  0  0  0  0  0  0
  150.3979  142.2638  157.6801 N   0  3  0  0  0  0  0  0  0  0  0  0
  150.3064  141.2533  156.6015 C   0  0  1  0  0  0  0  0  0  0  0  0
  149.6652  141.8567  155.3410 C   0  0  0  0  0  0  0  0  0  0  0  0
  151.7059  140.6869  156.2819 C   0  0  0  0  0  0  0  0  0  0  0  0
  151.6695  139.4920  155.4543 N   0  0  0  0  0  0  0  0  0  0  0  0
  152.2797  138.3160  155.6101 C   0  0  0  0  0  0  0  0  0  0  0  0
  152.0399  137.4538  154.6323 N   0  0  0  0  0  0  0  0  0  0  0  0
  151.2338  138.2225  153.8414 C   0  0  0  0  0  0  0  0  0  0  0  0
  150.9863  139.4550  154.2852 N   0  0  0  0  0  0  0  0  0  0  0  0
  152.6572  144.7405  157.3324 H   0  0  0  0  0  0  0  0  0  0  0  0
  151.9734  146.0165  158.3330 H   0  0  0  0  0  0  0  0  0  0  0  0
  150.9235  144.7660  157.6931 H   0  0  0  0  0  0  0  0  0  0  0  0
  152.0647  145.7429  160.6641 H   0  0  0  0  0  0  0  0  0  0  0  0
  153.4889  144.3207  162.2219 H   0  0  0  0  0  0  0  0  0  0  0  0
  151.7864  144.1809  162.6032 H   0  0  0  0  0  0  0  0  0  0  0  0
  153.2065  141.9875  162.4897 H   0  0  0  0  0  0  0  0  0  0  0  0
  151.6364  141.9741  161.7382 H   0  0  0  0  0  0  0  0  0  0  0  0
  154.2363  142.5503  160.2784 H   0  0  0  0  0  0  0  0  0  0  0  0
  152.6986  139.9286  160.3780 H   0  0  0  0  0  0  0  0  0  0  0  0
  154.3203  140.2525  160.9589 H   0  0  0  0  0  0  0  0  0  0  0  0
  153.9921  140.2940  159.2325 H   0  0  0  0  0  0  0  0  0  0  0  0
  153.0469  142.5115  158.2404 H   0  0  0  0  0  0  0  0  0  0  0  0
  151.3191  140.7635  158.7732 H   0  0  0  0  0  0  0  0  0  0  0  0
  150.4603  141.9258  159.7615 H   0  0  0  0  0  0  0  0  0  0  0  0
  149.4654  142.5601  157.9308 H   0  0  0  0  0  0  0  0  0  0  0  0
  149.6749  140.4324  156.9452 H   0  0  0  0  0  0  0  0  0  0  0  0
  149.6196  141.1213  154.5371 H   0  0  0  0  0  0  0  0  0  0  0  0
  150.2366  142.7106  154.9753 H   0  0  0  0  0  0  0  0  0  0  0  0
  148.6452  142.1931  155.5253 H   0  0  0  0  0  0  0  0  0  0  0  0
  152.3042  141.4345  155.7595 H   0  0  0  0  0  0  0  0  0  0  0  0
  152.2381  140.4512  157.2049 H   0  0  0  0  0  0  0  0  0  0  0  0
  152.9110  138.0843  156.4554 H   0  0  0  0  0  0  0  0  0  0  0  0
  150.8185  137.8645  152.9107 H   0  0  0  0  0  0  0  0  0  0  0  0
  150.8993  143.0599  157.3125 H   0  0  0  0  0  0  0  0  0  0  0  0
  1  2  1  0  0  0  0
  1 19  1  0  0  0  0
  1 20  1  0  0  0  0
  1 21  1  0  0  0  0
  2  8  1  0  0  0  0
  2  3  2  0  0  0  0
  3  4  1  0  0  0  0
  3 22  1  0  0  0  0
  4  5  1  0  0  0  0
  4 23  1  0  0  0  0
  4 24  1  0  0  0  0
  5  6  1  0  0  0  0
  5 25  1  0  0  0  0
  5 26  1  0  0  0  0
  6  7  1  0  0  0  0
  6  8  1  0  0  0  0
  6 27  1  0  0  0  0
  7 28  1  0  0  0  0
  7 29  1  0  0  0  0
  7 30  1  0  0  0  0
  8  9  1  0  0  0  0
  8 31  1  0  0  0  0
  9 10  1  0  0  0  0
  9 32  1  0  0  0  0
  9 33  1  0  0  0  0
 10 11  1  0  0  0  0
 10 34  1  0  0  0  0
 10 43  1  0  0  0  0
 11 12  1  0  0  0  0
 11 13  1  0  0  0  0
 11 35  1  0  0  0  0
 12 36  1  0  0  0  0
 12 37  1  0  0  0  0
 12 38  1  0  0  0  0
 13 14  1  0  0  0  0
 13 39  1  0  0  0  0
 13 40  1  0  0  0  0
 14 18  1  0  0  0  0
 14 15  1  0  0  0  0
 15 16  2  0  0  0  0
 15 41  1  0  0  0  0
 16 17  1  0  0  0  0
 17 18  2  0  0  0  0
 17 42  1  0  0  0  0
M  CHG  1  10   1
M  END
> <s_m_source_file>
AV-unprocessed.smi

> <i_m_source_file_index>
3274

> <i_lp_mmshare_version>
43012

> <i_f3d_flags>
0

> <s_epik_input>
W0NIM11DMT1bQ0hdW0NIMl1bQ0gyXVtDQEBIXShbQ0gzXSlbQ0BIXTFbQ0gyXVtOSF1bQ0BIXShbQ0gzXSlbQ0gyXW4yW2NIXW5bY0hdbjI=

> <s_epik_cmdline>
J2VwaWtfcHl0aG9uJywgJy1waCcsICc3LjAnLCAnLXRuJywgJzgnLCAnLW1hJywgJzIwMCcsICctbWV0YWxfYmluZGluZycsICctaW1hZScsICc8aW5maWxlLm1hZT4nLCAnLW9tYWUnLCAnPG91dGZpbGUubWFlPic=

> <r_lp_tautomer_probability>
1

> <r_epik_Ionization_Penalty>
0.0017527

> <r_epik_Ionization_Penalty_Charging>
0.00175191

> <r_epik_Ionization_Penalty_Neutral>
7.94565e-07

> <r_epik_State_Penalty>
0.00118605

> <r_epik_Charging_Adjusted_Penalty>
0.00293796

> <i_epik_Tot_Q>
1

> <i_epik_Tot_abs_Q>
1

> <r_epik_Metal_State_Penalty>
-0

> <b_epik_Metal_Only>
0

> <s_lp_Force_Field>
OPLS_2005

> <r_lp_Energy>
18.0154

> <b_lp_Chiralities_Consistent>
1

> <s_lp_Variant>
AV-unprocessed.smi:3274-5

> <Gold.Version>
5.8.1

> <Gold.Id.Protein>
6NUR|6NUR_protein|mol2

> <Gold.PLP.Fitness>
54.9745

> <Gold.PLP.PLP>
-47.2073

> <Gold.PLP.part.hbond>
-2.0000

> <Gold.PLP.part.metal>
0.0000

> <Gold.PLP.part.buried>
-5.3482

> <Gold.PLP.part.nonpolar>
-38.5323

> <Gold.PLP.part.repulsive>
0.2571

> <Gold.PLP.ligand.clash>
0.0000

> <Gold.PLP.ligand.torsion>
0.5533

> <Gold.PLP.Chemscore.Hbond>
1.8480

> <Gold.PLP.Chemscore.CHOScore>
1.0770

> <Gold.PLP.Chemscore.Metal>
0.0000

> <Gold.Chemscore.Hbonds>
donor molecule, donor type, donor heavy atom, donor atom, acceptor molecule, acceptor atom, score
      P1  H  7989  7998       L1    18  1.00
      P1  H 10752 10765       L1    16  0.85
      L1  C    17    42       P1  7948  0.19
      L1  C    17    42       P1  7949  0.83

> <Gold.PLP.Chemscore.Internal.Correction>
0.0989

> <Gold.Rescore>
     Score         DG    S(hbond)    S(metal)    S(lipo)     H(rot)  DE(clash)    DE(int)     intcor
     17.75     -18.44       1.68        0.00     114.39       2.36       0.05       0.64       ----

> <Gold.Chemscore.Fitness>
17.7532

> <Gold.Chemscore.DG>
-18.4421

> <Gold.Chemscore.ZeroCoef>
-5.4800

> <Gold.Chemscore.Hbond>
1.6837

> <Gold.Chemscore.Metal>
0.0000

> <Gold.Chemscore.Lipo>
114.3933

> <Gold.Chemscore.Internal_Hbond>
0.0000

> <Gold.Chemscore.DEClash>
0.0500

> <Gold.Chemscore.DEInternal>
0.6389

> <Gold.Chemscore.Rot>
2.3615

> <Gold.Chemscore.Internal.Correction>
   9.000000E+99

> <Gold.Chemscore.Hbonds>
donor molecule, donor type, donor heavy atom, donor atom, acceptor molecule, acceptor atom, score
      P1  H  7989  7998       L1    18  0.30
      P1  H 10752 10765       L1    16  0.77

> <Gold.Chemscore.Hbond.Weighted>
-5.6235

> <Gold.Chemscore.Metal.Weighted>
-0.0000

> <Gold.Chemscore.Lipo.Weighted>
-13.3840

> <Gold.Chemscore.Internal_Hbond.Weighted>
0.0000

> <Gold.Chemscore.DEClash.Weighted>
0.0500

> <Gold.Chemscore.DEInternal.Weighted>
0.6389

> <Gold.Chemscore.Rot.Weighted>
6.0454

> <Gold.Chemscore.Internal.Correction.Weighted>
   9.000000E+99

> <Gold.Protein.RotatedTorsions>
[ 6907 6896 6895 6894 ] final   79.99 input  -60.11 | X-H torsion
[ 7974 7965 7964 7962 ] final  115.18 input  175.53 | X-H torsion
[ 8008 7997 7996 7995 ] final   93.33 input   59.86 | X-H torsion
[ 10167 10162 10161 10158 ] final   86.21 input  -65.29 | X-H torsion
[ 10718 10713 10712 10709 ] final   94.74 input   66.30 | X-H torsion
[ 10763 10752 10751 10750 ] final  171.61 input  -60.55 | X-H torsion
[ 11005 11000 10999 10996 ] final  123.10 input  -57.11 | X-H torsion

> <Gold.Protein.ActiveResidues>
 VAL166  LYS551  ARG553  GLY616  TRP617  ASP618  TYR619  PRO620  LYS621  CYS622 
 ASP623  PHE694  ASN695  SER759  ASP760  ASP761  ALA762  ILE779  LEU786  VAL792 
 PHE793  MET794  SER795  GLU796  ALA797  LYS798  CYS799  TRP800  GLU811  SER814 

> <Gold.Protein.RotatedAtoms>
  152.5219  134.3427  159.9222 H   0  0  0  0  0  0  0  0  0  0  0  0  # atno 6907 bound_to 6896
  151.3377  133.3969  159.2676 H   0  0  0  0  0  0  0  0  0  0  0  0  # atno 6908 bound_to 6896
  150.9829  134.9198  159.7912 H   0  0  0  0  0  0  0  0  0  0  0  0  # atno 6909 bound_to 6896
  145.1952  139.2980  143.4347 H   0  0  0  0  0  0  0  0  0  0  0  0  # atno 7974 bound_to 7965
  156.0455  140.3314  155.7291 H   0  0  0  0  0  0  0  0  0  0  0  0  # atno 8008 bound_to 7997
  155.5680  140.0625  157.2831 H   0  0  0  0  0  0  0  0  0  0  0  0  # atno 8009 bound_to 7997
  154.4412  140.1865  156.0839 H   0  0  0  0  0  0  0  0  0  0  0  0  # atno 8010 bound_to 7997
  139.8898  144.6392  150.8751 H   0  0  0  0  0  0  0  0  0  0  0  0  # atno 10167 bound_to 10162
  157.6945  131.0522  150.4232 H   0  0  0  0  0  0  0  0  0  0  0  0  # atno 10718 bound_to 10713
  154.4143  135.2757  155.2016 H   0  0  0  0  0  0  0  0  0  0  0  0  # atno 10763 bound_to 10752
  154.3989  135.6049  153.5889 H   0  0  0  0  0  0  0  0  0  0  0  0  # atno 10764 bound_to 10752
  152.9832  135.5921  154.4429 H   0  0  0  0  0  0  0  0  0  0  0  0  # atno 10765 bound_to 10752
  139.9298  134.9641  156.8209 H   0  0  0  0  0  0  0  0  0  0  0  0  # atno 11005 bound_to 11000
  146.3428  140.2177  142.8591 LP  0  0  0  0  0  0  0  0  0  0  0  0  # atno 17320 bound_to 7965
  145.0002  140.8625  143.5286 LP  0  0  0  0  0  0  0  0  0  0  0  0  # atno 17321 bound_to 7965
  140.7729  143.3519  151.1998 LP  0  0  0  0  0  0  0  0  0  0  0  0  # atno 17342 bound_to 10162
  139.7120  143.9362  152.2951 LP  0  0  0  0  0  0  0  0  0  0  0  0  # atno 17343 bound_to 10162
  156.4605  130.4031  149.6579 LP  0  0  0  0  0  0  0  0  0  0  0  0  # atno 17370 bound_to 10713
  156.3696  130.7523  151.2505 LP  0  0  0  0  0  0  0  0  0  0  0  0  # atno 17371 bound_to 10713
  140.6235  133.9972  155.7629 LP  0  0  0  0  0  0  0  0  0  0  0  0  # atno 17394 bound_to 11000
  141.0879  133.9962  157.3284 LP  0  0  0  0  0  0  0  0  0  0  0  0  # atno 17395 bound_to 11000

$$$$
