AV-unprocessed.smi:2178|AV-procd|sdf|8853|dock5
  -GOLD-   2272012 43D 1   1.00000     0.00000
 Structure written by MMmdl.
 46 48  0  0  0  0  0  0  0  0  1 V2000
  151.4549  144.9063  159.8614 C   0  0  0  0  0  0  0  0  0  0  0  0
  152.1751  143.8489  160.6773 C   0  0  0  0  0  0  0  0  0  0  0  0
  152.4777  144.0978  162.0319 C   0  0  0  0  0  0  0  0  0  0  0  0
  153.1546  143.1292  162.7959 C   0  0  0  0  0  0  0  0  0  0  0  0
  153.5379  141.9104  162.2066 C   0  0  0  0  0  0  0  0  0  0  0  0
  153.2424  141.6511  160.8523 C   0  0  0  0  0  0  0  0  0  0  0  0
  153.6810  140.3370  160.2333 C   0  0  0  0  0  0  0  0  0  0  0  0
  152.5457  142.6174  160.0879 C   0  0  0  0  0  0  0  0  0  0  0  0
  152.2513  142.3790  158.7704 O   0  0  0  0  0  0  0  0  0  0  0  0
  151.2830  141.3580  158.5775 C   0  0  0  0  0  0  0  0  0  0  0  0
  150.4328  141.7067  157.3484 C   0  0  1  0  0  0  0  0  0  0  0  0
  150.0931  143.0775  157.4087 O   0  0  0  0  0  0  0  0  0  0  0  0
  151.1640  141.4023  156.0256 C   0  0  0  0  0  0  0  0  0  0  0  0
  150.3945  140.5271  155.1514 N   0  0  0  0  0  0  0  0  0  0  0  0
  150.7069  139.2807  154.7142 C   0  0  0  0  0  0  0  0  0  0  0  0
  151.9869  138.6054  155.1183 C   0  0  0  0  0  0  0  0  0  0  0  0
  153.1499  139.3554  154.8290 O   0  0  0  0  0  0  0  0  0  0  0  0
  149.8020  138.7070  153.9168 N   0  0  0  0  0  0  0  0  0  0  0  0
  148.8163  139.6698  153.8278 C   0  0  0  0  0  0  0  0  0  0  0  0
  147.5905  139.6683  153.1246 C   0  0  0  0  0  0  0  0  0  0  0  0
  146.7312  140.7851  153.1856 C   0  0  0  0  0  0  0  0  0  0  0  0
  147.0834  141.9161  153.9505 C   0  0  0  0  0  0  0  0  0  0  0  0
  148.3003  141.9377  154.6590 C   0  0  0  0  0  0  0  0  0  0  0  0
  149.1552  140.8212  154.5923 C   0  0  0  0  0  0  0  0  0  0  0  0
  151.4122  145.8571  160.3931 H   0  0  0  0  0  0  0  0  0  0  0  0
  150.4338  144.5909  159.6471 H   0  0  0  0  0  0  0  0  0  0  0  0
  151.9693  145.0746  158.9149 H   0  0  0  0  0  0  0  0  0  0  0  0
  152.1938  145.0337  162.4908 H   0  0  0  0  0  0  0  0  0  0  0  0
  153.3846  143.3236  163.8330 H   0  0  0  0  0  0  0  0  0  0  0  0
  154.0636  141.1753  162.7985 H   0  0  0  0  0  0  0  0  0  0  0  0
  153.9796  140.4734  159.1937 H   0  0  0  0  0  0  0  0  0  0  0  0
  152.8670  139.6129  160.2676 H   0  0  0  0  0  0  0  0  0  0  0  0
  154.5323  139.9179  160.7706 H   0  0  0  0  0  0  0  0  0  0  0  0
  151.7943  140.4072  158.4211 H   0  0  0  0  0  0  0  0  0  0  0  0
  150.6486  141.2410  159.4581 H   0  0  0  0  0  0  0  0  0  0  0  0
  149.5025  141.1391  157.3915 H   0  0  0  0  0  0  0  0  0  0  0  0
  149.6187  143.3043  156.6234 H   0  0  0  0  0  0  0  0  0  0  0  0
  151.4117  142.3254  155.5019 H   0  0  0  0  0  0  0  0  0  0  0  0
  152.1151  140.9105  156.2318 H   0  0  0  0  0  0  0  0  0  0  0  0
  151.9684  138.4061  156.1896 H   0  0  0  0  0  0  0  0  0  0  0  0
  152.0571  137.6448  154.6073 H   0  0  0  0  0  0  0  0  0  0  0  0
  153.7352  138.8170  154.3192 H   0  0  0  0  0  0  0  0  0  0  0  0
  147.3113  138.8065  152.5368 H   0  0  0  0  0  0  0  0  0  0  0  0
  145.7972  140.7736  152.6430 H   0  0  0  0  0  0  0  0  0  0  0  0
  146.4194  142.7670  153.9925 H   0  0  0  0  0  0  0  0  0  0  0  0
  148.5740  142.8022  155.2453 H   0  0  0  0  0  0  0  0  0  0  0  0
  1  2  1  0  0  0  0
  1 25  1  0  0  0  0
  1 26  1  0  0  0  0
  1 27  1  0  0  0  0
  2  8  1  0  0  0  0
  2  3  2  0  0  0  0
  3  4  1  0  0  0  0
  3 28  1  0  0  0  0
  4  5  2  0  0  0  0
  4 29  1  0  0  0  0
  5  6  1  0  0  0  0
  5 30  1  0  0  0  0
  6  7  1  0  0  0  0
  6  8  2  0  0  0  0
  7 31  1  0  0  0  0
  7 32  1  0  0  0  0
  7 33  1  0  0  0  0
  8  9  1  0  0  0  0
  9 10  1  0  0  0  0
 10 11  1  0  0  0  0
 10 34  1  0  0  0  0
 10 35  1  0  0  0  0
 11 12  1  0  0  0  0
 11 13  1  0  0  0  0
 11 36  1  0  0  0  0
 12 37  1  0  0  0  0
 13 14  1  0  0  0  0
 13 38  1  0  0  0  0
 13 39  1  0  0  0  0
 14 24  1  0  0  0  0
 14 15  1  0  0  0  0
 15 16  1  0  0  0  0
 15 18  2  0  0  0  0
 16 17  1  0  0  0  0
 16 40  1  0  0  0  0
 16 41  1  0  0  0  0
 17 42  1  0  0  0  0
 18 19  1  0  0  0  0
 19 24  2  0  0  0  0
 19 20  1  0  0  0  0
 20 21  2  0  0  0  0
 20 43  1  0  0  0  0
 21 22  1  0  0  0  0
 21 44  1  0  0  0  0
 22 23  2  0  0  0  0
 22 45  1  0  0  0  0
 23 24  1  0  0  0  0
 23 46  1  0  0  0  0
M  END
> <s_m_source_file>
AV-unprocessed.smi

> <i_m_source_file_index>
2178

> <i_lp_mmshare_version>
43012

> <i_f3d_flags>
0

> <s_epik_input>
W0NIM11jMVtjSF1bY0hdW2NIXWMoW0NIM10pYzFPW0NIMl1bQ0BIXShbT0hdKVtDSDJdbihjKG4yKVtDSDJdW09IXSljKGMyMylbY0hdW2NIXVtjSF1bY0hdMw==

> <s_epik_cmdline>
J2VwaWtfcHl0aG9uJywgJy1waCcsICc3LjAnLCAnLXRuJywgJzgnLCAnLW1hJywgJzIwMCcsICctbWV0YWxfYmluZGluZycsICctaW1hZScsICc8aW5maWxlLm1hZT4nLCAnLW9tYWUnLCAnPG91dGZpbGUubWFlPic=

> <r_lp_tautomer_probability>
1

> <r_epik_Ionization_Penalty>
0.0555874

> <r_epik_Ionization_Penalty_Charging>
0

> <r_epik_Ionization_Penalty_Neutral>
0.0555874

> <r_epik_State_Penalty>
0.0478234

> <r_epik_Charging_Adjusted_Penalty>
0.0478234

> <i_epik_Tot_Q>
0

> <i_epik_Tot_abs_Q>
0

> <r_epik_Metal_State_Penalty>
4.98044e-05

> <b_epik_Metal_Only>
0

> <s_lp_Force_Field>
OPLS_2005

> <r_lp_Energy>
18.9383

> <b_lp_Chiralities_Consistent>
1

> <s_lp_Variant>
AV-unprocessed.smi:2178-2

> <Gold.Version>
5.8.1

> <Gold.Id.Protein>
6NUR|6NUR_protein|mol2

> <Gold.PLP.Fitness>
61.9310

> <Gold.PLP.PLP>
-58.7377

> <Gold.PLP.part.hbond>
-2.2624

> <Gold.PLP.part.metal>
0.0000

> <Gold.PLP.part.buried>
-2.5331

> <Gold.PLP.part.nonpolar>
-54.1701

> <Gold.PLP.part.repulsive>
0.2515

> <Gold.PLP.ligand.clash>
0.0000

> <Gold.PLP.ligand.torsion>
1.1909

> <Gold.PLP.Chemscore.Hbond>
1.8000

> <Gold.PLP.Chemscore.CHOScore>
0.0000

> <Gold.PLP.Chemscore.Metal>
0.0000

> <Gold.Chemscore.Hbonds>
donor molecule, donor type, donor heavy atom, donor atom, acceptor molecule, acceptor atom, score
      L1  H    12    37       P1  8028  0.86
      P1  H  7997  8009       L1    17  1.00

> <Gold.PLP.Chemscore.Internal.Correction>
0.1750

> <Gold.Rescore>
     Score         DG    S(hbond)    S(metal)    S(lipo)     H(rot)  DE(clash)    DE(int)     intcor
     17.17     -19.69       1.03        0.00     156.74       2.96       0.74       1.78       ----

> <Gold.Chemscore.Fitness>
17.1724

> <Gold.Chemscore.DG>
-19.6902

> <Gold.Chemscore.ZeroCoef>
-5.4800

> <Gold.Chemscore.Hbond>
1.0296

> <Gold.Chemscore.Metal>
0.0000

> <Gold.Chemscore.Lipo>
156.7443

> <Gold.Chemscore.Internal_Hbond>
0.0000

> <Gold.Chemscore.DEClash>
0.7371

> <Gold.Chemscore.DEInternal>
1.7808

> <Gold.Chemscore.Rot>
2.9561

> <Gold.Chemscore.Internal.Correction>
   9.000000E+99

> <Gold.Chemscore.Hbonds>
donor molecule, donor type, donor heavy atom, donor atom, acceptor molecule, acceptor atom, score
      L1  H    12    37       P1  8028  0.85
      P1  H  7997  8009       L1    17  0.29

> <Gold.Chemscore.Hbond.Weighted>
-3.4388

> <Gold.Chemscore.Metal.Weighted>
-0.0000

> <Gold.Chemscore.Lipo.Weighted>
-18.3391

> <Gold.Chemscore.Internal_Hbond.Weighted>
0.0000

> <Gold.Chemscore.DEClash.Weighted>
0.7371

> <Gold.Chemscore.DEInternal.Weighted>
1.7808

> <Gold.Chemscore.Rot.Weighted>
7.5677

> <Gold.Chemscore.Internal.Correction.Weighted>
   9.000000E+99

> <Gold.Protein.RotatedTorsions>
[ 6907 6896 6895 6894 ] final  124.62 input  -60.11 | X-H torsion
[ 7974 7965 7964 7962 ] final -110.32 input  175.53 | X-H torsion
[ 8008 7997 7996 7995 ] final -148.87 input   59.86 | X-H torsion
[ 10167 10162 10161 10158 ] final   31.29 input  -65.29 | X-H torsion
[ 10718 10713 10712 10709 ] final  111.74 input   66.30 | X-H torsion
[ 10763 10752 10751 10750 ] final  156.15 input  -60.55 | X-H torsion
[ 11005 11000 10999 10996 ] final  111.95 input  -57.11 | X-H torsion

> <Gold.Protein.ActiveResidues>
 VAL166  LYS551  ARG553  GLY616  TRP617  ASP618  TYR619  PRO620  LYS621  CYS622 
 ASP623  PHE694  ASN695  SER759  ASP760  ASP761  ALA762  ILE779  LEU786  VAL792 
 PHE793  MET794  SER795  GLU796  ALA797  LYS798  CYS799  TRP800  GLU811  SER814 

> <Gold.Protein.RotatedAtoms>
  152.4063  133.6893  159.6358 H   0  0  0  0  0  0  0  0  0  0  0  0  # atno 6907 bound_to 6896
  150.7947  133.8704  159.3266 H   0  0  0  0  0  0  0  0  0  0  0  0  # atno 6908 bound_to 6896
  151.6457  135.1009  160.0202 H   0  0  0  0  0  0  0  0  0  0  0  0  # atno 6909 bound_to 6896
  145.1697  140.8920  143.3542 H   0  0  0  0  0  0  0  0  0  0  0  0  # atno 7974 bound_to 7965
  155.5986  140.0660  157.2739 H   0  0  0  0  0  0  0  0  0  0  0  0  # atno 8008 bound_to 7997
  154.4285  140.1822  156.1196 H   0  0  0  0  0  0  0  0  0  0  0  0  # atno 8009 bound_to 7997
  156.0177  140.3320  155.7009 H   0  0  0  0  0  0  0  0  0  0  0  0  # atno 8010 bound_to 7997
  140.4602  144.0918  150.6211 H   0  0  0  0  0  0  0  0  0  0  0  0  # atno 10167 bound_to 10162
  157.6429  131.0956  150.6792 H   0  0  0  0  0  0  0  0  0  0  0  0  # atno 10718 bound_to 10713
  154.1797  135.2800  155.3056 H   0  0  0  0  0  0  0  0  0  0  0  0  # atno 10763 bound_to 10752
  154.6012  135.5529  153.7380 H   0  0  0  0  0  0  0  0  0  0  0  0  # atno 10764 bound_to 10752
  153.0141  135.6392  154.1936 H   0  0  0  0  0  0  0  0  0  0  0  0  # atno 10765 bound_to 10752
  139.8915  134.9519  156.6511 H   0  0  0  0  0  0  0  0  0  0  0  0  # atno 11005 bound_to 11000
  145.0245  139.3395  143.6056 LP  0  0  0  0  0  0  0  0  0  0  0  0  # atno 17320 bound_to 7965
  146.3470  139.9558  142.8723 LP  0  0  0  0  0  0  0  0  0  0  0  0  # atno 17321 bound_to 7965
  140.4102  143.2660  151.9842 LP  0  0  0  0  0  0  0  0  0  0  0  0  # atno 17342 bound_to 10162
  139.4805  144.5922  151.7753 LP  0  0  0  0  0  0  0  0  0  0  0  0  # atno 17343 bound_to 10162
  156.7114  130.4653  149.5546 LP  0  0  0  0  0  0  0  0  0  0  0  0  # atno 17370 bound_to 10713
  156.1727  130.6448  151.0857 LP  0  0  0  0  0  0  0  0  0  0  0  0  # atno 17371 bound_to 10713
  140.7520  133.8889  155.8354 LP  0  0  0  0  0  0  0  0  0  0  0  0  # atno 17394 bound_to 11000
  140.9993  134.1172  157.4333 LP  0  0  0  0  0  0  0  0  0  0  0  0  # atno 17395 bound_to 11000

$$$$
