AV-unprocessed.smi:2846|AV-procd|sdf|10952|dock8
  -GOLD-   2272015403D 1   1.00000     0.00000
 Structure written by MMmdl.
 49 51  0  0  0  0  0  0  0  0  2 V2000
  152.9890  140.1362  157.4010 O   0  0  0  0  0  0  0  0  0  0  0  0
  151.9250  140.6959  157.6669 C   0  0  0  0  0  0  0  0  0  0  0  0
  151.6209  141.1625  159.0926 C   0  0  0  0  0  0  0  0  0  0  0  0
  151.7102  142.6589  159.3445 C   0  0  0  0  0  0  0  0  0  0  0  0
  152.1929  143.1641  160.4966 C   0  0  0  0  0  0  0  0  0  0  0  0
  152.3136  144.6487  160.7911 C   0  0  0  0  0  0  0  0  0  0  0  0
  152.1651  145.5091  159.5249 C   0  0  0  0  0  0  0  0  0  0  0  0
  151.0054  145.0142  158.6513 C   0  0  0  0  0  0  0  0  0  0  0  0
  151.2117  143.5523  158.2151 C   0  0  0  0  0  0  0  0  0  0  0  0
  150.9741  140.9421  156.7531 N   0  0  0  0  0  0  0  0  0  0  0  0
  151.0459  140.5872  155.3365 C   0  0  0  0  0  0  0  0  0  0  0  0
  150.2131  139.3256  154.9712 C   0  0  0  0  0  0  0  0  0  0  0  0
  148.8283  139.7451  154.4526 C   0  0  0  0  0  0  0  0  0  0  0  0
  148.4881  141.1164  154.3539 C   0  0  0  0  0  0  0  0  0  0  0  0
  147.2219  141.4896  153.8599 C   0  0  0  0  0  0  0  0  0  0  0  0
  146.3436  140.5396  153.4753 N   0  3  0  0  0  0  0  0  0  0  0  0
  146.6233  139.2208  153.5371 C   0  0  0  0  0  0  0  0  0  0  0  0
  147.8739  138.7890  154.0234 C   0  0  0  0  0  0  0  0  0  0  0  0
  150.9699  138.4007  153.9904 C   0  0  0  0  0  0  0  0  0  0  0  0
  151.9877  137.6235  154.8295 C   0  0  0  0  0  0  0  0  0  0  0  0
  151.4053  137.5758  156.2459 C   0  0  0  0  0  0  0  0  0  0  0  0
  150.1102  138.3972  156.2003 C   0  0  0  0  0  0  0  0  0  0  0  0
  150.6081  140.8345  159.3307 H   0  0  0  0  0  0  0  0  0  0  0  0
  152.2774  140.6455  159.7939 H   0  0  0  0  0  0  0  0  0  0  0  0
  152.5120  142.4957  161.2829 H   0  0  0  0  0  0  0  0  0  0  0  0
  151.5446  144.9112  161.5183 H   0  0  0  0  0  0  0  0  0  0  0  0
  153.2769  144.8455  161.2623 H   0  0  0  0  0  0  0  0  0  0  0  0
  152.0161  146.5538  159.7991 H   0  0  0  0  0  0  0  0  0  0  0  0
  153.0894  145.4699  158.9472 H   0  0  0  0  0  0  0  0  0  0  0  0
  150.0745  145.0969  159.2139 H   0  0  0  0  0  0  0  0  0  0  0  0
  150.8925  145.6514  157.7738 H   0  0  0  0  0  0  0  0  0  0  0  0
  151.9370  143.5038  157.4024 H   0  0  0  0  0  0  0  0  0  0  0  0
  150.2736  143.1559  157.8248 H   0  0  0  0  0  0  0  0  0  0  0  0
  150.1311  141.4027  157.0641 H   0  0  0  0  0  0  0  0  0  0  0  0
  150.7704  141.4385  154.7124 H   0  0  0  0  0  0  0  0  0  0  0  0
  152.0976  140.3986  155.1183 H   0  0  0  0  0  0  0  0  0  0  0  0
  149.1888  141.8832  154.6492 H   0  0  0  0  0  0  0  0  0  0  0  0
  146.8896  142.5124  153.7578 H   0  0  0  0  0  0  0  0  0  0  0  0
  145.8452  138.5545  153.1942 H   0  0  0  0  0  0  0  0  0  0  0  0
  148.0871  137.7309  154.0550 H   0  0  0  0  0  0  0  0  0  0  0  0
  150.2747  137.6737  153.5669 H   0  0  0  0  0  0  0  0  0  0  0  0
  151.4294  138.9215  153.1509 H   0  0  0  0  0  0  0  0  0  0  0  0
  152.1676  136.6274  154.4240 H   0  0  0  0  0  0  0  0  0  0  0  0
  152.9436  138.1489  154.8396 H   0  0  0  0  0  0  0  0  0  0  0  0
  151.2124  136.5528  156.5709 H   0  0  0  0  0  0  0  0  0  0  0  0
  152.1109  138.0144  156.9525 H   0  0  0  0  0  0  0  0  0  0  0  0
  149.9241  138.9309  157.1330 H   0  0  0  0  0  0  0  0  0  0  0  0
  149.2801  137.7023  156.0608 H   0  0  0  0  0  0  0  0  0  0  0  0
  145.4327  140.8307  153.1191 H   0  0  0  0  0  0  0  0  0  0  0  0
  1  2  2  0  0  0  0
  2  3  1  0  0  0  0
  2 10  1  0  0  0  0
  3  4  1  0  0  0  0
  3 23  1  0  0  0  0
  3 24  1  0  0  0  0
  4  9  1  0  0  0  0
  4  5  2  0  0  0  0
  5  6  1  0  0  0  0
  5 25  1  0  0  0  0
  6  7  1  0  0  0  0
  6 26  1  0  0  0  0
  6 27  1  0  0  0  0
  7  8  1  0  0  0  0
  7 28  1  0  0  0  0
  7 29  1  0  0  0  0
  8  9  1  0  0  0  0
  8 30  1  0  0  0  0
  8 31  1  0  0  0  0
  9 32  1  0  0  0  0
  9 33  1  0  0  0  0
 10 11  1  0  0  0  0
 10 34  1  0  0  0  0
 11 12  1  0  0  0  0
 11 35  1  0  0  0  0
 11 36  1  0  0  0  0
 12 22  1  0  0  0  0
 12 13  1  0  0  0  0
 12 19  1  0  0  0  0
 13 18  1  0  0  0  0
 13 14  2  0  0  0  0
 14 15  1  0  0  0  0
 14 37  1  0  0  0  0
 15 16  2  0  0  0  0
 15 38  1  0  0  0  0
 16 17  1  0  0  0  0
 16 49  1  0  0  0  0
 17 18  2  0  0  0  0
 17 39  1  0  0  0  0
 18 40  1  0  0  0  0
 19 20  1  0  0  0  0
 19 41  1  0  0  0  0
 19 42  1  0  0  0  0
 20 21  1  0  0  0  0
 20 43  1  0  0  0  0
 20 44  1  0  0  0  0
 21 22  1  0  0  0  0
 21 45  1  0  0  0  0
 21 46  1  0  0  0  0
 22 47  1  0  0  0  0
 22 48  1  0  0  0  0
M  CHG  1  16   1
M  END
> <s_m_source_file>
AV-unprocessed.smi

> <i_m_source_file_index>
2846

> <i_lp_mmshare_version>
43012

> <i_f3d_flags>
0

> <s_epik_input>
W0NIMl0xW0NIMl1bQ0gyXVtDSDJdW0NIXT1DMVtDSDJdQyg9TylbTkhdW0NIMl1DMihbQ0gyXVtDSDJdW0NIMl1bQ0gyXTIpYzNbY0hdW2NIXW5bY0hdW2NIXTM=

> <s_epik_cmdline>
J2VwaWtfcHl0aG9uJywgJy1waCcsICc3LjAnLCAnLXRuJywgJzgnLCAnLW1hJywgJzIwMCcsICctbWV0YWxfYmluZGluZycsICctaW1hZScsICc8aW5maWxlLm1hZT4nLCAnLW9tYWUnLCAnPG91dGZpbGUubWFlPic=

> <r_epik_Ionization_Penalty>
1.37043

> <r_epik_Ionization_Penalty_Charging>
1.37043

> <r_epik_Ionization_Penalty_Neutral>
1.66368e-08

> <r_epik_State_Penalty>
1.45009

> <r_epik_Charging_Adjusted_Penalty>
2.82052

> <i_epik_Tot_Q>
1

> <i_epik_Tot_abs_Q>
1

> <r_epik_Metal_State_Penalty>
1.50668

> <b_epik_Metal_Only>
0

> <s_lp_Force_Field>
OPLS_2005

> <r_lp_Energy>
37.4584

> <b_lp_Chiralities_Consistent>
1

> <s_lp_Variant>
AV-unprocessed.smi:2846-2

> <Gold.Version>
5.8.1

> <Gold.Id.Protein>
6NUR|6NUR_protein|mol2

> <Gold.PLP.Fitness>
49.0869

> <Gold.PLP.PLP>
-42.9924

> <Gold.PLP.part.hbond>
-2.0000

> <Gold.PLP.part.metal>
0.0000

> <Gold.PLP.part.buried>
-2.7690

> <Gold.PLP.part.nonpolar>
-38.2303

> <Gold.PLP.part.repulsive>
0.0933

> <Gold.PLP.ligand.clash>
0.2247

> <Gold.PLP.ligand.torsion>
1.3972

> <Gold.PLP.Chemscore.Hbond>
3.0000

> <Gold.PLP.Chemscore.CHOScore>
0.0000

> <Gold.PLP.Chemscore.Metal>
0.0000

> <Gold.Chemscore.Hbonds>
donor molecule, donor type, donor heavy atom, donor atom, acceptor molecule, acceptor atom, score
      L1  H    16    49       P1 10175  2.00
      P1  H  7997  8008       L1     1  1.00

> <Gold.PLP.Chemscore.Internal.Correction>
0.1136

> <Gold.Rescore>
     Score         DG    S(hbond)    S(metal)    S(lipo)     H(rot)  DE(clash)    DE(int)     intcor
     22.16     -23.72       1.90        0.00     133.72       1.46       0.30       1.26       ----

> <Gold.Chemscore.Fitness>
22.1607

> <Gold.Chemscore.DG>
-23.7242

> <Gold.Chemscore.ZeroCoef>
-5.4800

> <Gold.Chemscore.Hbond>
1.8992

> <Gold.Chemscore.Metal>
0.0000

> <Gold.Chemscore.Lipo>
133.7180

> <Gold.Chemscore.Internal_Hbond>
0.0000

> <Gold.Chemscore.DEClash>
0.3002

> <Gold.Chemscore.DEInternal>
1.2632

> <Gold.Chemscore.Rot>
1.4625

> <Gold.Chemscore.Internal.Correction>
   9.000000E+99

> <Gold.Chemscore.Hbonds>
donor molecule, donor type, donor heavy atom, donor atom, acceptor molecule, acceptor atom, score
      L1  H    16    49       P1 10175  0.59
      P1  H  7997  8008       L1     1  0.93

> <Gold.Chemscore.Hbond.Weighted>
-6.3432

> <Gold.Chemscore.Metal.Weighted>
-0.0000

> <Gold.Chemscore.Lipo.Weighted>
-15.6450

> <Gold.Chemscore.Internal_Hbond.Weighted>
0.0000

> <Gold.Chemscore.DEClash.Weighted>
0.3002

> <Gold.Chemscore.DEInternal.Weighted>
1.2632

> <Gold.Chemscore.Rot.Weighted>
3.7441

> <Gold.Chemscore.Internal.Correction.Weighted>
   9.000000E+99

> <Gold.Protein.RotatedTorsions>
[ 6907 6896 6895 6894 ] final  -51.56 input  -60.11 | X-H torsion
[ 7974 7965 7964 7962 ] final -168.55 input  175.53 | X-H torsion
[ 8008 7997 7996 7995 ] final  -63.23 input   59.86 | X-H torsion
[ 10167 10162 10161 10158 ] final  -67.57 input  -65.29 | X-H torsion
[ 10718 10713 10712 10709 ] final  -50.27 input   66.30 | X-H torsion
[ 10763 10752 10751 10750 ] final -112.26 input  -60.55 | X-H torsion
[ 11005 11000 10999 10996 ] final  122.93 input  -57.11 | X-H torsion

> <Gold.Protein.ActiveResidues>
 VAL166  LYS551  ARG553  GLY616  TRP617  ASP618  TYR619  PRO620  LYS621  CYS622 
 ASP623  PHE694  ASN695  SER759  ASP760  ASP761  ALA762  ILE779  LEU786  VAL792 
 PHE793  MET794  SER795  GLU796  ALA797  LYS798  CYS799  TRP800  GLU811  SER814 

> <Gold.Protein.RotatedAtoms>
  150.8600  134.7950  159.7075 H   0  0  0  0  0  0  0  0  0  0  0  0  # atno 6907 bound_to 6896
  152.4640  134.5115  159.9765 H   0  0  0  0  0  0  0  0  0  0  0  0  # atno 6908 bound_to 6896
  151.5221  133.3426  159.2939 H   0  0  0  0  0  0  0  0  0  0  0  0  # atno 6909 bound_to 6896
  144.7201  140.2353  143.6299 H   0  0  0  0  0  0  0  0  0  0  0  0  # atno 7974 bound_to 7965
  154.4543  140.0979  156.6711 H   0  0  0  0  0  0  0  0  0  0  0  0  # atno 8008 bound_to 7997
  155.5187  140.3478  155.4384 H   0  0  0  0  0  0  0  0  0  0  0  0  # atno 8009 bound_to 7997
  156.0745  140.1357  156.9777 H   0  0  0  0  0  0  0  0  0  0  0  0  # atno 8010 bound_to 7997
  140.5573  143.2312  151.6797 H   0  0  0  0  0  0  0  0  0  0  0  0  # atno 10167 bound_to 10162
  156.1816  130.4150  149.9498 H   0  0  0  0  0  0  0  0  0  0  0  0  # atno 10718 bound_to 10713
  154.8341  135.4497  154.1166 H   0  0  0  0  0  0  0  0  0  0  0  0  # atno 10763 bound_to 10752
  153.2413  135.6916  153.7786 H   0  0  0  0  0  0  0  0  0  0  0  0  # atno 10764 bound_to 10752
  153.7132  135.3353  155.3227 H   0  0  0  0  0  0  0  0  0  0  0  0  # atno 10765 bound_to 10752
  139.9290  134.9641  156.8183 H   0  0  0  0  0  0  0  0  0  0  0  0  # atno 11005 bound_to 11000
  145.8371  139.2113  143.1849 LP  0  0  0  0  0  0  0  0  0  0  0  0  # atno 17320 bound_to 7965
  146.0379  140.8194  142.9843 LP  0  0  0  0  0  0  0  0  0  0  0  0  # atno 17321 bound_to 7965
  139.5054  144.3720  152.0460 LP  0  0  0  0  0  0  0  0  0  0  0  0  # atno 17342 bound_to 10162
  140.2843  144.3825  150.6109 LP  0  0  0  0  0  0  0  0  0  0  0  0  # atno 17343 bound_to 10162
  156.7267  130.9027  151.3622 LP  0  0  0  0  0  0  0  0  0  0  0  0  # atno 17370 bound_to 10713
  157.6872  130.9197  150.0417 LP  0  0  0  0  0  0  0  0  0  0  0  0  # atno 17371 bound_to 10713
  140.6255  133.9954  155.7637 LP  0  0  0  0  0  0  0  0  0  0  0  0  # atno 17394 bound_to 11000
  141.0867  133.9980  157.3302 LP  0  0  0  0  0  0  0  0  0  0  0  0  # atno 17395 bound_to 11000

$$$$
