AV-unprocessed.smi:9|AV-procd|sdf|49|dock6
  -GOLD-   2262015163D 1   1.00000     0.00000
 Structure written by MMmdl.
 34 36  0  0  0  0  0  0  0  0  2 V2000
  150.5418  132.2673  157.7071 O   0  0  0  0  0  0  0  0  0  0  0  0
  150.2603  131.7753  156.6160 C   0  0  0  0  0  0  0  0  0  0  0  0
  150.4352  130.4605  156.2724 N   0  5  0  0  0  0  0  0  0  0  0  0
  150.0791  129.9992  155.0001 C   0  0  0  0  0  0  0  0  0  0  0  0
  150.3172  128.5155  154.7392 C   0  0  0  0  0  0  0  0  0  0  0  0
  149.7202  127.7510  155.6568 F   0  0  0  0  0  0  0  0  0  0  0  0
  149.8384  128.1677  153.5439 F   0  0  0  0  0  0  0  0  0  0  0  0
  151.6222  128.2418  154.7641 F   0  0  0  0  0  0  0  0  0  0  0  0
  149.5731  130.7232  154.0538 N   0  0  0  0  0  0  0  0  0  0  0  0
  149.3835  132.0512  154.3675 C   0  0  0  0  0  0  0  0  0  0  0  0
  149.6816  132.6474  155.5601 C   0  0  0  0  0  0  0  0  0  0  0  0
  149.3728  134.0028  155.5367 N   0  0  0  0  0  0  0  0  0  0  0  0
  148.8925  134.1584  154.3029 C   0  0  0  0  0  0  0  0  0  0  0  0
  148.8570  133.0415  153.5481 N   0  0  0  0  0  0  0  0  0  0  0  0
  148.3880  132.9168  152.1756 C   0  0  0  0  0  0  0  0  0  0  0  0
  146.9405  133.4236  151.9461 C   0  0  1  0  0  0  0  0  0  0  0  0
  146.9540  134.8297  152.1083 O   0  0  0  0  0  0  0  0  0  0  0  0
  146.4208  133.0790  150.5326 C   0  0  0  0  0  0  0  0  0  0  0  0
  144.9167  133.3375  150.4005 C   0  0  0  0  0  0  0  0  0  0  0  0
  144.1599  132.6439  151.5384 C   0  0  0  0  0  0  0  0  0  0  0  0
  144.6339  133.1397  152.7825 O   0  0  0  0  0  0  0  0  0  0  0  0
  146.0059  132.8464  153.0361 C   0  0  0  0  0  0  0  0  0  0  0  0
  148.5497  135.1151  153.9372 H   0  0  0  0  0  0  0  0  0  0  0  0
  149.0782  133.4726  151.5395 H   0  0  0  0  0  0  0  0  0  0  0  0
  148.4784  131.8720  151.8749 H   0  0  0  0  0  0  0  0  0  0  0  0
  147.8101  135.1502  151.8685 H   0  0  0  0  0  0  0  0  0  0  0  0
  146.9598  133.6409  149.7688 H   0  0  0  0  0  0  0  0  0  0  0  0
  146.6100  132.0241  150.3291 H   0  0  0  0  0  0  0  0  0  0  0  0
  144.7186  134.4096  150.4278 H   0  0  0  0  0  0  0  0  0  0  0  0
  144.5589  132.9782  149.4353 H   0  0  0  0  0  0  0  0  0  0  0  0
  143.0927  132.8521  151.4603 H   0  0  0  0  0  0  0  0  0  0  0  0
  144.2801  131.5605  151.4905 H   0  0  0  0  0  0  0  0  0  0  0  0
  146.1189  131.7626  153.0922 H   0  0  0  0  0  0  0  0  0  0  0  0
  146.2744  133.2340  154.0198 H   0  0  0  0  0  0  0  0  0  0  0  0
  1  2  2  0  0  0  0
  2 11  1  0  0  0  0
  2  3  1  0  0  0  0
  3  4  1  0  0  0  0
  4  5  1  0  0  0  0
  4  9  2  0  0  0  0
  5  6  1  0  0  0  0
  5  7  1  0  0  0  0
  5  8  1  0  0  0  0
  9 10  1  0  0  0  0
 10 14  1  0  0  0  0
 10 11  2  0  0  0  0
 11 12  1  0  0  0  0
 12 13  2  0  0  0  0
 13 14  1  0  0  0  0
 13 23  1  0  0  0  0
 14 15  1  0  0  0  0
 15 16  1  0  0  0  0
 15 24  1  0  0  0  0
 15 25  1  0  0  0  0
 16 22  1  0  0  0  0
 16 17  1  0  0  0  0
 16 18  1  0  0  0  0
 17 26  1  0  0  0  0
 18 19  1  0  0  0  0
 18 27  1  0  0  0  0
 18 28  1  0  0  0  0
 19 20  1  0  0  0  0
 19 29  1  0  0  0  0
 19 30  1  0  0  0  0
 20 21  1  0  0  0  0
 20 31  1  0  0  0  0
 20 32  1  0  0  0  0
 21 22  1  0  0  0  0
 22 33  1  0  0  0  0
 22 34  1  0  0  0  0
M  CHG  1   3  -1
M  END
> <s_m_source_file>
AV-unprocessed.smi

> <i_m_source_file_index>
9

> <i_lp_mmshare_version>
43012

> <i_f3d_flags>
0

> <s_epik_input>
RkMoRikoRiljKG4xKVtuSF1jKD1PKWMoYzEyKW5bY0hdbjJbQ0gyXVtDQEBdMyhbT0hdKVtDSDJdW0NIMl1bQ0gyXU9bQ0gyXTM=

> <s_epik_cmdline>
J2VwaWtfcHl0aG9uJywgJy1waCcsICc3LjAnLCAnLXRuJywgJzgnLCAnLW1hJywgJzIwMCcsICctbWV0YWxfYmluZGluZycsICctaW1hZScsICc8aW5maWxlLm1hZT4nLCAnLW9tYWUnLCAnPG91dGZpbGUubWFlPic=

> <r_lp_tautomer_probability>
1

> <r_epik_Ionization_Penalty>
0.188582

> <r_epik_Ionization_Penalty_Charging>
1.37005e-11

> <r_epik_Ionization_Penalty_Neutral>
0.188582

> <r_epik_State_Penalty>
0.012336

> <r_epik_Charging_Adjusted_Penalty>
0.012336

> <i_epik_Tot_Q>
-1

> <i_epik_Tot_abs_Q>
1

> <r_epik_Metal_State_Penalty>
0.0089237

> <b_epik_Metal_Only>
0

> <s_lp_Force_Field>
OPLS_2005

> <r_lp_Energy>
37.6166

> <b_lp_Chiralities_Consistent>
1

> <s_lp_Variant>
AV-unprocessed.smi:9-1

> <Gold.Version>
5.8.1

> <Gold.Id.Protein>
6NUR|6NUR_protein|mol2

> <Gold.PLP.Fitness>
36.6900

> <Gold.PLP.PLP>
-28.1040

> <Gold.PLP.part.hbond>
-1.6700

> <Gold.PLP.part.metal>
0.0000

> <Gold.PLP.part.buried>
0.3503

> <Gold.PLP.part.nonpolar>
-27.1912

> <Gold.PLP.part.repulsive>
0.2511

> <Gold.PLP.ligand.clash>
0.0000

> <Gold.PLP.ligand.torsion>
0.1864

> <Gold.PLP.Chemscore.Hbond>
2.0000

> <Gold.PLP.Chemscore.CHOScore>
0.9842

> <Gold.PLP.Chemscore.Metal>
0.0000

> <Gold.Chemscore.Hbonds>
donor molecule, donor type, donor heavy atom, donor atom, acceptor molecule, acceptor atom, score
      L1  H    17    26       P1  7948  0.99
      P1  H  6896  6909       L1     1  1.00
      L1  C    13    23       P1  7948  0.99

> <Gold.PLP.Chemscore.Internal.Correction>
0.0061

> <Gold.Rescore>
     Score         DG    S(hbond)    S(metal)    S(lipo)     H(rot)  DE(clash)    DE(int)     intcor
     10.63     -12.07       1.98        0.00      46.24       2.12       0.18       1.26       ----

> <Gold.Chemscore.Fitness>
10.6326

> <Gold.Chemscore.DG>
-12.0725

> <Gold.Chemscore.ZeroCoef>
-5.4800

> <Gold.Chemscore.Hbond>
1.9820

> <Gold.Chemscore.Metal>
0.0000

> <Gold.Chemscore.Lipo>
46.2377

> <Gold.Chemscore.Internal_Hbond>
0.0000

> <Gold.Chemscore.DEClash>
0.1830

> <Gold.Chemscore.DEInternal>
1.2569

> <Gold.Chemscore.Rot>
2.1239

> <Gold.Chemscore.Internal.Correction>
   9.000000E+99

> <Gold.Chemscore.Hbonds>
donor molecule, donor type, donor heavy atom, donor atom, acceptor molecule, acceptor atom, score
      L1  H    17    26       P1  7948  0.71
      P1  H  6896  6909       L1     1  0.95

> <Gold.Chemscore.Hbond.Weighted>
-6.6199

> <Gold.Chemscore.Metal.Weighted>
-0.0000

> <Gold.Chemscore.Lipo.Weighted>
-5.4098

> <Gold.Chemscore.Internal_Hbond.Weighted>
0.0000

> <Gold.Chemscore.DEClash.Weighted>
0.1830

> <Gold.Chemscore.DEInternal.Weighted>
1.2569

> <Gold.Chemscore.Rot.Weighted>
5.4373

> <Gold.Chemscore.Internal.Correction.Weighted>
   9.000000E+99

> <Gold.Protein.RotatedTorsions>
[ 6907 6896 6895 6894 ] final  -21.86 input  -60.11 | X-H torsion
[ 7974 7965 7964 7962 ] final  -19.05 input  175.53 | X-H torsion
[ 8008 7997 7996 7995 ] final  -19.65 input   59.86 | X-H torsion
[ 10167 10162 10161 10158 ] final  -20.15 input  -65.29 | X-H torsion
[ 10718 10713 10712 10709 ] final  139.82 input   66.30 | X-H torsion
[ 10763 10752 10751 10750 ] final  104.42 input  -60.55 | X-H torsion
[ 11005 11000 10999 10996 ] final  -52.52 input  -57.11 | X-H torsion

> <Gold.Protein.ActiveResidues>
 VAL166  LYS551  ARG553  GLY616  TRP617  ASP618  TYR619  PRO620  LYS621  CYS622 
 ASP623  PHE694  ASN695  SER759  ASP760  ASP761  ALA762  ILE779  LEU786  VAL792 
 PHE793  MET794  SER795  GLU796  ALA797  LYS798  CYS799  TRP800  GLU811  SER814 

> <Gold.Protein.RotatedAtoms>
  151.2271  135.0540  159.8972 H   0  0  0  0  0  0  0  0  0  0  0  0  # atno 6907 bound_to 6896
  152.5409  134.0577  159.8148 H   0  0  0  0  0  0  0  0  0  0  0  0  # atno 6908 bound_to 6896
  151.0752  133.5386  159.2656 H   0  0  0  0  0  0  0  0  0  0  0  0  # atno 6909 bound_to 6896
  146.1861  140.4008  142.8476 H   0  0  0  0  0  0  0  0  0  0  0  0  # atno 7974 bound_to 7965
  154.4823  140.2083  155.9736 H   0  0  0  0  0  0  0  0  0  0  0  0  # atno 8008 bound_to 7997
  156.1183  140.3217  155.8140 H   0  0  0  0  0  0  0  0  0  0  0  0  # atno 8009 bound_to 7997
  155.4513  140.0517  157.2991 H   0  0  0  0  0  0  0  0  0  0  0  0  # atno 8010 bound_to 7997
  140.7274  143.4750  151.0195 H   0  0  0  0  0  0  0  0  0  0  0  0  # atno 10167 bound_to 10162
  157.4102  131.1027  151.0462 H   0  0  0  0  0  0  0  0  0  0  0  0  # atno 10718 bound_to 10713
  153.3657  135.3944  155.1751 H   0  0  0  0  0  0  0  0  0  0  0  0  # atno 10763 bound_to 10752
  154.8686  135.3690  154.5042 H   0  0  0  0  0  0  0  0  0  0  0  0  # atno 10764 bound_to 10752
  153.5505  135.7083  153.5654 H   0  0  0  0  0  0  0  0  0  0  0  0  # atno 10765 bound_to 10752
  141.0928  133.6629  156.4036 H   0  0  0  0  0  0  0  0  0  0  0  0  # atno 11005 bound_to 11000
  144.8400  140.6842  143.6236 LP  0  0  0  0  0  0  0  0  0  0  0  0  # atno 17320 bound_to 7965
  145.3934  139.1612  143.4216 LP  0  0  0  0  0  0  0  0  0  0  0  0  # atno 17321 bound_to 7965
  139.8445  143.7520  152.3179 LP  0  0  0  0  0  0  0  0  0  0  0  0  # atno 17342 bound_to 10162
  139.7680  144.7485  151.0265 LP  0  0  0  0  0  0  0  0  0  0  0  0  # atno 17343 bound_to 10162
  157.1429  130.6151  149.5560 LP  0  0  0  0  0  0  0  0  0  0  0  0  # atno 17370 bound_to 10713
  155.9848  130.4875  150.7002 LP  0  0  0  0  0  0  0  0  0  0  0  0  # atno 17371 bound_to 10713
  140.5211  134.6303  157.5318 LP  0  0  0  0  0  0  0  0  0  0  0  0  # atno 17394 bound_to 11000
  139.9758  134.7218  155.9953 LP  0  0  0  0  0  0  0  0  0  0  0  0  # atno 17395 bound_to 11000

$$$$
