#       Name:                AV-unprocessed.smi:96
#       Creating user name   scv26
#       Creation time:       Thu Mar 26 17:30:36 2020


#       File generated by GOLD software.
#

@<TRIPOS>MOLECULE
AV-unprocessed.smi:96
    55    58     1
SMALL
NO_CHARGES


@<TRIPOS>ATOM
      1 ****        -0.8456  -0.5777  -1.0958 O.2            1 S1                 0.0000
      2 ****        -0.2836  -1.2763  -0.2513 C.2            1 S1                 0.0000
      3 ****         1.2478  -1.2612  -0.1185 C.3            1 S1                 0.0000
      4 ****         1.9143  -0.2854  -1.0093 N.am           1 S1                 0.0000
      5 ****         2.2997  -0.7034  -2.3075 C.2            1 S1                 0.0000
      6 ****         2.1050  -1.8578  -2.6911 O.2            1 S1                 0.0000
      7 ****         2.9198   0.3204  -3.1404 C.2            1 S1                 0.0000
      8 ****         3.3035   0.0183  -4.3924 F              1 S1                 0.0000
      9 ****         3.1119   1.5715  -2.6747 C.2            1 S1                 0.0000
     10 ****         2.7517   1.9610  -1.3996 N.am           1 S1                 0.0000
     11 ****         2.9606   3.3979  -0.9805 C.3            1 S1                 0.0000
     12 ****         3.8241   3.5519   0.2859 C.3            1 S1                 0.0000
     13 ****         2.9057   4.3058   1.2338 C.3            1 S1                 0.0000
     14 ****         1.8992   4.9531   0.2889 C.3            1 S1                 0.0000
     15 ****         1.7166   3.9699  -0.7177 O.3            1 S1                 0.0000
     16 ****         2.1087   1.0372  -0.5434 C.2            1 S1                 0.0000
     17 ****         1.7197   1.3735   0.5763 O.2            1 S1                 0.0000
     18 ****        -0.9175  -2.1128   0.5910 N.am           1 S1                 0.0000
     19 ****        -2.3116  -2.3559   0.7236 C.ar           1 S1                 0.0000
     20 ****        -3.3112  -1.4078   0.3591 C.ar           1 S1                 0.0000
     21 ****        -4.6834  -1.6995   0.5324 C.ar           1 S1                 0.0000
     22 ****        -5.0258  -2.9443   1.0833 C.ar           1 S1                 0.0000
     23 ****        -4.0633  -3.8600   1.4524 C.ar           1 S1                 0.0000
     24 ****        -2.6936  -3.5955   1.2910 C.ar           1 S1                 0.0000
     25 ****        -4.6609  -4.9678   1.9610 O.3            1 S1                 0.0000
     26 ****        -6.0421  -4.7215   1.8990 C.3            1 S1                 0.0000
     27 ****        -6.2582  -3.4478   1.3478 O.3            1 S1                 0.0000
     28 ****         1.5031  -1.0706   0.9253 H              1 S1                 0.0000
     29 ****         1.6187  -2.2715  -0.2986 H              1 S1                 0.0000
     30 ****         3.5708   2.2937  -3.3341 H              1 S1                 0.0000
     31 ****         3.4110   3.8996  -1.8383 H              1 S1                 0.0000
     32 ****         4.1571   2.5941   0.6864 H              1 S1                 0.0000
     33 ****         4.7040   4.1456   0.0359 H              1 S1                 0.0000
     34 ****         2.3951   3.6079   1.8980 H              1 S1                 0.0000
     35 ****         3.4345   5.0322   1.8513 H              1 S1                 0.0000
     36 ****         0.9596   5.2049   0.7811 H              1 S1                 0.0000
     37 ****         2.3106   5.8603  -0.1566 H              1 S1                 0.0000
     38 ****        -0.3220  -2.6927   1.1642 H              1 S1                 0.0000
     39 ****        -3.0472  -0.4418  -0.0425 H              1 S1                 0.0000
     40 ****        -5.4442  -0.9843   0.2565 H              1 S1                 0.0000
     41 ****        -1.9558  -4.3261   1.5893 H              1 S1                 0.0000
     42 ****        -6.5200  -5.4764   1.2737 H              1 S1                 0.0000
     43 ****        -6.4659  -4.7618   2.9030 H              1 S1                 0.0000
     44 ****        -0.3052   0.0057  -1.7021 LP             1 S1                 0.0000
     45 ****        -1.8423  -0.5938  -1.1750 LP             1 S1                 0.0000
     46 ****         1.6675  -2.5198  -2.0825 LP             1 S1                 0.0000
     47 ****         2.3844  -2.1328  -3.6110 LP             1 S1                 0.0000
     48 ****         1.0798   3.2685  -0.3974 LP             1 S1                 0.0000
     49 ****         1.3547   4.3948  -1.5474 LP             1 S1                 0.0000
     50 ****         1.2611   0.7093   1.1667 LP             1 S1                 0.0000
     51 ****         1.8626   2.3107   0.8947 LP             1 S1                 0.0000
     52 ****        -4.3755  -5.1133   2.9083 LP             1 S1                 0.0000
     53 ****        -4.4259  -5.7718   1.4149 LP             1 S1                 0.0000
     54 ****        -6.7931  -3.5190   0.5059 LP             1 S1                 0.0000
     55 ****        -6.7403  -2.8633   2.0005 LP             1 S1                 0.0000
@<TRIPOS>BOND
    1    1    2 2     
    2    2    3 1     
    3    2   18 am    
    4    3    4 1     
    5    3   28 1     
    6    3   29 1     
    7    4   16 am    
    8    4    5 am    
    9    5    6 2     
   10    5    7 1     
   11    7    8 1     
   12    7    9 2     
   13    9   10 1     
   14    9   30 1     
   15   10   11 1     
   16   10   16 am    
   17   11   15 1     
   18   11   12 1     
   19   11   31 1     
   20   12   13 1     
   21   12   32 1     
   22   12   33 1     
   23   13   14 1     
   24   13   34 1     
   25   13   35 1     
   26   14   15 1     
   27   14   36 1     
   28   14   37 1     
   29   16   17 2     
   30   18   19 1     
   31   18   38 1     
   32   19   24 ar    
   33   19   20 ar    
   34   20   21 ar    
   35   20   39 1     
   36   21   22 ar    
   37   21   40 1     
   38   22   27 1     
   39   22   23 ar    
   40   23   24 ar    
   41   23   25 1     
   42   24   41 1     
   43   25   26 1     
   44   26   27 1     
   45   26   42 1     
   46   26   43 1     
   47    1   44 1     
   48    1   45 1     
   49    6   46 1     
   50    6   47 1     
   51   15   48 1     
   52   15   49 1     
   53   17   50 1     
   54   17   51 1     
   55   25   52 1     
   56   25   53 1     
   57   27   54 1     
   58   27   55 1     
@<TRIPOS>SUBSTRUCTURE
      1 S1             1
@<TRIPOS>SET
LONE_PAIRS      STATIC     ATOMS    <user>   **** ""
12 44 45 46 47 48 49 50 51 52 53 54 55
DONOR_HYDROGENS      STATIC     ATOMS    <user>   **** ""
1 38
ATOM$BLUE        STATIC     ATOMS    COLORGROUP SYSTEM
12 44 45 46 47 48 49 50 51 52 53 54 55
ATOM$RED        STATIC     ATOMS    COLORGROUP SYSTEM
1 38
