AV-unprocessed.smi:636|AV-procd|sdf|3140|dock4
  -GOLD-   22720 0 63D 1   1.00000     0.00000
 Structure written by MMmdl.
 39 41  0  0  0  0  0  0  0  0  1 V2000
  148.5979  141.7121  156.9230 O   0  0  0  0  0  0  0  0  0  0  0  0
  149.1808  141.3573  155.8994 C   0  0  0  0  0  0  0  0  0  0  0  0
  150.7051  141.1508  155.9440 C   0  0  0  0  0  0  0  0  0  0  0  0
  151.3357  141.4636  157.2397 N   0  0  0  0  0  0  0  0  0  0  0  0
  151.1355  142.7614  157.7469 C   0  0  0  0  0  0  0  0  0  0  0  0
  151.6546  143.1781  158.9164 C   0  0  0  0  0  0  0  0  0  0  0  0
  151.4793  144.6071  159.4056 C   0  0  0  0  0  0  0  0  0  0  0  0
  152.0142  144.7389  160.6183 F   0  0  0  0  0  0  0  0  0  0  0  0
  152.0829  145.4706  158.5889 F   0  0  0  0  0  0  0  0  0  0  0  0
  150.1892  144.9351  159.4825 F   0  0  0  0  0  0  0  0  0  0  0  0
  152.4706  142.2212  159.6361 C   0  0  0  0  0  0  0  0  0  0  0  0
  152.6884  140.9774  159.1634 C   0  0  0  0  0  0  0  0  0  0  0  0
  153.6705  139.8776  160.0632 Cl  0  0  0  0  0  0  0  0  0  0  0  0
  152.1031  140.5381  157.8903 C   0  0  0  0  0  0  0  0  0  0  0  0
  152.2940  139.4123  157.4285 O   0  0  0  0  0  0  0  0  0  0  0  0
  148.5453  141.1419  154.7346 N   0  0  0  0  0  0  0  0  0  0  0  0
  147.1141  141.2834  154.4969 C   0  0  0  0  0  0  0  0  0  0  0  0
  146.6642  140.5849  153.2242 C   0  0  0  0  0  0  0  0  0  0  0  0
  146.7899  139.0882  153.0614 C   0  0  0  0  0  0  0  0  0  0  0  0
  147.6619  140.0135  152.2445 C   0  0  0  0  0  0  0  0  0  0  0  0
  146.7033  142.7440  154.4697 C   0  0  0  0  0  0  0  0  0  0  0  0
  145.4825  143.2234  155.2173 C   0  0  0  0  0  0  0  0  0  0  0  0
  145.4866  143.2082  153.7048 C   0  0  0  0  0  0  0  0  0  0  0  0
  150.9114  140.1146  155.6724 H   0  0  0  0  0  0  0  0  0  0  0  0
  151.1575  141.7418  155.1458 H   0  0  0  0  0  0  0  0  0  0  0  0
  150.5412  143.4034  157.1129 H   0  0  0  0  0  0  0  0  0  0  0  0
  152.9147  142.5084  160.5779 H   0  0  0  0  0  0  0  0  0  0  0  0
  149.1036  140.8550  153.9440 H   0  0  0  0  0  0  0  0  0  0  0  0
  146.5838  140.8214  155.3322 H   0  0  0  0  0  0  0  0  0  0  0  0
  145.7725  141.0270  152.7834 H   0  0  0  0  0  0  0  0  0  0  0  0
  147.2717  138.5250  153.8576 H   0  0  0  0  0  0  0  0  0  0  0  0
  145.9837  138.5705  152.5457 H   0  0  0  0  0  0  0  0  0  0  0  0
  147.4373  140.1145  151.1847 H   0  0  0  0  0  0  0  0  0  0  0  0
  148.7176  140.0630  152.5037 H   0  0  0  0  0  0  0  0  0  0  0  0
  147.5488  143.4297  154.4652 H   0  0  0  0  0  0  0  0  0  0  0  0
  144.8731  142.4780  155.7245 H   0  0  0  0  0  0  0  0  0  0  0  0
  145.5448  144.1903  155.7121 H   0  0  0  0  0  0  0  0  0  0  0  0
  145.5522  144.1651  153.1912 H   0  0  0  0  0  0  0  0  0  0  0  0
  144.8737  142.4559  153.2128 H   0  0  0  0  0  0  0  0  0  0  0  0
  1  2  2  0  0  0  0
  2  3  1  0  0  0  0
  2 16  1  0  0  0  0
  3  4  1  0  0  0  0
  3 24  1  0  0  0  0
  3 25  1  0  0  0  0
  4 14  1  0  0  0  0
  4  5  1  0  0  0  0
  5  6  2  0  0  0  0
  5 26  1  0  0  0  0
  6  7  1  0  0  0  0
  6 11  1  0  0  0  0
  7  8  1  0  0  0  0
  7  9  1  0  0  0  0
  7 10  1  0  0  0  0
 11 12  2  0  0  0  0
 11 27  1  0  0  0  0
 12 13  1  0  0  0  0
 12 14  1  0  0  0  0
 14 15  2  0  0  0  0
 16 17  1  0  0  0  0
 16 28  1  0  0  0  0
 17 18  1  0  0  0  0
 17 21  1  0  0  0  0
 17 29  1  0  0  0  0
 18 20  1  0  0  0  0
 18 19  1  0  0  0  0
 18 30  1  0  0  0  0
 19 20  1  0  0  0  0
 19 31  1  0  0  0  0
 19 32  1  0  0  0  0
 20 33  1  0  0  0  0
 20 34  1  0  0  0  0
 21 23  1  0  0  0  0
 21 22  1  0  0  0  0
 21 35  1  0  0  0  0
 22 23  1  0  0  0  0
 22 36  1  0  0  0  0
 22 37  1  0  0  0  0
 23 38  1  0  0  0  0
 23 39  1  0  0  0  0
M  END
> <s_m_source_file>
AV-unprocessed.smi

> <i_m_source_file_index>
636

> <i_lp_mmshare_version>
43012

> <i_f3d_flags>
0

> <s_epik_input>
W0NIMl0xW0NIMl1bQ0hdMVtDSF0oW0NIXTJbQ0gyXVtDSDJdMilbTkhdQyg9TylbQ0gyXW4zW2NIXWMoQyhGKShGKUYpW2NIXWMoQ2wpYzM9Tw==

> <s_epik_cmdline>
J2VwaWtfcHl0aG9uJywgJy1waCcsICc3LjAnLCAnLXRuJywgJzgnLCAnLW1hJywgJzIwMCcsICctbWV0YWxfYmluZGluZycsICctaW1hZScsICc8aW5maWxlLm1hZT4nLCAnLW9tYWUnLCAnPG91dGZpbGUubWFlPic=

> <r_lp_tautomer_probability>
1

> <r_epik_Ionization_Penalty>
2.07964e-08

> <r_epik_Ionization_Penalty_Charging>
3.83819e-10

> <r_epik_Ionization_Penalty_Neutral>
2.04126e-08

> <r_epik_State_Penalty>
-0

> <r_epik_Charging_Adjusted_Penalty>
3.83819e-10

> <i_epik_Tot_Q>
0

> <i_epik_Tot_abs_Q>
0

> <r_epik_Metal_State_Penalty>
-0

> <b_epik_Metal_Only>
0

> <s_lp_Force_Field>
OPLS_2005

> <r_lp_Energy>
34.6708

> <b_lp_Chiralities_Consistent>
1

> <s_lp_Variant>
AV-unprocessed.smi:636-1

> <Gold.Version>
5.8.1

> <Gold.Id.Protein>
6NUR|6NUR_protein|mol2

> <Gold.PLP.Fitness>
46.3579

> <Gold.PLP.PLP>
-46.1601

> <Gold.PLP.part.hbond>
0.0000

> <Gold.PLP.part.metal>
0.0000

> <Gold.PLP.part.buried>
0.5223

> <Gold.PLP.part.nonpolar>
-47.5641

> <Gold.PLP.part.repulsive>
0.2713

> <Gold.PLP.ligand.clash>
0.3355

> <Gold.PLP.ligand.torsion>
2.0320

> <Gold.PLP.Chemscore.Hbond>
0.0000

> <Gold.PLP.Chemscore.CHOScore>
0.7738

> <Gold.PLP.Chemscore.Metal>
0.0000

> <Gold.Chemscore.Hbonds>
donor molecule, donor type, donor heavy atom, donor atom, acceptor molecule, acceptor atom, score
      P1  H  7997  8009       L1    15  0.08
      L1  C     5    26       P1  8028  0.94

> <Gold.PLP.Chemscore.Internal.Correction>
2.2761

> <Gold.Rescore>
     Score         DG    S(hbond)    S(metal)    S(lipo)     H(rot)  DE(clash)    DE(int)     intcor
      8.17     -13.58       0.00        0.00     110.75       1.90       2.22       3.20       ----

> <Gold.Chemscore.Fitness>
8.1667

> <Gold.Chemscore.DG>
-13.5796

> <Gold.Chemscore.ZeroCoef>
-5.4800

> <Gold.Chemscore.Hbond>
0.0000

> <Gold.Chemscore.Metal>
0.0000

> <Gold.Chemscore.Lipo>
110.7528

> <Gold.Chemscore.Internal_Hbond>
0.0000

> <Gold.Chemscore.DEClash>
2.2168

> <Gold.Chemscore.DEInternal>
3.1961

> <Gold.Chemscore.Rot>
1.8979

> <Gold.Chemscore.Internal.Correction>
   9.000000E+99

> <Gold.Chemscore.Hbond.Weighted>
-0.0000

> <Gold.Chemscore.Metal.Weighted>
-0.0000

> <Gold.Chemscore.Lipo.Weighted>
-12.9581

> <Gold.Chemscore.Internal_Hbond.Weighted>
0.0000

> <Gold.Chemscore.DEClash.Weighted>
2.2168

> <Gold.Chemscore.DEInternal.Weighted>
3.1961

> <Gold.Chemscore.Rot.Weighted>
4.8586

> <Gold.Chemscore.Internal.Correction.Weighted>
   9.000000E+99

> <Gold.Protein.RotatedTorsions>
[ 6907 6896 6895 6894 ] final -141.46 input  -60.11 | X-H torsion
[ 7974 7965 7964 7962 ] final   83.80 input  175.53 | X-H torsion
[ 8008 7997 7996 7995 ] final -167.65 input   59.86 | X-H torsion
[ 10167 10162 10161 10158 ] final   72.93 input  -65.29 | X-H torsion
[ 10718 10713 10712 10709 ] final  -26.23 input   66.30 | X-H torsion
[ 10763 10752 10751 10750 ] final  -26.54 input  -60.55 | X-H torsion
[ 11005 11000 10999 10996 ] final  140.45 input  -57.11 | X-H torsion

> <Gold.Protein.ActiveResidues>
 VAL166  LYS551  ARG553  GLY616  TRP617  ASP618  TYR619  PRO620  LYS621  CYS622 
 ASP623  PHE694  ASN695  SER759  ASP760  ASP761  ALA762  ILE779  LEU786  VAL792 
 PHE793  MET794  SER795  GLU796  ALA797  LYS798  CYS799  TRP800  GLU811  SER814 

> <Gold.Protein.RotatedAtoms>
  151.0740  133.5443  159.2624 H   0  0  0  0  0  0  0  0  0  0  0  0  # atno 6907 bound_to 6896
  151.2371  135.0575  159.9020 H   0  0  0  0  0  0  0  0  0  0  0  0  # atno 6908 bound_to 6896
  152.5415  134.0521  159.8168 H   0  0  0  0  0  0  0  0  0  0  0  0  # atno 6909 bound_to 6896
  145.6071  139.2362  143.2213 H   0  0  0  0  0  0  0  0  0  0  0  0  # atno 7974 bound_to 7965
  155.8807  140.1008  157.1487 H   0  0  0  0  0  0  0  0  0  0  0  0  # atno 8008 bound_to 7997
  154.4005  140.1329  156.4256 H   0  0  0  0  0  0  0  0  0  0  0  0  # atno 8009 bound_to 7997
  155.7646  140.3462  155.5218 H   0  0  0  0  0  0  0  0  0  0  0  0  # atno 8010 bound_to 7997
  140.0300  144.5473  150.7514 H   0  0  0  0  0  0  0  0  0  0  0  0  # atno 10167 bound_to 10162
  156.4539  130.4489  149.6972 H   0  0  0  0  0  0  0  0  0  0  0  0  # atno 10718 bound_to 10713
  153.7175  135.6947  153.5021 H   0  0  0  0  0  0  0  0  0  0  0  0  # atno 10763 bound_to 10752
  153.2227  135.4364  155.0507 H   0  0  0  0  0  0  0  0  0  0  0  0  # atno 10764 bound_to 10752
  154.8295  135.3464  154.6710 H   0  0  0  0  0  0  0  0  0  0  0  0  # atno 10765 bound_to 10752
  140.0328  134.9343  157.0696 H   0  0  0  0  0  0  0  0  0  0  0  0  # atno 11005 bound_to 11000
  146.1532  140.6895  142.9312 LP  0  0  0  0  0  0  0  0  0  0  0  0  # atno 17320 bound_to 7965
  144.7285  140.4600  143.6955 LP  0  0  0  0  0  0  0  0  0  0  0  0  # atno 17321 bound_to 7965
  140.7306  143.2685  151.3965 LP  0  0  0  0  0  0  0  0  0  0  0  0  # atno 17342 bound_to 10162
  139.6082  144.1152  152.2271 LP  0  0  0  0  0  0  0  0  0  0  0  0  # atno 17343 bound_to 10162
  156.3787  130.7568  151.2558 LP  0  0  0  0  0  0  0  0  0  0  0  0  # atno 17370 bound_to 10713
  157.7501  131.0302  150.4126 LP  0  0  0  0  0  0  0  0  0  0  0  0  # atno 17371 bound_to 10713
  140.4196  134.1894  155.7164 LP  0  0  0  0  0  0  0  0  0  0  0  0  # atno 17394 bound_to 11000
  141.1841  133.8351  157.1152 LP  0  0  0  0  0  0  0  0  0  0  0  0  # atno 17395 bound_to 11000

$$$$
