AV-unprocessed.smi:546|AV-procd|sdf|2887|dock5
  -GOLD-   2262023383D 1   1.00000     0.00000
 Structure written by MMmdl.
 51 53  0  0  0  0  0  0  0  0  2 V2000
  150.9412  131.9735  156.1773 C   0  0  0  0  0  0  0  0  0  0  0  0
  149.5783  132.5518  156.5633 C   0  0  0  0  0  0  0  0  0  0  0  0
  149.6347  132.9703  157.9147 O   0  0  0  0  0  0  0  0  0  0  0  0
  148.3884  133.4288  158.4089 C   0  0  0  0  0  0  0  0  0  0  0  0
  148.0332  134.7836  157.7779 C   0  0  0  0  0  0  0  0  0  0  0  0
  148.9233  135.8448  158.2373 N   0  0  0  0  0  0  0  0  0  0  0  0
  148.8432  136.5382  159.4010 C   0  0  0  0  0  0  0  0  0  0  0  0
  147.8090  136.3175  160.3068 N   0  0  0  0  0  0  0  0  0  0  0  0
  146.4438  136.7472  160.0135 C   0  0  0  0  0  0  0  0  0  0  0  0
  145.3834  135.8047  160.6093 C   0  0  2  0  0  0  0  0  0  0  0  0
  143.9637  136.2635  160.2502 C   0  0  0  0  0  0  0  0  0  0  0  0
  145.5753  135.7109  162.1312 C   0  0  0  0  0  0  0  0  0  0  0  0
  147.0200  135.3182  162.4825 C   0  0  1  0  0  0  0  0  0  0  0  0
  147.2932  133.8221  162.2586 C   0  0  0  0  0  0  0  0  0  0  0  0
  148.0271  136.2358  161.7517 C   0  0  0  0  0  0  0  0  0  0  0  0
  149.8016  137.4481  159.5823 N   0  0  0  0  0  0  0  0  0  0  0  0
  150.5577  137.3250  158.4259 C   0  0  0  0  0  0  0  0  0  0  0  0
  150.0493  136.3735  157.5978 C   0  0  0  0  0  0  0  0  0  0  0  0
  150.6403  136.0260  156.2866 C   0  0  0  0  0  0  0  0  0  0  0  0
  150.1327  135.1693  155.5656 O   0  0  0  0  0  0  0  0  0  0  0  0
  151.7651  136.7613  156.0170 N   0  5  0  0  0  0  0  0  0  0  0  0
  152.3155  137.7314  156.8274 C   0  0  0  0  0  0  0  0  0  0  0  0
  153.3336  138.3416  156.5003 O   0  0  0  0  0  0  0  0  0  0  0  0
  151.7233  138.0315  158.0279 N   0  0  0  0  0  0  0  0  0  0  0  0
  152.2420  139.0530  158.9429 C   0  0  0  0  0  0  0  0  0  0  0  0
  150.9425  131.6340  155.1416 H   0  0  0  0  0  0  0  0  0  0  0  0
  151.1972  131.1231  156.8098 H   0  0  0  0  0  0  0  0  0  0  0  0
  151.7275  132.7205  156.2874 H   0  0  0  0  0  0  0  0  0  0  0  0
  149.3312  133.3955  155.9175 H   0  0  0  0  0  0  0  0  0  0  0  0
  148.8035  131.7948  156.4338 H   0  0  0  0  0  0  0  0  0  0  0  0
  147.6072  132.6993  158.1918 H   0  0  0  0  0  0  0  0  0  0  0  0
  148.4502  133.5329  159.4915 H   0  0  0  0  0  0  0  0  0  0  0  0
  148.0674  134.7241  156.6915 H   0  0  0  0  0  0  0  0  0  0  0  0
  147.0045  135.0509  158.0189 H   0  0  0  0  0  0  0  0  0  0  0  0
  146.3049  137.7616  160.3898 H   0  0  0  0  0  0  0  0  0  0  0  0
  146.3188  136.7997  158.9312 H   0  0  0  0  0  0  0  0  0  0  0  0
  145.5247  134.8140  160.1756 H   0  0  0  0  0  0  0  0  0  0  0  0
  143.7543  137.2565  160.6496 H   0  0  0  0  0  0  0  0  0  0  0  0
  143.2164  135.5784  160.6515 H   0  0  0  0  0  0  0  0  0  0  0  0
  143.8270  136.3035  159.1692 H   0  0  0  0  0  0  0  0  0  0  0  0
  145.3511  136.6790  162.5817 H   0  0  0  0  0  0  0  0  0  0  0  0
  144.8699  135.0017  162.5659 H   0  0  0  0  0  0  0  0  0  0  0  0
  147.1487  135.4884  163.5521 H   0  0  0  0  0  0  0  0  0  0  0  0
  147.2182  133.5465  161.2076 H   0  0  0  0  0  0  0  0  0  0  0  0
  146.5812  133.2084  162.8109 H   0  0  0  0  0  0  0  0  0  0  0  0
  148.2904  133.5515  162.6059 H   0  0  0  0  0  0  0  0  0  0  0  0
  149.0457  135.8963  161.9432 H   0  0  0  0  0  0  0  0  0  0  0  0
  147.9624  137.2456  162.1591 H   0  0  0  0  0  0  0  0  0  0  0  0
  153.1031  139.6035  158.5629 H   0  0  0  0  0  0  0  0  0  0  0  0
  152.5389  138.5895  159.8840 H   0  0  0  0  0  0  0  0  0  0  0  0
  151.4638  139.7847  159.1615 H   0  0  0  0  0  0  0  0  0  0  0  0
  1  2  1  0  0  0  0
  1 26  1  0  0  0  0
  1 27  1  0  0  0  0
  1 28  1  0  0  0  0
  2  3  1  0  0  0  0
  2 29  1  0  0  0  0
  2 30  1  0  0  0  0
  3  4  1  0  0  0  0
  4  5  1  0  0  0  0
  4 31  1  0  0  0  0
  4 32  1  0  0  0  0
  5  6  1  0  0  0  0
  5 33  1  0  0  0  0
  5 34  1  0  0  0  0
  6 18  1  0  0  0  0
  6  7  1  0  0  0  0
  7  8  1  0  0  0  0
  7 16  2  0  0  0  0
  8 15  1  0  0  0  0
  8  9  1  0  0  0  0
  9 10  1  0  0  0  0
  9 35  1  0  0  0  0
  9 36  1  0  0  0  0
 10 11  1  0  0  0  0
 10 12  1  0  0  0  0
 10 37  1  0  0  0  0
 11 38  1  0  0  0  0
 11 39  1  0  0  0  0
 11 40  1  0  0  0  0
 12 13  1  0  0  0  0
 12 41  1  0  0  0  0
 12 42  1  0  0  0  0
 13 14  1  0  0  0  0
 13 15  1  0  0  0  0
 13 43  1  0  0  0  0
 14 44  1  0  0  0  0
 14 45  1  0  0  0  0
 14 46  1  0  0  0  0
 15 47  1  0  0  0  0
 15 48  1  0  0  0  0
 16 17  1  0  0  0  0
 17 24  1  0  0  0  0
 17 18  2  0  0  0  0
 18 19  1  0  0  0  0
 19 20  2  0  0  0  0
 19 21  1  0  0  0  0
 21 22  1  0  0  0  0
 22 23  2  0  0  0  0
 22 24  1  0  0  0  0
 24 25  1  0  0  0  0
 25 49  1  0  0  0  0
 25 50  1  0  0  0  0
 25 51  1  0  0  0  0
M  CHG  1  21  -1
M  END
> <s_m_source_file>
AV-unprocessed.smi

> <i_m_source_file_index>
546

> <i_lp_mmshare_version>
43012

> <i_f3d_flags>
0

> <s_epik_input>
W0NIM11uMWMoPU8pW25IXWMoPU8pYyhjMTIpbihbQ0gyXVtDSDJdT1tDSDJdW0NIM10pYyhuMilOM1tDSDJdW0NAQEhdKFtDSDNdKVtDSDJdW0NAQEhdKFtDSDNdKVtDSDJdMw==

> <s_epik_cmdline>
J2VwaWtfcHl0aG9uJywgJy1waCcsICc3LjAnLCAnLXRuJywgJzgnLCAnLW1hJywgJzIwMCcsICctbWV0YWxfYmluZGluZycsICctaW1hZScsICc8aW5maWxlLm1hZT4nLCAnLW9tYWUnLCAnPG91dGZpbGUubWFlPic=

> <r_lp_tautomer_probability>
1

> <r_epik_Ionization_Penalty>
5.12825

> <r_epik_Ionization_Penalty_Charging>
0.0743105

> <r_epik_Ionization_Penalty_Neutral>
5.05394

> <r_epik_State_Penalty>
5.04406

> <r_epik_Charging_Adjusted_Penalty>
5.11837

> <i_epik_Tot_Q>
-1

> <i_epik_Tot_abs_Q>
1

> <r_epik_Metal_State_Penalty>
1.15122

> <b_epik_Metal_Only>
1

> <s_lp_Force_Field>
OPLS_2005

> <r_lp_Energy>
46.3243

> <b_lp_Chiralities_Consistent>
1

> <s_lp_Variant>
AV-unprocessed.smi:546-5

> <Gold.Version>
5.8.1

> <Gold.Id.Protein>
6NUR|6NUR_protein|mol2

> <Gold.PLP.Fitness>
42.5275

> <Gold.PLP.PLP>
-32.7267

> <Gold.PLP.part.hbond>
-4.0000

> <Gold.PLP.part.metal>
0.0000

> <Gold.PLP.part.buried>
-5.0003

> <Gold.PLP.part.nonpolar>
-23.8668

> <Gold.PLP.part.repulsive>
0.0928

> <Gold.PLP.ligand.clash>
0.0000

> <Gold.PLP.ligand.torsion>
1.3923

> <Gold.PLP.Chemscore.Hbond>
3.8960

> <Gold.PLP.Chemscore.CHOScore>
0.0000

> <Gold.PLP.Chemscore.Metal>
0.0000

> <Gold.Chemscore.Hbonds>
donor molecule, donor type, donor heavy atom, donor atom, acceptor molecule, acceptor atom, score
      P1  H  6896  6907       L1     3  1.00
      P1  H  7997  8008       L1    23  0.90
      P1  H 10752 10765       L1    21  1.66

> <Gold.PLP.Chemscore.Internal.Correction>
0.8974

> <Gold.Rescore>
     Score         DG    S(hbond)    S(metal)    S(lipo)     H(rot)  DE(clash)    DE(int)     intcor
     15.35     -16.61       2.31        0.00      62.52       1.52       0.01       1.24       ----

> <Gold.Chemscore.Fitness>
15.3541

> <Gold.Chemscore.DG>
-16.6108

> <Gold.Chemscore.ZeroCoef>
-5.4800

> <Gold.Chemscore.Hbond>
2.3081

> <Gold.Chemscore.Metal>
0.0000

> <Gold.Chemscore.Lipo>
62.5167

> <Gold.Chemscore.Internal_Hbond>
0.0000

> <Gold.Chemscore.DEClash>
0.0141

> <Gold.Chemscore.DEInternal>
1.2426

> <Gold.Chemscore.Rot>
1.5206

> <Gold.Chemscore.Internal.Correction>
   9.000000E+99

> <Gold.Chemscore.Hbonds>
donor molecule, donor type, donor heavy atom, donor atom, acceptor molecule, acceptor atom, score
      P1  H  6896  6907       L1     3  0.65
      P1  H  7997  8008       L1    23  0.82
      P1  H 10752 10765       L1    21  0.47

> <Gold.Chemscore.Hbond.Weighted>
-7.7089

> <Gold.Chemscore.Metal.Weighted>
-0.0000

> <Gold.Chemscore.Lipo.Weighted>
-7.3145

> <Gold.Chemscore.Internal_Hbond.Weighted>
0.0000

> <Gold.Chemscore.DEClash.Weighted>
0.0141

> <Gold.Chemscore.DEInternal.Weighted>
1.2426

> <Gold.Chemscore.Rot.Weighted>
3.8926

> <Gold.Chemscore.Internal.Correction.Weighted>
   9.000000E+99

> <Gold.Protein.RotatedTorsions>
[ 6907 6896 6895 6894 ] final -145.07 input  -60.11 | X-H torsion
[ 7974 7965 7964 7962 ] final  -26.61 input  175.53 | X-H torsion
[ 8008 7997 7996 7995 ] final  -51.59 input   59.86 | X-H torsion
[ 10167 10162 10161 10158 ] final   15.37 input  -65.29 | X-H torsion
[ 10718 10713 10712 10709 ] final  155.47 input   66.30 | X-H torsion
[ 10763 10752 10751 10750 ] final -156.68 input  -60.55 | X-H torsion
[ 11005 11000 10999 10996 ] final   36.09 input  -57.11 | X-H torsion

> <Gold.Protein.ActiveResidues>
 VAL166  LYS551  ARG553  GLY616  TRP617  ASP618  TYR619  PRO620  LYS621  CYS622 
 ASP623  PHE694  ASN695  SER759  ASP760  ASP761  ALA762  ILE779  LEU786  VAL792 
 PHE793  MET794  SER795  GLU796  ALA797  LYS798  CYS799  TRP800  GLU811  SER814 

> <Gold.Protein.RotatedAtoms>
  151.1228  133.5092  159.2601 H   0  0  0  0  0  0  0  0  0  0  0  0  # atno 6907 bound_to 6896
  151.1843  135.0374  159.8815 H   0  0  0  0  0  0  0  0  0  0  0  0  # atno 6908 bound_to 6896
  152.5456  134.1076  159.8398 H   0  0  0  0  0  0  0  0  0  0  0  0  # atno 6909 bound_to 6896
  146.1414  140.5042  142.8650 H   0  0  0  0  0  0  0  0  0  0  0  0  # atno 7974 bound_to 7965
  154.4086  140.1244  156.4853 H   0  0  0  0  0  0  0  0  0  0  0  0  # atno 8008 bound_to 7997
  155.7044  140.3494  155.4927 H   0  0  0  0  0  0  0  0  0  0  0  0  # atno 8009 bound_to 7997
  155.9357  140.1078  157.1087 H   0  0  0  0  0  0  0  0  0  0  0  0  # atno 8010 bound_to 7997
  140.5872  143.8867  150.6840 H   0  0  0  0  0  0  0  0  0  0  0  0  # atno 10167 bound_to 10162
  157.2179  131.0712  151.1930 H   0  0  0  0  0  0  0  0  0  0  0  0  # atno 10718 bound_to 10713
  154.7694  135.3141  154.8220 H   0  0  0  0  0  0  0  0  0  0  0  0  # atno 10763 bound_to 10752
  153.8959  135.6820  153.4762 H   0  0  0  0  0  0  0  0  0  0  0  0  # atno 10764 bound_to 10752
  153.1306  135.4782  154.9276 H   0  0  0  0  0  0  0  0  0  0  0  0  # atno 10765 bound_to 10752
  140.2361  134.3470  155.7944 H   0  0  0  0  0  0  0  0  0  0  0  0  # atno 11005 bound_to 11000
  144.7796  140.5813  143.6614 LP  0  0  0  0  0  0  0  0  0  0  0  0  # atno 17320 bound_to 7965
  145.5038  139.1482  143.3642 LP  0  0  0  0  0  0  0  0  0  0  0  0  # atno 17321 bound_to 7965
  140.2381  143.3684  152.1510 LP  0  0  0  0  0  0  0  0  0  0  0  0  # atno 17342 bound_to 10162
  139.5205  144.7033  151.5429 LP  0  0  0  0  0  0  0  0  0  0  0  0  # atno 17343 bound_to 10162
  157.3606  130.7129  149.6499 LP  0  0  0  0  0  0  0  0  0  0  0  0  # atno 17370 bound_to 10713
  155.9685  130.4227  150.4527 LP  0  0  0  0  0  0  0  0  0  0  0  0  # atno 17371 bound_to 10713
  141.2214  133.7272  156.8810 LP  0  0  0  0  0  0  0  0  0  0  0  0  # atno 17394 bound_to 11000
  140.1701  134.9106  157.2822 LP  0  0  0  0  0  0  0  0  0  0  0  0  # atno 17395 bound_to 11000

$$$$
