AV-unprocessed.smi:1485|AV-procd|sdf|6001|dock1
  -GOLD-   22720 6 93D 1   1.00000     0.00000
 Structure written by MMmdl.
 44 45  0  0  0  0  0  0  0  0  1 V2000
  153.9802  138.9336  159.5273 C   0  0  0  0  0  0  0  0  0  0  0  0
  153.7868  139.2003  158.1500 O   0  0  0  0  0  0  0  0  0  0  0  0
  153.5733  138.0219  157.3893 C   0  0  0  0  0  0  0  0  0  0  0  0
  153.5882  138.3716  155.8927 C   0  0  0  0  0  0  0  0  0  0  0  0
  152.2659  138.7993  155.4224 N   0  0  0  0  0  0  0  0  0  0  0  0
  151.7558  139.8894  156.1057 N   0  0  0  0  0  0  0  0  0  0  0  0
  150.5922  140.3644  155.8000 C   0  0  0  0  0  0  0  0  0  0  0  0
  149.9998  141.5148  156.5358 C   0  0  0  0  0  0  0  0  0  0  0  0
  148.8226  141.8473  156.3892 O   0  0  0  0  0  0  0  0  0  0  0  0
  150.8437  142.1506  157.3677 N   0  0  0  0  0  0  0  0  0  0  0  0
  150.5225  143.2980  158.2129 C   0  0  2  0  0  0  0  0  0  0  0  0
  151.2889  144.5549  157.7536 C   0  0  0  0  0  0  0  0  0  0  0  0
  152.7992  144.4426  158.0259 C   0  0  0  0  0  0  0  0  0  0  0  0
  153.0811  144.1231  159.5030 C   0  0  0  0  0  0  0  0  0  0  0  0
  152.3480  142.8468  159.9578 C   0  0  1  0  0  0  0  0  0  0  0  0
  152.6282  142.5326  161.4338 C   0  0  0  0  0  0  0  0  0  0  0  0
  150.8338  142.9705  159.6867 C   0  0  0  0  0  0  0  0  0  0  0  0
  149.8098  139.7805  154.7240 C   0  0  0  0  0  0  0  0  0  0  0  0
  150.3119  138.7050  154.0778 C   0  0  0  0  0  0  0  0  0  0  0  0
  151.6126  138.1293  154.4254 C   0  0  0  0  0  0  0  0  0  0  0  0
  152.0752  137.1308  153.8744 O   0  0  0  0  0  0  0  0  0  0  0  0
  154.1507  139.8690  160.0600 H   0  0  0  0  0  0  0  0  0  0  0  0
  154.8482  138.2925  159.6869 H   0  0  0  0  0  0  0  0  0  0  0  0
  153.1036  138.4524  159.9624 H   0  0  0  0  0  0  0  0  0  0  0  0
  154.3677  137.3056  157.6029 H   0  0  0  0  0  0  0  0  0  0  0  0
  152.6282  137.5508  157.6647 H   0  0  0  0  0  0  0  0  0  0  0  0
  154.3249  139.1547  155.7044 H   0  0  0  0  0  0  0  0  0  0  0  0
  153.9362  137.5101  155.3202 H   0  0  0  0  0  0  0  0  0  0  0  0
  151.7905  141.8031  157.4233 H   0  0  0  0  0  0  0  0  0  0  0  0
  149.4521  143.4964  158.1369 H   0  0  0  0  0  0  0  0  0  0  0  0
  151.1124  144.7425  156.6937 H   0  0  0  0  0  0  0  0  0  0  0  0
  150.8967  145.4240  158.2832 H   0  0  0  0  0  0  0  0  0  0  0  0
  153.2318  143.6657  157.3941 H   0  0  0  0  0  0  0  0  0  0  0  0
  153.2944  145.3734  157.7486 H   0  0  0  0  0  0  0  0  0  0  0  0
  154.1553  144.0092  159.6523 H   0  0  0  0  0  0  0  0  0  0  0  0
  152.7715  144.9663  160.1220 H   0  0  0  0  0  0  0  0  0  0  0  0
  152.7331  142.0110  159.3720 H   0  0  0  0  0  0  0  0  0  0  0  0
  152.2666  143.3288  162.0851 H   0  0  0  0  0  0  0  0  0  0  0  0
  153.6969  142.4141  161.6140 H   0  0  0  0  0  0  0  0  0  0  0  0
  152.1392  141.6062  161.7366 H   0  0  0  0  0  0  0  0  0  0  0  0
  150.4198  143.7577  160.3187 H   0  0  0  0  0  0  0  0  0  0  0  0
  150.3240  142.0510  159.9778 H   0  0  0  0  0  0  0  0  0  0  0  0
  148.8474  140.1856  154.4474 H   0  0  0  0  0  0  0  0  0  0  0  0
  149.7385  138.2571  153.2795 H   0  0  0  0  0  0  0  0  0  0  0  0
  1  2  1  0  0  0  0
  1 22  1  0  0  0  0
  1 23  1  0  0  0  0
  1 24  1  0  0  0  0
  2  3  1  0  0  0  0
  3  4  1  0  0  0  0
  3 25  1  0  0  0  0
  3 26  1  0  0  0  0
  4  5  1  0  0  0  0
  4 27  1  0  0  0  0
  4 28  1  0  0  0  0
  5 20  1  0  0  0  0
  5  6  1  0  0  0  0
  6  7  2  0  0  0  0
  7  8  1  0  0  0  0
  7 18  1  0  0  0  0
  8  9  2  0  0  0  0
  8 10  1  0  0  0  0
 10 11  1  0  0  0  0
 10 29  1  0  0  0  0
 11 17  1  0  0  0  0
 11 12  1  0  0  0  0
 11 30  1  0  0  0  0
 12 13  1  0  0  0  0
 12 31  1  0  0  0  0
 12 32  1  0  0  0  0
 13 14  1  0  0  0  0
 13 33  1  0  0  0  0
 13 34  1  0  0  0  0
 14 15  1  0  0  0  0
 14 35  1  0  0  0  0
 14 36  1  0  0  0  0
 15 16  1  0  0  0  0
 15 17  1  0  0  0  0
 15 37  1  0  0  0  0
 16 38  1  0  0  0  0
 16 39  1  0  0  0  0
 16 40  1  0  0  0  0
 17 41  1  0  0  0  0
 17 42  1  0  0  0  0
 18 19  2  0  0  0  0
 18 43  1  0  0  0  0
 19 20  1  0  0  0  0
 19 44  1  0  0  0  0
 20 21  2  0  0  0  0
M  END
> <s_m_source_file>
AV-unprocessed.smi

> <i_m_source_file_index>
1485

> <i_lp_mmshare_version>
43012

> <i_f3d_flags>
0

> <s_epik_input>
W0NIM11PW0NIMl1bQ0gyXW4xbmMoW2NIXVtjSF1jMT1PKUMoPU8pW05IXVtDQEBIXTJbQ0gyXVtDSDJdW0NIMl1bQ0BASF0oW0NIM10pW0NIMl0y

> <s_epik_cmdline>
J2VwaWtfcHl0aG9uJywgJy1waCcsICc3LjAnLCAnLXRuJywgJzgnLCAnLW1hJywgJzIwMCcsICctbWV0YWxfYmluZGluZycsICctaW1hZScsICc8aW5maWxlLm1hZT4nLCAnLW9tYWUnLCAnPG91dGZpbGUubWFlPic=

> <r_lp_tautomer_probability>
1

> <r_epik_Ionization_Penalty>
6.4688e-07

> <r_epik_Ionization_Penalty_Charging>
6.63567e-09

> <r_epik_Ionization_Penalty_Neutral>
6.40245e-07

> <r_epik_State_Penalty>
-0

> <r_epik_Charging_Adjusted_Penalty>
6.63567e-09

> <i_epik_Tot_Q>
0

> <i_epik_Tot_abs_Q>
0

> <r_epik_Metal_State_Penalty>
-0

> <b_epik_Metal_Only>
0

> <s_lp_Force_Field>
OPLS_2005

> <r_lp_Energy>
29.3151

> <b_lp_Chiralities_Consistent>
1

> <s_lp_Variant>
AV-unprocessed.smi:1485-1

> <Gold.Version>
5.8.1

> <Gold.Id.Protein>
6NUR|6NUR_protein|mol2

> <Gold.PLP.Fitness>
40.3398

> <Gold.PLP.PLP>
-34.7292

> <Gold.PLP.part.hbond>
-2.0000

> <Gold.PLP.part.metal>
0.0000

> <Gold.PLP.part.buried>
-1.2947

> <Gold.PLP.part.nonpolar>
-35.0569

> <Gold.PLP.part.repulsive>
3.6021

> <Gold.PLP.ligand.clash>
0.0000

> <Gold.PLP.ligand.torsion>
0.2499

> <Gold.PLP.Chemscore.Hbond>
2.0000

> <Gold.PLP.Chemscore.CHOScore>
0.0000

> <Gold.PLP.Chemscore.Metal>
0.0000

> <Gold.Chemscore.Hbonds>
donor molecule, donor type, donor heavy atom, donor atom, acceptor molecule, acceptor atom, score
      P1  H  7997  8010       L1     2  1.00
      P1  H 10752 10763       L1    21  1.00

> <Gold.PLP.Chemscore.Internal.Correction>
0.1104

> <Gold.Rescore>
     Score         DG    S(hbond)    S(metal)    S(lipo)     H(rot)  DE(clash)    DE(int)     intcor
     16.98     -21.41       1.77        0.00     119.39       1.55       4.00       0.43       ----

> <Gold.Chemscore.Fitness>
16.9772

> <Gold.Chemscore.DG>
-21.4142

> <Gold.Chemscore.ZeroCoef>
-5.4800

> <Gold.Chemscore.Hbond>
1.7746

> <Gold.Chemscore.Metal>
0.0000

> <Gold.Chemscore.Lipo>
119.3949

> <Gold.Chemscore.Internal_Hbond>
0.0000

> <Gold.Chemscore.DEClash>
4.0044

> <Gold.Chemscore.DEInternal>
0.4326

> <Gold.Chemscore.Rot>
1.5478

> <Gold.Chemscore.Internal.Correction>
   9.000000E+99

> <Gold.Chemscore.Hbonds>
donor molecule, donor type, donor heavy atom, donor atom, acceptor molecule, acceptor atom, score
      P1  H  7997  8010       L1     2  0.25
      P1  H 10752 10763       L1    21  0.96

> <Gold.Chemscore.Hbond.Weighted>
-5.9272

> <Gold.Chemscore.Metal.Weighted>
-0.0000

> <Gold.Chemscore.Lipo.Weighted>
-13.9692

> <Gold.Chemscore.Internal_Hbond.Weighted>
0.0000

> <Gold.Chemscore.DEClash.Weighted>
4.0044

> <Gold.Chemscore.DEInternal.Weighted>
0.4326

> <Gold.Chemscore.Rot.Weighted>
3.9623

> <Gold.Chemscore.Internal.Correction.Weighted>
   9.000000E+99

> <Gold.Protein.RotatedTorsions>
[ 6907 6896 6895 6894 ] final   30.07 input  -60.11 | X-H torsion
[ 7974 7965 7964 7962 ] final  -62.25 input  175.53 | X-H torsion
[ 8008 7997 7996 7995 ] final   22.70 input   59.86 | X-H torsion
[ 10167 10162 10161 10158 ] final   52.66 input  -65.29 | X-H torsion
[ 10718 10713 10712 10709 ] final -113.24 input   66.30 | X-H torsion
[ 10763 10752 10751 10750 ] final   30.29 input  -60.55 | X-H torsion
[ 11005 11000 10999 10996 ] final -169.45 input  -57.11 | X-H torsion

> <Gold.Protein.ActiveResidues>
 VAL166  LYS551  ARG553  GLY616  TRP617  ASP618  TYR619  PRO620  LYS621  CYS622 
 ASP623  PHE694  ASN695  SER759  ASP760  ASP761  ALA762  ILE779  LEU786  VAL792 
 PHE793  MET794  SER795  GLU796  ALA797  LYS798  CYS799  TRP800  GLU811  SER814 

> <Gold.Protein.RotatedAtoms>
  152.0407  134.9713  160.0573 H   0  0  0  0  0  0  0  0  0  0  0  0  # atno 6907 bound_to 6896
  152.1153  133.4318  159.4658 H   0  0  0  0  0  0  0  0  0  0  0  0  # atno 6908 bound_to 6896
  150.6846  134.2518  159.4557 H   0  0  0  0  0  0  0  0  0  0  0  0  # atno 6909 bound_to 6896
  145.7936  140.8695  143.0268 H   0  0  0  0  0  0  0  0  0  0  0  0  # atno 7974 bound_to 7965
  154.9697  140.3088  155.4993 H   0  0  0  0  0  0  0  0  0  0  0  0  # atno 8008 bound_to 7997
  156.2967  140.2286  156.4727 H   0  0  0  0  0  0  0  0  0  0  0  0  # atno 8009 bound_to 7997
  154.7888  140.0441  157.1173 H   0  0  0  0  0  0  0  0  0  0  0  0  # atno 8010 bound_to 7997
  140.2490  144.3500  150.6354 H   0  0  0  0  0  0  0  0  0  0  0  0  # atno 10167 bound_to 10162
  156.0755  130.5963  150.8616 H   0  0  0  0  0  0  0  0  0  0  0  0  # atno 10718 bound_to 10713
  153.0380  135.6468  154.1021 H   0  0  0  0  0  0  0  0  0  0  0  0  # atno 10763 bound_to 10752
  154.0733  135.2879  155.3306 H   0  0  0  0  0  0  0  0  0  0  0  0  # atno 10764 bound_to 10752
  154.6580  135.5402  153.8047 H   0  0  0  0  0  0  0  0  0  0  0  0  # atno 10765 bound_to 10752
  140.5306  134.5620  157.5074 H   0  0  0  0  0  0  0  0  0  0  0  0  # atno 11005 bound_to 11000
  144.6778  140.0159  143.7484 LP  0  0  0  0  0  0  0  0  0  0  0  0  # atno 17320 bound_to 7965
  145.9951  139.3046  143.0961 LP  0  0  0  0  0  0  0  0  0  0  0  0  # atno 17321 bound_to 7965
  140.6055  143.2167  151.6988 LP  0  0  0  0  0  0  0  0  0  0  0  0  # atno 17342 bound_to 10162
  139.5052  144.3725  152.0456 LP  0  0  0  0  0  0  0  0  0  0  0  0  # atno 17343 bound_to 10162
  157.5847  131.0946  150.9215 LP  0  0  0  0  0  0  0  0  0  0  0  0  # atno 17370 bound_to 10713
  156.9403  130.5382  149.5280 LP  0  0  0  0  0  0  0  0  0  0  0  0  # atno 17371 bound_to 10713
  139.9556  134.7541  156.0349 LP  0  0  0  0  0  0  0  0  0  0  0  0  # atno 17394 bound_to 11000
  141.1283  133.6593  156.3396 LP  0  0  0  0  0  0  0  0  0  0  0  0  # atno 17395 bound_to 11000

$$$$
