AV-unprocessed.smi:1511|AV-procd|sdf|6098|dock4
  -GOLD-   22720 6223D 1   1.00000     0.00000
 Structure written by MMmdl.
 32 33  0  0  0  0  0  0  0  0  1 V2000
  152.7066  140.2816  157.8482 O   0  0  0  0  0  0  0  0  0  0  0  0
  151.7549  140.7156  157.2000 C   0  0  0  0  0  0  0  0  0  0  0  0
  150.7703  141.6936  157.8450 C   0  0  0  0  0  0  0  0  0  0  0  0
  151.4641  142.8179  158.4514 N   0  0  0  0  0  0  0  0  0  0  0  0
  151.3505  144.1591  158.1491 C   0  0  0  0  0  0  0  0  0  0  0  0
  152.2113  144.8347  158.9660 C   0  0  0  0  0  0  0  0  0  0  0  0
  152.8134  143.8081  159.7457 C   0  0  0  0  0  0  0  0  0  0  0  0
  152.3637  142.6027  159.4365 N   0  0  0  0  0  0  0  0  0  0  0  0
  151.5238  140.3893  155.9186 N   0  0  0  0  0  0  0  0  0  0  0  0
  152.4073  139.5821  155.0859 C   0  0  0  0  0  0  0  0  0  0  0  0
  152.1959  138.0717  155.3165 C   0  0  2  0  0  0  0  0  0  0  0  0
  150.7756  137.5851  154.9562 C   0  0  0  0  0  0  0  0  0  0  0  0
  150.5998  136.1607  155.4891 C   0  0  0  0  0  0  0  0  0  0  0  0
  151.5513  136.1007  157.0518 S   0  0  0  0  0  0  0  0  0  0  0  0
  150.6383  136.2976  158.1878 O   0  0  0  0  0  0  0  0  0  0  0  0
  152.4719  134.9545  157.0100 O   0  0  0  0  0  0  0  0  0  0  0  0
  152.4854  137.6527  156.7667 C   0  0  0  0  0  0  0  0  0  0  0  0
  150.0759  142.0672  157.0914 H   0  0  0  0  0  0  0  0  0  0  0  0
  150.1775  141.1864  158.6079 H   0  0  0  0  0  0  0  0  0  0  0  0
  150.6777  144.5167  157.3836 H   0  0  0  0  0  0  0  0  0  0  0  0
  152.3846  145.8999  159.0010 H   0  0  0  0  0  0  0  0  0  0  0  0
  153.5595  143.9021  160.5206 H   0  0  0  0  0  0  0  0  0  0  0  0
  150.7095  140.7828  155.4698 H   0  0  0  0  0  0  0  0  0  0  0  0
  152.2571  139.8311  154.0341 H   0  0  0  0  0  0  0  0  0  0  0  0
  153.4353  139.8564  155.3246 H   0  0  0  0  0  0  0  0  0  0  0  0
  152.8924  137.5219  154.6816 H   0  0  0  0  0  0  0  0  0  0  0  0
  150.0416  138.2353  155.4336 H   0  0  0  0  0  0  0  0  0  0  0  0
  150.5888  137.6274  153.8824 H   0  0  0  0  0  0  0  0  0  0  0  0
  149.5583  135.8933  155.6676 H   0  0  0  0  0  0  0  0  0  0  0  0
  151.0354  135.4359  154.8009 H   0  0  0  0  0  0  0  0  0  0  0  0
  153.5468  137.4919  156.9559 H   0  0  0  0  0  0  0  0  0  0  0  0
  152.1170  138.3957  157.4743 H   0  0  0  0  0  0  0  0  0  0  0  0
  1  2  2  0  0  0  0
  2  3  1  0  0  0  0
  2  9  1  0  0  0  0
  3  4  1  0  0  0  0
  3 18  1  0  0  0  0
  3 19  1  0  0  0  0
  4  8  1  0  0  0  0
  4  5  1  0  0  0  0
  5  6  2  0  0  0  0
  5 20  1  0  0  0  0
  6  7  1  0  0  0  0
  6 21  1  0  0  0  0
  7  8  2  0  0  0  0
  7 22  1  0  0  0  0
  9 10  1  0  0  0  0
  9 23  1  0  0  0  0
 10 11  1  0  0  0  0
 10 24  1  0  0  0  0
 10 25  1  0  0  0  0
 11 17  1  0  0  0  0
 11 12  1  0  0  0  0
 11 26  1  0  0  0  0
 12 13  1  0  0  0  0
 12 27  1  0  0  0  0
 12 28  1  0  0  0  0
 13 14  1  0  0  0  0
 13 29  1  0  0  0  0
 13 30  1  0  0  0  0
 14 15  2  0  0  0  0
 14 16  2  0  0  0  0
 14 17  1  0  0  0  0
 17 31  1  0  0  0  0
 17 32  1  0  0  0  0
M  END
> <s_m_source_file>
AV-unprocessed.smi

> <i_m_source_file_index>
1511

> <i_lp_mmshare_version>
43012

> <i_f3d_flags>
0

> <s_epik_input>
bjFbY0hdW2NIXVtjSF1uMVtDSDJdQyg9TylbTkhdW0NIMl1bQ0BASF0oW0NIMl0yKVtDSDJdW0NIMl1TMig9Tyk9Tw==

> <s_epik_cmdline>
J2VwaWtfcHl0aG9uJywgJy1waCcsICc3LjAnLCAnLXRuJywgJzgnLCAnLW1hJywgJzIwMCcsICctbWV0YWxfYmluZGluZycsICctaW1hZScsICc8aW5maWxlLm1hZT4nLCAnLW9tYWUnLCAnPG91dGZpbGUubWFlPic=

> <r_lp_tautomer_probability>
1

> <r_epik_Ionization_Penalty>
1.34373e-05

> <r_epik_Ionization_Penalty_Charging>
0

> <r_epik_Ionization_Penalty_Neutral>
1.34373e-05

> <r_epik_State_Penalty>
-0

> <r_epik_Charging_Adjusted_Penalty>
0

> <i_epik_Tot_Q>
0

> <i_epik_Tot_abs_Q>
0

> <r_epik_Metal_State_Penalty>
-0

> <b_epik_Metal_Only>
0

> <s_lp_Force_Field>
OPLS_2005

> <r_lp_Energy>
3.80917

> <b_lp_Chiralities_Consistent>
1

> <s_lp_Variant>
AV-unprocessed.smi:1511-1

> <Gold.Version>
5.8.1

> <Gold.Id.Protein>
6NUR|6NUR_protein|mol2

> <Gold.PLP.Fitness>
42.8955

> <Gold.PLP.PLP>
-32.2371

> <Gold.PLP.part.hbond>
-3.7136

> <Gold.PLP.part.metal>
0.0000

> <Gold.PLP.part.buried>
-2.7575

> <Gold.PLP.part.nonpolar>
-26.7527

> <Gold.PLP.part.repulsive>
0.1537

> <Gold.PLP.ligand.clash>
0.0000

> <Gold.PLP.ligand.torsion>
0.2215

> <Gold.PLP.Chemscore.Hbond>
2.6960

> <Gold.PLP.Chemscore.CHOScore>
1.0000

> <Gold.PLP.Chemscore.Metal>
0.0000

> <Gold.Chemscore.Hbonds>
donor molecule, donor type, donor heavy atom, donor atom, acceptor molecule, acceptor atom, score
      P1  H  6896  6908       L1    15  0.70
      P1  H  7997  8008       L1     1  0.96
      P1  H 10752 10765       L1    16  1.00
      L1  C     5    20       P1  8028  1.00

> <Gold.PLP.Chemscore.Internal.Correction>
0.0135

> <Gold.Rescore>
     Score         DG    S(hbond)    S(metal)    S(lipo)     H(rot)  DE(clash)    DE(int)     intcor
     13.97     -17.55       2.40        0.00      74.31       1.82       0.65       2.93       ----

> <Gold.Chemscore.Fitness>
13.9688

> <Gold.Chemscore.DG>
-17.5487

> <Gold.Chemscore.ZeroCoef>
-5.4800

> <Gold.Chemscore.Hbond>
2.4038

> <Gold.Chemscore.Metal>
0.0000

> <Gold.Chemscore.Lipo>
74.3053

> <Gold.Chemscore.Internal_Hbond>
0.0000

> <Gold.Chemscore.DEClash>
0.6523

> <Gold.Chemscore.DEInternal>
2.9276

> <Gold.Chemscore.Rot>
1.8178

> <Gold.Chemscore.Internal.Correction>
   9.000000E+99

> <Gold.Chemscore.Hbonds>
donor molecule, donor type, donor heavy atom, donor atom, acceptor molecule, acceptor atom, score
      P1  H  6896  6908       L1    15  0.56
      P1  H  7997  8008       L1     1  0.81
      P1  H 10752 10765       L1    16  0.28

> <Gold.Chemscore.Hbond.Weighted>
-8.0286

> <Gold.Chemscore.Metal.Weighted>
-0.0000

> <Gold.Chemscore.Lipo.Weighted>
-8.6937

> <Gold.Chemscore.Internal_Hbond.Weighted>
0.0000

> <Gold.Chemscore.DEClash.Weighted>
0.6523

> <Gold.Chemscore.DEInternal.Weighted>
2.9276

> <Gold.Chemscore.Rot.Weighted>
4.6537

> <Gold.Chemscore.Internal.Correction.Weighted>
   9.000000E+99

> <Gold.Protein.RotatedTorsions>
[ 6907 6896 6895 6894 ] final -160.73 input  -60.11 | X-H torsion
[ 7974 7965 7964 7962 ] final -138.75 input  175.53 | X-H torsion
[ 8008 7997 7996 7995 ] final  -75.26 input   59.86 | X-H torsion
[ 10167 10162 10161 10158 ] final -141.85 input  -65.29 | X-H torsion
[ 10718 10713 10712 10709 ] final  -72.30 input   66.30 | X-H torsion
[ 10763 10752 10751 10750 ] final -123.28 input  -60.55 | X-H torsion
[ 11005 11000 10999 10996 ] final   24.52 input  -57.11 | X-H torsion

> <Gold.Protein.ActiveResidues>
 VAL166  LYS551  ARG553  GLY616  TRP617  ASP618  TYR619  PRO620  LYS621  CYS622 
 ASP623  PHE694  ASN695  SER759  ASP760  ASP761  ALA762  ILE779  LEU786  VAL792 
 PHE793  MET794  SER795  GLU796  ALA797  LYS798  CYS799  TRP800  GLU811  SER814 

> <Gold.Protein.RotatedAtoms>
  151.3536  133.3916  159.2682 H   0  0  0  0  0  0  0  0  0  0  0  0  # atno 6907 bound_to 6896
  150.9782  134.9143  159.7839 H   0  0  0  0  0  0  0  0  0  0  0  0  # atno 6908 bound_to 6896
  152.5208  134.3499  159.9299 H   0  0  0  0  0  0  0  0  0  0  0  0  # atno 6909 bound_to 6896
  144.8732  140.6399  143.5253 H   0  0  0  0  0  0  0  0  0  0  0  0  # atno 7974 bound_to 7965
  154.5402  140.0747  156.8496 H   0  0  0  0  0  0  0  0  0  0  0  0  # atno 8008 bound_to 7997
  155.3197  140.3395  155.4223 H   0  0  0  0  0  0  0  0  0  0  0  0  # atno 8009 bound_to 7997
  156.1867  140.1671  156.8159 H   0  0  0  0  0  0  0  0  0  0  0  0  # atno 8010 bound_to 7997
  139.8145  143.7657  152.2664 H   0  0  0  0  0  0  0  0  0  0  0  0  # atno 10167 bound_to 10162
  156.0326  130.4369  150.2572 H   0  0  0  0  0  0  0  0  0  0  0  0  # atno 10718 bound_to 10713
  154.8705  135.4103  154.2918 H   0  0  0  0  0  0  0  0  0  0  0  0  # atno 10763 bound_to 10752
  153.3792  135.7011  153.6583 H   0  0  0  0  0  0  0  0  0  0  0  0  # atno 10764 bound_to 10752
  153.5413  135.3647  155.2691 H   0  0  0  0  0  0  0  0  0  0  0  0  # atno 10765 bound_to 10752
  140.3578  134.2159  155.7674 H   0  0  0  0  0  0  0  0  0  0  0  0  # atno 11005 bound_to 11000
  145.4090  139.1583  143.4136 LP  0  0  0  0  0  0  0  0  0  0  0  0  # atno 17320 bound_to 7965
  146.2945  140.4193  142.8727 LP  0  0  0  0  0  0  0  0  0  0  0  0  # atno 17321 bound_to 7965
  139.7816  144.7442  151.0080 LP  0  0  0  0  0  0  0  0  0  0  0  0  # atno 17342 bound_to 10162
  140.7816  143.4536  151.0378 LP  0  0  0  0  0  0  0  0  0  0  0  0  # atno 17343 bound_to 10162
  157.0673  131.0107  151.3202 LP  0  0  0  0  0  0  0  0  0  0  0  0  # atno 17370 bound_to 10713
  157.5025  130.7889  149.7620 LP  0  0  0  0  0  0  0  0  0  0  0  0  # atno 17371 bound_to 10713
  141.1993  133.8014  157.0542 LP  0  0  0  0  0  0  0  0  0  0  0  0  # atno 17394 bound_to 11000
  140.0651  134.9733  157.1372 LP  0  0  0  0  0  0  0  0  0  0  0  0  # atno 17395 bound_to 11000

$$$$
