AV-unprocessed.smi:2944|AV-procd|sdf|11273|dock3
  -GOLD-   2272016163D 1   1.00000     0.00000
 Structure written by MMmdl.
 44 46  0  0  0  0  0  0  0  0  1 V2000
  149.3079  140.8944  154.7226 C   0  0  0  0  0  0  0  0  0  0  0  0
  150.6026  140.5551  155.1860 O   0  0  0  0  0  0  0  0  0  0  0  0
  150.7019  140.5930  156.6004 C   0  0  0  0  0  0  0  0  0  0  0  0
  152.1404  140.2653  157.0250 C   0  0  0  0  0  0  0  0  0  0  0  0
  152.5147  140.9454  158.2562 N   0  0  0  0  0  0  0  0  0  0  0  0
  153.3163  140.4860  159.2490 C   0  0  0  0  0  0  0  0  0  0  0  0
  154.0698  138.8847  159.1525 S   0  0  0  0  0  0  0  0  0  0  0  0
  153.0541  137.9573  160.3511 C   0  0  1  0  0  0  0  0  0  0  0  0
  151.6829  137.6465  159.7321 C   0  0  0  0  0  0  0  0  0  0  0  0
  153.7373  136.6462  160.8038 C   0  0  0  0  0  0  0  0  0  0  0  0
  154.0004  135.8167  159.9303 O   0  0  0  0  0  0  0  0  0  0  0  0
  154.0852  136.4202  162.1000 N   0  0  0  0  0  0  0  0  0  0  0  0
  153.6151  137.3099  163.1627 C   0  0  0  0  0  0  0  0  0  0  0  0
  154.1530  136.6869  164.4451 C   0  0  0  0  0  0  0  0  0  0  0  0
  154.9166  135.5746  163.9379 N   0  0  0  0  0  0  0  0  0  0  0  0
  154.8880  135.4541  162.6084 C   0  0  0  0  0  0  0  0  0  0  0  0
  155.5250  134.5937  162.0024 O   0  0  0  0  0  0  0  0  0  0  0  0
  153.4914  141.3233  160.2737 N   0  0  0  0  0  0  0  0  0  0  0  0
  152.7278  142.4159  159.9172 C   0  0  0  0  0  0  0  0  0  0  0  0
  152.4981  143.6356  160.5932 C   0  0  0  0  0  0  0  0  0  0  0  0
  151.6620  144.6191  160.0250 C   0  0  0  0  0  0  0  0  0  0  0  0
  151.0450  144.3970  158.7769 C   0  0  0  0  0  0  0  0  0  0  0  0
  151.2622  143.1888  158.0868 C   0  0  0  0  0  0  0  0  0  0  0  0
  152.0994  142.2112  158.6577 C   0  0  0  0  0  0  0  0  0  0  0  0
  149.2821  140.8363  153.6344 H   0  0  0  0  0  0  0  0  0  0  0  0
  149.0402  141.9113  155.0119 H   0  0  0  0  0  0  0  0  0  0  0  0
  148.5557  140.2086  155.1147 H   0  0  0  0  0  0  0  0  0  0  0  0
  150.4185  141.5803  156.9685 H   0  0  0  0  0  0  0  0  0  0  0  0
  150.0128  139.8718  157.0419 H   0  0  0  0  0  0  0  0  0  0  0  0
  152.2663  139.1903  157.1555 H   0  0  0  0  0  0  0  0  0  0  0  0
  152.8354  140.5590  156.2380 H   0  0  0  0  0  0  0  0  0  0  0  0
  152.9117  138.6494  161.1771 H   0  0  0  0  0  0  0  0  0  0  0  0
  151.0344  137.1298  160.4405 H   0  0  0  0  0  0  0  0  0  0  0  0
  151.7766  137.0172  158.8460 H   0  0  0  0  0  0  0  0  0  0  0  0
  151.1742  138.5637  159.4343 H   0  0  0  0  0  0  0  0  0  0  0  0
  154.0091  138.3184  163.0224 H   0  0  0  0  0  0  0  0  0  0  0  0
  152.5249  137.3639  163.1777 H   0  0  0  0  0  0  0  0  0  0  0  0
  154.7898  137.3742  165.0029 H   0  0  0  0  0  0  0  0  0  0  0  0
  153.3525  136.3331  165.0959 H   0  0  0  0  0  0  0  0  0  0  0  0
  155.4533  134.9692  164.5422 H   0  0  0  0  0  0  0  0  0  0  0  0
  152.9650  143.8142  161.5505 H   0  0  0  0  0  0  0  0  0  0  0  0
  151.4917  145.5475  160.5500 H   0  0  0  0  0  0  0  0  0  0  0  0
  150.4042  145.1544  158.3492 H   0  0  0  0  0  0  0  0  0  0  0  0
  150.7882  143.0151  157.1322 H   0  0  0  0  0  0  0  0  0  0  0  0
  1  2  1  0  0  0  0
  1 25  1  0  0  0  0
  1 26  1  0  0  0  0
  1 27  1  0  0  0  0
  2  3  1  0  0  0  0
  3  4  1  0  0  0  0
  3 28  1  0  0  0  0
  3 29  1  0  0  0  0
  4  5  1  0  0  0  0
  4 30  1  0  0  0  0
  4 31  1  0  0  0  0
  5 24  1  0  0  0  0
  5  6  1  0  0  0  0
  6  7  1  0  0  0  0
  6 18  2  0  0  0  0
  7  8  1  0  0  0  0
  8  9  1  0  0  0  0
  8 10  1  0  0  0  0
  8 32  1  0  0  0  0
  9 33  1  0  0  0  0
  9 34  1  0  0  0  0
  9 35  1  0  0  0  0
 10 11  2  0  0  0  0
 10 12  1  0  0  0  0
 12 16  1  0  0  0  0
 12 13  1  0  0  0  0
 13 14  1  0  0  0  0
 13 36  1  0  0  0  0
 13 37  1  0  0  0  0
 14 15  1  0  0  0  0
 14 38  1  0  0  0  0
 14 39  1  0  0  0  0
 15 16  1  0  0  0  0
 15 40  1  0  0  0  0
 16 17  2  0  0  0  0
 18 19  1  0  0  0  0
 19 24  2  0  0  0  0
 19 20  1  0  0  0  0
 20 21  2  0  0  0  0
 20 41  1  0  0  0  0
 21 22  1  0  0  0  0
 21 42  1  0  0  0  0
 22 23  2  0  0  0  0
 22 43  1  0  0  0  0
 23 24  1  0  0  0  0
 23 44  1  0  0  0  0
M  END
> <s_m_source_file>
AV-unprocessed.smi

> <i_m_source_file_index>
2944

> <i_lp_mmshare_version>
43012

> <i_f3d_flags>
0

> <s_epik_input>
W2NIXTFbY0hdW2NIXVtjSF1jKGMxMiluKFtDSDJdW0NIMl1PW0NIM10pYyhuMilTW0NASF0oW0NIM10pQyg9TylOM1tDSDJdW0NIMl1bTkhdQzM9Tw==

> <s_epik_cmdline>
J2VwaWtfcHl0aG9uJywgJy1waCcsICc3LjAnLCAnLXRuJywgJzgnLCAnLW1hJywgJzIwMCcsICctbWV0YWxfYmluZGluZycsICctaW1hZScsICc8aW5maWxlLm1hZT4nLCAnLW9tYWUnLCAnPG91dGZpbGUubWFlPic=

> <r_lp_tautomer_probability>
0.9999

> <r_epik_Ionization_Penalty>
0.0250226

> <r_epik_Ionization_Penalty_Charging>
0

> <r_epik_Ionization_Penalty_Neutral>
0.0250226

> <r_epik_State_Penalty>
0.0203222

> <r_epik_Charging_Adjusted_Penalty>
0.0203222

> <i_epik_Tot_Q>
0

> <i_epik_Tot_abs_Q>
0

> <r_epik_Metal_State_Penalty>
0.0194901

> <b_epik_Metal_Only>
0

> <s_lp_Force_Field>
OPLS_2005

> <r_lp_Energy>
41.7508

> <b_lp_Chiralities_Consistent>
1

> <s_lp_Variant>
AV-unprocessed.smi:2944-2

> <Gold.Version>
5.8.1

> <Gold.Id.Protein>
6NUR|6NUR_protein|mol2

> <Gold.PLP.Fitness>
51.9089

> <Gold.PLP.PLP>
-47.6046

> <Gold.PLP.part.hbond>
-2.0000

> <Gold.PLP.part.metal>
0.0000

> <Gold.PLP.part.buried>
-5.5723

> <Gold.PLP.part.nonpolar>
-40.7160

> <Gold.PLP.part.repulsive>
0.0662

> <Gold.PLP.ligand.clash>
0.0000

> <Gold.PLP.ligand.torsion>
0.9166

> <Gold.PLP.Chemscore.Hbond>
1.9760

> <Gold.PLP.Chemscore.CHOScore>
0.0000

> <Gold.PLP.Chemscore.Metal>
0.0000

> <Gold.Chemscore.Hbonds>
donor molecule, donor type, donor heavy atom, donor atom, acceptor molecule, acceptor atom, score
      P1  H  6896  6907       L1    11  1.00
      P1  H  7989  7998       L1     2  0.93

> <Gold.PLP.Chemscore.Internal.Correction>
0.2096

> <Gold.Rescore>
     Score         DG    S(hbond)    S(metal)    S(lipo)     H(rot)  DE(clash)    DE(int)     intcor
     16.76     -18.96       1.52        0.00     120.75       2.24       0.07       2.12       ----

> <Gold.Chemscore.Fitness>
16.7639

> <Gold.Chemscore.DG>
-18.9587

> <Gold.Chemscore.ZeroCoef>
-5.4800

> <Gold.Chemscore.Hbond>
1.5191

> <Gold.Chemscore.Metal>
0.0000

> <Gold.Chemscore.Lipo>
120.7547

> <Gold.Chemscore.Internal_Hbond>
0.0000

> <Gold.Chemscore.DEClash>
0.0730

> <Gold.Chemscore.DEInternal>
2.1218

> <Gold.Chemscore.Rot>
2.2357

> <Gold.Chemscore.Internal.Correction>
   9.000000E+99

> <Gold.Chemscore.Hbonds>
donor molecule, donor type, donor heavy atom, donor atom, acceptor molecule, acceptor atom, score
      P1  H  6896  6907       L1    11  0.50
      P1  H  7989  7998       L1     2  0.19

> <Gold.Chemscore.Hbond.Weighted>
-5.0738

> <Gold.Chemscore.Metal.Weighted>
-0.0000

> <Gold.Chemscore.Lipo.Weighted>
-14.1283

> <Gold.Chemscore.Internal_Hbond.Weighted>
0.0000

> <Gold.Chemscore.DEClash.Weighted>
0.0730

> <Gold.Chemscore.DEInternal.Weighted>
2.1218

> <Gold.Chemscore.Rot.Weighted>
5.7234

> <Gold.Chemscore.Internal.Correction.Weighted>
   9.000000E+99

> <Gold.Protein.RotatedTorsions>
[ 6907 6896 6895 6894 ] final   68.46 input  -60.11 | X-H torsion
[ 7974 7965 7964 7962 ] final   72.61 input  175.53 | X-H torsion
[ 8008 7997 7996 7995 ] final -126.12 input   59.86 | X-H torsion
[ 10167 10162 10161 10158 ] final  -59.19 input  -65.29 | X-H torsion
[ 10718 10713 10712 10709 ] final   99.71 input   66.30 | X-H torsion
[ 10763 10752 10751 10750 ] final -104.90 input  -60.55 | X-H torsion
[ 11005 11000 10999 10996 ] final   25.24 input  -57.11 | X-H torsion

> <Gold.Protein.ActiveResidues>
 VAL166  LYS551  ARG553  GLY616  TRP617  ASP618  TYR619  PRO620  LYS621  CYS622 
 ASP623  PHE694  ASN695  SER759  ASP760  ASP761  ALA762  ILE779  LEU786  VAL792 
 PHE793  MET794  SER795  GLU796  ALA797  LYS798  CYS799  TRP800  GLU811  SER814 

> <Gold.Protein.RotatedAtoms>
  152.4622  134.5159  159.9767 H   0  0  0  0  0  0  0  0  0  0  0  0  # atno 6907 bound_to 6896
  151.5205  133.3461  159.2908 H   0  0  0  0  0  0  0  0  0  0  0  0  # atno 6908 bound_to 6896
  150.8589  134.7965  159.7130 H   0  0  0  0  0  0  0  0  0  0  0  0  # atno 6909 bound_to 6896
  145.7512  139.2761  143.1430 H   0  0  0  0  0  0  0  0  0  0  0  0  # atno 7974 bound_to 7965
  155.2245  140.0423  157.2953 H   0  0  0  0  0  0  0  0  0  0  0  0  # atno 8008 bound_to 7997
  154.5928  140.2431  155.7868 H   0  0  0  0  0  0  0  0  0  0  0  0  # atno 8009 bound_to 7997
  156.2270  140.2951  156.0101 H   0  0  0  0  0  0  0  0  0  0  0  0  # atno 8010 bound_to 7997
  140.6151  143.2399  151.5617 H   0  0  0  0  0  0  0  0  0  0  0  0  # atno 10167 bound_to 10162
  157.6870  131.0677  150.4989 H   0  0  0  0  0  0  0  0  0  0  0  0  # atno 10718 bound_to 10713
  154.7910  135.4769  154.0053 H   0  0  0  0  0  0  0  0  0  0  0  0  # atno 10763 bound_to 10752
  153.1631  135.6812  153.8721 H   0  0  0  0  0  0  0  0  0  0  0  0  # atno 10764 bound_to 10752
  153.8328  135.3189  155.3398 H   0  0  0  0  0  0  0  0  0  0  0  0  # atno 10765 bound_to 10752
  140.3499  134.2240  155.7681 H   0  0  0  0  0  0  0  0  0  0  0  0  # atno 11005 bound_to 11000
  146.0354  140.8217  142.9855 LP  0  0  0  0  0  0  0  0  0  0  0  0  # atno 17320 bound_to 7965
  144.6849  140.2831  143.7289 LP  0  0  0  0  0  0  0  0  0  0  0  0  # atno 17321 bound_to 7965
  139.5392  144.2696  152.1315 LP  0  0  0  0  0  0  0  0  0  0  0  0  # atno 17342 bound_to 10162
  140.1903  144.4758  150.6482 LP  0  0  0  0  0  0  0  0  0  0  0  0  # atno 17343 bound_to 10162
  156.5312  130.4185  149.6201 LP  0  0  0  0  0  0  0  0  0  0  0  0  # atno 17370 bound_to 10713
  156.3068  130.7207  151.2091 LP  0  0  0  0  0  0  0  0  0  0  0  0  # atno 17371 bound_to 10713
  141.2015  133.7961  157.0438 LP  0  0  0  0  0  0  0  0  0  0  0  0  # atno 17394 bound_to 11000
  140.0711  134.9701  157.1469 LP  0  0  0  0  0  0  0  0  0  0  0  0  # atno 17395 bound_to 11000

$$$$
