AV-unprocessed.smi:2597|AV-procd|sdf|10177|dock3
  -GOLD-   2272014193D 1   1.00000     0.00000
 Structure written by MMmdl.
 30 31  0  0  0  0  0  0  0  0  1 V2000
  149.1546  142.9967  157.5739 N   0  0  0  0  0  0  0  0  0  0  0  0
  150.2720  142.9041  158.4973 C   0  0  2  0  0  0  0  0  0  0  0  0
  151.3543  143.9393  158.1296 C   0  0  0  0  0  0  0  0  0  0  0  0
  152.5548  143.8464  159.0849 C   0  0  0  0  0  0  0  0  0  0  0  0
  153.1318  142.4228  159.1393 C   0  0  0  0  0  0  0  0  0  0  0  0
  152.0511  141.3931  159.5183 C   0  0  0  0  0  0  0  0  0  0  0  0
  150.8063  141.4482  158.6040 C   0  0  2  0  0  0  0  0  0  0  0  0
  151.0346  140.7724  157.3241 N   0  0  0  0  0  0  0  0  0  0  0  0
  151.6098  139.5326  157.1268 C   0  0  0  0  0  0  0  0  0  0  0  0
  151.6097  139.3844  155.7694 C   0  0  0  0  0  0  0  0  0  0  0  0
  152.1001  138.2376  154.9404 C   0  0  0  0  0  0  0  0  0  0  0  0
  152.3527  137.1731  155.8319 O   0  0  0  0  0  0  0  0  0  0  0  0
  151.0539  140.5264  155.1978 N   0  0  0  0  0  0  0  0  0  0  0  0
  150.7187  141.3517  156.1383 N   0  0  0  0  0  0  0  0  0  0  0  0
  149.8827  143.1795  159.4783 H   0  0  0  0  0  0  0  0  0  0  0  0
  150.0288  140.8680  159.1034 H   0  0  0  0  0  0  0  0  0  0  0  0
  149.3419  143.7051  156.8787 H   0  0  0  0  0  0  0  0  0  0  0  0
  149.0471  142.1236  157.0779 H   0  0  0  0  0  0  0  0  0  0  0  0
  151.6907  143.8080  157.1017 H   0  0  0  0  0  0  0  0  0  0  0  0
  150.9345  144.9448  158.1780 H   0  0  0  0  0  0  0  0  0  0  0  0
  153.3293  144.5494  158.7766 H   0  0  0  0  0  0  0  0  0  0  0  0
  152.2449  144.1495  160.0859 H   0  0  0  0  0  0  0  0  0  0  0  0
  153.5795  142.1680  158.1793 H   0  0  0  0  0  0  0  0  0  0  0  0
  153.9432  142.3846  159.8666 H   0  0  0  0  0  0  0  0  0  0  0  0
  152.4756  140.3883  159.5175 H   0  0  0  0  0  0  0  0  0  0  0  0
  151.7383  141.5842  160.5456 H   0  0  0  0  0  0  0  0  0  0  0  0
  151.9485  138.8939  157.9286 H   0  0  0  0  0  0  0  0  0  0  0  0
  151.3614  137.9297  154.1995 H   0  0  0  0  0  0  0  0  0  0  0  0
  153.0170  138.4961  154.4098 H   0  0  0  0  0  0  0  0  0  0  0  0
  152.7430  137.5256  156.6167 H   0  0  0  0  0  0  0  0  0  0  0  0
  1  2  1  0  0  0  0
  1 17  1  0  0  0  0
  1 18  1  0  0  0  0
  2 15  1  0  0  0  0
  2  7  1  0  0  0  0
  2  3  1  0  0  0  0
  3  4  1  0  0  0  0
  3 19  1  0  0  0  0
  3 20  1  0  0  0  0
  4  5  1  0  0  0  0
  4 21  1  0  0  0  0
  4 22  1  0  0  0  0
  5  6  1  0  0  0  0
  5 23  1  0  0  0  0
  5 24  1  0  0  0  0
  6  7  1  0  0  0  0
  6 25  1  0  0  0  0
  6 26  1  0  0  0  0
  7 16  1  0  0  0  0
  7  8  1  0  0  0  0
  8 14  1  0  0  0  0
  8  9  1  0  0  0  0
  9 10  2  0  0  0  0
  9 27  1  0  0  0  0
 10 11  1  0  0  0  0
 10 13  1  0  0  0  0
 11 12  1  0  0  0  0
 11 28  1  0  0  0  0
 11 29  1  0  0  0  0
 12 30  1  0  0  0  0
 13 14  2  0  0  0  0
M  END
> <s_m_source_file>
AV-unprocessed.smi

> <i_m_source_file_index>
2597

> <i_lp_mmshare_version>
43012

> <i_f3d_flags>
0

> <s_epik_input>
W05IMl1bQ0BIXTFbQ0gyXVtDSDJdW0NIMl1bQ0gyXVtDQEhdMW4yW2NIXWMobm4yKVtDSDJdW09IXQ==

> <s_epik_cmdline>
J2VwaWtfcHl0aG9uJywgJy1waCcsICc3LjAnLCAnLXRuJywgJzgnLCAnLW1hJywgJzIwMCcsICctbWV0YWxfYmluZGluZycsICctaW1hZScsICc8aW5maWxlLm1hZT4nLCAnLW9tYWUnLCAnPG91dGZpbGUubWFlPic=

> <r_lp_tautomer_probability>
1

> <r_epik_Ionization_Penalty>
2.21303

> <r_epik_Ionization_Penalty_Charging>
0

> <r_epik_Ionization_Penalty_Neutral>
2.21303

> <r_epik_State_Penalty>
2.3573

> <r_epik_Charging_Adjusted_Penalty>
2.3573

> <i_epik_Tot_Q>
0

> <i_epik_Tot_abs_Q>
0

> <r_epik_Metal_State_Penalty>
2.35724

> <b_epik_Metal_Only>
0

> <s_lp_Force_Field>
OPLS_2005

> <r_lp_Energy>
16.7408

> <b_lp_Chiralities_Consistent>
1

> <s_lp_Variant>
AV-unprocessed.smi:2597-8

> <Gold.Version>
5.8.1

> <Gold.Id.Protein>
6NUR|6NUR_protein|mol2

> <Gold.PLP.Fitness>
36.6673

> <Gold.PLP.PLP>
-29.1693

> <Gold.PLP.part.hbond>
-3.4734

> <Gold.PLP.part.metal>
0.0000

> <Gold.PLP.part.buried>
-3.3588

> <Gold.PLP.part.nonpolar>
-22.7649

> <Gold.PLP.part.repulsive>
0.1205

> <Gold.PLP.ligand.clash>
0.0000

> <Gold.PLP.ligand.torsion>
0.2776

> <Gold.PLP.Chemscore.Hbond>
2.6640

> <Gold.PLP.Chemscore.CHOScore>
0.0000

> <Gold.PLP.Chemscore.Metal>
0.0000

> <Gold.Chemscore.Hbonds>
donor molecule, donor type, donor heavy atom, donor atom, acceptor molecule, acceptor atom, score
      L1  H     1    17       P1  8028  1.00
      P1  H  7989  7998       L1    13  0.96
      P1  H 10752 10765       L1    12  0.83

> <Gold.PLP.Chemscore.Internal.Correction>
0.0612

> <Gold.Rescore>
     Score         DG    S(hbond)    S(metal)    S(lipo)     H(rot)  DE(clash)    DE(int)     intcor
     15.78     -17.57       2.38        0.00      75.31       1.82       0.05       1.74       ----

> <Gold.Chemscore.Fitness>
15.7837

> <Gold.Chemscore.DG>
-17.5698

> <Gold.Chemscore.ZeroCoef>
-5.4800

> <Gold.Chemscore.Hbond>
2.3784

> <Gold.Chemscore.Metal>
0.0000

> <Gold.Chemscore.Lipo>
75.3071

> <Gold.Chemscore.Internal_Hbond>
0.0000

> <Gold.Chemscore.DEClash>
0.0451

> <Gold.Chemscore.DEInternal>
1.7410

> <Gold.Chemscore.Rot>
1.8222

> <Gold.Chemscore.Internal.Correction>
   9.000000E+99

> <Gold.Chemscore.Hbonds>
donor molecule, donor type, donor heavy atom, donor atom, acceptor molecule, acceptor atom, score
      L1  H     1    17       P1  8028  0.82
      P1  H  7989  7998       L1    13  0.84
      P1  H 10752 10765       L1    12  0.65

> <Gold.Chemscore.Hbond.Weighted>
-7.9438

> <Gold.Chemscore.Metal.Weighted>
-0.0000

> <Gold.Chemscore.Lipo.Weighted>
-8.8109

> <Gold.Chemscore.Internal_Hbond.Weighted>
0.0000

> <Gold.Chemscore.DEClash.Weighted>
0.0451

> <Gold.Chemscore.DEInternal.Weighted>
1.7410

> <Gold.Chemscore.Rot.Weighted>
4.6649

> <Gold.Chemscore.Internal.Correction.Weighted>
   9.000000E+99

> <Gold.Protein.RotatedTorsions>
[ 6907 6896 6895 6894 ] final   -4.30 input  -60.11 | X-H torsion
[ 7974 7965 7964 7962 ] final  111.03 input  175.53 | X-H torsion
[ 8008 7997 7996 7995 ] final  -24.45 input   59.86 | X-H torsion
[ 10167 10162 10161 10158 ] final   26.24 input  -65.29 | X-H torsion
[ 10718 10713 10712 10709 ] final -100.76 input   66.30 | X-H torsion
[ 10763 10752 10751 10750 ] final -162.62 input  -60.55 | X-H torsion
[ 11005 11000 10999 10996 ] final  116.18 input  -57.11 | X-H torsion

> <Gold.Protein.ActiveResidues>
 VAL166  LYS551  ARG553  GLY616  TRP617  ASP618  TYR619  PRO620  LYS621  CYS622 
 ASP623  PHE694  ASN695  SER759  ASP760  ASP761  ALA762  ILE779  LEU786  VAL792 
 PHE793  MET794  SER795  GLU796  ALA797  LYS798  CYS799  TRP800  GLU811  SER814 

> <Gold.Protein.RotatedAtoms>
  151.4999  135.1061  159.9825 H   0  0  0  0  0  0  0  0  0  0  0  0  # atno 6907 bound_to 6896
  152.4706  133.8017  159.6967 H   0  0  0  0  0  0  0  0  0  0  0  0  # atno 6908 bound_to 6896
  150.8713  133.7438  159.2986 H   0  0  0  0  0  0  0  0  0  0  0  0  # atno 6909 bound_to 6896
  145.2474  139.2754  143.4086 H   0  0  0  0  0  0  0  0  0  0  0  0  # atno 7974 bound_to 7965
  154.4528  140.1953  156.0466 H   0  0  0  0  0  0  0  0  0  0  0  0  # atno 8008 bound_to 7997
  156.0685  140.3287  155.7519 H   0  0  0  0  0  0  0  0  0  0  0  0  # atno 8009 bound_to 7997
  155.5301  140.0577  157.2881 H   0  0  0  0  0  0  0  0  0  0  0  0  # atno 8010 bound_to 7997
  140.5039  144.0269  150.6344 H   0  0  0  0  0  0  0  0  0  0  0  0  # atno 10167 bound_to 10162
  156.0173  130.5342  150.6864 H   0  0  0  0  0  0  0  0  0  0  0  0  # atno 10718 bound_to 10713
  154.7198  135.3023  154.9066 H   0  0  0  0  0  0  0  0  0  0  0  0  # atno 10763 bound_to 10752
  153.9942  135.6715  153.4759 H   0  0  0  0  0  0  0  0  0  0  0  0  # atno 10764 bound_to 10752
  153.0824  135.5002  154.8446 H   0  0  0  0  0  0  0  0  0  0  0  0  # atno 10765 bound_to 10752
  139.9033  134.9594  156.7158 H   0  0  0  0  0  0  0  0  0  0  0  0  # atno 11005 bound_to 11000
  146.3312  140.2854  142.8612 LP  0  0  0  0  0  0  0  0  0  0  0  0  # atno 17320 bound_to 7965
  144.9534  140.8202  143.5558 LP  0  0  0  0  0  0  0  0  0  0  0  0  # atno 17321 bound_to 7965
  140.3573  143.2928  152.0422 LP  0  0  0  0  0  0  0  0  0  0  0  0  # atno 17342 bound_to 10162
  139.4879  144.6329  151.7034 LP  0  0  0  0  0  0  0  0  0  0  0  0  # atno 17343 bound_to 10162
  157.4555  131.0877  151.0801 LP  0  0  0  0  0  0  0  0  0  0  0  0  # atno 17370 bound_to 10713
  157.1304  130.6099  149.5528 LP  0  0  0  0  0  0  0  0  0  0  0  0  # atno 17371 bound_to 10713
  140.7039  133.9282  155.8042 LP  0  0  0  0  0  0  0  0  0  0  0  0  # atno 17394 bound_to 11000
  141.0351  134.0701  157.3969 LP  0  0  0  0  0  0  0  0  0  0  0  0  # atno 17395 bound_to 11000

$$$$
