AV-unprocessed.smi:3286|AV-procd|sdf|12589|dock10
  -GOLD-   2272018513D 1   1.00000     0.00000
 Structure written by MMmdl.
 43 44  0  0  0  0  0  0  0  0  2 V2000
  150.5389  141.3308  156.4985 C   0  0  0  0  0  0  0  0  0  0  0  0
  149.6044  140.7806  155.4416 C   0  0  0  0  0  0  0  0  0  0  0  0
  148.4034  141.4463  155.1173 C   0  0  0  0  0  0  0  0  0  0  0  0
  147.5727  140.8873  154.1274 C   0  0  0  0  0  0  0  0  0  0  0  0
  147.9725  139.6882  153.5018 C   0  0  0  0  0  0  0  0  0  0  0  0
  147.1180  139.0476  152.4263 C   0  0  0  0  0  0  0  0  0  0  0  0
  146.1990  137.9585  152.9941 C   0  0  0  0  0  0  0  0  0  0  0  0
  146.2105  136.7555  152.1377 N   0  3  0  0  0  0  0  0  0  0  0  0
  145.0564  135.8468  152.3266 C   0  0  1  0  0  0  0  0  0  0  0  0
  143.7689  136.6882  152.2982 C   0  0  0  0  0  0  0  0  0  0  0  0
  145.0755  134.7230  151.2568 C   0  0  0  0  0  0  0  0  0  0  0  0
  143.8299  133.8144  151.3183 C   0  0  0  0  0  0  0  0  0  0  0  0
  143.9275  132.6586  150.3088 C   0  0  0  0  0  0  0  0  0  0  0  0
  145.1109  131.9056  150.5414 O   0  0  0  0  0  0  0  0  0  0  0  0
  146.2931  132.6745  150.3632 C   0  0  0  0  0  0  0  0  0  0  0  0
  146.3246  133.8243  151.3824 C   0  0  0  0  0  0  0  0  0  0  0  0
  149.1927  139.1023  153.9001 C   0  0  0  0  0  0  0  0  0  0  0  0
  149.9960  139.6322  154.8468 N   0  0  0  0  0  0  0  0  0  0  0  0
  150.1490  142.2524  156.9317 H   0  0  0  0  0  0  0  0  0  0  0  0
  151.5163  141.5452  156.0657 H   0  0  0  0  0  0  0  0  0  0  0  0
  150.6704  140.6062  157.3025 H   0  0  0  0  0  0  0  0  0  0  0  0
  148.1228  142.3634  155.6144 H   0  0  0  0  0  0  0  0  0  0  0  0
  146.6472  141.3728  153.8543 H   0  0  0  0  0  0  0  0  0  0  0  0
  146.5251  139.8221  151.9376 H   0  0  0  0  0  0  0  0  0  0  0  0
  147.7699  138.6276  151.6590 H   0  0  0  0  0  0  0  0  0  0  0  0
  146.5215  137.6879  154.0005 H   0  0  0  0  0  0  0  0  0  0  0  0
  145.1771  138.3331  153.0707 H   0  0  0  0  0  0  0  0  0  0  0  0
  146.2264  137.0529  151.1727 H   0  0  0  0  0  0  0  0  0  0  0  0
  145.1218  135.3838  153.3130 H   0  0  0  0  0  0  0  0  0  0  0  0
  142.8932  136.0998  152.5711 H   0  0  0  0  0  0  0  0  0  0  0  0
  143.5935  137.1149  151.3098 H   0  0  0  0  0  0  0  0  0  0  0  0
  143.8260  137.5129  153.0097 H   0  0  0  0  0  0  0  0  0  0  0  0
  145.0957  135.1915  150.2712 H   0  0  0  0  0  0  0  0  0  0  0  0
  143.7158  133.4078  152.3241 H   0  0  0  0  0  0  0  0  0  0  0  0
  142.9248  134.3828  151.1054 H   0  0  0  0  0  0  0  0  0  0  0  0
  143.0662  131.9981  150.4120 H   0  0  0  0  0  0  0  0  0  0  0  0
  143.9177  133.0347  149.2846 H   0  0  0  0  0  0  0  0  0  0  0  0
  147.1584  132.0261  150.5040 H   0  0  0  0  0  0  0  0  0  0  0  0
  146.3444  133.0556  149.3419 H   0  0  0  0  0  0  0  0  0  0  0  0
  147.2357  134.4037  151.2325 H   0  0  0  0  0  0  0  0  0  0  0  0
  146.3825  133.4088  152.3894 H   0  0  0  0  0  0  0  0  0  0  0  0
  149.5365  138.1853  153.4444 H   0  0  0  0  0  0  0  0  0  0  0  0
  147.0560  136.2357  152.3252 H   0  0  0  0  0  0  0  0  0  0  0  0
  1  2  1  0  0  0  0
  1 19  1  0  0  0  0
  1 20  1  0  0  0  0
  1 21  1  0  0  0  0
  2 18  1  0  0  0  0
  2  3  2  0  0  0  0
  3  4  1  0  0  0  0
  3 22  1  0  0  0  0
  4  5  2  0  0  0  0
  4 23  1  0  0  0  0
  5  6  1  0  0  0  0
  5 17  1  0  0  0  0
  6  7  1  0  0  0  0
  6 24  1  0  0  0  0
  6 25  1  0  0  0  0
  7  8  1  0  0  0  0
  7 26  1  0  0  0  0
  7 27  1  0  0  0  0
  8  9  1  0  0  0  0
  8 28  1  0  0  0  0
  8 43  1  0  0  0  0
  9 10  1  0  0  0  0
  9 11  1  0  0  0  0
  9 29  1  0  0  0  0
 10 30  1  0  0  0  0
 10 31  1  0  0  0  0
 10 32  1  0  0  0  0
 11 16  1  0  0  0  0
 11 12  1  0  0  0  0
 11 33  1  0  0  0  0
 12 13  1  0  0  0  0
 12 34  1  0  0  0  0
 12 35  1  0  0  0  0
 13 14  1  0  0  0  0
 13 36  1  0  0  0  0
 13 37  1  0  0  0  0
 14 15  1  0  0  0  0
 15 16  1  0  0  0  0
 15 38  1  0  0  0  0
 15 39  1  0  0  0  0
 16 40  1  0  0  0  0
 16 41  1  0  0  0  0
 17 18  2  0  0  0  0
 17 42  1  0  0  0  0
M  CHG  1   8   1
M  END
> <s_m_source_file>
AV-unprocessed.smi

> <i_m_source_file_index>
3286

> <i_lp_mmshare_version>
43012

> <i_f3d_flags>
0

> <s_epik_input>
W0NIM11jMVtjSF1bY0hdYyhbY0hdbjEpW0NIMl1bQ0gyXVtOSF1bQ0BIXShbQ0gzXSlbQ0hdMltDSDJdW0NIMl1PW0NIMl1bQ0gyXTI=

> <s_epik_cmdline>
J2VwaWtfcHl0aG9uJywgJy1waCcsICc3LjAnLCAnLXRuJywgJzgnLCAnLW1hJywgJzIwMCcsICctbWV0YWxfYmluZGluZycsICctaW1hZScsICc8aW5maWxlLm1hZT4nLCAnLW9tYWUnLCAnPG91dGZpbGUubWFlPic=

> <r_lp_tautomer_probability>
1

> <r_epik_Ionization_Penalty>
0.00336271

> <r_epik_Ionization_Penalty_Charging>
0.000752246

> <r_epik_Ionization_Penalty_Neutral>
0.00261046

> <r_epik_State_Penalty>
-0

> <r_epik_Charging_Adjusted_Penalty>
0.000752246

> <i_epik_Tot_Q>
1

> <i_epik_Tot_abs_Q>
1

> <r_epik_Metal_State_Penalty>
-0

> <b_epik_Metal_Only>
0

> <s_lp_Force_Field>
OPLS_2005

> <r_lp_Energy>
16.504

> <b_lp_Chiralities_Consistent>
1

> <s_lp_Variant>
AV-unprocessed.smi:3286-2

> <Gold.Version>
5.8.1

> <Gold.Id.Protein>
6NUR|6NUR_protein|mol2

> <Gold.PLP.Fitness>
44.1188

> <Gold.PLP.PLP>
-34.5657

> <Gold.PLP.part.hbond>
-2.0000

> <Gold.PLP.part.metal>
0.0000

> <Gold.PLP.part.buried>
2.9018

> <Gold.PLP.part.nonpolar>
-36.0077

> <Gold.PLP.part.repulsive>
0.2740

> <Gold.PLP.ligand.clash>
0.0000

> <Gold.PLP.ligand.torsion>
0.8261

> <Gold.PLP.Chemscore.Hbond>
2.6650

> <Gold.PLP.Chemscore.CHOScore>
1.0577

> <Gold.PLP.Chemscore.Metal>
0.0000

> <Gold.Chemscore.Hbonds>
donor molecule, donor type, donor heavy atom, donor atom, acceptor molecule, acceptor atom, score
      L1  H     8    43       P1  7948  1.60
      L1  C    17    42       P1  7948  0.96

> <Gold.PLP.Chemscore.Internal.Correction>
0.0372

> <Gold.Rescore>
     Score         DG    S(hbond)    S(metal)    S(lipo)     H(rot)  DE(clash)    DE(int)     intcor
     14.75     -15.66       0.97        0.00      90.69       1.43       0.34       0.57       ----

> <Gold.Chemscore.Fitness>
14.7503

> <Gold.Chemscore.DG>
-15.6569

> <Gold.Chemscore.ZeroCoef>
-5.4800

> <Gold.Chemscore.Hbond>
0.9673

> <Gold.Chemscore.Metal>
0.0000

> <Gold.Chemscore.Lipo>
90.6944

> <Gold.Chemscore.Internal_Hbond>
0.0000

> <Gold.Chemscore.DEClash>
0.3413

> <Gold.Chemscore.DEInternal>
0.5652

> <Gold.Chemscore.Rot>
1.4317

> <Gold.Chemscore.Internal.Correction>
   9.000000E+99

> <Gold.Chemscore.Hbonds>
donor molecule, donor type, donor heavy atom, donor atom, acceptor molecule, acceptor atom, score
      L1  H     8    43       P1  7948  0.79

> <Gold.Chemscore.Hbond.Weighted>
-3.2307

> <Gold.Chemscore.Metal.Weighted>
-0.0000

> <Gold.Chemscore.Lipo.Weighted>
-10.6112

> <Gold.Chemscore.Internal_Hbond.Weighted>
0.0000

> <Gold.Chemscore.DEClash.Weighted>
0.3413

> <Gold.Chemscore.DEInternal.Weighted>
0.5652

> <Gold.Chemscore.Rot.Weighted>
3.6651

> <Gold.Chemscore.Internal.Correction.Weighted>
   9.000000E+99

> <Gold.Protein.RotatedTorsions>
[ 6907 6896 6895 6894 ] final  -71.25 input  -60.11 | X-H torsion
[ 7974 7965 7964 7962 ] final  101.16 input  175.53 | X-H torsion
[ 8008 7997 7996 7995 ] final    7.79 input   59.86 | X-H torsion
[ 10167 10162 10161 10158 ] final  -39.41 input  -65.29 | X-H torsion
[ 10718 10713 10712 10709 ] final  139.90 input   66.30 | X-H torsion
[ 10763 10752 10751 10750 ] final   39.05 input  -60.55 | X-H torsion
[ 11005 11000 10999 10996 ] final  -20.62 input  -57.11 | X-H torsion

> <Gold.Protein.ActiveResidues>
 VAL166  LYS551  ARG553  GLY616  TRP617  ASP618  TYR619  PRO620  LYS621  CYS622 
 ASP623  PHE694  ASN695  SER759  ASP760  ASP761  ALA762  ILE779  LEU786  VAL792 
 PHE793  MET794  SER795  GLU796  ALA797  LYS798  CYS799  TRP800  GLU811  SER814 

> <Gold.Protein.RotatedAtoms>
  150.7221  134.5336  159.5712 H   0  0  0  0  0  0  0  0  0  0  0  0  # atno 6907 bound_to 6896
  152.2863  134.7769  160.0396 H   0  0  0  0  0  0  0  0  0  0  0  0  # atno 6908 bound_to 6896
  151.8398  133.3386  159.3676 H   0  0  0  0  0  0  0  0  0  0  0  0  # atno 6909 bound_to 6896
  145.3760  139.2389  143.3429 H   0  0  0  0  0  0  0  0  0  0  0  0  # atno 7974 bound_to 7965
  154.7584  140.2780  155.6234 H   0  0  0  0  0  0  0  0  0  0  0  0  # atno 8008 bound_to 7997
  156.2910  140.2664  156.2283 H   0  0  0  0  0  0  0  0  0  0  0  0  # atno 8009 bound_to 7997
  155.0048  140.0372  157.2365 H   0  0  0  0  0  0  0  0  0  0  0  0  # atno 8010 bound_to 7997
  140.7065  143.3216  151.2778 H   0  0  0  0  0  0  0  0  0  0  0  0  # atno 10167 bound_to 10162
  157.4093  131.1026  151.0471 H   0  0  0  0  0  0  0  0  0  0  0  0  # atno 10718 bound_to 10713
  152.9980  135.6232  154.2403 H   0  0  0  0  0  0  0  0  0  0  0  0  # atno 10763 bound_to 10752
  154.2144  135.2798  155.2949 H   0  0  0  0  0  0  0  0  0  0  0  0  # atno 10764 bound_to 10752
  154.5580  135.5713  153.7040 H   0  0  0  0  0  0  0  0  0  0  0  0  # atno 10765 bound_to 10752
  140.8482  133.7876  155.9936 H   0  0  0  0  0  0  0  0  0  0  0  0  # atno 11005 bound_to 11000
  146.2864  140.4420  142.8756 LP  0  0  0  0  0  0  0  0  0  0  0  0  # atno 17320 bound_to 7965
  144.8542  140.7045  143.6149 LP  0  0  0  0  0  0  0  0  0  0  0  0  # atno 17321 bound_to 7965
  139.6672  144.0084  152.2730 LP  0  0  0  0  0  0  0  0  0  0  0  0  # atno 17342 bound_to 10162
  139.9671  144.6519  150.8024 LP  0  0  0  0  0  0  0  0  0  0  0  0  # atno 17343 bound_to 10162
  157.1441  130.6156  149.5563 LP  0  0  0  0  0  0  0  0  0  0  0  0  # atno 17370 bound_to 10713
  155.9846  130.4871  150.6990 LP  0  0  0  0  0  0  0  0  0  0  0  0  # atno 17371 bound_to 10713
  140.8820  134.2600  157.5139 LP  0  0  0  0  0  0  0  0  0  0  0  0  # atno 17394 bound_to 11000
  139.8704  134.9620  156.4413 LP  0  0  0  0  0  0  0  0  0  0  0  0  # atno 17395 bound_to 11000

$$$$
