AV-unprocessed.smi:245|AV-procd|sdf|1878|dock9
  -GOLD-   2262020523D 1   1.00000     0.00000
 Structure written by MMmdl.
 54 58  0  0  0  0  0  0  0  0  1 V2000
  154.8895  139.9423  160.8930 O   0  0  0  0  0  0  0  0  0  0  0  0
  153.9942  140.5878  160.3532 C   0  0  0  0  0  0  0  0  0  0  0  0
  153.2644  139.9971  159.1338 C   0  0  0  0  0  0  0  0  0  0  0  0
  152.2380  140.8638  158.5296 N   0  0  0  0  0  0  0  0  0  0  0  0
  151.9005  140.4142  157.2970 C   0  0  0  0  0  0  0  0  0  0  0  0
  152.8210  139.7765  156.5260 N   0  0  0  0  0  0  0  0  0  0  0  0
  152.4764  139.3103  155.3217 C   0  0  0  0  0  0  0  0  0  0  0  0
  151.2887  139.3627  154.7143 N   0  0  0  0  0  0  0  0  0  0  0  0
  150.3604  139.9889  155.4936 C   0  0  0  0  0  0  0  0  0  0  0  0
  150.5817  140.5413  156.7856 C   0  0  0  0  0  0  0  0  0  0  0  0
  149.4109  141.1109  157.2689 N   0  0  0  0  0  0  0  0  0  0  0  0
  148.5456  140.9124  156.3119 C   0  0  0  0  0  0  0  0  0  0  0  0
  149.0241  140.2222  155.2199 N   0  0  0  0  0  0  0  0  0  0  0  0
  148.3087  139.8959  154.0214 C   0  0  0  0  0  0  0  0  0  0  0  0
  146.7793  139.9404  153.9619 C   0  0  0  0  0  0  0  0  0  0  0  0
  146.7935  138.7718  152.9498 C   0  0  0  0  0  0  0  0  0  0  0  0
  145.6864  137.7255  153.1697 C   0  0  0  0  0  0  0  0  0  0  0  0
  144.4224  138.1961  152.7495 O   0  0  0  0  0  0  0  0  0  0  0  0
  146.7811  139.2242  151.4742 C   0  0  0  0  0  0  0  0  0  0  0  0
  146.6459  138.1375  150.5820 O   0  0  0  0  0  0  0  0  0  0  0  0
  148.1768  138.4444  153.5584 C   0  0  0  0  0  0  0  0  0  0  0  0
  152.3594  142.3131  158.7303 C   0  0  1  0  0  0  0  0  0  0  0  0
  151.1386  143.1209  158.2222 C   0  0  0  0  0  0  0  0  0  0  0  0
  151.3230  144.6265  158.4803 C   0  0  0  0  0  0  0  0  0  0  0  0
  151.5864  144.9184  159.9660 C   0  0  0  0  0  0  0  0  0  0  0  0
  152.7725  144.0972  160.4959 C   0  0  0  0  0  0  0  0  0  0  0  0
  152.5534  142.5969  160.2366 C   0  0  2  0  0  0  0  0  0  0  0  0
  153.6465  141.8079  160.7902 N   0  0  0  0  0  0  0  0  0  0  0  0
  154.0227  139.7390  158.3916 H   0  0  0  0  0  0  0  0  0  0  0  0
  152.7968  139.0618  159.4440 H   0  0  0  0  0  0  0  0  0  0  0  0
  153.2637  138.8223  154.7663 H   0  0  0  0  0  0  0  0  0  0  0  0
  147.5260  141.2622  156.3830 H   0  0  0  0  0  0  0  0  0  0  0  0
  148.7452  140.5124  153.2338 H   0  0  0  0  0  0  0  0  0  0  0  0
  146.3170  139.6761  154.9148 H   0  0  0  0  0  0  0  0  0  0  0  0
  146.3704  140.8761  153.5791 H   0  0  0  0  0  0  0  0  0  0  0  0
  145.8960  136.8155  152.6067 H   0  0  0  0  0  0  0  0  0  0  0  0
  145.6231  137.4286  154.2170 H   0  0  0  0  0  0  0  0  0  0  0  0
  144.5378  139.0337  152.3279 H   0  0  0  0  0  0  0  0  0  0  0  0
  145.9736  139.9323  151.2867 H   0  0  0  0  0  0  0  0  0  0  0  0
  147.7029  139.7452  151.2150 H   0  0  0  0  0  0  0  0  0  0  0  0
  145.7973  138.1898  150.1699 H   0  0  0  0  0  0  0  0  0  0  0  0
  148.9364  138.1293  152.8425 H   0  0  0  0  0  0  0  0  0  0  0  0
  148.1172  137.7446  154.3944 H   0  0  0  0  0  0  0  0  0  0  0  0
  153.2491  142.6510  158.1943 H   0  0  0  0  0  0  0  0  0  0  0  0
  150.9785  142.9724  157.1550 H   0  0  0  0  0  0  0  0  0  0  0  0
  150.2319  142.7723  158.7187 H   0  0  0  0  0  0  0  0  0  0  0  0
  152.1572  144.9972  157.8833 H   0  0  0  0  0  0  0  0  0  0  0  0
  150.4394  145.1716  158.1467 H   0  0  0  0  0  0  0  0  0  0  0  0
  151.7759  145.9826  160.1091 H   0  0  0  0  0  0  0  0  0  0  0  0
  150.6931  144.6832  160.5461 H   0  0  0  0  0  0  0  0  0  0  0  0
  153.6936  144.4277  160.0136 H   0  0  0  0  0  0  0  0  0  0  0  0
  152.8967  144.2811  161.5638 H   0  0  0  0  0  0  0  0  0  0  0  0
  151.6531  142.2860  160.7700 H   0  0  0  0  0  0  0  0  0  0  0  0
  154.1435  142.1935  161.5801 H   0  0  0  0  0  0  0  0  0  0  0  0
  1  2  2  0  0  0  0
  2 28  1  0  0  0  0
  2  3  1  0  0  0  0
  3  4  1  0  0  0  0
  3 29  1  0  0  0  0
  3 30  1  0  0  0  0
  4  5  1  0  0  0  0
  4 22  1  0  0  0  0
  5 10  1  0  0  0  0
  5  6  2  0  0  0  0
  6  7  1  0  0  0  0
  7  8  2  0  0  0  0
  7 31  1  0  0  0  0
  8  9  1  0  0  0  0
  9 13  1  0  0  0  0
  9 10  2  0  0  0  0
 10 11  1  0  0  0  0
 11 12  2  0  0  0  0
 12 13  1  0  0  0  0
 12 32  1  0  0  0  0
 13 14  1  0  0  0  0
 14 21  1  0  0  0  0
 14 15  1  0  0  0  0
 14 33  1  0  0  0  0
 15 16  1  0  0  0  0
 15 34  1  0  0  0  0
 15 35  1  0  0  0  0
 16 17  1  0  0  0  0
 16 19  1  0  0  0  0
 16 21  1  0  0  0  0
 17 18  1  0  0  0  0
 17 36  1  0  0  0  0
 17 37  1  0  0  0  0
 18 38  1  0  0  0  0
 19 20  1  0  0  0  0
 19 39  1  0  0  0  0
 19 40  1  0  0  0  0
 20 41  1  0  0  0  0
 21 42  1  0  0  0  0
 21 43  1  0  0  0  0
 22 27  1  0  0  0  0
 22 23  1  0  0  0  0
 22 44  1  0  0  0  0
 23 24  1  0  0  0  0
 23 45  1  0  0  0  0
 23 46  1  0  0  0  0
 24 25  1  0  0  0  0
 24 47  1  0  0  0  0
 24 48  1  0  0  0  0
 25 26  1  0  0  0  0
 25 49  1  0  0  0  0
 25 50  1  0  0  0  0
 26 27  1  0  0  0  0
 26 51  1  0  0  0  0
 26 52  1  0  0  0  0
 27 28  1  0  0  0  0
 27 53  1  0  0  0  0
 28 54  1  0  0  0  0
M  END
> <s_m_source_file>
AV-unprocessed.smi

> <i_m_source_file_index>
245

> <i_lp_mmshare_version>
43012

> <i_f3d_flags>
0

> <s_epik_input>
W0NIMl0xW0NIMl1bQ0gyXVtDSDJdW0NASF0oW0NASF0xMilbTkhdQyg9TylbQ0gyXU4yYyhuW2NIXW4zKWMoYzM0KW5bY0hdbjRbQ0hdKFtDSDJdNSlbQ0gyXUM1KFtDSDJdW09IXSlbQ0gyXVtPSF0=

> <s_epik_cmdline>
J2VwaWtfcHl0aG9uJywgJy1waCcsICc3LjAnLCAnLXRuJywgJzgnLCAnLW1hJywgJzIwMCcsICctbWV0YWxfYmluZGluZycsICctaW1hZScsICc8aW5maWxlLm1hZT4nLCAnLW9tYWUnLCAnPG91dGZpbGUubWFlPic=

> <r_lp_tautomer_probability>
1

> <r_epik_Ionization_Penalty>
0.000702616

> <r_epik_Ionization_Penalty_Charging>
0

> <r_epik_Ionization_Penalty_Neutral>
0.000702616

> <r_epik_State_Penalty>
0.000343985

> <r_epik_Charging_Adjusted_Penalty>
0.000343985

> <i_epik_Tot_Q>
0

> <i_epik_Tot_abs_Q>
0

> <r_epik_Metal_State_Penalty>
-0

> <b_epik_Metal_Only>
0

> <s_lp_Force_Field>
OPLS_2005

> <r_lp_Energy>
49.1986

> <b_lp_Chiralities_Consistent>
1

> <s_lp_Variant>
AV-unprocessed.smi:245-3

> <Gold.Version>
5.8.1

> <Gold.Id.Protein>
6NUR|6NUR_protein|mol2

> <Gold.PLP.Fitness>
62.8695

> <Gold.PLP.PLP>
-50.4242

> <Gold.PLP.part.hbond>
-6.4464

> <Gold.PLP.part.metal>
0.0000

> <Gold.PLP.part.buried>
-2.2810

> <Gold.PLP.part.nonpolar>
-41.2508

> <Gold.PLP.part.repulsive>
0.1523

> <Gold.PLP.ligand.clash>
0.0000

> <Gold.PLP.ligand.torsion>
1.0440

> <Gold.PLP.Chemscore.Hbond>
4.5505

> <Gold.PLP.Chemscore.CHOScore>
0.0000

> <Gold.PLP.Chemscore.Metal>
0.0000

> <Gold.Chemscore.Hbonds>
donor molecule, donor type, donor heavy atom, donor atom, acceptor molecule, acceptor atom, score
      L1  H    18    38       P1 10175  0.62
      L1  H    20    41       P1 10171  1.00
      P1  H  7954  7966       L1    20  0.96
      P1  H  7989  7998       L1     8  0.86
      P1  H  7997  8010       L1     6  1.00

> <Gold.PLP.Chemscore.Internal.Correction>
0.8817

> <Gold.Rescore>
     Score         DG    S(hbond)    S(metal)    S(lipo)     H(rot)  DE(clash)    DE(int)     intcor
     18.11     -23.73       3.75        0.00     120.47       3.28       3.60       2.01       ----

> <Gold.Chemscore.Fitness>
18.1145

> <Gold.Chemscore.DG>
-23.7287

> <Gold.Chemscore.ZeroCoef>
-5.4800

> <Gold.Chemscore.Hbond>
3.7545

> <Gold.Chemscore.Metal>
0.0000

> <Gold.Chemscore.Lipo>
120.4660

> <Gold.Chemscore.Internal_Hbond>
0.0000

> <Gold.Chemscore.DEClash>
3.6017

> <Gold.Chemscore.DEInternal>
2.0125

> <Gold.Chemscore.Rot>
3.2758

> <Gold.Chemscore.Internal.Correction>
   9.000000E+99

> <Gold.Chemscore.Hbonds>
donor molecule, donor type, donor heavy atom, donor atom, acceptor molecule, acceptor atom, score
      L1  H    18    38       P1 10175  0.62
      L1  H    20    41       P1 10171  0.98
      P1  H  7954  7966       L1    20  0.56
      P1  H  7989  7998       L1     8  0.04
      P1  H  7997  8010       L1     6  0.82

> <Gold.Chemscore.Hbond.Weighted>
-12.5401

> <Gold.Chemscore.Metal.Weighted>
-0.0000

> <Gold.Chemscore.Lipo.Weighted>
-14.0945

> <Gold.Chemscore.Internal_Hbond.Weighted>
0.0000

> <Gold.Chemscore.DEClash.Weighted>
3.6017

> <Gold.Chemscore.DEInternal.Weighted>
2.0125

> <Gold.Chemscore.Rot.Weighted>
8.3859

> <Gold.Chemscore.Internal.Correction.Weighted>
   9.000000E+99

> <Gold.Protein.RotatedTorsions>
[ 6907 6896 6895 6894 ] final -114.81 input  -60.11 | X-H torsion
[ 7974 7965 7964 7962 ] final   95.57 input  175.53 | X-H torsion
[ 8008 7997 7996 7995 ] final   57.73 input   59.86 | X-H torsion
[ 10167 10162 10161 10158 ] final  176.86 input  -65.29 | X-H torsion
[ 10718 10713 10712 10709 ] final   60.03 input   66.30 | X-H torsion
[ 10763 10752 10751 10750 ] final -171.02 input  -60.55 | X-H torsion
[ 11005 11000 10999 10996 ] final  -98.65 input  -57.11 | X-H torsion

> <Gold.Protein.ActiveResidues>
 VAL166  LYS551  ARG553  GLY616  TRP617  ASP618  TYR619  PRO620  LYS621  CYS622 
 ASP623  PHE694  ASN695  SER759  ASP760  ASP761  ALA762  ILE779  LEU786  VAL792 
 PHE793  MET794  SER795  GLU796  ALA797  LYS798  CYS799  TRP800  GLU811  SER814 

> <Gold.Protein.RotatedAtoms>
  150.7930  133.8748  159.3268 H   0  0  0  0  0  0  0  0  0  0  0  0  # atno 6907 bound_to 6896
  151.6581  135.0991  160.0183 H   0  0  0  0  0  0  0  0  0  0  0  0  # atno 6908 bound_to 6896
  152.4007  133.6775  159.6349 H   0  0  0  0  0  0  0  0  0  0  0  0  # atno 6909 bound_to 6896
  145.4504  139.2294  143.3043 H   0  0  0  0  0  0  0  0  0  0  0  0  # atno 7974 bound_to 7965
  155.5385  140.3484  155.4441 H   0  0  0  0  0  0  0  0  0  0  0  0  # atno 8008 bound_to 7997
  156.0668  140.1353  156.9903 H   0  0  0  0  0  0  0  0  0  0  0  0  # atno 8009 bound_to 7997
  154.4507  140.0974  156.6584 H   0  0  0  0  0  0  0  0  0  0  0  0  # atno 8010 bound_to 7997
  139.5231  144.2865  152.0501 H   0  0  0  0  0  0  0  0  0  0  0  0  # atno 10167 bound_to 10162
  157.5721  130.8915  149.9285 H   0  0  0  0  0  0  0  0  0  0  0  0  # atno 10718 bound_to 10713
  154.6351  135.2891  155.0170 H   0  0  0  0  0  0  0  0  0  0  0  0  # atno 10763 bound_to 10752
  154.1316  135.6532  153.4927 H   0  0  0  0  0  0  0  0  0  0  0  0  # atno 10764 bound_to 10752
  153.0299  135.5312  154.7195 H   0  0  0  0  0  0  0  0  0  0  0  0  # atno 10765 bound_to 10752
  141.1337  133.8261  157.0867 H   0  0  0  0  0  0  0  0  0  0  0  0  # atno 11005 bound_to 11000
  146.2507  140.5262  142.8894 LP  0  0  0  0  0  0  0  0  0  0  0  0  # atno 17320 bound_to 7965
  144.8065  140.6309  143.6443 LP  0  0  0  0  0  0  0  0  0  0  0  0  # atno 17321 bound_to 7965
  140.2318  144.4360  150.6297 LP  0  0  0  0  0  0  0  0  0  0  0  0  # atno 17342 bound_to 10162
  140.6350  143.2193  151.6414 LP  0  0  0  0  0  0  0  0  0  0  0  0  # atno 17343 bound_to 10162
  156.0766  130.3678  150.0664 LP  0  0  0  0  0  0  0  0  0  0  0  0  # atno 17370 bound_to 10713
  156.8816  130.9558  151.3599 LP  0  0  0  0  0  0  0  0  0  0  0  0  # atno 17371 bound_to 10713
  140.0417  134.9851  157.0974 LP  0  0  0  0  0  0  0  0  0  0  0  0  # atno 17394 bound_to 11000
  140.4125  134.1966  155.7163 LP  0  0  0  0  0  0  0  0  0  0  0  0  # atno 17395 bound_to 11000

$$$$
