AV-unprocessed.smi:1897|AV-procd|sdf|7699|dock2
  -GOLD-   22720 9433D 1   1.00000     0.00000
 Structure written by MMmdl.
 38 40  0  0  0  0  0  0  0  0  3 V2000
  151.6307  129.2930  155.0832 C   0  0  0  0  0  0  0  0  0  0  0  0
  151.0543  130.6655  155.1478 C   0  0  0  0  0  0  0  0  0  0  0  0
  151.5582  131.6241  155.9288 N   0  0  0  0  0  0  0  0  0  0  0  0
  150.8525  132.8132  155.8183 N   0  0  0  0  0  0  0  0  0  0  0  0
  149.8363  132.7425  154.9470 C   0  0  0  0  0  0  0  0  0  0  0  0
  149.0344  133.7915  154.6850 N   0  5  0  0  0  0  0  0  0  0  0  0
  147.8010  133.6495  154.1339 C   0  0  0  0  0  0  0  0  0  0  0  0
  146.9444  132.8864  154.5783 O   0  0  0  0  0  0  0  0  0  0  0  0
  147.5119  134.3877  153.0462 N   0  0  0  0  0  0  0  0  0  0  0  0
  146.2496  134.3771  152.3175 C   0  0  1  0  0  0  0  0  0  0  0  0
  145.6844  135.7767  152.0353 C   0  0  0  0  0  0  0  0  0  0  0  0
  145.0604  135.6871  150.6287 C   0  0  0  0  0  0  0  0  0  0  0  0
  145.2360  134.2889  150.1700 N   0  3  2  0  0  0  0  0  0  0  0  0
  143.9996  133.4803  150.3546 C   0  0  0  0  0  0  0  0  0  0  0  0
  144.2425  131.9856  150.1091 C   0  0  0  0  0  0  0  0  0  0  0  0
  145.3336  131.4685  151.0498 C   0  0  0  0  0  0  0  0  0  0  0  0
  146.6231  132.2639  150.8209 C   0  0  0  0  0  0  0  0  0  0  0  0
  146.4190  133.7929  150.9139 C   0  0  2  0  0  0  0  0  0  0  0  0
  149.6627  131.1563  154.1967 S   0  0  0  0  0  0  0  0  0  0  0  0
  152.5051  129.2870  154.4323 H   0  0  0  0  0  0  0  0  0  0  0  0
  150.8949  128.5919  154.6894 H   0  0  0  0  0  0  0  0  0  0  0  0
  151.9299  128.9610  156.0778 H   0  0  0  0  0  0  0  0  0  0  0  0
  148.2314  135.0082  152.7048 H   0  0  0  0  0  0  0  0  0  0  0  0
  145.5109  133.7917  152.8677 H   0  0  0  0  0  0  0  0  0  0  0  0
  144.9523  136.0647  152.7903 H   0  0  0  0  0  0  0  0  0  0  0  0
  146.4738  136.5302  152.0408 H   0  0  0  0  0  0  0  0  0  0  0  0
  144.0154  136.0007  150.6191 H   0  0  0  0  0  0  0  0  0  0  0  0
  145.5995  136.3449  149.9462 H   0  0  0  0  0  0  0  0  0  0  0  0
  143.6112  133.6206  151.3647 H   0  0  0  0  0  0  0  0  0  0  0  0
  143.2315  133.8468  149.6727 H   0  0  0  0  0  0  0  0  0  0  0  0
  143.3190  131.4282  150.2690 H   0  0  0  0  0  0  0  0  0  0  0  0
  144.5320  131.8190  149.0708 H   0  0  0  0  0  0  0  0  0  0  0  0
  145.0108  131.5627  152.0873 H   0  0  0  0  0  0  0  0  0  0  0  0
  145.5120  130.4073  150.8742 H   0  0  0  0  0  0  0  0  0  0  0  0
  147.3932  131.9428  151.5234 H   0  0  0  0  0  0  0  0  0  0  0  0
  147.0054  132.0233  149.8281 H   0  0  0  0  0  0  0  0  0  0  0  0
  147.2920  134.2669  150.4603 H   0  0  0  0  0  0  0  0  0  0  0  0
  145.4516  134.2854  149.1835 H   0  0  0  0  0  0  0  0  0  0  0  0
  1  2  1  0  0  0  0
  1 20  1  0  0  0  0
  1 21  1  0  0  0  0
  1 22  1  0  0  0  0
  2 19  1  0  0  0  0
  2  3  2  0  0  0  0
  3  4  1  0  0  0  0
  4  5  2  0  0  0  0
  5  6  1  0  0  0  0
  5 19  1  0  0  0  0
  6  7  1  0  0  0  0
  7  8  2  0  0  0  0
  7  9  1  0  0  0  0
  9 10  1  0  0  0  0
  9 23  1  0  0  0  0
 10 18  1  0  0  0  0
 10 11  1  0  0  0  0
 10 24  1  0  0  0  0
 11 12  1  0  0  0  0
 11 25  1  0  0  0  0
 11 26  1  0  0  0  0
 12 13  1  0  0  0  0
 12 27  1  0  0  0  0
 12 28  1  0  0  0  0
 13 18  1  0  0  0  0
 13 14  1  0  0  0  0
 13 38  1  0  0  0  0
 14 15  1  0  0  0  0
 14 29  1  0  0  0  0
 14 30  1  0  0  0  0
 15 16  1  0  0  0  0
 15 31  1  0  0  0  0
 15 32  1  0  0  0  0
 16 17  1  0  0  0  0
 16 33  1  0  0  0  0
 16 34  1  0  0  0  0
 17 18  1  0  0  0  0
 17 35  1  0  0  0  0
 17 36  1  0  0  0  0
 18 37  1  0  0  0  0
M  CHG  1   6  -1
M  CHG  1  13   1
M  END
> <s_m_source_file>
AV-unprocessed.smi

> <i_m_source_file_index>
1897

> <i_lp_mmshare_version>
43012

> <i_f3d_flags>
0

> <s_epik_input>
W0NIM11jMW5uYyhzMSlbTkhdQyg9TylbTkhdW0NASF0oW0NIMl1bQ0gyXTIpW0NAQEhdKE4yMylbQ0gyXVtDSDJdW0NIMl1bQ0gyXTM=

> <s_epik_cmdline>
J2VwaWtfcHl0aG9uJywgJy1waCcsICc3LjAnLCAnLXRuJywgJzgnLCAnLW1hJywgJzIwMCcsICctbWV0YWxfYmluZGluZycsICctaW1hZScsICc8aW5maWxlLm1hZT4nLCAnLW9tYWUnLCAnPG91dGZpbGUubWFlPic=

> <r_lp_tautomer_probability>
1

> <r_epik_Ionization_Penalty>
3.77712

> <r_epik_Ionization_Penalty_Charging>
3.67739

> <r_epik_Ionization_Penalty_Neutral>
0.0997294

> <r_epik_State_Penalty>
3.67514

> <r_epik_Charging_Adjusted_Penalty>
7.35254

> <i_epik_Tot_Q>
0

> <i_epik_Tot_abs_Q>
2

> <r_epik_Metal_State_Penalty>
0.540795

> <b_epik_Metal_Only>
1

> <s_lp_Force_Field>
OPLS_2005

> <r_lp_Energy>
31.3807

> <b_lp_Chiralities_Consistent>
1

> <s_lp_Variant>
AV-unprocessed.smi:1897-16

> <Gold.Version>
5.8.1

> <Gold.Id.Protein>
6NUR|6NUR_protein|mol2

> <Gold.PLP.Fitness>
35.4875

> <Gold.PLP.PLP>
-30.7355

> <Gold.PLP.part.hbond>
-2.0000

> <Gold.PLP.part.metal>
0.0000

> <Gold.PLP.part.buried>
-1.9953

> <Gold.PLP.part.nonpolar>
-27.3926

> <Gold.PLP.part.repulsive>
0.2113

> <Gold.PLP.ligand.clash>
0.0000

> <Gold.PLP.ligand.torsion>
0.6341

> <Gold.PLP.Chemscore.Hbond>
2.0000

> <Gold.PLP.Chemscore.CHOScore>
0.0000

> <Gold.PLP.Chemscore.Metal>
0.0000

> <Gold.Chemscore.Hbonds>
donor molecule, donor type, donor heavy atom, donor atom, acceptor molecule, acceptor atom, score
      L1  H     9    23       P1  7948  1.00
      L1  H    13    38       P1  7921  1.00

> <Gold.PLP.Chemscore.Internal.Correction>
0.0202

> <Gold.Rescore>
     Score         DG    S(hbond)    S(metal)    S(lipo)     H(rot)  DE(clash)    DE(int)     intcor
     16.88     -18.15       1.99        0.00      73.46       1.00       0.76       0.51       ----

> <Gold.Chemscore.Fitness>
16.8838

> <Gold.Chemscore.DG>
-18.1535

> <Gold.Chemscore.ZeroCoef>
-5.4800

> <Gold.Chemscore.Hbond>
1.9876

> <Gold.Chemscore.Metal>
0.0000

> <Gold.Chemscore.Lipo>
73.4605

> <Gold.Chemscore.Internal_Hbond>
0.0000

> <Gold.Chemscore.DEClash>
0.7646

> <Gold.Chemscore.DEInternal>
0.5052

> <Gold.Chemscore.Rot>
1.0000

> <Gold.Chemscore.Internal.Correction>
   9.000000E+99

> <Gold.Chemscore.Hbonds>
donor molecule, donor type, donor heavy atom, donor atom, acceptor molecule, acceptor atom, score
      L1  H     9    23       P1  7948  0.77
      L1  H    13    38       P1  7921  0.92

> <Gold.Chemscore.Hbond.Weighted>
-6.6386

> <Gold.Chemscore.Metal.Weighted>
-0.0000

> <Gold.Chemscore.Lipo.Weighted>
-8.5949

> <Gold.Chemscore.Internal_Hbond.Weighted>
0.0000

> <Gold.Chemscore.DEClash.Weighted>
0.7646

> <Gold.Chemscore.DEInternal.Weighted>
0.5052

> <Gold.Chemscore.Rot.Weighted>
2.5600

> <Gold.Chemscore.Internal.Correction.Weighted>
   9.000000E+99

> <Gold.Protein.RotatedTorsions>
[ 6907 6896 6895 6894 ] final -152.43 input  -60.11 | X-H torsion
[ 7974 7965 7964 7962 ] final  -38.20 input  175.53 | X-H torsion
[ 8008 7997 7996 7995 ] final  -89.79 input   59.86 | X-H torsion
[ 10167 10162 10161 10158 ] final  -73.81 input  -65.29 | X-H torsion
[ 10718 10713 10712 10709 ] final   41.21 input   66.30 | X-H torsion
[ 10763 10752 10751 10750 ] final  116.61 input  -60.55 | X-H torsion
[ 11005 11000 10999 10996 ] final -128.52 input  -57.11 | X-H torsion

> <Gold.Protein.ActiveResidues>
 VAL166  LYS551  ARG553  GLY616  TRP617  ASP618  TYR619  PRO620  LYS621  CYS622 
 ASP623  PHE694  ASN695  SER759  ASP760  ASP761  ALA762  ILE779  LEU786  VAL792 
 PHE793  MET794  SER795  GLU796  ALA797  LYS798  CYS799  TRP800  GLU811  SER814 

> <Gold.Protein.RotatedAtoms>
  151.2277  133.4467  159.2602 H   0  0  0  0  0  0  0  0  0  0  0  0  # atno 6907 bound_to 6896
  151.0825  134.9867  159.8373 H   0  0  0  0  0  0  0  0  0  0  0  0  # atno 6908 bound_to 6896
  152.5426  134.2215  159.8842 H   0  0  0  0  0  0  0  0  0  0  0  0  # atno 6909 bound_to 6896
  146.0507  140.6485  142.9043 H   0  0  0  0  0  0  0  0  0  0  0  0  # atno 7974 bound_to 7965
  154.6907  140.0538  157.0361 H   0  0  0  0  0  0  0  0  0  0  0  0  # atno 8008 bound_to 7997
  155.0820  140.3210  155.4580 H   0  0  0  0  0  0  0  0  0  0  0  0  # atno 8009 bound_to 7997
  156.2727  140.2063  156.5948 H   0  0  0  0  0  0  0  0  0  0  0  0  # atno 8010 bound_to 7997
  140.5079  143.2349  151.7642 H   0  0  0  0  0  0  0  0  0  0  0  0  # atno 10167 bound_to 10162
  157.3909  130.7806  149.7269 H   0  0  0  0  0  0  0  0  0  0  0  0  # atno 10718 bound_to 10713
  153.5398  135.3561  155.2713 H   0  0  0  0  0  0  0  0  0  0  0  0  # atno 10763 bound_to 10752
  154.8718  135.4088  154.3056 H   0  0  0  0  0  0  0  0  0  0  0  0  # atno 10764 bound_to 10752
  153.3761  135.7066  153.6668 H   0  0  0  0  0  0  0  0  0  0  0  0  # atno 10765 bound_to 10752
  140.9509  134.1067  157.4063 H   0  0  0  0  0  0  0  0  0  0  0  0  # atno 11005 bound_to 11000
  144.7121  140.4077  143.7072 LP  0  0  0  0  0  0  0  0  0  0  0  0  # atno 17320 bound_to 7965
  145.6729  139.1603  143.2744 LP  0  0  0  0  0  0  0  0  0  0  0  0  # atno 17321 bound_to 7965
  139.4888  144.4431  151.9741 LP  0  0  0  0  0  0  0  0  0  0  0  0  # atno 17342 bound_to 10162
  140.3522  144.3075  150.5947 LP  0  0  0  0  0  0  0  0  0  0  0  0  # atno 17343 bound_to 10162
  155.9798  130.4036  150.3565 LP  0  0  0  0  0  0  0  0  0  0  0  0  # atno 17370 bound_to 10713
  157.1681  131.0362  151.2809 LP  0  0  0  0  0  0  0  0  0  0  0  0  # atno 17371 bound_to 10713
  139.8847  135.0065  156.6387 LP  0  0  0  0  0  0  0  0  0  0  0  0  # atno 17394 bound_to 11000
  140.7604  133.8822  155.8414 LP  0  0  0  0  0  0  0  0  0  0  0  0  # atno 17395 bound_to 11000

$$$$
