AV-unprocessed.smi:2315|AV-procd|sdf|9268|dock8
  -GOLD-   2272012493D 1   1.00000     0.00000
 Structure written by MMmdl.
 40 41  0  0  0  0  0  0  0  0  1 V2000
  144.4592  136.5985  152.4326 O   0  0  0  0  0  0  0  0  0  0  0  0
  145.6736  136.4663  152.2817 C   0  0  0  0  0  0  0  0  0  0  0  0
  146.5718  137.3672  152.7056 N   0  0  0  0  0  0  0  0  0  0  0  0
  146.2492  138.6193  153.3812 C   0  0  0  0  0  0  0  0  0  0  0  0
  147.1175  139.7843  152.8627 C   0  0  0  0  0  0  0  0  0  0  0  0
  147.7971  140.5987  153.9779 C   0  0  0  0  0  0  0  0  0  0  0  0
  147.5107  141.7904  154.1050 O   0  0  0  0  0  0  0  0  0  0  0  0
  148.6887  139.9810  154.7916 N   0  0  0  0  0  0  0  0  0  0  0  0
  149.4585  140.6282  155.8633 C   0  0  0  0  0  0  0  0  0  0  0  0
  150.9346  140.7105  155.4335 C   0  0  0  0  0  0  0  0  0  0  0  0
  151.4854  139.3129  155.0918 C   0  0  0  0  0  0  0  0  0  0  0  0
  150.5643  138.5625  154.1114 C   0  0  0  0  0  0  0  0  0  0  0  0
  149.1033  138.5848  154.5983 C   0  0  0  0  0  0  0  0  0  0  0  0
  146.2785  135.4161  151.6999 N   0  0  0  0  0  0  0  0  0  0  0  0
  145.6957  134.2584  151.1143 C   0  0  0  0  0  0  0  0  0  0  0  0
  144.4377  134.2398  150.4641 C   0  0  0  0  0  0  0  0  0  0  0  0
  143.9826  133.0269  149.9082 C   0  0  0  0  0  0  0  0  0  0  0  0
  144.6863  131.8761  149.9557 N   0  0  0  0  0  0  0  0  0  0  0  0
  145.8901  131.9000  150.5653 C   0  0  0  0  0  0  0  0  0  0  0  0
  146.4378  133.0586  151.1519 C   0  0  0  0  0  0  0  0  0  0  0  0
  147.6559  133.0138  151.7440 F   0  0  0  0  0  0  0  0  0  0  0  0
  147.5502  137.1769  152.5453 H   0  0  0  0  0  0  0  0  0  0  0  0
  145.1936  138.8272  153.2018 H   0  0  0  0  0  0  0  0  0  0  0  0
  146.3652  138.4992  154.4601 H   0  0  0  0  0  0  0  0  0  0  0  0
  147.8901  139.3884  152.2022 H   0  0  0  0  0  0  0  0  0  0  0  0
  146.4964  140.4574  152.2704 H   0  0  0  0  0  0  0  0  0  0  0  0
  149.0943  141.6185  156.1314 H   0  0  0  0  0  0  0  0  0  0  0  0
  149.3704  140.0341  156.7742 H   0  0  0  0  0  0  0  0  0  0  0  0
  151.0252  141.3634  154.5642 H   0  0  0  0  0  0  0  0  0  0  0  0
  151.5324  141.1631  156.2250 H   0  0  0  0  0  0  0  0  0  0  0  0
  152.4912  139.3937  154.6786 H   0  0  0  0  0  0  0  0  0  0  0  0
  151.5753  138.7316  156.0104 H   0  0  0  0  0  0  0  0  0  0  0  0
  150.6252  139.0260  153.1257 H   0  0  0  0  0  0  0  0  0  0  0  0
  150.9059  137.5340  153.9918 H   0  0  0  0  0  0  0  0  0  0  0  0
  149.0138  138.0471  155.5432 H   0  0  0  0  0  0  0  0  0  0  0  0
  148.4699  138.0473  153.8917 H   0  0  0  0  0  0  0  0  0  0  0  0
  147.2879  135.4209  151.7207 H   0  0  0  0  0  0  0  0  0  0  0  0
  143.8229  135.1210  150.3685 H   0  0  0  0  0  0  0  0  0  0  0  0
  143.0278  132.9824  149.4056 H   0  0  0  0  0  0  0  0  0  0  0  0
  146.4352  130.9680  150.5843 H   0  0  0  0  0  0  0  0  0  0  0  0
  1  2  2  0  0  0  0
  2  3  1  0  0  0  0
  2 14  1  0  0  0  0
  3  4  1  0  0  0  0
  3 22  1  0  0  0  0
  4  5  1  0  0  0  0
  4 23  1  0  0  0  0
  4 24  1  0  0  0  0
  5  6  1  0  0  0  0
  5 25  1  0  0  0  0
  5 26  1  0  0  0  0
  6  7  2  0  0  0  0
  6  8  1  0  0  0  0
  8 13  1  0  0  0  0
  8  9  1  0  0  0  0
  9 10  1  0  0  0  0
  9 27  1  0  0  0  0
  9 28  1  0  0  0  0
 10 11  1  0  0  0  0
 10 29  1  0  0  0  0
 10 30  1  0  0  0  0
 11 12  1  0  0  0  0
 11 31  1  0  0  0  0
 11 32  1  0  0  0  0
 12 13  1  0  0  0  0
 12 33  1  0  0  0  0
 12 34  1  0  0  0  0
 13 35  1  0  0  0  0
 13 36  1  0  0  0  0
 14 15  1  0  0  0  0
 14 37  1  0  0  0  0
 15 20  1  0  0  0  0
 15 16  2  0  0  0  0
 16 17  1  0  0  0  0
 16 38  1  0  0  0  0
 17 18  2  0  0  0  0
 17 39  1  0  0  0  0
 18 19  1  0  0  0  0
 19 20  2  0  0  0  0
 19 40  1  0  0  0  0
 20 21  1  0  0  0  0
M  END
> <s_m_source_file>
AV-unprocessed.smi

> <i_m_source_file_index>
2315

> <i_lp_mmshare_version>
43012

> <i_f3d_flags>
0

> <s_epik_input>
RmMxW2NIXW5bY0hdW2NIXWMxW05IXUMoPU8pW05IXVtDSDJdW0NIMl1DKD1PKU4yW0NIMl1bQ0gyXVtDSDJdW0NIMl1bQ0gyXTI=

> <s_epik_cmdline>
J2VwaWtfcHl0aG9uJywgJy1waCcsICc3LjAnLCAnLXRuJywgJzgnLCAnLW1hJywgJzIwMCcsICctbWV0YWxfYmluZGluZycsICctaW1hZScsICc8aW5maWxlLm1hZT4nLCAnLW9tYWUnLCAnPG91dGZpbGUubWFlPic=

> <r_epik_Ionization_Penalty>
0.00291221

> <r_epik_Ionization_Penalty_Charging>
0

> <r_epik_Ionization_Penalty_Neutral>
0.00291221

> <r_epik_State_Penalty>
0.0020173

> <r_epik_Charging_Adjusted_Penalty>
0.0020173

> <i_epik_Tot_Q>
0

> <i_epik_Tot_abs_Q>
0

> <r_epik_Metal_State_Penalty>
-0

> <b_epik_Metal_Only>
0

> <s_lp_Force_Field>
OPLS_2005

> <r_lp_Energy>
31.5376

> <b_lp_Chiralities_Consistent>
1

> <s_lp_Variant>
AV-unprocessed.smi:2315-1

> <Gold.Version>
5.8.1

> <Gold.Id.Protein>
6NUR|6NUR_protein|mol2

> <Gold.PLP.Fitness>
45.9328

> <Gold.PLP.PLP>
-35.8179

> <Gold.PLP.part.hbond>
-2.2341

> <Gold.PLP.part.metal>
0.0000

> <Gold.PLP.part.buried>
-2.0428

> <Gold.PLP.part.nonpolar>
-32.4050

> <Gold.PLP.part.repulsive>
0.5759

> <Gold.PLP.ligand.clash>
0.0000

> <Gold.PLP.ligand.torsion>
0.6833

> <Gold.PLP.Chemscore.Hbond>
2.0000

> <Gold.PLP.Chemscore.CHOScore>
1.8199

> <Gold.PLP.Chemscore.Metal>
0.0000

> <Gold.Chemscore.Hbonds>
donor molecule, donor type, donor heavy atom, donor atom, acceptor molecule, acceptor atom, score
      L1  H     3    22       P1  7948  1.00
      L1  H    14    37       P1  7948  1.00
      L1  C    17    39       P1 10186  1.00
      L1  C    19    40       P1 10747  0.81

> <Gold.PLP.Chemscore.Internal.Correction>
0.0219

> <Gold.Rescore>
     Score         DG    S(hbond)    S(metal)    S(lipo)     H(rot)  DE(clash)    DE(int)     intcor
     16.72     -18.10       1.97        0.00      86.05       1.57       0.63       0.76       ----

> <Gold.Chemscore.Fitness>
16.7165

> <Gold.Chemscore.DG>
-18.1048

> <Gold.Chemscore.ZeroCoef>
-5.4800

> <Gold.Chemscore.Hbond>
1.9714

> <Gold.Chemscore.Metal>
0.0000

> <Gold.Chemscore.Lipo>
86.0460

> <Gold.Chemscore.Internal_Hbond>
0.0000

> <Gold.Chemscore.DEClash>
0.6291

> <Gold.Chemscore.DEInternal>
0.7592

> <Gold.Chemscore.Rot>
1.5731

> <Gold.Chemscore.Internal.Correction>
   9.000000E+99

> <Gold.Chemscore.Hbonds>
donor molecule, donor type, donor heavy atom, donor atom, acceptor molecule, acceptor atom, score
      L1  H     3    22       P1  7948  0.98
      L1  H    14    37       P1  7948  0.97

> <Gold.Chemscore.Hbond.Weighted>
-6.5845

> <Gold.Chemscore.Metal.Weighted>
-0.0000

> <Gold.Chemscore.Lipo.Weighted>
-10.0674

> <Gold.Chemscore.Internal_Hbond.Weighted>
0.0000

> <Gold.Chemscore.DEClash.Weighted>
0.6291

> <Gold.Chemscore.DEInternal.Weighted>
0.7592

> <Gold.Chemscore.Rot.Weighted>
4.0271

> <Gold.Chemscore.Internal.Correction.Weighted>
   9.000000E+99

> <Gold.Protein.RotatedTorsions>
[ 6907 6896 6895 6894 ] final    7.67 input  -60.11 | X-H torsion
[ 7974 7965 7964 7962 ] final   -1.33 input  175.53 | X-H torsion
[ 8008 7997 7996 7995 ] final -113.23 input   59.86 | X-H torsion
[ 10167 10162 10161 10158 ] final -108.61 input  -65.29 | X-H torsion
[ 10718 10713 10712 10709 ] final   56.31 input   66.30 | X-H torsion
[ 10763 10752 10751 10750 ] final  134.24 input  -60.55 | X-H torsion
[ 11005 11000 10999 10996 ] final  -37.83 input  -57.11 | X-H torsion

> <Gold.Protein.ActiveResidues>
 VAL166  LYS551  ARG553  GLY616  TRP617  ASP618  TYR619  PRO620  LYS621  CYS622 
 ASP623  PHE694  ASN695  SER759  ASP760  ASP761  ALA762  ILE779  LEU786  VAL792 
 PHE793  MET794  SER795  GLU796  ALA797  LYS798  CYS799  TRP800  GLU811  SER814 

> <Gold.Protein.RotatedAtoms>
  151.6936  135.0942  160.0237 H   0  0  0  0  0  0  0  0  0  0  0  0  # atno 6907 bound_to 6896
  152.3763  133.6482  159.6135 H   0  0  0  0  0  0  0  0  0  0  0  0  # atno 6908 bound_to 6896
  150.7712  133.9104  159.3409 H   0  0  0  0  0  0  0  0  0  0  0  0  # atno 6909 bound_to 6896
  146.2418  140.1405  142.8335 H   0  0  0  0  0  0  0  0  0  0  0  0  # atno 7974 bound_to 7965
  155.0175  140.0393  157.2424 H   0  0  0  0  0  0  0  0  0  0  0  0  # atno 8008 bound_to 7997
  154.7407  140.2748  155.6353 H   0  0  0  0  0  0  0  0  0  0  0  0  # atno 8009 bound_to 7997
  156.2863  140.2666  156.2133 H   0  0  0  0  0  0  0  0  0  0  0  0  # atno 8010 bound_to 7997
  140.1643  143.4094  152.1402 H   0  0  0  0  0  0  0  0  0  0  0  0  # atno 10167 bound_to 10162
  157.5419  130.8703  149.8835 H   0  0  0  0  0  0  0  0  0  0  0  0  # atno 10718 bound_to 10713
  153.8203  135.3117  155.3409 H   0  0  0  0  0  0  0  0  0  0  0  0  # atno 10763 bound_to 10752
  154.8015  135.4723  154.0291 H   0  0  0  0  0  0  0  0  0  0  0  0  # atno 10764 bound_to 10752
  153.1697  135.6875  153.8714 H   0  0  0  0  0  0  0  0  0  0  0  0  # atno 10765 bound_to 10752
  140.9982  133.6969  156.1973 H   0  0  0  0  0  0  0  0  0  0  0  0  # atno 11005 bound_to 11000
  145.0251  140.8825  143.5143 LP  0  0  0  0  0  0  0  0  0  0  0  0  # atno 17320 bound_to 7965
  145.1460  139.2543  143.5466 LP  0  0  0  0  0  0  0  0  0  0  0  0  # atno 17321 bound_to 7965
  139.5367  144.7216  151.4871 LP  0  0  0  0  0  0  0  0  0  0  0  0  # atno 17342 bound_to 10162
  140.6623  143.8472  150.6902 LP  0  0  0  0  0  0  0  0  0  0  0  0  # atno 17343 bound_to 10162
  156.0504  130.3719  150.1215 LP  0  0  0  0  0  0  0  0  0  0  0  0  # atno 17370 bound_to 10713
  156.9394  130.9739  151.3519 LP  0  0  0  0  0  0  0  0  0  0  0  0  # atno 17371 bound_to 10713
  140.6932  134.4644  157.5588 LP  0  0  0  0  0  0  0  0  0  0  0  0  # atno 17394 bound_to 11000
  139.9025  134.8523  156.1837 LP  0  0  0  0  0  0  0  0  0  0  0  0  # atno 17395 bound_to 11000

$$$$
