AV-unprocessed.smi:743|AV-procd|sdf|3567|dock3
  -GOLD-   22720 0563D 1   1.00000     0.00000
 Structure written by MMmdl.
 28 29  0  0  0  0  0  0  0  0  1 V2000
  142.5746  137.5417  152.7752 C   0  0  0  0  0  0  0  0  0  0  0  0
  143.3670  136.3577  152.5213 N   0  0  0  0  0  0  0  0  0  0  0  0
  144.4256  136.2007  151.6538 C   0  0  0  0  0  0  0  0  0  0  0  0
  144.8623  134.9079  151.7602 C   0  0  0  0  0  0  0  0  0  0  0  0
  145.9969  134.2072  151.0373 C   0  0  1  0  0  0  0  0  0  0  0  0
  147.0832  133.8870  151.9677 N   0  0  0  0  0  0  0  0  0  0  0  0
  147.3094  132.6990  152.5599 C   0  0  0  0  0  0  0  0  0  0  0  0
  148.1805  132.5671  153.4163 O   0  0  0  0  0  0  0  0  0  0  0  0
  146.4953  131.4702  152.1189 C   0  0  0  0  0  0  0  0  0  0  0  0
  145.2457  131.8035  151.2844 C   0  0  0  0  0  0  0  0  0  0  0  0
  145.5422  132.9308  150.2874 C   0  0  1  0  0  0  0  0  0  0  0  0
  144.4020  133.1697  149.4208 N   0  0  0  0  0  0  0  0  0  0  0  0
  143.9817  134.3510  152.7328 C   0  0  0  0  0  0  0  0  0  0  0  0
  143.0909  135.2179  153.1854 N   0  0  0  0  0  0  0  0  0  0  0  0
  146.3592  132.6019  149.6436 H   0  0  0  0  0  0  0  0  0  0  0  0
  142.9453  138.3751  152.1778 H   0  0  0  0  0  0  0  0  0  0  0  0
  142.6364  137.8081  153.8307 H   0  0  0  0  0  0  0  0  0  0  0  0
  141.5333  137.3527  152.5126 H   0  0  0  0  0  0  0  0  0  0  0  0
  144.7820  137.0157  151.0409 H   0  0  0  0  0  0  0  0  0  0  0  0
  146.4236  134.8885  150.3004 H   0  0  0  0  0  0  0  0  0  0  0  0
  147.6681  134.6602  152.2505 H   0  0  0  0  0  0  0  0  0  0  0  0
  147.1615  130.8410  151.5278 H   0  0  0  0  0  0  0  0  0  0  0  0
  146.2141  130.8850  152.9947 H   0  0  0  0  0  0  0  0  0  0  0  0
  144.9170  130.9086  150.7549 H   0  0  0  0  0  0  0  0  0  0  0  0
  144.4245  132.0856  151.9450 H   0  0  0  0  0  0  0  0  0  0  0  0
  144.6959  133.6872  148.6048 H   0  0  0  0  0  0  0  0  0  0  0  0
  144.0354  132.2890  149.0888 H   0  0  0  0  0  0  0  0  0  0  0  0
  143.9670  133.3441  153.1228 H   0  0  0  0  0  0  0  0  0  0  0  0
  1  2  1  0  0  0  0
  1 16  1  0  0  0  0
  1 17  1  0  0  0  0
  1 18  1  0  0  0  0
  2 14  1  0  0  0  0
  2  3  1  0  0  0  0
  3  4  2  0  0  0  0
  3 19  1  0  0  0  0
  4  5  1  0  0  0  0
  4 13  1  0  0  0  0
  5 11  1  0  0  0  0
  5  6  1  0  0  0  0
  5 20  1  0  0  0  0
  6  7  1  0  0  0  0
  6 21  1  0  0  0  0
  7  8  2  0  0  0  0
  7  9  1  0  0  0  0
  9 10  1  0  0  0  0
  9 22  1  0  0  0  0
  9 23  1  0  0  0  0
 10 11  1  0  0  0  0
 10 24  1  0  0  0  0
 10 25  1  0  0  0  0
 11 15  1  0  0  0  0
 11 12  1  0  0  0  0
 12 26  1  0  0  0  0
 12 27  1  0  0  0  0
 13 14  2  0  0  0  0
 13 28  1  0  0  0  0
M  END
> <s_m_source_file>
AV-unprocessed.smi

> <i_m_source_file_index>
743

> <i_lp_mmshare_version>
43012

> <i_f3d_flags>
0

> <s_epik_input>
W0NIM11uMVtjSF1jKFtjSF1uMSlbQ0BASF0yW05IXUMoPU8pW0NIMl1bQ0gyXVtDQEBIXTJbTkgyXQ==

> <s_epik_cmdline>
J2VwaWtfcHl0aG9uJywgJy1waCcsICc3LjAnLCAnLXRuJywgJzgnLCAnLW1hJywgJzIwMCcsICctbWV0YWxfYmluZGluZycsICctaW1hZScsICc8aW5maWxlLm1hZT4nLCAnLW9tYWUnLCAnPG91dGZpbGUubWFlPic=

> <r_lp_tautomer_probability>
1

> <r_epik_Ionization_Penalty>
2.50279

> <r_epik_Ionization_Penalty_Charging>
0

> <r_epik_Ionization_Penalty_Neutral>
2.50279

> <r_epik_State_Penalty>
2.66754

> <r_epik_Charging_Adjusted_Penalty>
2.66754

> <i_epik_Tot_Q>
0

> <i_epik_Tot_abs_Q>
0

> <r_epik_Metal_State_Penalty>
2.66721

> <b_epik_Metal_Only>
0

> <s_lp_Force_Field>
OPLS_2005

> <r_lp_Energy>
9.07018

> <b_lp_Chiralities_Consistent>
1

> <s_lp_Variant>
AV-unprocessed.smi:743-8

> <Gold.Version>
5.8.1

> <Gold.Id.Protein>
6NUR|6NUR_protein|mol2

> <Gold.PLP.Fitness>
34.1988

> <Gold.PLP.PLP>
-22.8995

> <Gold.PLP.part.hbond>
-2.0000

> <Gold.PLP.part.metal>
0.0000

> <Gold.PLP.part.buried>
-2.2788

> <Gold.PLP.part.nonpolar>
-18.3439

> <Gold.PLP.part.repulsive>
0.2828

> <Gold.PLP.ligand.clash>
0.0000

> <Gold.PLP.ligand.torsion>
0.0814

> <Gold.PLP.Chemscore.Hbond>
1.9595

> <Gold.PLP.Chemscore.CHOScore>
1.8553

> <Gold.PLP.Chemscore.Metal>
0.0000

> <Gold.Chemscore.Hbonds>
donor molecule, donor type, donor heavy atom, donor atom, acceptor molecule, acceptor atom, score
      L1  H     6    21       P1  7948  1.00
      L1  H    12    26       P1  7921  0.93
      L1  C     3    19       P1 10171  1.00
      L1  C    13    28       P1 10957  0.75

> <Gold.PLP.Chemscore.Internal.Correction>
0.0179

> <Gold.Rescore>
     Score         DG    S(hbond)    S(metal)    S(lipo)     H(rot)  DE(clash)    DE(int)     intcor
     13.68     -13.83       1.67        0.00      45.57       1.00       0.09       0.05       ----

> <Gold.Chemscore.Fitness>
13.6840

> <Gold.Chemscore.DG>
-13.8297

> <Gold.Chemscore.ZeroCoef>
-5.4800

> <Gold.Chemscore.Hbond>
1.6699

> <Gold.Chemscore.Metal>
0.0000

> <Gold.Chemscore.Lipo>
45.5740

> <Gold.Chemscore.Internal_Hbond>
0.0000

> <Gold.Chemscore.DEClash>
0.0912

> <Gold.Chemscore.DEInternal>
0.0544

> <Gold.Chemscore.Rot>
1.0000

> <Gold.Chemscore.Internal.Correction>
   9.000000E+99

> <Gold.Chemscore.Hbonds>
donor molecule, donor type, donor heavy atom, donor atom, acceptor molecule, acceptor atom, score
      L1  H     6    21       P1  7948  0.62
      L1  H    12    26       P1  7921  0.82

> <Gold.Chemscore.Hbond.Weighted>
-5.5776

> <Gold.Chemscore.Metal.Weighted>
-0.0000

> <Gold.Chemscore.Lipo.Weighted>
-5.3322

> <Gold.Chemscore.Internal_Hbond.Weighted>
0.0000

> <Gold.Chemscore.DEClash.Weighted>
0.0912

> <Gold.Chemscore.DEInternal.Weighted>
0.0544

> <Gold.Chemscore.Rot.Weighted>
2.5600

> <Gold.Chemscore.Internal.Correction.Weighted>
   9.000000E+99

> <Gold.Protein.RotatedTorsions>
[ 6907 6896 6895 6894 ] final  138.60 input  -60.11 | X-H torsion
[ 7974 7965 7964 7962 ] final  120.44 input  175.53 | X-H torsion
[ 8008 7997 7996 7995 ] final   90.70 input   59.86 | X-H torsion
[ 10167 10162 10161 10158 ] final  170.66 input  -65.29 | X-H torsion
[ 10718 10713 10712 10709 ] final   62.10 input   66.30 | X-H torsion
[ 10763 10752 10751 10750 ] final  121.01 input  -60.55 | X-H torsion
[ 11005 11000 10999 10996 ] final  164.67 input  -57.11 | X-H torsion

> <Gold.Protein.ActiveResidues>
 VAL166  LYS551  ARG553  GLY616  TRP617  ASP618  TYR619  PRO620  LYS621  CYS622 
 ASP623  PHE694  ASN695  SER759  ASP760  ASP761  ALA762  ILE779  LEU786  VAL792 
 PHE793  MET794  SER795  GLU796  ALA797  LYS798  CYS799  TRP800  GLU811  SER814 

> <Gold.Protein.RotatedAtoms>
  152.2647  133.5328  159.5402 H   0  0  0  0  0  0  0  0  0  0  0  0  # atno 6907 bound_to 6896
  150.7137  134.0781  159.3897 H   0  0  0  0  0  0  0  0  0  0  0  0  # atno 6908 bound_to 6896
  151.8697  135.0494  160.0529 H   0  0  0  0  0  0  0  0  0  0  0  0  # atno 6909 bound_to 6896
  145.1311  139.3327  143.4664 H   0  0  0  0  0  0  0  0  0  0  0  0  # atno 7974 bound_to 7965
  156.0151  140.3346  155.6980 H   0  0  0  0  0  0  0  0  0  0  0  0  # atno 8008 bound_to 7997
  155.6103  140.0664  157.2726 H   0  0  0  0  0  0  0  0  0  0  0  0  # atno 8009 bound_to 7997
  154.4295  140.1794  156.1253 H   0  0  0  0  0  0  0  0  0  0  0  0  # atno 8010 bound_to 7997
  139.5025  144.3572  151.9862 H   0  0  0  0  0  0  0  0  0  0  0  0  # atno 10167 bound_to 10162
  157.5876  130.9031  149.9544 H   0  0  0  0  0  0  0  0  0  0  0  0  # atno 10718 bound_to 10713
  153.6074  135.3437  155.2967 H   0  0  0  0  0  0  0  0  0  0  0  0  # atno 10763 bound_to 10752
  154.8625  135.4242  154.2347 H   0  0  0  0  0  0  0  0  0  0  0  0  # atno 10764 bound_to 10752
  153.3189  135.7037  153.7120 H   0  0  0  0  0  0  0  0  0  0  0  0  # atno 10765 bound_to 10752
  140.2483  134.7997  157.3477 H   0  0  0  0  0  0  0  0  0  0  0  0  # atno 11005 bound_to 11000
  146.3514  140.1311  142.8597 LP  0  0  0  0  0  0  0  0  0  0  0  0  # atno 17320 bound_to 7965
  145.0634  140.9104  143.4925 LP  0  0  0  0  0  0  0  0  0  0  0  0  # atno 17321 bound_to 7965
  140.3008  144.3648  150.6061 LP  0  0  0  0  0  0  0  0  0  0  0  0  # atno 17342 bound_to 10162
  140.5875  143.2169  151.7315 LP  0  0  0  0  0  0  0  0  0  0  0  0  # atno 17343 bound_to 10162
  156.0927  130.3662  150.0365 LP  0  0  0  0  0  0  0  0  0  0  0  0  # atno 17370 bound_to 10713
  156.8493  130.9453  151.3626 LP  0  0  0  0  0  0  0  0  0  0  0  0  # atno 17371 bound_to 10713
  140.1584  134.4760  155.7912 LP  0  0  0  0  0  0  0  0  0  0  0  0  # atno 17394 bound_to 11000
  141.2204  133.6891  156.7501 LP  0  0  0  0  0  0  0  0  0  0  0  0  # atno 17395 bound_to 11000

$$$$
