AV-unprocessed.smi:1756|AV-procd|sdf|7074|dock2
  -GOLD-   22720 8293D 1   1.00000     0.00000
 Structure written by MMmdl.
 37 38  0  0  0  0  0  0  0  0  2 V2000
  154.4967  141.0093  162.2383 O   0  0  0  0  0  0  0  0  0  0  0  0
  154.6383  140.1466  161.3718 C   0  0  0  0  0  0  0  0  0  0  0  0
  155.4263  139.0731  161.5260 N   0  0  0  0  0  0  0  0  0  0  0  0
  156.2184  138.7645  162.7125 C   0  0  0  0  0  0  0  0  0  0  0  0
  155.7754  137.4498  163.3802 C   0  0  1  0  0  0  0  0  0  0  0  0
  154.2510  137.2116  163.3223 C   0  0  0  0  0  0  0  0  0  0  0  0
  153.8930  135.8414  163.9085 C   0  0  0  0  0  0  0  0  0  0  0  0
  154.7268  134.7520  163.2277 C   0  0  0  0  0  0  0  0  0  0  0  0
  156.2202  135.1072  163.2914 C   0  0  0  0  0  0  0  0  0  0  0  0
  156.4400  136.3854  162.7023 O   0  0  0  0  0  0  0  0  0  0  0  0
  154.0652  140.1440  160.1550 N   0  0  0  0  0  0  0  0  0  0  0  0
  153.1685  141.0628  159.5829 C   0  0  0  0  0  0  0  0  0  0  0  0
  152.7326  142.2059  160.1820 C   0  0  0  0  0  0  0  0  0  0  0  0
  151.7893  143.1126  159.5397 C   0  0  0  0  0  0  0  0  0  0  0  0
  151.3605  144.4414  160.1368 C   0  0  0  0  0  0  0  0  0  0  0  0
  150.0338  144.5129  160.2489 F   0  0  0  0  0  0  0  0  0  0  0  0
  151.8884  144.5839  161.3516 F   0  0  0  0  0  0  0  0  0  0  0  0
  151.7745  145.4591  159.3817 F   0  0  0  0  0  0  0  0  0  0  0  0
  151.4178  142.6783  158.2820 C   0  0  0  0  0  0  0  0  0  0  0  0
  151.7804  141.5523  157.6296 N   0  5  0  0  0  0  0  0  0  0  0  0
  152.6617  140.7110  158.2401 C   0  0  0  0  0  0  0  0  0  0  0  0
  153.0394  139.6714  157.6983 O   0  0  0  0  0  0  0  0  0  0  0  0
  155.4869  138.4192  160.7593 H   0  0  0  0  0  0  0  0  0  0  0  0
  157.2848  138.7365  162.4820 H   0  0  0  0  0  0  0  0  0  0  0  0
  156.0830  139.5883  163.4137 H   0  0  0  0  0  0  0  0  0  0  0  0
  156.1047  137.4588  164.4209 H   0  0  0  0  0  0  0  0  0  0  0  0
  153.7182  137.9891  163.8697 H   0  0  0  0  0  0  0  0  0  0  0  0
  153.9096  137.2684  162.2880 H   0  0  0  0  0  0  0  0  0  0  0  0
  154.0903  135.8394  164.9813 H   0  0  0  0  0  0  0  0  0  0  0  0
  152.8286  135.6413  163.7842 H   0  0  0  0  0  0  0  0  0  0  0  0
  154.5467  133.7866  163.7014 H   0  0  0  0  0  0  0  0  0  0  0  0
  154.4205  134.6529  162.1857 H   0  0  0  0  0  0  0  0  0  0  0  0
  156.5789  135.1023  164.3217 H   0  0  0  0  0  0  0  0  0  0  0  0
  156.8051  134.3647  162.7482 H   0  0  0  0  0  0  0  0  0  0  0  0
  154.3326  139.3916  159.5372 H   0  0  0  0  0  0  0  0  0  0  0  0
  153.0601  142.4737  161.1724 H   0  0  0  0  0  0  0  0  0  0  0  0
  150.7288  143.3374  157.7117 H   0  0  0  0  0  0  0  0  0  0  0  0
  1  2  2  0  0  0  0
  2  3  1  0  0  0  0
  2 11  1  0  0  0  0
  3  4  1  0  0  0  0
  3 23  1  0  0  0  0
  4  5  1  0  0  0  0
  4 24  1  0  0  0  0
  4 25  1  0  0  0  0
  5 10  1  0  0  0  0
  5  6  1  0  0  0  0
  5 26  1  0  0  0  0
  6  7  1  0  0  0  0
  6 27  1  0  0  0  0
  6 28  1  0  0  0  0
  7  8  1  0  0  0  0
  7 29  1  0  0  0  0
  7 30  1  0  0  0  0
  8  9  1  0  0  0  0
  8 31  1  0  0  0  0
  8 32  1  0  0  0  0
  9 10  1  0  0  0  0
  9 33  1  0  0  0  0
  9 34  1  0  0  0  0
 11 12  1  0  0  0  0
 11 35  1  0  0  0  0
 12 21  1  0  0  0  0
 12 13  2  0  0  0  0
 13 14  1  0  0  0  0
 13 36  1  0  0  0  0
 14 15  1  0  0  0  0
 14 19  2  0  0  0  0
 15 16  1  0  0  0  0
 15 17  1  0  0  0  0
 15 18  1  0  0  0  0
 19 20  1  0  0  0  0
 19 37  1  0  0  0  0
 20 21  1  0  0  0  0
 21 22  2  0  0  0  0
M  CHG  1  20  -1
M  END
> <s_m_source_file>
AV-unprocessed.smi

> <i_m_source_file_index>
1756

> <i_lp_mmshare_version>
43012

> <i_f3d_flags>
0

> <s_epik_input>
Tz1jMVtuSF1bY0hdYyhDKEYpKEYpRilbY0hdYzFbTkhdQyg9TylbTkhdW0NIMl1bQ0BASF0yW0NIMl1bQ0gyXVtDSDJdW0NIMl1PMg==

> <s_epik_cmdline>
J2VwaWtfcHl0aG9uJywgJy1waCcsICc3LjAnLCAnLXRuJywgJzgnLCAnLW1hJywgJzIwMCcsICctbWV0YWxfYmluZGluZycsICctaW1hZScsICc8aW5maWxlLm1hZT4nLCAnLW9tYWUnLCAnPG91dGZpbGUubWFlPic=

> <r_lp_tautomer_probability>
1

> <r_epik_Ionization_Penalty>
3.16985

> <r_epik_Ionization_Penalty_Charging>
0.174782

> <r_epik_Ionization_Penalty_Neutral>
2.99507

> <r_epik_State_Penalty>
2.99125

> <r_epik_Charging_Adjusted_Penalty>
3.16603

> <i_epik_Tot_Q>
-1

> <i_epik_Tot_abs_Q>
1

> <r_epik_Metal_State_Penalty>
0.453096

> <b_epik_Metal_Only>
1

> <s_lp_Force_Field>
OPLS_2005

> <r_lp_Energy>
20.8362

> <b_lp_Chiralities_Consistent>
1

> <s_lp_Variant>
AV-unprocessed.smi:1756-4

> <Gold.Version>
5.8.1

> <Gold.Id.Protein>
6NUR|6NUR_protein|mol2

> <Gold.PLP.Fitness>
44.7600

> <Gold.PLP.PLP>
-42.3022

> <Gold.PLP.part.hbond>
-2.0000

> <Gold.PLP.part.metal>
0.0000

> <Gold.PLP.part.buried>
-5.1623

> <Gold.PLP.part.nonpolar>
-35.1432

> <Gold.PLP.part.repulsive>
0.0652

> <Gold.PLP.ligand.clash>
0.0000

> <Gold.PLP.ligand.torsion>
0.3013

> <Gold.PLP.Chemscore.Hbond>
1.0000

> <Gold.PLP.Chemscore.CHOScore>
0.0000

> <Gold.PLP.Chemscore.Metal>
0.0000

> <Gold.Chemscore.Hbonds>
donor molecule, donor type, donor heavy atom, donor atom, acceptor molecule, acceptor atom, score
      P1  H  7997  8010       L1    22  1.00

> <Gold.PLP.Chemscore.Internal.Correction>
0.0604

> <Gold.Rescore>
     Score         DG    S(hbond)    S(metal)    S(lipo)     H(rot)  DE(clash)    DE(int)     intcor
     13.06     -14.74       0.87        0.00      83.24       1.32       0.19       1.48       ----

> <Gold.Chemscore.Fitness>
13.0607

> <Gold.Chemscore.DG>
-14.7398

> <Gold.Chemscore.ZeroCoef>
-5.4800

> <Gold.Chemscore.Hbond>
0.8718

> <Gold.Chemscore.Metal>
0.0000

> <Gold.Chemscore.Lipo>
83.2431

> <Gold.Chemscore.Internal_Hbond>
0.0000

> <Gold.Chemscore.DEClash>
0.1950

> <Gold.Chemscore.DEInternal>
1.4841

> <Gold.Chemscore.Rot>
1.3248

> <Gold.Chemscore.Internal.Correction>
   9.000000E+99

> <Gold.Chemscore.Hbonds>
donor molecule, donor type, donor heavy atom, donor atom, acceptor molecule, acceptor atom, score
      P1  H  7997  8010       L1    22  0.60

> <Gold.Chemscore.Hbond.Weighted>
-2.9119

> <Gold.Chemscore.Metal.Weighted>
-0.0000

> <Gold.Chemscore.Lipo.Weighted>
-9.7394

> <Gold.Chemscore.Internal_Hbond.Weighted>
0.0000

> <Gold.Chemscore.DEClash.Weighted>
0.1950

> <Gold.Chemscore.DEInternal.Weighted>
1.4841

> <Gold.Chemscore.Rot.Weighted>
3.3915

> <Gold.Chemscore.Internal.Correction.Weighted>
   9.000000E+99

> <Gold.Protein.RotatedTorsions>
[ 6907 6896 6895 6894 ] final  134.69 input  -60.11 | X-H torsion
[ 7974 7965 7964 7962 ] final   -5.91 input  175.53 | X-H torsion
[ 8008 7997 7996 7995 ] final   57.52 input   59.86 | X-H torsion
[ 10167 10162 10161 10158 ] final   92.78 input  -65.29 | X-H torsion
[ 10718 10713 10712 10709 ] final -124.74 input   66.30 | X-H torsion
[ 10763 10752 10751 10750 ] final -178.37 input  -60.55 | X-H torsion
[ 11005 11000 10999 10996 ] final  -97.18 input  -57.11 | X-H torsion

> <Gold.Protein.ActiveResidues>
 VAL166  LYS551  ARG553  GLY616  TRP617  ASP618  TYR619  PRO620  LYS621  CYS622 
 ASP623  PHE694  ASN695  SER759  ASP760  ASP761  ALA762  ILE779  LEU786  VAL792 
 PHE793  MET794  SER795  GLU796  ALA797  LYS798  CYS799  TRP800  GLU811  SER814 

> <Gold.Protein.RotatedAtoms>
  152.3086  133.5729  159.5665 H   0  0  0  0  0  0  0  0  0  0  0  0  # atno 6907 bound_to 6896
  150.7312  134.0186  159.3702 H   0  0  0  0  0  0  0  0  0  0  0  0  # atno 6908 bound_to 6896
  151.8080  135.0689  160.0460 H   0  0  0  0  0  0  0  0  0  0  0  0  # atno 6909 bound_to 6896
  146.2343  140.2091  142.8335 H   0  0  0  0  0  0  0  0  0  0  0  0  # atno 7974 bound_to 7965
  155.5351  140.3483  155.4434 H   0  0  0  0  0  0  0  0  0  0  0  0  # atno 8008 bound_to 7997
  156.0691  140.1358  156.9877 H   0  0  0  0  0  0  0  0  0  0  0  0  # atno 8009 bound_to 7997
  154.4518  140.0969  156.6616 H   0  0  0  0  0  0  0  0  0  0  0  0  # atno 8010 bound_to 7997
  139.8243  144.6717  150.9479 H   0  0  0  0  0  0  0  0  0  0  0  0  # atno 10167 bound_to 10162
  156.1614  130.6604  151.0055 H   0  0  0  0  0  0  0  0  0  0  0  0  # atno 10718 bound_to 10713
  154.5485  135.2811  155.1030 H   0  0  0  0  0  0  0  0  0  0  0  0  # atno 10763 bound_to 10752
  154.2485  135.6344  153.5235 H   0  0  0  0  0  0  0  0  0  0  0  0  # atno 10764 bound_to 10752
  152.9997  135.5577  154.6045 H   0  0  0  0  0  0  0  0  0  0  0  0  # atno 10765 bound_to 10752
  141.1387  133.8152  157.0671 H   0  0  0  0  0  0  0  0  0  0  0  0  # atno 11005 bound_to 11000
  144.9721  140.8378  143.5449 LP  0  0  0  0  0  0  0  0  0  0  0  0  # atno 17320 bound_to 7965
  145.2074  139.2221  143.5161 LP  0  0  0  0  0  0  0  0  0  0  0  0  # atno 17321 bound_to 7965
  140.7811  143.4061  151.1068 LP  0  0  0  0  0  0  0  0  0  0  0  0  # atno 17342 bound_to 10162
  139.7719  143.8481  152.3122 LP  0  0  0  0  0  0  0  0  0  0  0  0  # atno 17343 bound_to 10162
  157.6735  131.0856  150.7552 LP  0  0  0  0  0  0  0  0  0  0  0  0  # atno 17370 bound_to 10713
  156.7615  130.4800  149.5436 LP  0  0  0  0  0  0  0  0  0  0  0  0  # atno 17371 bound_to 10713
  140.0534  134.9793  157.1178 LP  0  0  0  0  0  0  0  0  0  0  0  0  # atno 17394 bound_to 11000
  140.3955  134.2139  155.7165 LP  0  0  0  0  0  0  0  0  0  0  0  0  # atno 17395 bound_to 11000

$$$$
