AV-unprocessed.smi:3199|AV-procd|sdf|12233|dock5
  -GOLD-   2272018 63D 1   1.00000     0.00000
 Structure written by MMmdl.
 36 37  0  0  0  0  0  0  0  0  2 V2000
  151.5149  145.2905  160.2361 C   0  0  0  0  0  0  0  0  0  0  0  0
  151.9235  143.8610  159.9499 C   0  0  0  0  0  0  0  0  0  0  0  0
  152.6722  143.0925  160.8673 C   0  0  0  0  0  0  0  0  0  0  0  0
  153.0167  141.7656  160.5349 C   0  0  0  0  0  0  0  0  0  0  0  0
  152.6062  141.2344  159.2924 C   0  0  0  0  0  0  0  0  0  0  0  0
  152.9582  139.8129  158.9002 C   0  0  0  0  0  0  0  0  0  0  0  0
  152.2818  138.7747  159.8111 C   0  0  0  0  0  0  0  0  0  0  0  0
  153.1321  138.4144  160.9392 N   0  0  0  0  0  0  0  0  0  0  0  0
  153.4928  137.1619  161.2627 C   0  0  0  0  0  0  0  0  0  0  0  0
  153.1421  136.1772  160.6118 O   0  0  0  0  0  0  0  0  0  0  0  0
  154.4040  136.9887  162.4871 C   0  0  2  0  0  0  0  0  0  0  0  0
  153.7544  136.2355  163.6644 C   0  0  0  0  0  0  0  0  0  0  0  0
  153.9223  137.1756  164.8469 C   0  0  0  0  0  0  0  0  0  0  0  0
  155.0471  138.0965  164.3946 C   0  0  0  0  0  0  0  0  0  0  0  0
  154.7682  138.2626  163.0156 O   0  0  0  0  0  0  0  0  0  0  0  0
  151.8577  142.0492  158.4161 C   0  0  0  0  0  0  0  0  0  0  0  0
  151.5471  143.3149  158.7717 N   0  3  0  0  0  0  0  0  0  0  0  0
  152.0869  145.7012  161.0687 H   0  0  0  0  0  0  0  0  0  0  0  0
  150.4562  145.3366  160.4921 H   0  0  0  0  0  0  0  0  0  0  0  0
  151.6864  145.9217  159.3636 H   0  0  0  0  0  0  0  0  0  0  0  0
  152.9797  143.5121  161.8143 H   0  0  0  0  0  0  0  0  0  0  0  0
  153.5891  141.1654  161.2273 H   0  0  0  0  0  0  0  0  0  0  0  0
  152.6608  139.6588  157.8620 H   0  0  0  0  0  0  0  0  0  0  0  0
  154.0414  139.6869  158.9299 H   0  0  0  0  0  0  0  0  0  0  0  0
  151.3464  139.1755  160.2028 H   0  0  0  0  0  0  0  0  0  0  0  0
  152.0227  137.8781  159.2454 H   0  0  0  0  0  0  0  0  0  0  0  0
  153.4645  139.1664  161.5260 H   0  0  0  0  0  0  0  0  0  0  0  0
  155.3140  136.4721  162.1777 H   0  0  0  0  0  0  0  0  0  0  0  0
  152.7020  135.9941  163.5093 H   0  0  0  0  0  0  0  0  0  0  0  0
  154.2824  135.2981  163.8421 H   0  0  0  0  0  0  0  0  0  0  0  0
  153.0091  137.7540  164.9927 H   0  0  0  0  0  0  0  0  0  0  0  0
  154.1473  136.6550  165.7782 H   0  0  0  0  0  0  0  0  0  0  0  0
  155.0525  139.0496  164.9237 H   0  0  0  0  0  0  0  0  0  0  0  0
  156.0211  137.6211  164.5211 H   0  0  0  0  0  0  0  0  0  0  0  0
  151.4992  141.7284  157.4487 H   0  0  0  0  0  0  0  0  0  0  0  0
  151.0044  143.8843  158.1220 H   0  0  0  0  0  0  0  0  0  0  0  0
  1  2  1  0  0  0  0
  1 18  1  0  0  0  0
  1 19  1  0  0  0  0
  1 20  1  0  0  0  0
  2 17  1  0  0  0  0
  2  3  2  0  0  0  0
  3  4  1  0  0  0  0
  3 21  1  0  0  0  0
  4  5  2  0  0  0  0
  4 22  1  0  0  0  0
  5  6  1  0  0  0  0
  5 16  1  0  0  0  0
  6  7  1  0  0  0  0
  6 23  1  0  0  0  0
  6 24  1  0  0  0  0
  7  8  1  0  0  0  0
  7 25  1  0  0  0  0
  7 26  1  0  0  0  0
  8  9  1  0  0  0  0
  8 27  1  0  0  0  0
  9 10  2  0  0  0  0
  9 11  1  0  0  0  0
 11 15  1  0  0  0  0
 11 12  1  0  0  0  0
 11 28  1  0  0  0  0
 12 13  1  0  0  0  0
 12 29  1  0  0  0  0
 12 30  1  0  0  0  0
 13 14  1  0  0  0  0
 13 31  1  0  0  0  0
 13 32  1  0  0  0  0
 14 15  1  0  0  0  0
 14 33  1  0  0  0  0
 14 34  1  0  0  0  0
 16 17  2  0  0  0  0
 16 35  1  0  0  0  0
 17 36  1  0  0  0  0
M  CHG  1  17   1
M  END
> <s_m_source_file>
AV-unprocessed.smi

> <i_m_source_file_index>
3199

> <i_lp_mmshare_version>
43012

> <i_f3d_flags>
0

> <s_epik_input>
W0NIM11jMVtjSF1bY0hdYyhbY0hdbjEpW0NIMl1bQ0gyXVtOSF1DKD1PKVtDQEBIXTJbQ0gyXVtDSDJdW0NIMl1PMg==

> <s_epik_cmdline>
J2VwaWtfcHl0aG9uJywgJy1waCcsICc3LjAnLCAnLXRuJywgJzgnLCAnLW1hJywgJzIwMCcsICctbWV0YWxfYmluZGluZycsICctaW1hZScsICc8aW5maWxlLm1hZT4nLCAnLW9tYWUnLCAnPG91dGZpbGUubWFlPic=

> <r_epik_Ionization_Penalty>
1.4683

> <r_epik_Ionization_Penalty_Charging>
1.4683

> <r_epik_Ionization_Penalty_Neutral>
5.71603e-08

> <r_epik_State_Penalty>
1.5559

> <r_epik_Charging_Adjusted_Penalty>
3.0242

> <i_epik_Tot_Q>
1

> <i_epik_Tot_abs_Q>
1

> <r_epik_Metal_State_Penalty>
1.60421

> <b_epik_Metal_Only>
0

> <s_lp_Force_Field>
OPLS_2005

> <r_lp_Energy>
23.6243

> <b_lp_Chiralities_Consistent>
1

> <s_lp_Variant>
AV-unprocessed.smi:3199-3

> <Gold.Version>
5.8.1

> <Gold.Id.Protein>
6NUR|6NUR_protein|mol2

> <Gold.PLP.Fitness>
39.1511

> <Gold.PLP.PLP>
-36.7532

> <Gold.PLP.part.hbond>
-1.0000

> <Gold.PLP.part.metal>
0.0000

> <Gold.PLP.part.buried>
-3.4103

> <Gold.PLP.part.nonpolar>
-32.9196

> <Gold.PLP.part.repulsive>
0.0811

> <Gold.PLP.ligand.clash>
0.0000

> <Gold.PLP.ligand.torsion>
0.3035

> <Gold.PLP.Chemscore.Hbond>
1.0000

> <Gold.PLP.Chemscore.CHOScore>
0.0000

> <Gold.PLP.Chemscore.Metal>
0.0000

> <Gold.Chemscore.Hbonds>
donor molecule, donor type, donor heavy atom, donor atom, acceptor molecule, acceptor atom, score
      P1  H  6896  6908       L1    10  1.00

> <Gold.PLP.Chemscore.Internal.Correction>
0.0049

> <Gold.Rescore>
     Score         DG    S(hbond)    S(metal)    S(lipo)     H(rot)  DE(clash)    DE(int)     intcor
     17.39     -17.88       1.00        0.00     111.64       1.56       0.16       0.33       ----

> <Gold.Chemscore.Fitness>
17.3939

> <Gold.Chemscore.DG>
-17.8836

> <Gold.Chemscore.ZeroCoef>
-5.4800

> <Gold.Chemscore.Hbond>
0.9995

> <Gold.Chemscore.Metal>
0.0000

> <Gold.Chemscore.Lipo>
111.6436

> <Gold.Chemscore.Internal_Hbond>
0.0000

> <Gold.Chemscore.DEClash>
0.1616

> <Gold.Chemscore.DEInternal>
0.3280

> <Gold.Chemscore.Rot>
1.5613

> <Gold.Chemscore.Internal.Correction>
   9.000000E+99

> <Gold.Chemscore.Hbonds>
donor molecule, donor type, donor heavy atom, donor atom, acceptor molecule, acceptor atom, score
      P1  H  6896  6908       L1    10  0.99

> <Gold.Chemscore.Hbond.Weighted>
-3.3382

> <Gold.Chemscore.Metal.Weighted>
-0.0000

> <Gold.Chemscore.Lipo.Weighted>
-13.0623

> <Gold.Chemscore.Internal_Hbond.Weighted>
0.0000

> <Gold.Chemscore.DEClash.Weighted>
0.1616

> <Gold.Chemscore.DEInternal.Weighted>
0.3280

> <Gold.Chemscore.Rot.Weighted>
3.9969

> <Gold.Chemscore.Internal.Correction.Weighted>
   9.000000E+99

> <Gold.Protein.RotatedTorsions>
[ 6907 6896 6895 6894 ] final  -91.83 input  -60.11 | X-H torsion
[ 7974 7965 7964 7962 ] final  123.25 input  175.53 | X-H torsion
[ 8008 7997 7996 7995 ] final -152.56 input   59.86 | X-H torsion
[ 10167 10162 10161 10158 ] final  170.54 input  -65.29 | X-H torsion
[ 10718 10713 10712 10709 ] final  -12.84 input   66.30 | X-H torsion
[ 10763 10752 10751 10750 ] final  120.93 input  -60.55 | X-H torsion
[ 11005 11000 10999 10996 ] final    6.74 input  -57.11 | X-H torsion

> <Gold.Protein.ActiveResidues>
 VAL166  LYS551  ARG553  GLY616  TRP617  ASP618  TYR619  PRO620  LYS621  CYS622 
 ASP623  PHE694  ASN695  SER759  ASP760  ASP761  ALA762  ILE779  LEU786  VAL792 
 PHE793  MET794  SER795  GLU796  ALA797  LYS798  CYS799  TRP800  GLU811  SER814 

> <Gold.Protein.RotatedAtoms>
  150.6897  134.2216  159.4398 H   0  0  0  0  0  0  0  0  0  0  0  0  # atno 6907 bound_to 6896
  152.0172  134.9841  160.0579 H   0  0  0  0  0  0  0  0  0  0  0  0  # atno 6908 bound_to 6896
  152.1432  133.4442  159.4814 H   0  0  0  0  0  0  0  0  0  0  0  0  # atno 6909 bound_to 6896
  145.0981  139.3538  143.4826 H   0  0  0  0  0  0  0  0  0  0  0  0  # atno 7974 bound_to 7965
  155.6571  140.0718  157.2567 H   0  0  0  0  0  0  0  0  0  0  0  0  # atno 8008 bound_to 7997
  154.4150  140.1723  156.1787 H   0  0  0  0  0  0  0  0  0  0  0  0  # atno 8009 bound_to 7997
  155.9728  140.3360  155.6594 H   0  0  0  0  0  0  0  0  0  0  0  0  # atno 8010 bound_to 7997
  139.5021  144.3585  151.9849 H   0  0  0  0  0  0  0  0  0  0  0  0  # atno 10167 bound_to 10162
  156.6388  130.4922  149.6102 H   0  0  0  0  0  0  0  0  0  0  0  0  # atno 10718 bound_to 10713
  153.6062  135.3439  155.2963 H   0  0  0  0  0  0  0  0  0  0  0  0  # atno 10763 bound_to 10752
  154.8627  135.4239  154.2359 H   0  0  0  0  0  0  0  0  0  0  0  0  # atno 10764 bound_to 10752
  153.3199  135.7037  153.7112 H   0  0  0  0  0  0  0  0  0  0  0  0  # atno 10765 bound_to 10752
  140.5561  134.0237  155.7954 H   0  0  0  0  0  0  0  0  0  0  0  0  # atno 11005 bound_to 11000
  146.3530  140.0846  142.8616 LP  0  0  0  0  0  0  0  0  0  0  0  0  # atno 17320 bound_to 7965
  145.0987  140.9332  143.4725 LP  0  0  0  0  0  0  0  0  0  0  0  0  # atno 17321 bound_to 7965
  140.3021  144.3634  150.6057 LP  0  0  0  0  0  0  0  0  0  0  0  0  # atno 17342 bound_to 10162
  140.5865  143.2170  151.7332 LP  0  0  0  0  0  0  0  0  0  0  0  0  # atno 17343 bound_to 10162
  156.2175  130.6717  151.1334 LP  0  0  0  0  0  0  0  0  0  0  0  0  # atno 17370 bound_to 10713
  157.7177  131.0700  150.6261 LP  0  0  0  0  0  0  0  0  0  0  0  0  # atno 17371 bound_to 10713
  141.1142  133.9567  157.2853 LP  0  0  0  0  0  0  0  0  0  0  0  0  # atno 17394 bound_to 11000
  139.9431  135.0188  156.8769 LP  0  0  0  0  0  0  0  0  0  0  0  0  # atno 17395 bound_to 11000

$$$$
