AV-unprocessed.smi:1679|AV-procd|sdf|6732|dock3
  -GOLD-   22720 7473D 1   1.00000     0.00000
 Structure written by MMmdl.
 45 46  0  0  0  0  0  0  0  0  1 V2000
  152.7306  142.2903  162.2080 C   0  0  0  0  0  0  0  0  0  0  0  0
  152.1076  142.9906  160.9893 C   0  0  1  0  0  0  0  0  0  0  0  0
  152.0780  144.5178  161.1971 C   0  0  0  0  0  0  0  0  0  0  0  0
  151.4541  145.2429  159.9963 C   0  0  0  0  0  0  0  0  0  0  0  0
  152.1996  144.8969  158.7013 C   0  0  0  0  0  0  0  0  0  0  0  0
  152.2360  143.3794  158.4752 C   0  0  0  0  0  0  0  0  0  0  0  0
  152.8432  142.6244  159.6795 C   0  0  2  0  0  0  0  0  0  0  0  0
  152.6857  141.2247  159.4857 O   0  0  0  0  0  0  0  0  0  0  0  0
  151.3714  140.8065  159.1415 C   0  0  0  0  0  0  0  0  0  0  0  0
  151.4506  139.4026  158.5183 C   0  0  0  0  0  0  0  0  0  0  0  0
  150.1229  138.8458  158.2785 N   0  0  0  0  0  0  0  0  0  0  0  0
  149.6812  137.6592  158.7225 C   0  0  0  0  0  0  0  0  0  0  0  0
  150.3211  136.9378  159.4871 O   0  0  0  0  0  0  0  0  0  0  0  0
  148.3106  137.2110  158.2060 C   0  0  0  0  0  0  0  0  0  0  0  0
  147.8022  136.0816  158.9967 N   0  0  0  0  0  0  0  0  0  0  0  0
  147.7133  134.8206  158.4230 C   0  0  0  0  0  0  0  0  0  0  0  0
  147.2937  133.7220  159.0941 C   0  0  0  0  0  0  0  0  0  0  0  0
  146.9045  133.8180  160.4966 C   0  0  0  0  0  0  0  0  0  0  0  0
  146.5194  132.8805  161.1914 O   0  0  0  0  0  0  0  0  0  0  0  0
  147.0062  135.1021  161.0382 N   0  0  0  0  0  0  0  0  0  0  0  0
  147.4383  136.2386  160.3523 C   0  0  0  0  0  0  0  0  0  0  0  0
  147.4979  137.3225  160.9313 O   0  0  0  0  0  0  0  0  0  0  0  0
  146.7503  135.2175  162.0081 H   0  0  0  0  0  0  0  0  0  0  0  0
  153.7720  142.5830  162.3434 H   0  0  0  0  0  0  0  0  0  0  0  0
  152.7013  141.2056  162.1021 H   0  0  0  0  0  0  0  0  0  0  0  0
  152.1929  142.5423  163.1222 H   0  0  0  0  0  0  0  0  0  0  0  0
  151.0751  142.6480  160.9029 H   0  0  0  0  0  0  0  0  0  0  0  0
  151.5146  144.7606  162.0988 H   0  0  0  0  0  0  0  0  0  0  0  0
  153.0911  144.8885  161.3580 H   0  0  0  0  0  0  0  0  0  0  0  0
  150.4042  144.9631  159.9029 H   0  0  0  0  0  0  0  0  0  0  0  0
  151.4741  146.3206  160.1602 H   0  0  0  0  0  0  0  0  0  0  0  0
  151.7179  145.3855  157.8538 H   0  0  0  0  0  0  0  0  0  0  0  0
  153.2177  145.2852  158.7475 H   0  0  0  0  0  0  0  0  0  0  0  0
  151.2236  143.0191  158.3039 H   0  0  0  0  0  0  0  0  0  0  0  0
  152.7895  143.1724  157.5600 H   0  0  0  0  0  0  0  0  0  0  0  0
  153.9010  142.8740  159.7833 H   0  0  0  0  0  0  0  0  0  0  0  0
  150.7149  140.7827  160.0102 H   0  0  0  0  0  0  0  0  0  0  0  0
  150.9342  141.5144  158.4365 H   0  0  0  0  0  0  0  0  0  0  0  0
  152.0211  139.4268  157.5889 H   0  0  0  0  0  0  0  0  0  0  0  0
  151.9780  138.7300  159.1950 H   0  0  0  0  0  0  0  0  0  0  0  0
  149.5202  139.3694  157.6604 H   0  0  0  0  0  0  0  0  0  0  0  0
  147.6202  138.0559  158.2346 H   0  0  0  0  0  0  0  0  0  0  0  0
  148.3794  136.9364  157.1518 H   0  0  0  0  0  0  0  0  0  0  0  0
  148.0007  134.7008  157.3879 H   0  0  0  0  0  0  0  0  0  0  0  0
  147.2513  132.7662  158.5919 H   0  0  0  0  0  0  0  0  0  0  0  0
  1  2  1  0  0  0  0
  1 24  1  0  0  0  0
  1 25  1  0  0  0  0
  1 26  1  0  0  0  0
  2  7  1  0  0  0  0
  2  3  1  0  0  0  0
  2 27  1  0  0  0  0
  3  4  1  0  0  0  0
  3 28  1  0  0  0  0
  3 29  1  0  0  0  0
  4  5  1  0  0  0  0
  4 30  1  0  0  0  0
  4 31  1  0  0  0  0
  5  6  1  0  0  0  0
  5 32  1  0  0  0  0
  5 33  1  0  0  0  0
  6  7  1  0  0  0  0
  6 34  1  0  0  0  0
  6 35  1  0  0  0  0
  7  8  1  0  0  0  0
  7 36  1  0  0  0  0
  8  9  1  0  0  0  0
  9 10  1  0  0  0  0
  9 37  1  0  0  0  0
  9 38  1  0  0  0  0
 10 11  1  0  0  0  0
 10 39  1  0  0  0  0
 10 40  1  0  0  0  0
 11 12  1  0  0  0  0
 11 41  1  0  0  0  0
 12 13  2  0  0  0  0
 12 14  1  0  0  0  0
 14 15  1  0  0  0  0
 14 42  1  0  0  0  0
 14 43  1  0  0  0  0
 15 21  1  0  0  0  0
 15 16  1  0  0  0  0
 16 17  2  0  0  0  0
 16 44  1  0  0  0  0
 17 18  1  0  0  0  0
 17 45  1  0  0  0  0
 18 19  2  0  0  0  0
 18 20  1  0  0  0  0
 20 23  1  0  0  0  0
 20 21  1  0  0  0  0
 21 22  2  0  0  0  0
M  END
> <s_m_source_file>
AV-unprocessed.smi

> <i_m_source_file_index>
1679

> <i_lp_mmshare_version>
43012

> <i_f3d_flags>
0

> <s_epik_input>
W0NIM11bQ0BASF0xW0NIMl1bQ0gyXVtDSDJdW0NIMl1bQ0BIXTFPW0NIMl1bQ0gyXVtOSF1DKD1PKVtDSDJdbjJbY0hdW2NIXWMoPU8pW25IXWMyPU8=

> <s_epik_cmdline>
J2VwaWtfcHl0aG9uJywgJy1waCcsICc3LjAnLCAnLXRuJywgJzgnLCAnLW1hJywgJzIwMCcsICctbWV0YWxfYmluZGluZycsICctaW1hZScsICc8aW5maWxlLm1hZT4nLCAnLW9tYWUnLCAnPG91dGZpbGUubWFlPic=

> <r_lp_tautomer_probability>
0.999537

> <r_epik_Ionization_Penalty>
0.0033132

> <r_epik_Ionization_Penalty_Charging>
0.00331317

> <r_epik_Ionization_Penalty_Neutral>
2.78599e-08

> <r_epik_State_Penalty>
0.002342

> <r_epik_Charging_Adjusted_Penalty>
0.00565517

> <i_epik_Tot_Q>
0

> <i_epik_Tot_abs_Q>
0

> <r_epik_Metal_State_Penalty>
0.365595

> <b_epik_Metal_Only>
0

> <s_lp_Force_Field>
OPLS_2005

> <r_lp_Energy>
10.1003

> <b_lp_Chiralities_Consistent>
1

> <s_lp_Variant>
AV-unprocessed.smi:1679-4

> <Gold.Version>
5.8.1

> <Gold.Id.Protein>
6NUR|6NUR_protein|mol2

> <Gold.PLP.Fitness>
54.3037

> <Gold.PLP.PLP>
-46.7943

> <Gold.PLP.part.hbond>
-3.0000

> <Gold.PLP.part.metal>
0.0000

> <Gold.PLP.part.buried>
-6.7044

> <Gold.PLP.part.nonpolar>
-37.2867

> <Gold.PLP.part.repulsive>
0.1957

> <Gold.PLP.ligand.clash>
0.0000

> <Gold.PLP.ligand.torsion>
0.3988

> <Gold.PLP.Chemscore.Hbond>
2.7200

> <Gold.PLP.Chemscore.CHOScore>
0.0000

> <Gold.PLP.Chemscore.Metal>
0.0000

> <Gold.Chemscore.Hbonds>
donor molecule, donor type, donor heavy atom, donor atom, acceptor molecule, acceptor atom, score
      P1  H  6896  6907       L1    13  0.94
      P1  H  6931  6943       L1    22  0.78
      P1  H  6934  6947       L1    22  0.99

> <Gold.PLP.Chemscore.Internal.Correction>
0.1471

> <Gold.Rescore>
     Score         DG    S(hbond)    S(metal)    S(lipo)     H(rot)  DE(clash)    DE(int)     intcor
     20.06     -20.45       2.76        0.00     104.36       2.52       0.01       0.38       ----

> <Gold.Chemscore.Fitness>
20.0615

> <Gold.Chemscore.DG>
-20.4493

> <Gold.Chemscore.ZeroCoef>
-5.4800

> <Gold.Chemscore.Hbond>
2.7564

> <Gold.Chemscore.Metal>
0.0000

> <Gold.Chemscore.Lipo>
104.3588

> <Gold.Chemscore.Internal_Hbond>
0.0000

> <Gold.Chemscore.DEClash>
0.0077

> <Gold.Chemscore.DEInternal>
0.3801

> <Gold.Chemscore.Rot>
2.5185

> <Gold.Chemscore.Internal.Correction>
   9.000000E+99

> <Gold.Chemscore.Hbonds>
donor molecule, donor type, donor heavy atom, donor atom, acceptor molecule, acceptor atom, score
      P1  H  6896  6907       L1    13  0.90
      P1  H  6931  6943       L1    22  0.72
      P1  H  6934  6947       L1    22  0.94

> <Gold.Chemscore.Hbond.Weighted>
-9.2065

> <Gold.Chemscore.Metal.Weighted>
-0.0000

> <Gold.Chemscore.Lipo.Weighted>
-12.2100

> <Gold.Chemscore.Internal_Hbond.Weighted>
0.0000

> <Gold.Chemscore.DEClash.Weighted>
0.0077

> <Gold.Chemscore.DEInternal.Weighted>
0.3801

> <Gold.Chemscore.Rot.Weighted>
6.4472

> <Gold.Chemscore.Internal.Correction.Weighted>
   9.000000E+99

> <Gold.Protein.RotatedTorsions>
[ 6907 6896 6895 6894 ] final  -29.16 input  -60.11 | X-H torsion
[ 7974 7965 7964 7962 ] final  -92.73 input  175.53 | X-H torsion
[ 8008 7997 7996 7995 ] final  155.10 input   59.86 | X-H torsion
[ 10167 10162 10161 10158 ] final  153.63 input  -65.29 | X-H torsion
[ 10718 10713 10712 10709 ] final  101.81 input   66.30 | X-H torsion
[ 10763 10752 10751 10750 ] final   58.88 input  -60.55 | X-H torsion
[ 11005 11000 10999 10996 ] final -136.19 input  -57.11 | X-H torsion

> <Gold.Protein.ActiveResidues>
 VAL166  LYS551  ARG553  GLY616  TRP617  ASP618  TYR619  PRO620  LYS621  CYS622 
 ASP623  PHE694  ASN695  SER759  ASP760  ASP761  ALA762  ILE779  LEU786  VAL792 
 PHE793  MET794  SER795  GLU796  ALA797  LYS798  CYS799  TRP800  GLU811  SER814 

> <Gold.Protein.RotatedAtoms>
  151.1230  135.0089  159.8547 H   0  0  0  0  0  0  0  0  0  0  0  0  # atno 6907 bound_to 6896
  152.5448  134.1700  159.8603 H   0  0  0  0  0  0  0  0  0  0  0  0  # atno 6908 bound_to 6896
  151.1760  133.4710  159.2627 H   0  0  0  0  0  0  0  0  0  0  0  0  # atno 6909 bound_to 6896
  145.3959  140.9533  143.2314 H   0  0  0  0  0  0  0  0  0  0  0  0  # atno 7974 bound_to 7965
  156.2496  140.1948  156.6749 H   0  0  0  0  0  0  0  0  0  0  0  0  # atno 8008 bound_to 7997
  154.6365  140.0589  156.9821 H   0  0  0  0  0  0  0  0  0  0  0  0  # atno 8009 bound_to 7997
  155.1629  140.3261  155.4410 H   0  0  0  0  0  0  0  0  0  0  0  0  # atno 8010 bound_to 7997
  139.4826  144.5256  151.7806 H   0  0  0  0  0  0  0  0  0  0  0  0  # atno 10167 bound_to 10162
  157.6819  131.0736  150.5309 H   0  0  0  0  0  0  0  0  0  0  0  0  # atno 10718 bound_to 10713
  152.9881  135.5591  154.5624 H   0  0  0  0  0  0  0  0  0  0  0  0  # atno 10763 bound_to 10752
  154.5040  135.2799  155.1399 H   0  0  0  0  0  0  0  0  0  0  0  0  # atno 10764 bound_to 10752
  154.2818  135.6343  153.5403 H   0  0  0  0  0  0  0  0  0  0  0  0  # atno 10765 bound_to 10752
  140.8828  134.1910  157.4580 H   0  0  0  0  0  0  0  0  0  0  0  0  # atno 11005 bound_to 11000
  144.8407  139.5476  143.6901 LP  0  0  0  0  0  0  0  0  0  0  0  0  # atno 17320 bound_to 7965
  146.2775  139.6791  142.9252 LP  0  0  0  0  0  0  0  0  0  0  0  0  # atno 17321 bound_to 7965
  140.4776  144.1497  150.5927 LP  0  0  0  0  0  0  0  0  0  0  0  0  # atno 17342 bound_to 10162
  140.4314  143.2567  151.9591 LP  0  0  0  0  0  0  0  0  0  0  0  0  # atno 17343 bound_to 10162
  156.5619  130.4258  149.6059 LP  0  0  0  0  0  0  0  0  0  0  0  0  # atno 17370 bound_to 10713
  156.2814  130.7073  151.1897 LP  0  0  0  0  0  0  0  0  0  0  0  0  # atno 17371 bound_to 10713
  139.8721  134.9824  156.5157 LP  0  0  0  0  0  0  0  0  0  0  0  0  # atno 17394 bound_to 11000
  140.8441  133.8182  155.9103 LP  0  0  0  0  0  0  0  0  0  0  0  0  # atno 17395 bound_to 11000

$$$$
