AV-unprocessed.smi:1657|AV-procd|sdf|6647|dock5
  -GOLD-   22720 7353D 1   1.00000     0.00000
 Structure written by MMmdl.
 52 54  0  0  0  0  0  0  0  0  2 V2000
  147.0948  140.0283  153.4080 O   0  0  0  0  0  0  0  0  0  0  0  0
  147.8234  139.1289  152.9888 C   0  0  0  0  0  0  0  0  0  0  0  0
  147.4465  138.2571  152.0428 N   0  0  0  0  0  0  0  0  0  0  0  0
  146.1459  138.2548  151.3830 C   0  0  0  0  0  0  0  0  0  0  0  0
  145.8773  136.9147  150.6719 C   0  0  0  0  0  0  0  0  0  0  0  0
  146.3712  135.7523  151.4522 N   0  3  0  0  0  0  0  0  0  0  0  0
  145.8838  135.7705  152.8566 C   0  0  0  0  0  0  0  0  0  0  0  0
  146.5176  134.6373  153.6810 C   0  0  0  0  0  0  0  0  0  0  0  0
  146.2542  133.2723  153.0326 C   0  0  0  0  0  0  0  0  0  0  0  0
  146.7300  133.2841  151.5743 C   0  0  0  0  0  0  0  0  0  0  0  0
  146.0919  134.4467  150.7951 C   0  0  0  0  0  0  0  0  0  0  0  0
  149.0694  138.8716  153.4212 N   0  0  0  0  0  0  0  0  0  0  0  0
  149.8211  139.5704  154.4035 C   0  0  0  0  0  0  0  0  0  0  0  0
  151.0368  139.1039  154.9538 C   0  0  0  0  0  0  0  0  0  0  0  0
  151.6810  139.8772  155.9383 C   0  0  0  0  0  0  0  0  0  0  0  0
  151.0972  141.0971  156.3558 C   0  0  0  0  0  0  0  0  0  0  0  0
  151.7286  141.8923  157.3383 N   0  0  0  0  0  0  0  0  0  0  0  0
  152.0213  141.2792  158.6333 C   0  0  0  0  0  0  0  0  0  0  0  0
  152.9569  142.1802  159.4569 C   0  0  0  0  0  0  0  0  0  0  0  0
  152.3873  143.4789  159.5798 O   0  0  0  0  0  0  0  0  0  0  0  0
  152.2172  144.1030  158.3118 C   0  0  0  0  0  0  0  0  0  0  0  0
  151.2560  143.2711  157.4451 C   0  0  0  0  0  0  0  0  0  0  0  0
  149.9199  141.5289  155.8397 N   0  0  0  0  0  0  0  0  0  0  0  0
  149.3046  140.7840  154.8980 C   0  0  0  0  0  0  0  0  0  0  0  0
  148.1068  137.5484  151.7574 H   0  0  0  0  0  0  0  0  0  0  0  0
  145.3719  138.4824  152.1167 H   0  0  0  0  0  0  0  0  0  0  0  0
  146.1333  139.0687  150.6576 H   0  0  0  0  0  0  0  0  0  0  0  0
  144.7996  136.8226  150.5285 H   0  0  0  0  0  0  0  0  0  0  0  0
  146.3208  136.8999  149.6749 H   0  0  0  0  0  0  0  0  0  0  0  0
  146.1281  136.7266  153.3210 H   0  0  0  0  0  0  0  0  0  0  0  0
  144.7963  135.6812  152.8664 H   0  0  0  0  0  0  0  0  0  0  0  0
  147.5925  134.8028  153.7664 H   0  0  0  0  0  0  0  0  0  0  0  0
  146.1213  134.6489  154.6968 H   0  0  0  0  0  0  0  0  0  0  0  0
  146.7621  132.4845  153.5899 H   0  0  0  0  0  0  0  0  0  0  0  0
  145.1877  133.0457  153.0710 H   0  0  0  0  0  0  0  0  0  0  0  0
  147.8169  133.3735  151.5426 H   0  0  0  0  0  0  0  0  0  0  0  0
  146.4840  132.3356  151.0957 H   0  0  0  0  0  0  0  0  0  0  0  0
  145.0131  134.2989  150.7214 H   0  0  0  0  0  0  0  0  0  0  0  0
  146.4784  134.4420  149.7767 H   0  0  0  0  0  0  0  0  0  0  0  0
  149.5101  138.0435  153.0476 H   0  0  0  0  0  0  0  0  0  0  0  0
  151.4765  138.1647  154.6557 H   0  0  0  0  0  0  0  0  0  0  0  0
  152.6007  139.5148  156.3723 H   0  0  0  0  0  0  0  0  0  0  0  0
  151.0881  141.1166  159.1742 H   0  0  0  0  0  0  0  0  0  0  0  0
  152.4925  140.3054  158.4942 H   0  0  0  0  0  0  0  0  0  0  0  0
  153.1013  141.7600  160.4522 H   0  0  0  0  0  0  0  0  0  0  0  0
  153.9424  142.2452  158.9928 H   0  0  0  0  0  0  0  0  0  0  0  0
  151.8148  145.1050  158.4611 H   0  0  0  0  0  0  0  0  0  0  0  0
  153.1838  144.2190  157.8186 H   0  0  0  0  0  0  0  0  0  0  0  0
  151.1630  143.7459  156.4698 H   0  0  0  0  0  0  0  0  0  0  0  0
  150.2607  143.2674  157.8914 H   0  0  0  0  0  0  0  0  0  0  0  0
  148.3706  141.1762  154.5228 H   0  0  0  0  0  0  0  0  0  0  0  0
  147.3752  135.8483  151.5043 H   0  0  0  0  0  0  0  0  0  0  0  0
  1  2  2  0  0  0  0
  2  3  1  0  0  0  0
  2 12  1  0  0  0  0
  3  4  1  0  0  0  0
  3 25  1  0  0  0  0
  4  5  1  0  0  0  0
  4 26  1  0  0  0  0
  4 27  1  0  0  0  0
  5  6  1  0  0  0  0
  5 28  1  0  0  0  0
  5 29  1  0  0  0  0
  6 11  1  0  0  0  0
  6  7  1  0  0  0  0
  6 52  1  0  0  0  0
  7  8  1  0  0  0  0
  7 30  1  0  0  0  0
  7 31  1  0  0  0  0
  8  9  1  0  0  0  0
  8 32  1  0  0  0  0
  8 33  1  0  0  0  0
  9 10  1  0  0  0  0
  9 34  1  0  0  0  0
  9 35  1  0  0  0  0
 10 11  1  0  0  0  0
 10 36  1  0  0  0  0
 10 37  1  0  0  0  0
 11 38  1  0  0  0  0
 11 39  1  0  0  0  0
 12 13  1  0  0  0  0
 12 40  1  0  0  0  0
 13 24  1  0  0  0  0
 13 14  2  0  0  0  0
 14 15  1  0  0  0  0
 14 41  1  0  0  0  0
 15 16  2  0  0  0  0
 15 42  1  0  0  0  0
 16 17  1  0  0  0  0
 16 23  1  0  0  0  0
 17 22  1  0  0  0  0
 17 18  1  0  0  0  0
 18 19  1  0  0  0  0
 18 43  1  0  0  0  0
 18 44  1  0  0  0  0
 19 20  1  0  0  0  0
 19 45  1  0  0  0  0
 19 46  1  0  0  0  0
 20 21  1  0  0  0  0
 21 22  1  0  0  0  0
 21 47  1  0  0  0  0
 21 48  1  0  0  0  0
 22 49  1  0  0  0  0
 22 50  1  0  0  0  0
 23 24  2  0  0  0  0
 24 51  1  0  0  0  0
M  CHG  1   6   1
M  END
> <s_m_source_file>
AV-unprocessed.smi

> <i_m_source_file_index>
1657

> <i_lp_mmshare_version>
43012

> <i_f3d_flags>
0

> <s_epik_input>
W0NIMl0xW0NIMl1bQ0gyXVtDSDJdW0NIMl1OMVtDSDJdW0NIMl1bTkhdQyg9TylbTkhdYzJbY0hdW2NIXWMobltjSF0yKU4zW0NIMl1bQ0gyXU9bQ0gyXVtDSDJdMw==

> <s_epik_cmdline>
J2VwaWtfcHl0aG9uJywgJy1waCcsICc3LjAnLCAnLXRuJywgJzgnLCAnLW1hJywgJzIwMCcsICctbWV0YWxfYmluZGluZycsICctaW1hZScsICc8aW5maWxlLm1hZT4nLCAnLW9tYWUnLCAnPG91dGZpbGUubWFlPic=

> <r_lp_tautomer_probability>
1

> <r_epik_Ionization_Penalty>
0.00380107

> <r_epik_Ionization_Penalty_Charging>
0.00211816

> <r_epik_Ionization_Penalty_Neutral>
0.00168291

> <r_epik_State_Penalty>
-0

> <r_epik_Charging_Adjusted_Penalty>
0.00211816

> <i_epik_Tot_Q>
1

> <i_epik_Tot_abs_Q>
1

> <r_epik_Metal_State_Penalty>
-0

> <b_epik_Metal_Only>
0

> <s_lp_Force_Field>
OPLS_2005

> <r_lp_Energy>
33.9821

> <b_lp_Chiralities_Consistent>
1

> <s_lp_Variant>
AV-unprocessed.smi:1657-1

> <Gold.Version>
5.8.1

> <Gold.Id.Protein>
6NUR|6NUR_protein|mol2

> <Gold.PLP.Fitness>
52.8039

> <Gold.PLP.PLP>
-42.9179

> <Gold.PLP.part.hbond>
-4.8955

> <Gold.PLP.part.metal>
0.0000

> <Gold.PLP.part.buried>
4.9644

> <Gold.PLP.part.nonpolar>
-43.5484

> <Gold.PLP.part.repulsive>
0.5791

> <Gold.PLP.ligand.clash>
0.0000

> <Gold.PLP.ligand.torsion>
0.4752

> <Gold.PLP.Chemscore.Hbond>
3.4810

> <Gold.PLP.Chemscore.CHOScore>
0.0000

> <Gold.PLP.Chemscore.Metal>
0.0000

> <Gold.Chemscore.Hbonds>
donor molecule, donor type, donor heavy atom, donor atom, acceptor molecule, acceptor atom, score
      L1  H     3    25       P1  7948  1.00
      L1  H     6    52       P1  7948  2.00
      L1  H    12    40       P1  7948  0.47

> <Gold.PLP.Chemscore.Internal.Correction>
0.3934

> <Gold.Rescore>
     Score         DG    S(hbond)    S(metal)    S(lipo)     H(rot)  DE(clash)    DE(int)     intcor
     17.22     -19.38       1.98        0.00      97.76       1.62       0.29       1.87       ----

> <Gold.Chemscore.Fitness>
17.2248

> <Gold.Chemscore.DG>
-19.3811

> <Gold.Chemscore.ZeroCoef>
-5.4800

> <Gold.Chemscore.Hbond>
1.9793

> <Gold.Chemscore.Metal>
0.0000

> <Gold.Chemscore.Lipo>
97.7580

> <Gold.Chemscore.Internal_Hbond>
0.0000

> <Gold.Chemscore.DEClash>
0.2868

> <Gold.Chemscore.DEInternal>
1.8696

> <Gold.Chemscore.Rot>
1.6201

> <Gold.Chemscore.Internal.Correction>
   9.000000E+99

> <Gold.Chemscore.Hbonds>
donor molecule, donor type, donor heavy atom, donor atom, acceptor molecule, acceptor atom, score
      L1  H     3    25       P1  7948  0.93
      L1  H     6    52       P1  7948  0.99
      L1  H    12    40       P1  7948  0.41

> <Gold.Chemscore.Hbond.Weighted>
-6.6109

> <Gold.Chemscore.Metal.Weighted>
-0.0000

> <Gold.Chemscore.Lipo.Weighted>
-11.4377

> <Gold.Chemscore.Internal_Hbond.Weighted>
0.0000

> <Gold.Chemscore.DEClash.Weighted>
0.2868

> <Gold.Chemscore.DEInternal.Weighted>
1.8696

> <Gold.Chemscore.Rot.Weighted>
4.1475

> <Gold.Chemscore.Internal.Correction.Weighted>
   9.000000E+99

> <Gold.Protein.RotatedTorsions>
[ 6907 6896 6895 6894 ] final  -23.62 input  -60.11 | X-H torsion
[ 7974 7965 7964 7962 ] final -130.11 input  175.53 | X-H torsion
[ 8008 7997 7996 7995 ] final  169.84 input   59.86 | X-H torsion
[ 10167 10162 10161 10158 ] final   61.57 input  -65.29 | X-H torsion
[ 10718 10713 10712 10709 ] final  127.40 input   66.30 | X-H torsion
[ 10763 10752 10751 10750 ] final  115.37 input  -60.55 | X-H torsion
[ 11005 11000 10999 10996 ] final  124.54 input  -57.11 | X-H torsion

> <Gold.Protein.ActiveResidues>
 VAL166  LYS551  ARG553  GLY616  TRP617  ASP618  TYR619  PRO620  LYS621  CYS622 
 ASP623  PHE694  ASN695  SER759  ASP760  ASP761  ALA762  ILE779  LEU786  VAL792 
 PHE793  MET794  SER795  GLU796  ALA797  LYS798  CYS799  TRP800  GLU811  SER814 

> <Gold.Protein.RotatedAtoms>
  151.2014  135.0444  159.8873 H   0  0  0  0  0  0  0  0  0  0  0  0  # atno 6907 bound_to 6896
  152.5432  134.0846  159.8260 H   0  0  0  0  0  0  0  0  0  0  0  0  # atno 6908 bound_to 6896
  151.0987  133.5212  159.2643 H   0  0  0  0  0  0  0  0  0  0  0  0  # atno 6909 bound_to 6896
  144.9506  140.7340  143.4790 H   0  0  0  0  0  0  0  0  0  0  0  0  # atno 7974 bound_to 7965
  156.1421  140.1553  156.8905 H   0  0  0  0  0  0  0  0  0  0  0  0  # atno 8008 bound_to 7997
  154.4996  140.0829  156.7808 H   0  0  0  0  0  0  0  0  0  0  0  0  # atno 8009 bound_to 7997
  155.4059  140.3416  155.4262 H   0  0  0  0  0  0  0  0  0  0  0  0  # atno 8010 bound_to 7997
  140.1533  144.4441  150.6747 H   0  0  0  0  0  0  0  0  0  0  0  0  # atno 10167 bound_to 10162
  157.5336  131.1098  150.8970 H   0  0  0  0  0  0  0  0  0  0  0  0  # atno 10718 bound_to 10713
  153.5212  135.3597  155.2633 H   0  0  0  0  0  0  0  0  0  0  0  0  # atno 10763 bound_to 10752
  154.8735  135.4046  154.3257 H   0  0  0  0  0  0  0  0  0  0  0  0  # atno 10764 bound_to 10752
  153.3928  135.7072  153.6549 H   0  0  0  0  0  0  0  0  0  0  0  0  # atno 10765 bound_to 10752
  139.9363  134.9639  156.8424 H   0  0  0  0  0  0  0  0  0  0  0  0  # atno 11005 bound_to 11000
  145.2850  139.1904  143.4771 LP  0  0  0  0  0  0  0  0  0  0  0  0  # atno 17320 bound_to 7965
  146.3319  140.2817  142.8610 LP  0  0  0  0  0  0  0  0  0  0  0  0  # atno 17321 bound_to 7965
  140.6688  143.2278  151.5675 LP  0  0  0  0  0  0  0  0  0  0  0  0  # atno 17342 bound_to 10162
  139.5415  144.2635  152.1360 LP  0  0  0  0  0  0  0  0  0  0  0  0  # atno 17343 bound_to 10162
  156.9544  130.5432  149.5283 LP  0  0  0  0  0  0  0  0  0  0  0  0  # atno 17370 bound_to 10713
  156.0441  130.5520  150.8840 LP  0  0  0  0  0  0  0  0  0  0  0  0  # atno 17371 bound_to 10713
  140.6067  134.0121  155.7559 LP  0  0  0  0  0  0  0  0  0  0  0  0  # atno 17394 bound_to 11000
  141.0978  133.9815  157.3130 LP  0  0  0  0  0  0  0  0  0  0  0  0  # atno 17395 bound_to 11000

$$$$
