#       Name:                AV-unprocessed.smi:3348
#       Creating user name   scv26
#       Creation time:       Fri Mar 27 19:34:52 2020


#       File generated by GOLD software.
#

@<TRIPOS>MOLECULE
AV-unprocessed.smi:3348
    50    51     1
SMALL
NO_CHARGES


@<TRIPOS>ATOM
      1 ****        -3.2901   1.1447   0.8271 C.3            1 S1                 0.0000
      2 ****        -1.7879   1.2278   1.1487 C.3            1 S1                 0.0000
      3 ****        -1.5112   1.9497   2.4911 C.3            1 S1                 0.0000
      4 ****        -2.1563   3.2470   2.5906 N.pl3          1 S1                 0.0000
      5 ****        -3.1800   3.6338   3.4300 C.2            1 S1                 0.0000
      6 ****        -3.4425   4.9485   3.1716 C.2            1 S1                 0.0000
      7 ****        -2.5123   5.2840   2.1487 C.2            1 S1                 0.0000
      8 ****        -1.7408   4.2650   1.8061 N.2            1 S1                 0.0000
      9 ****        -1.2226  -0.1252   1.1326 N.3            1 S1                 0.0000
     10 ****         0.2343  -0.2031   1.2308 C.3            1 S1                 0.0000
     11 ****         0.7145  -1.6620   1.1571 C.3            1 S1                 0.0000
     12 ****         0.5431  -2.2211  -0.1400 O.3            1 S1                 0.0000
     13 ****         1.4272  -1.7270  -1.1406 C.3            1 S1                 0.0000
     14 ****         0.5642  -1.0755  -2.2374 C.3            1 S1                 0.0000
     15 ****         1.4207  -0.6098  -3.4234 C.3            1 S1                 0.0000
     16 ****         2.2422  -1.7738  -3.9960 C.3            1 S1                 0.0000
     17 ****         3.1052  -2.4316  -2.9077 C.3            1 S1                 0.0000
     18 ****         2.2582  -2.9008  -1.7070 C.3            1 S1                 0.0000
     19 ****         3.1515  -3.5421  -0.6331 C.3            1 S1                 0.0000
     20 ****        -3.7336   2.1339   0.7113 H              1 S1                 0.0000
     21 ****        -3.8363   0.6238   1.6141 H              1 S1                 0.0000
     22 ****        -3.4603   0.6086  -0.1071 H              1 S1                 0.0000
     23 ****        -1.3203   1.8073   0.3516 H              1 S1                 0.0000
     24 ****        -1.8550   1.3346   3.3242 H              1 S1                 0.0000
     25 ****        -0.4424   2.1061   2.6387 H              1 S1                 0.0000
     26 ****        -3.6320   2.9490   4.1323 H              1 S1                 0.0000
     27 ****        -4.1849   5.5756   3.6425 H              1 S1                 0.0000
     28 ****        -2.3742   6.2320   1.6500 H              1 S1                 0.0000
     29 ****        -1.6437  -0.6843   1.8677 H              1 S1                 0.0000
     30 ****         0.7044   0.4039   0.4572 H              1 S1                 0.0000
     31 ****         0.5636   0.2053   2.1853 H              1 S1                 0.0000
     32 ****         1.7630  -1.7319   1.4499 H              1 S1                 0.0000
     33 ****         0.1592  -2.2707   1.8715 H              1 S1                 0.0000
     34 ****         2.1116  -0.9768  -0.7392 H              1 S1                 0.0000
     35 ****        -0.1819  -1.7897  -2.5883 H              1 S1                 0.0000
     36 ****         0.0108  -0.2303  -1.8273 H              1 S1                 0.0000
     37 ****         0.7827  -0.1870  -4.2000 H              1 S1                 0.0000
     38 ****         2.0895   0.1892  -3.1014 H              1 S1                 0.0000
     39 ****         1.5719  -2.5167  -4.4298 H              1 S1                 0.0000
     40 ****         2.8759  -1.4170  -4.8083 H              1 S1                 0.0000
     41 ****         3.6462  -3.2765  -3.3353 H              1 S1                 0.0000
     42 ****         3.8618  -1.7222  -2.5693 H              1 S1                 0.0000
     43 ****         1.5666  -3.6657  -2.0635 H              1 S1                 0.0000
     44 ****         3.8551  -2.8189  -0.2195 H              1 S1                 0.0000
     45 ****         3.7284  -4.3699  -1.0460 H              1 S1                 0.0000
     46 ****         2.5587  -3.9386   0.1914 H              1 S1                 0.0000
     47 ****        -1.0133   4.2516   1.1201 LP             1 S1                 0.0000
     48 ****        -1.4440  -0.4851   0.2262 LP             1 S1                 0.0000
     49 ****        -0.3935  -2.0327  -0.4357 LP             1 S1                 0.0000
     50 ****         0.6780  -3.2095  -0.0701 LP             1 S1                 0.0000
@<TRIPOS>BOND
    1    1    2 1     
    2    1   20 1     
    3    1   21 1     
    4    1   22 1     
    5    2    3 1     
    6    2    9 1     
    7    2   23 1     
    8    3    4 1     
    9    3   24 1     
   10    3   25 1     
   11    4    8 1     
   12    4    5 1     
   13    5    6 2     
   14    5   26 1     
   15    6    7 1     
   16    6   27 1     
   17    7    8 2     
   18    7   28 1     
   19    9   10 1     
   20    9   29 1     
   21   10   11 1     
   22   10   30 1     
   23   10   31 1     
   24   11   12 1     
   25   11   32 1     
   26   11   33 1     
   27   12   13 1     
   28   13   18 1     
   29   13   14 1     
   30   13   34 1     
   31   14   15 1     
   32   14   35 1     
   33   14   36 1     
   34   15   16 1     
   35   15   37 1     
   36   15   38 1     
   37   16   17 1     
   38   16   39 1     
   39   16   40 1     
   40   17   18 1     
   41   17   41 1     
   42   17   42 1     
   43   18   19 1     
   44   18   43 1     
   45   19   44 1     
   46   19   45 1     
   47   19   46 1     
   48    8   47 1     
   49    9   48 1     
   50   12   49 1     
   51   12   50 1     
@<TRIPOS>SUBSTRUCTURE
      1 S1             1
@<TRIPOS>SET
LONE_PAIRS      STATIC     ATOMS    <user>   **** ""
4 47 48 49 50
DONOR_HYDROGENS      STATIC     ATOMS    <user>   **** ""
1 29
ATOM$BLUE        STATIC     ATOMS    COLORGROUP SYSTEM
4 47 48 49 50
ATOM$RED        STATIC     ATOMS    COLORGROUP SYSTEM
1 29
