AV-unprocessed.smi:2482|AV-procd|sdf|9782|dock4
  -GOLD-   2272013423D 1   1.00000     0.00000
 Structure written by MMmdl.
 34 35  0  0  0  0  0  0  0  0  3 V2000
  152.4701  143.0244  161.4559 C   0  0  0  0  0  0  0  0  0  0  0  0
  152.0634  142.7300  160.0239 C   0  0  0  0  0  0  0  0  0  0  0  0
  151.2556  143.6462  159.4479 N   0  0  0  0  0  0  0  0  0  0  0  0
  150.8699  143.4310  158.1747 C   0  0  0  0  0  0  0  0  0  0  0  0
  151.2646  142.3054  157.4275 C   0  0  0  0  0  0  0  0  0  0  0  0
  152.1030  141.3345  158.0193 C   0  0  0  0  0  0  0  0  0  0  0  0
  152.4926  140.2585  157.3159 N   0  5  0  0  0  0  0  0  0  0  0  0
  151.8113  139.8952  156.2023 C   0  0  0  0  0  0  0  0  0  0  0  0
  152.2197  139.8316  155.0408 O   0  0  0  0  0  0  0  0  0  0  0  0
  150.3446  139.5344  156.5291 C   0  0  1  0  0  0  0  0  0  0  0  0
  149.2992  140.5161  155.9481 C   0  0  0  0  0  0  0  0  0  0  0  0
  149.2131  140.3931  154.4734 N   0  3  2  0  0  0  0  0  0  0  0  0
  148.2738  141.3634  153.8729 C   0  0  0  0  0  0  0  0  0  0  0  0
  148.9267  138.9959  154.0772 C   0  0  0  0  0  0  0  0  0  0  0  0
  149.9793  138.0462  154.6716 C   0  0  0  0  0  0  0  0  0  0  0  0
  150.0253  138.2087  156.0885 O   0  0  0  0  0  0  0  0  0  0  0  0
  152.5151  141.5655  159.3576 C   0  0  0  0  0  0  0  0  0  0  0  0
  153.5562  140.4440  160.1730 Cl  0  0  0  0  0  0  0  0  0  0  0  0
  152.1285  142.2285  162.1180 H   0  0  0  0  0  0  0  0  0  0  0  0
  152.0430  143.9636  161.8096 H   0  0  0  0  0  0  0  0  0  0  0  0
  153.5550  143.0974  161.5343 H   0  0  0  0  0  0  0  0  0  0  0  0
  150.2267  144.1796  157.7361 H   0  0  0  0  0  0  0  0  0  0  0  0
  150.9233  142.1893  156.4091 H   0  0  0  0  0  0  0  0  0  0  0  0
  150.2490  139.5472  157.6159 H   0  0  0  0  0  0  0  0  0  0  0  0
  148.3211  140.3088  156.3847 H   0  0  0  0  0  0  0  0  0  0  0  0
  149.5487  141.5428  156.2207 H   0  0  0  0  0  0  0  0  0  0  0  0
  147.2547  141.1892  154.2202 H   0  0  0  0  0  0  0  0  0  0  0  0
  148.2841  141.2851  152.7854 H   0  0  0  0  0  0  0  0  0  0  0  0
  148.5560  142.3834  154.1361 H   0  0  0  0  0  0  0  0  0  0  0  0
  147.9312  138.7137  154.4237 H   0  0  0  0  0  0  0  0  0  0  0  0
  148.9245  138.9123  152.9898 H   0  0  0  0  0  0  0  0  0  0  0  0
  149.7157  137.0123  154.4490 H   0  0  0  0  0  0  0  0  0  0  0  0
  150.9581  138.2185  154.2223 H   0  0  0  0  0  0  0  0  0  0  0  0
  150.1316  140.6149  154.1147 H   0  0  0  0  0  0  0  0  0  0  0  0
  1  2  1  0  0  0  0
  1 19  1  0  0  0  0
  1 20  1  0  0  0  0
  1 21  1  0  0  0  0
  2 17  1  0  0  0  0
  2  3  2  0  0  0  0
  3  4  1  0  0  0  0
  4  5  2  0  0  0  0
  4 22  1  0  0  0  0
  5  6  1  0  0  0  0
  5 23  1  0  0  0  0
  6  7  1  0  0  0  0
  6 17  2  0  0  0  0
  7  8  1  0  0  0  0
  8  9  2  0  0  0  0
  8 10  1  0  0  0  0
 10 16  1  0  0  0  0
 10 11  1  0  0  0  0
 10 24  1  0  0  0  0
 11 12  1  0  0  0  0
 11 25  1  0  0  0  0
 11 26  1  0  0  0  0
 12 13  1  0  0  0  0
 12 14  1  0  0  0  0
 12 34  1  0  0  0  0
 13 27  1  0  0  0  0
 13 28  1  0  0  0  0
 13 29  1  0  0  0  0
 14 15  1  0  0  0  0
 14 30  1  0  0  0  0
 14 31  1  0  0  0  0
 15 16  1  0  0  0  0
 15 32  1  0  0  0  0
 15 33  1  0  0  0  0
 17 18  1  0  0  0  0
M  CHG  1   7  -1
M  CHG  1  12   1
M  END
> <s_m_source_file>
AV-unprocessed.smi

> <i_m_source_file_index>
2482

> <i_lp_mmshare_version>
43012

> <i_f3d_flags>
0

> <s_epik_input>
W0NIM11jMW5bY0hdW2NIXWMoYzFDbClbTkhdQyg9TylbQ0BASF0yW0NIMl1OKFtDSDNdKVtDSDJdW0NIMl1PMg==

> <s_epik_cmdline>
J2VwaWtfcHl0aG9uJywgJy1waCcsICc3LjAnLCAnLXRuJywgJzgnLCAnLW1hJywgJzIwMCcsICctbWV0YWxfYmluZGluZycsICctaW1hZScsICc8aW5maWxlLm1hZT4nLCAnLW9tYWUnLCAnPG91dGZpbGUubWFlPic=

> <r_epik_Ionization_Penalty>
6.9249

> <r_epik_Ionization_Penalty_Charging>
6.74596

> <r_epik_Ionization_Penalty_Neutral>
0.178941

> <r_epik_State_Penalty>
6.78185

> <r_epik_Charging_Adjusted_Penalty>
13.5278

> <i_epik_Tot_Q>
0

> <i_epik_Tot_abs_Q>
2

> <r_epik_Metal_State_Penalty>
2.70608

> <b_epik_Metal_Only>
1

> <s_lp_Force_Field>
OPLS_2005

> <r_lp_Energy>
12.3896

> <b_lp_Chiralities_Consistent>
1

> <s_lp_Variant>
AV-unprocessed.smi:2482-8

> <Gold.Version>
5.8.1

> <Gold.Id.Protein>
6NUR|6NUR_protein|mol2

> <Gold.PLP.Fitness>
43.2826

> <Gold.PLP.PLP>
-32.8795

> <Gold.PLP.part.hbond>
-2.0000

> <Gold.PLP.part.metal>
0.0000

> <Gold.PLP.part.buried>
-3.6080

> <Gold.PLP.part.nonpolar>
-25.9199

> <Gold.PLP.part.repulsive>
0.2163

> <Gold.PLP.ligand.clash>
0.0000

> <Gold.PLP.ligand.torsion>
0.7191

> <Gold.PLP.Chemscore.Hbond>
2.7840

> <Gold.PLP.Chemscore.CHOScore>
1.0000

> <Gold.PLP.Chemscore.Metal>
0.0000

> <Gold.Chemscore.Hbonds>
donor molecule, donor type, donor heavy atom, donor atom, acceptor molecule, acceptor atom, score
      P1  H  7989  7998       L1     9  0.77
      P1  H  7997  8009       L1     7  2.00
      L1  C     4    22       P1  8028  1.00

> <Gold.PLP.Chemscore.Internal.Correction>
0.4893

> <Gold.Rescore>
     Score         DG    S(hbond)    S(metal)    S(lipo)     H(rot)  DE(clash)    DE(int)     intcor
     16.90     -18.88       1.65        0.00      89.42       1.00       0.04       1.93       ----

> <Gold.Chemscore.Fitness>
16.9028

> <Gold.Chemscore.DG>
-18.8771

> <Gold.Chemscore.ZeroCoef>
-5.4800

> <Gold.Chemscore.Hbond>
1.6453

> <Gold.Chemscore.Metal>
0.0000

> <Gold.Chemscore.Lipo>
89.4177

> <Gold.Chemscore.Internal_Hbond>
0.0000

> <Gold.Chemscore.DEClash>
0.0406

> <Gold.Chemscore.DEInternal>
1.9337

> <Gold.Chemscore.Rot>
1.0000

> <Gold.Chemscore.Internal.Correction>
   9.000000E+99

> <Gold.Chemscore.Hbonds>
donor molecule, donor type, donor heavy atom, donor atom, acceptor molecule, acceptor atom, score
      P1  H  7989  7998       L1     9  0.75
      P1  H  7997  8009       L1     7  0.27

> <Gold.Chemscore.Hbond.Weighted>
-5.4952

> <Gold.Chemscore.Metal.Weighted>
-0.0000

> <Gold.Chemscore.Lipo.Weighted>
-10.4619

> <Gold.Chemscore.Internal_Hbond.Weighted>
0.0000

> <Gold.Chemscore.DEClash.Weighted>
0.0406

> <Gold.Chemscore.DEInternal.Weighted>
1.9337

> <Gold.Chemscore.Rot.Weighted>
2.5600

> <Gold.Chemscore.Internal.Correction.Weighted>
   9.000000E+99

> <Gold.Protein.RotatedTorsions>
[ 6907 6896 6895 6894 ] final   56.99 input  -60.11 | X-H torsion
[ 7974 7965 7964 7962 ] final  161.85 input  175.53 | X-H torsion
[ 8008 7997 7996 7995 ] final  177.19 input   59.86 | X-H torsion
[ 10167 10162 10161 10158 ] final  -38.52 input  -65.29 | X-H torsion
[ 10718 10713 10712 10709 ] final -112.38 input   66.30 | X-H torsion
[ 10763 10752 10751 10750 ] final  166.23 input  -60.55 | X-H torsion
[ 11005 11000 10999 10996 ] final  -61.03 input  -57.11 | X-H torsion

> <Gold.Protein.ActiveResidues>
 VAL166  LYS551  ARG553  GLY616  TRP617  ASP618  TYR619  PRO620  LYS621  CYS622 
 ASP623  PHE694  ASN695  SER759  ASP760  ASP761  ALA762  ILE779  LEU786  VAL792 
 PHE793  MET794  SER795  GLU796  ALA797  LYS798  CYS799  TRP800  GLU811  SER814 

> <Gold.Protein.RotatedAtoms>
  152.3688  134.6764  160.0182 H   0  0  0  0  0  0  0  0  0  0  0  0  # atno 6907 bound_to 6896
  151.7063  133.3306  159.3287 H   0  0  0  0  0  0  0  0  0  0  0  0  # atno 6908 bound_to 6896
  150.7658  134.6506  159.6330 H   0  0  0  0  0  0  0  0  0  0  0  0  # atno 6909 bound_to 6896
  144.7665  139.7956  143.6313 H   0  0  0  0  0  0  0  0  0  0  0  0  # atno 7974 bound_to 7965
  156.0684  140.1364  156.9858 H   0  0  0  0  0  0  0  0  0  0  0  0  # atno 8008 bound_to 7997
  154.4518  140.0977  156.6693 H   0  0  0  0  0  0  0  0  0  0  0  0  # atno 8009 bound_to 7997
  155.5268  140.3457  155.4420 H   0  0  0  0  0  0  0  0  0  0  0  0  # atno 8010 bound_to 7997
  140.7090  143.3272  151.2653 H   0  0  0  0  0  0  0  0  0  0  0  0  # atno 10167 bound_to 10162
  156.0702  130.5917  150.8501 H   0  0  0  0  0  0  0  0  0  0  0  0  # atno 10718 bound_to 10713
  154.3359  135.2754  155.2448 H   0  0  0  0  0  0  0  0  0  0  0  0  # atno 10763 bound_to 10752
  154.4739  135.5876  153.6345 H   0  0  0  0  0  0  0  0  0  0  0  0  # atno 10764 bound_to 10752
  152.9862  135.6095  154.3556 H   0  0  0  0  0  0  0  0  0  0  0  0  # atno 10765 bound_to 10752
  141.1309  133.6627  156.5312 H   0  0  0  0  0  0  0  0  0  0  0  0  # atno 11005 bound_to 11000
  146.1777  139.4955  142.9886 LP  0  0  0  0  0  0  0  0  0  0  0  0  # atno 17320 bound_to 7965
  145.6453  141.0275  143.1789 LP  0  0  0  0  0  0  0  0  0  0  0  0  # atno 17321 bound_to 7965
  139.6743  143.9965  152.2772 LP  0  0  0  0  0  0  0  0  0  0  0  0  # atno 17342 bound_to 10162
  139.9574  144.6581  150.8113 LP  0  0  0  0  0  0  0  0  0  0  0  0  # atno 17343 bound_to 10162
  157.5769  131.0946  150.9332 LP  0  0  0  0  0  0  0  0  0  0  0  0  # atno 17370 bound_to 10713
  156.9536  130.5429  149.5283 LP  0  0  0  0  0  0  0  0  0  0  0  0  # atno 17371 bound_to 10713
  140.4214  134.7184  157.4892 LP  0  0  0  0  0  0  0  0  0  0  0  0  # atno 17394 bound_to 11000
  140.0357  134.6340  155.9046 LP  0  0  0  0  0  0  0  0  0  0  0  0  # atno 17395 bound_to 11000

$$$$
