AV-unprocessed.smi:2712|AV-procd|sdf|10476|dock3
  -GOLD-   2272014513D 1   1.00000     0.00000
 Structure written by MMmdl.
 52 53  0  0  0  0  0  0  0  0  1 V2000
  145.6311  133.8201  157.8001 C   0  0  0  0  0  0  0  0  0  0  0  0
  145.9944  134.9618  158.7031 C   0  0  0  0  0  0  0  0  0  0  0  0
  145.7891  134.9278  160.1386 C   0  0  0  0  0  0  0  0  0  0  0  0
  146.1383  135.9991  160.8826 C   0  0  0  0  0  0  0  0  0  0  0  0
  146.7228  137.1953  160.2801 C   0  0  0  0  0  0  0  0  0  0  0  0
  147.0486  138.1887  160.9296 O   0  0  0  0  0  0  0  0  0  0  0  0
  146.8772  137.1083  158.9254 N   0  0  0  0  0  0  0  0  0  0  0  0
  147.4707  138.2104  158.1542 C   0  0  0  0  0  0  0  0  0  0  0  0
  148.9976  138.3056  158.2935 C   0  0  0  0  0  0  0  0  0  0  0  0
  149.6448  137.3993  158.8209 O   0  0  0  0  0  0  0  0  0  0  0  0
  149.5604  139.4172  157.7954 N   0  0  0  0  0  0  0  0  0  0  0  0
  150.9893  139.7243  157.8044 C   0  0  2  0  0  0  0  0  0  0  0  0
  151.5943  139.3584  159.1746 C   0  0  0  0  0  0  0  0  0  0  0  0
  152.9661  139.9887  159.4551 C   0  0  0  0  0  0  0  0  0  0  0  0
  152.8719  141.3761  160.1184 C   0  0  0  0  0  0  0  0  0  0  0  0
  152.4246  142.5520  159.2049 C   0  0  2  0  0  0  0  0  0  0  0  0
  152.4164  143.9435  159.9412 C   0  0  0  0  0  0  0  0  0  0  0  0
  153.0992  145.0443  159.1006 C   0  0  0  0  0  0  0  0  0  0  0  0
  153.1413  143.8446  161.3050 C   0  0  0  0  0  0  0  0  0  0  0  0
  150.9729  144.4007  160.2551 C   0  0  0  0  0  0  0  0  0  0  0  0
  151.0846  142.2380  158.4793 C   0  0  0  0  0  0  0  0  0  0  0  0
  151.2140  141.1843  157.3647 C   0  0  0  0  0  0  0  0  0  0  0  0
  146.5122  136.0137  158.1588 N   0  0  0  0  0  0  0  0  0  0  0  0
  145.1634  133.0089  158.3586 H   0  0  0  0  0  0  0  0  0  0  0  0
  146.5171  133.4191  157.3070 H   0  0  0  0  0  0  0  0  0  0  0  0
  144.9303  134.1415  157.0290 H   0  0  0  0  0  0  0  0  0  0  0  0
  145.3606  134.0502  160.5997 H   0  0  0  0  0  0  0  0  0  0  0  0
  145.9854  135.9724  161.9515 H   0  0  0  0  0  0  0  0  0  0  0  0
  147.2340  138.0961  157.0947 H   0  0  0  0  0  0  0  0  0  0  0  0
  147.0214  139.1595  158.4522 H   0  0  0  0  0  0  0  0  0  0  0  0
  148.9522  140.1077  157.3799 H   0  0  0  0  0  0  0  0  0  0  0  0
  151.4732  139.1051  157.0466 H   0  0  0  0  0  0  0  0  0  0  0  0
  150.9060  139.6211  159.9794 H   0  0  0  0  0  0  0  0  0  0  0  0
  151.6899  138.2728  159.2225 H   0  0  0  0  0  0  0  0  0  0  0  0
  153.4952  139.3325  160.1471 H   0  0  0  0  0  0  0  0  0  0  0  0
  153.5797  140.0207  158.5542 H   0  0  0  0  0  0  0  0  0  0  0  0
  152.2236  141.3086  160.9917 H   0  0  0  0  0  0  0  0  0  0  0  0
  153.8685  141.5825  160.5053 H   0  0  0  0  0  0  0  0  0  0  0  0
  153.1905  142.6348  158.4324 H   0  0  0  0  0  0  0  0  0  0  0  0
  153.0666  146.0056  159.6146 H   0  0  0  0  0  0  0  0  0  0  0  0
  152.6125  145.1821  158.1353 H   0  0  0  0  0  0  0  0  0  0  0  0
  154.1494  144.8216  158.9126 H   0  0  0  0  0  0  0  0  0  0  0  0
  154.2140  143.6875  161.2060 H   0  0  0  0  0  0  0  0  0  0  0  0
  152.7401  143.0319  161.9114 H   0  0  0  0  0  0  0  0  0  0  0  0
  153.0260  144.7631  161.8819 H   0  0  0  0  0  0  0  0  0  0  0  0
  150.9642  145.2857  160.8923 H   0  0  0  0  0  0  0  0  0  0  0  0
  150.4120  143.6221  160.7735 H   0  0  0  0  0  0  0  0  0  0  0  0
  150.4210  144.6715  159.3551 H   0  0  0  0  0  0  0  0  0  0  0  0
  150.3105  141.9507  159.1916 H   0  0  0  0  0  0  0  0  0  0  0  0
  150.7068  143.1349  157.9959 H   0  0  0  0  0  0  0  0  0  0  0  0
  152.1929  141.2754  156.8931 H   0  0  0  0  0  0  0  0  0  0  0  0
  150.5067  141.4203  156.5681 H   0  0  0  0  0  0  0  0  0  0  0  0
  1  2  1  0  0  0  0
  1 24  1  0  0  0  0
  1 25  1  0  0  0  0
  1 26  1  0  0  0  0
  2 23  2  0  0  0  0
  2  3  1  0  0  0  0
  3  4  2  0  0  0  0
  3 27  1  0  0  0  0
  4  5  1  0  0  0  0
  4 28  1  0  0  0  0
  5  6  2  0  0  0  0
  5  7  1  0  0  0  0
  7  8  1  0  0  0  0
  7 23  1  0  0  0  0
  8  9  1  0  0  0  0
  8 29  1  0  0  0  0
  8 30  1  0  0  0  0
  9 10  2  0  0  0  0
  9 11  1  0  0  0  0
 11 12  1  0  0  0  0
 11 31  1  0  0  0  0
 12 22  1  0  0  0  0
 12 13  1  0  0  0  0
 12 32  1  0  0  0  0
 13 14  1  0  0  0  0
 13 33  1  0  0  0  0
 13 34  1  0  0  0  0
 14 15  1  0  0  0  0
 14 35  1  0  0  0  0
 14 36  1  0  0  0  0
 15 16  1  0  0  0  0
 15 37  1  0  0  0  0
 15 38  1  0  0  0  0
 16 17  1  0  0  0  0
 16 21  1  0  0  0  0
 16 39  1  0  0  0  0
 17 18  1  0  0  0  0
 17 19  1  0  0  0  0
 17 20  1  0  0  0  0
 18 40  1  0  0  0  0
 18 41  1  0  0  0  0
 18 42  1  0  0  0  0
 19 43  1  0  0  0  0
 19 44  1  0  0  0  0
 19 45  1  0  0  0  0
 20 46  1  0  0  0  0
 20 47  1  0  0  0  0
 20 48  1  0  0  0  0
 21 22  1  0  0  0  0
 21 49  1  0  0  0  0
 21 50  1  0  0  0  0
 22 51  1  0  0  0  0
 22 52  1  0  0  0  0
M  END
> <s_m_source_file>
AV-unprocessed.smi

> <i_m_source_file_index>
2712

> <i_lp_mmshare_version>
43012

> <i_f3d_flags>
0

> <s_epik_input>
W0NIM11jMVtjSF1bY0hdYyg9TyluKG4xKVtDSDJdQyg9TylbTkhdW0NAQEhdMltDSDJdW0NIMl1bQ0gyXVtDQEBIXShDKFtDSDNdKShbQ0gzXSlbQ0gzXSlbQ0gyXVtDSDJdMg==

> <s_epik_cmdline>
J2VwaWtfcHl0aG9uJywgJy1waCcsICc3LjAnLCAnLXRuJywgJzgnLCAnLW1hJywgJzIwMCcsICctbWV0YWxfYmluZGluZycsICctaW1hZScsICc8aW5maWxlLm1hZT4nLCAnLW9tYWUnLCAnPG91dGZpbGUubWFlPic=

> <r_lp_tautomer_probability>
1

> <r_epik_Ionization_Penalty>
8.71758e-07

> <r_epik_Ionization_Penalty_Charging>
8.50442e-07

> <r_epik_Ionization_Penalty_Neutral>
2.13165e-08

> <r_epik_State_Penalty>
-0

> <r_epik_Charging_Adjusted_Penalty>
8.50442e-07

> <i_epik_Tot_Q>
0

> <i_epik_Tot_abs_Q>
0

> <r_epik_Metal_State_Penalty>
-0

> <b_epik_Metal_Only>
0

> <s_lp_Force_Field>
OPLS_2005

> <r_lp_Energy>
39.6201

> <b_lp_Chiralities_Consistent>
1

> <s_lp_Variant>
AV-unprocessed.smi:2712-3

> <Gold.Version>
5.8.1

> <Gold.Id.Protein>
6NUR|6NUR_protein|mol2

> <Gold.PLP.Fitness>
47.6455

> <Gold.PLP.PLP>
-44.1980

> <Gold.PLP.part.hbond>
-3.5096

> <Gold.PLP.part.metal>
0.0000

> <Gold.PLP.part.buried>
-5.9746

> <Gold.PLP.part.nonpolar>
-34.2756

> <Gold.PLP.part.repulsive>
0.0600

> <Gold.PLP.ligand.clash>
0.0000

> <Gold.PLP.ligand.torsion>
2.2794

> <Gold.PLP.Chemscore.Hbond>
2.6320

> <Gold.PLP.Chemscore.CHOScore>
0.0000

> <Gold.PLP.Chemscore.Metal>
0.0000

> <Gold.Chemscore.Hbonds>
donor molecule, donor type, donor heavy atom, donor atom, acceptor molecule, acceptor atom, score
      P1  H  6931  6943       L1     6  0.18

> <Gold.PLP.Chemscore.Internal.Correction>
0.1102

> <Gold.Rescore>
     Score         DG    S(hbond)    S(metal)    S(lipo)     H(rot)  DE(clash)    DE(int)     intcor
     20.99     -24.08       2.55        0.00     119.42       1.52       0.18       2.92       ----

> <Gold.Chemscore.Fitness>
20.9852

> <Gold.Chemscore.DG>
-24.0831

> <Gold.Chemscore.ZeroCoef>
-5.4800

> <Gold.Chemscore.Hbond>
2.5485

> <Gold.Chemscore.Metal>
0.0000

> <Gold.Chemscore.Lipo>
119.4237

> <Gold.Chemscore.Internal_Hbond>
0.0000

> <Gold.Chemscore.DEClash>
0.1807

> <Gold.Chemscore.DEInternal>
2.9172

> <Gold.Chemscore.Rot>
1.5162

> <Gold.Chemscore.Internal.Correction>
   9.000000E+99

> <Gold.Chemscore.Hbonds>
donor molecule, donor type, donor heavy atom, donor atom, acceptor molecule, acceptor atom, score
      P1  H  6931  6943       L1     6  0.18

> <Gold.Chemscore.Hbond.Weighted>
-8.5120

> <Gold.Chemscore.Metal.Weighted>
-0.0000

> <Gold.Chemscore.Lipo.Weighted>
-13.9726

> <Gold.Chemscore.Internal_Hbond.Weighted>
0.0000

> <Gold.Chemscore.DEClash.Weighted>
0.1807

> <Gold.Chemscore.DEInternal.Weighted>
2.9172

> <Gold.Chemscore.Rot.Weighted>
3.8814

> <Gold.Chemscore.Internal.Correction.Weighted>
   9.000000E+99

> <Gold.Protein.RotatedTorsions>
[ 6907 6896 6895 6894 ] final -138.73 input  -60.11 | X-H torsion
[ 7974 7965 7964 7962 ] final   -4.15 input  175.53 | X-H torsion
[ 8008 7997 7996 7995 ] final   69.46 input   59.86 | X-H torsion
[ 10167 10162 10161 10158 ] final   43.92 input  -65.29 | X-H torsion
[ 10718 10713 10712 10709 ] final -136.71 input   66.30 | X-H torsion
[ 10763 10752 10751 10750 ] final  157.31 input  -60.55 | X-H torsion
[ 11005 11000 10999 10996 ] final   49.57 input  -57.11 | X-H torsion

> <Gold.Protein.ActiveResidues>
 VAL166  LYS551  ARG553  GLY616  TRP617  ASP618  TYR619  PRO620  LYS621  CYS622 
 ASP623  PHE694  ASN695  SER759  ASP760  ASP761  ALA762  ILE779  LEU786  VAL792 
 PHE793  MET794  SER795  GLU796  ALA797  LYS798  CYS799  TRP800  GLU811  SER814 

> <Gold.Protein.RotatedAtoms>
  151.0387  133.5725  159.2653 H   0  0  0  0  0  0  0  0  0  0  0  0  # atno 6907 bound_to 6896
  151.2780  135.0704  159.9168 H   0  0  0  0  0  0  0  0  0  0  0  0  # atno 6908 bound_to 6896
  152.5360  134.0106  159.7991 H   0  0  0  0  0  0  0  0  0  0  0  0  # atno 6909 bound_to 6896
  146.2377  140.1827  142.8332 H   0  0  0  0  0  0  0  0  0  0  0  0  # atno 7974 bound_to 7965
  155.7239  140.3493  155.5028 H   0  0  0  0  0  0  0  0  0  0  0  0  # atno 8008 bound_to 7997
  155.9244  140.1073  157.1203 H   0  0  0  0  0  0  0  0  0  0  0  0  # atno 8009 bound_to 7997
  154.4075  140.1243  156.4708 H   0  0  0  0  0  0  0  0  0  0  0  0  # atno 8010 bound_to 7997
  140.3395  144.2488  150.6157 H   0  0  0  0  0  0  0  0  0  0  0  0  # atno 10167 bound_to 10162
  156.2800  130.7315  151.1310 H   0  0  0  0  0  0  0  0  0  0  0  0  # atno 10718 bound_to 10713
  154.1982  135.2791  155.3000 H   0  0  0  0  0  0  0  0  0  0  0  0  # atno 10763 bound_to 10752
  154.5875  135.5570  153.7249 H   0  0  0  0  0  0  0  0  0  0  0  0  # atno 10764 bound_to 10752
  153.0095  135.6360  154.2120 H   0  0  0  0  0  0  0  0  0  0  0  0  # atno 10765 bound_to 10752
  140.1092  134.4977  155.8693 H   0  0  0  0  0  0  0  0  0  0  0  0  # atno 11005 bound_to 11000
  144.9921  140.8556  143.5333 LP  0  0  0  0  0  0  0  0  0  0  0  0  # atno 17320 bound_to 7965
  145.1835  139.2339  143.5280 LP  0  0  0  0  0  0  0  0  0  0  0  0  # atno 17321 bound_to 7965
  140.5322  143.2241  151.8220 LP  0  0  0  0  0  0  0  0  0  0  0  0  # atno 17342 bound_to 10162
  139.4843  144.4706  151.9430 LP  0  0  0  0  0  0  0  0  0  0  0  0  # atno 17343 bound_to 10162
  157.7311  131.0610  150.5692 LP  0  0  0  0  0  0  0  0  0  0  0  0  # atno 17370 bound_to 10713
  156.5797  130.4301  149.5983 LP  0  0  0  0  0  0  0  0  0  0  0  0  # atno 17371 bound_to 10713
  141.2126  133.6721  156.6671 LP  0  0  0  0  0  0  0  0  0  0  0  0  # atno 17394 bound_to 11000
  140.3114  134.8083  157.4179 LP  0  0  0  0  0  0  0  0  0  0  0  0  # atno 17395 bound_to 11000

$$$$
