AV-unprocessed.smi:3267|AV-procd|sdf|12507|dock4
  -GOLD-   2272018413D 1   1.00000     0.00000
 Structure written by MMmdl.
 38 39  0  0  0  0  0  0  0  0  1 V2000
  151.4464  136.2225  156.2620 C   0  0  0  0  0  0  0  0  0  0  0  0
  150.3913  136.9884  155.4475 C   0  0  1  0  0  0  0  0  0  0  0  0
  150.9740  138.1837  154.6564 C   0  0  0  0  0  0  0  0  0  0  0  0
  150.0788  139.3267  154.5776 N   0  0  0  0  0  0  0  0  0  0  0  0
  148.7578  139.3553  154.1818 C   0  0  0  0  0  0  0  0  0  0  0  0
  148.3336  140.6500  154.2721 C   0  0  0  0  0  0  0  0  0  0  0  0
  149.4833  141.3506  154.7325 C   0  0  0  0  0  0  0  0  0  0  0  0
  150.5261  140.5568  154.9127 N   0  0  0  0  0  0  0  0  0  0  0  0
  149.6971  136.0571  154.5614 N   0  0  0  0  0  0  0  0  0  0  0  0
  149.2599  134.8376  154.9041 C   0  0  0  0  0  0  0  0  0  0  0  0
  149.4082  134.3373  156.0195 O   0  0  0  0  0  0  0  0  0  0  0  0
  148.6413  134.2292  153.8837 N   0  0  0  0  0  0  0  0  0  0  0  0
  148.0749  132.8866  153.9302 C   0  0  0  0  0  0  0  0  0  0  0  0
  147.3675  132.5292  152.6127 C   0  0  1  0  0  0  0  0  0  0  0  0
  146.6575  131.1760  152.6358 C   0  0  0  0  0  0  0  0  0  0  0  0
  145.5201  131.3440  151.6377 C   0  0  0  0  0  0  0  0  0  0  0  0
  145.5059  132.8440  151.3323 C   0  0  0  0  0  0  0  0  0  0  0  0
  146.3016  133.4288  152.3519 O   0  0  0  0  0  0  0  0  0  0  0  0
  151.9879  136.8935  156.9293 H   0  0  0  0  0  0  0  0  0  0  0  0
  152.1762  135.7299  155.6188 H   0  0  0  0  0  0  0  0  0  0  0  0
  150.9804  135.4528  156.8780 H   0  0  0  0  0  0  0  0  0  0  0  0
  149.6643  137.3863  156.1578 H   0  0  0  0  0  0  0  0  0  0  0  0
  151.9229  138.5086  155.0863 H   0  0  0  0  0  0  0  0  0  0  0  0
  151.1993  137.8665  153.6376 H   0  0  0  0  0  0  0  0  0  0  0  0
  148.2347  138.4610  153.8761 H   0  0  0  0  0  0  0  0  0  0  0  0
  147.3521  141.0377  154.0434 H   0  0  0  0  0  0  0  0  0  0  0  0
  149.5906  142.4052  154.9392 H   0  0  0  0  0  0  0  0  0  0  0  0
  149.5189  136.3756  153.6201 H   0  0  0  0  0  0  0  0  0  0  0  0
  148.5701  134.7228  153.0060 H   0  0  0  0  0  0  0  0  0  0  0  0
  148.8603  132.1607  154.1471 H   0  0  0  0  0  0  0  0  0  0  0  0
  147.3707  132.8395  154.7614 H   0  0  0  0  0  0  0  0  0  0  0  0
  148.0695  132.5580  151.7770 H   0  0  0  0  0  0  0  0  0  0  0  0
  147.3258  130.3527  152.3819 H   0  0  0  0  0  0  0  0  0  0  0  0
  146.2455  130.9793  153.6264 H   0  0  0  0  0  0  0  0  0  0  0  0
  145.6859  130.7631  150.7297 H   0  0  0  0  0  0  0  0  0  0  0  0
  144.5759  131.0193  152.0765 H   0  0  0  0  0  0  0  0  0  0  0  0
  145.9655  133.0424  150.3629 H   0  0  0  0  0  0  0  0  0  0  0  0
  144.4994  133.2630  151.3242 H   0  0  0  0  0  0  0  0  0  0  0  0
  1  2  1  0  0  0  0
  1 19  1  0  0  0  0
  1 20  1  0  0  0  0
  1 21  1  0  0  0  0
  2  3  1  0  0  0  0
  2  9  1  0  0  0  0
  2 22  1  0  0  0  0
  3  4  1  0  0  0  0
  3 23  1  0  0  0  0
  3 24  1  0  0  0  0
  4  8  1  0  0  0  0
  4  5  1  0  0  0  0
  5  6  2  0  0  0  0
  5 25  1  0  0  0  0
  6  7  1  0  0  0  0
  6 26  1  0  0  0  0
  7  8  2  0  0  0  0
  7 27  1  0  0  0  0
  9 10  1  0  0  0  0
  9 28  1  0  0  0  0
 10 11  2  0  0  0  0
 10 12  1  0  0  0  0
 12 13  1  0  0  0  0
 12 29  1  0  0  0  0
 13 14  1  0  0  0  0
 13 30  1  0  0  0  0
 13 31  1  0  0  0  0
 14 18  1  0  0  0  0
 14 15  1  0  0  0  0
 14 32  1  0  0  0  0
 15 16  1  0  0  0  0
 15 33  1  0  0  0  0
 15 34  1  0  0  0  0
 16 17  1  0  0  0  0
 16 35  1  0  0  0  0
 16 36  1  0  0  0  0
 17 18  1  0  0  0  0
 17 37  1  0  0  0  0
 17 38  1  0  0  0  0
M  END
> <s_m_source_file>
AV-unprocessed.smi

> <i_m_source_file_index>
3267

> <i_lp_mmshare_version>
43012

> <i_f3d_flags>
0

> <s_epik_input>
bjFbY0hdW2NIXVtjSF1uMVtDSDJdW0NAQEhdKFtDSDNdKVtOSF1DKD1PKVtOSF1bQ0gyXVtDQEBIXTJbQ0gyXVtDSDJdW0NIMl1PMg==

> <s_epik_cmdline>
J2VwaWtfcHl0aG9uJywgJy1waCcsICc3LjAnLCAnLXRuJywgJzgnLCAnLW1hJywgJzIwMCcsICctbWV0YWxfYmluZGluZycsICctaW1hZScsICc8aW5maWxlLm1hZT4nLCAnLW9tYWUnLCAnPG91dGZpbGUubWFlPic=

> <r_lp_tautomer_probability>
1

> <r_epik_Ionization_Penalty>
6.24796e-05

> <r_epik_Ionization_Penalty_Charging>
0

> <r_epik_Ionization_Penalty_Neutral>
6.24796e-05

> <r_epik_State_Penalty>
-0

> <r_epik_Charging_Adjusted_Penalty>
0

> <i_epik_Tot_Q>
0

> <i_epik_Tot_abs_Q>
0

> <r_epik_Metal_State_Penalty>
-0

> <b_epik_Metal_Only>
0

> <s_lp_Force_Field>
OPLS_2005

> <r_lp_Energy>
14.3103

> <b_lp_Chiralities_Consistent>
1

> <s_lp_Variant>
AV-unprocessed.smi:3267-4

> <Gold.Version>
5.8.1

> <Gold.Id.Protein>
6NUR|6NUR_protein|mol2

> <Gold.PLP.Fitness>
42.0799

> <Gold.PLP.PLP>
-31.4395

> <Gold.PLP.part.hbond>
-3.0000

> <Gold.PLP.part.metal>
0.0000

> <Gold.PLP.part.buried>
-1.9799

> <Gold.PLP.part.nonpolar>
-26.0957

> <Gold.PLP.part.repulsive>
0.2614

> <Gold.PLP.ligand.clash>
0.0000

> <Gold.PLP.ligand.torsion>
0.6881

> <Gold.PLP.Chemscore.Hbond>
2.9920

> <Gold.PLP.Chemscore.CHOScore>
1.0000

> <Gold.PLP.Chemscore.Metal>
0.0000

> <Gold.Chemscore.Hbonds>
donor molecule, donor type, donor heavy atom, donor atom, acceptor molecule, acceptor atom, score
      L1  H     9    28       P1  7948  1.00
      L1  H    12    29       P1  7948  1.00
      P1  H  7989  7998       L1     8  0.98
      L1  C     7    27       P1  8028  1.00

> <Gold.PLP.Chemscore.Internal.Correction>
0.0406

> <Gold.Rescore>
     Score         DG    S(hbond)    S(metal)    S(lipo)     H(rot)  DE(clash)    DE(int)     intcor
     13.22     -15.69       2.15        0.00      66.90       1.87       0.07       2.41       ----

> <Gold.Chemscore.Fitness>
13.2159

> <Gold.Chemscore.DG>
-15.6930

> <Gold.Chemscore.ZeroCoef>
-5.4800

> <Gold.Chemscore.Hbond>
2.1495

> <Gold.Chemscore.Metal>
0.0000

> <Gold.Chemscore.Lipo>
66.8956

> <Gold.Chemscore.Internal_Hbond>
0.0000

> <Gold.Chemscore.DEClash>
0.0695

> <Gold.Chemscore.DEInternal>
2.4076

> <Gold.Chemscore.Rot>
1.8724

> <Gold.Chemscore.Internal.Correction>
   9.000000E+99

> <Gold.Chemscore.Hbonds>
donor molecule, donor type, donor heavy atom, donor atom, acceptor molecule, acceptor atom, score
      L1  H     9    28       P1  7948  0.64
      L1  H    12    29       P1  7948  0.34
      P1  H  7989  7998       L1     8  0.12

> <Gold.Chemscore.Hbond.Weighted>
-7.1794

> <Gold.Chemscore.Metal.Weighted>
-0.0000

> <Gold.Chemscore.Lipo.Weighted>
-7.8268

> <Gold.Chemscore.Internal_Hbond.Weighted>
0.0000

> <Gold.Chemscore.DEClash.Weighted>
0.0695

> <Gold.Chemscore.DEInternal.Weighted>
2.4076

> <Gold.Chemscore.Rot.Weighted>
4.7933

> <Gold.Chemscore.Internal.Correction.Weighted>
   9.000000E+99

> <Gold.Protein.RotatedTorsions>
[ 6907 6896 6895 6894 ] final    3.12 input  -60.11 | X-H torsion
[ 7974 7965 7964 7962 ] final -144.06 input  175.53 | X-H torsion
[ 8008 7997 7996 7995 ] final   -9.65 input   59.86 | X-H torsion
[ 10167 10162 10161 10158 ] final  165.95 input  -65.29 | X-H torsion
[ 10718 10713 10712 10709 ] final   21.30 input   66.30 | X-H torsion
[ 10763 10752 10751 10750 ] final  101.78 input  -60.55 | X-H torsion
[ 11005 11000 10999 10996 ] final -138.79 input  -57.11 | X-H torsion

> <Gold.Protein.ActiveResidues>
 VAL166  LYS551  ARG553  GLY616  TRP617  ASP618  TYR619  PRO620  LYS621  CYS622 
 ASP623  PHE694  ASN695  SER759  ASP760  ASP761  ALA762  ILE779  LEU786  VAL792 
 PHE793  MET794  SER795  GLU796  ALA797  LYS798  CYS799  TRP800  GLU811  SER814 

> <Gold.Protein.RotatedAtoms>
  151.6200  135.1033  160.0099 H   0  0  0  0  0  0  0  0  0  0  0  0  # atno 6907 bound_to 6896
  152.4163  133.7039  159.6450 H   0  0  0  0  0  0  0  0  0  0  0  0  # atno 6908 bound_to 6896
  150.8051  133.8451  159.3231 H   0  0  0  0  0  0  0  0  0  0  0  0  # atno 6909 bound_to 6896
  144.8324  140.5757  143.5506 H   0  0  0  0  0  0  0  0  0  0  0  0  # atno 7974 bound_to 7965
  154.5627  140.2349  155.8310 H   0  0  0  0  0  0  0  0  0  0  0  0  # atno 8008 bound_to 7997
  156.2043  140.3044  155.9552 H   0  0  0  0  0  0  0  0  0  0  0  0  # atno 8009 bound_to 7997
  155.2858  140.0424  157.3010 H   0  0  0  0  0  0  0  0  0  0  0  0  # atno 8010 bound_to 7997
  139.4915  144.4079  151.9334 H   0  0  0  0  0  0  0  0  0  0  0  0  # atno 10167 bound_to 10162
  157.1366  130.6614  149.5968 H   0  0  0  0  0  0  0  0  0  0  0  0  # atno 10718 bound_to 10713
  153.3311  135.4033  155.1496 H   0  0  0  0  0  0  0  0  0  0  0  0  # atno 10763 bound_to 10752
  154.8623  135.3611  154.5469 H   0  0  0  0  0  0  0  0  0  0  0  0  # atno 10764 bound_to 10752
  153.5908  135.7074  153.5483 H   0  0  0  0  0  0  0  0  0  0  0  0  # atno 10765 bound_to 10752
  140.8582  134.2201  157.4722 H   0  0  0  0  0  0  0  0  0  0  0  0  # atno 11005 bound_to 11000
  145.4866  139.1491  143.3732 LP  0  0  0  0  0  0  0  0  0  0  0  0  # atno 17320 bound_to 7965
  146.2626  140.5004  142.8847 LP  0  0  0  0  0  0  0  0  0  0  0  0  # atno 17321 bound_to 7965
  140.3519  144.3078  150.5948 LP  0  0  0  0  0  0  0  0  0  0  0  0  # atno 17342 bound_to 10162
  140.5478  143.2212  151.7979 LP  0  0  0  0  0  0  0  0  0  0  0  0  # atno 17343 bound_to 10162
  155.9797  130.4792  150.6730 LP  0  0  0  0  0  0  0  0  0  0  0  0  # atno 17370 bound_to 10713
  157.4345  131.0853  151.1005 LP  0  0  0  0  0  0  0  0  0  0  0  0  # atno 17371 bound_to 10713
  139.8706  134.9717  156.4745 LP  0  0  0  0  0  0  0  0  0  0  0  0  # atno 17394 bound_to 11000
  140.8713  133.7986  155.9367 LP  0  0  0  0  0  0  0  0  0  0  0  0  # atno 17395 bound_to 11000

$$$$
