#       Name:                AV-unprocessed.smi:1940
#       Creating user name   scv26
#       Creation time:       Fri Mar 27 09:58:45 2020


#       File generated by GOLD software.
#

@<TRIPOS>MOLECULE
AV-unprocessed.smi:1940
    55    57     1
SMALL
NO_CHARGES


@<TRIPOS>ATOM
      1 ****        -4.5384  -2.9505   1.8548 C.3            1 S1                 0.0000
      2 ****        -4.0868  -2.1808   0.6050 C.3            1 S1                 0.0000
      3 ****        -2.6276  -2.0818   0.6102 N.am           1 S1                 0.0000
      4 ****        -1.9156  -0.9465   0.5614 C.2            1 S1                 0.0000
      5 ****        -2.4193   0.1744   0.4968 O.2            1 S1                 0.0000
      6 ****        -0.5959  -1.2021   0.5696 N.am           1 S1                 0.0000
      7 ****         0.4813  -0.2755   0.5548 C.ar           1 S1                 0.0000
      8 ****         1.7477  -0.7427   0.1413 C.ar           1 S1                 0.0000
      9 ****         2.8480   0.1389   0.1245 C.ar           1 S1                 0.0000
     10 ****         2.6664   1.4793   0.5346 C.ar           1 S1                 0.0000
     11 ****         3.6972   2.4273   0.5531 N.3            1 S1                 0.0000
     12 ****         4.7231   2.1352   1.5509 C.3            1 S1                 0.0000
     13 ****         5.7175   3.3032   1.6688 C.3            1 S1                 0.0000
     14 ****         6.3151   3.6575   0.2975 C.3            1 S1                 0.0000
     15 ****         5.1928   3.9232  -0.7190 C.3            1 S1                 0.0000
     16 ****         4.2129   2.7387  -0.7774 C.3            1 S1                 0.0000
     17 ****         1.4436   1.8854   0.9387 N.pl3          1 S1                 1.0000
     18 ****         0.3637   1.0747   0.9668 C.ar           1 S1                 0.0000
     19 ****        -4.5703  -2.8556  -0.6940 C.3            1 S1                 0.0000
     20 ****        -4.1311  -2.1544  -1.9823 C.3            1 S1                 0.0000
     21 ****        -5.2058  -2.5902  -2.9506 C.3            1 S1                 0.0000
     22 ****        -6.4463  -2.5477  -2.0656 C.3            1 S1                 0.0000
     23 ****        -5.9961  -2.8667  -0.7517 O.3            1 S1                 0.0000
     24 ****        -5.6253  -3.0235   1.9006 H              1 S1                 0.0000
     25 ****        -4.2061  -2.4505   2.7651 H              1 S1                 0.0000
     26 ****        -4.1368  -3.9642   1.8654 H              1 S1                 0.0000
     27 ****        -4.5316  -1.1854   0.6536 H              1 S1                 0.0000
     28 ****        -2.1217  -2.9544   0.6523 H              1 S1                 0.0000
     29 ****        -0.3330  -2.1764   0.5381 H              1 S1                 0.0000
     30 ****         1.8782  -1.7698  -0.1675 H              1 S1                 0.0000
     31 ****         3.8170  -0.2140  -0.1972 H              1 S1                 0.0000
     32 ****         4.2543   1.9491   2.5181 H              1 S1                 0.0000
     33 ****         5.2548   1.2241   1.2726 H              1 S1                 0.0000
     34 ****         5.2079   4.1755   2.0804 H              1 S1                 0.0000
     35 ****         6.5123   3.0493   2.3705 H              1 S1                 0.0000
     36 ****         6.9626   4.5308   0.3817 H              1 S1                 0.0000
     37 ****         6.9414   2.8363  -0.0537 H              1 S1                 0.0000
     38 ****         4.6537   4.8293  -0.4387 H              1 S1                 0.0000
     39 ****         5.6161   4.1078  -1.7066 H              1 S1                 0.0000
     40 ****         4.7172   1.8632  -1.1888 H              1 S1                 0.0000
     41 ****         3.3849   2.9755  -1.4471 H              1 S1                 0.0000
     42 ****        -0.5414   1.5385   1.3291 H              1 S1                 0.0000
     43 ****        -4.2332  -3.8932  -0.7264 H              1 S1                 0.0000
     44 ****        -4.1585  -1.0704  -1.8599 H              1 S1                 0.0000
     45 ****        -3.1277  -2.4375  -2.3014 H              1 S1                 0.0000
     46 ****        -5.2835  -1.9473  -3.8275 H              1 S1                 0.0000
     47 ****        -5.0171  -3.6106  -3.2869 H              1 S1                 0.0000
     48 ****        -6.8679  -1.5419  -2.0515 H              1 S1                 0.0000
     49 ****        -7.2221  -3.2364  -2.4004 H              1 S1                 0.0000
     50 ****         1.3296   2.8535   1.2403 H              1 S1                 0.0000
     51 ****        -3.4140   0.2752   0.4780 LP             1 S1                 0.0000
     52 ****        -1.8339   0.9844   0.4630 LP             1 S1                 0.0000
     53 ****         3.2850   3.2836   0.8641 LP             1 S1                 0.0000
     54 ****        -6.3565  -2.1919  -0.1077 LP             1 S1                 0.0000
     55 ****        -6.3282  -3.7763  -0.5021 LP             1 S1                 0.0000
@<TRIPOS>BOND
    1    1    2 1     
    2    1   24 1     
    3    1   25 1     
    4    1   26 1     
    5    2    3 1     
    6    2   19 1     
    7    2   27 1     
    8    3    4 am    
    9    3   28 1     
   10    4    5 2     
   11    4    6 am    
   12    6    7 1     
   13    6   29 1     
   14    7   18 ar    
   15    7    8 ar    
   16    8    9 ar    
   17    8   30 1     
   18    9   10 ar    
   19    9   31 1     
   20   10   11 1     
   21   10   17 ar    
   22   11   16 1     
   23   11   12 1     
   24   12   13 1     
   25   12   32 1     
   26   12   33 1     
   27   13   14 1     
   28   13   34 1     
   29   13   35 1     
   30   14   15 1     
   31   14   36 1     
   32   14   37 1     
   33   15   16 1     
   34   15   38 1     
   35   15   39 1     
   36   16   40 1     
   37   16   41 1     
   38   17   18 ar    
   39   17   50 1     
   40   18   42 1     
   41   19   23 1     
   42   19   20 1     
   43   19   43 1     
   44   20   21 1     
   45   20   44 1     
   46   20   45 1     
   47   21   22 1     
   48   21   46 1     
   49   21   47 1     
   50   22   23 1     
   51   22   48 1     
   52   22   49 1     
   53    5   51 1     
   54    5   52 1     
   55   11   53 1     
   56   23   54 1     
   57   23   55 1     
@<TRIPOS>SUBSTRUCTURE
      1 S1             1
@<TRIPOS>SET
LONE_PAIRS      STATIC     ATOMS    <user>   **** ""
5 51 52 53 54 55
DONOR_HYDROGENS      STATIC     ATOMS    <user>   **** ""
3 28 29 50
ATOM$BLUE        STATIC     ATOMS    COLORGROUP SYSTEM
5 51 52 53 54 55
ATOM$RED        STATIC     ATOMS    COLORGROUP SYSTEM
3 28 29 50
