#       Name:                AV-unprocessed.smi:249
#       Creating user name   scv26
#       Creation time:       Thu Mar 26 20:58:56 2020


#       File generated by GOLD software.
#

@<TRIPOS>MOLECULE
AV-unprocessed.smi:249
    72    75     1
SMALL
NO_CHARGES


@<TRIPOS>ATOM
      1 ****        -3.0369  -4.0756   2.5290 C.3            1 S1                 0.0000
      2 ****        -3.3350  -3.4119   1.1744 C.3            1 S1                 0.0000
      3 ****        -2.8326  -2.0106   1.0759 N.4            1 S1                 1.0000
      4 ****        -3.5335  -1.1027   2.0288 C.3            1 S1                 0.0000
      5 ****        -2.9248   0.3059   2.0386 C.3            1 S1                 0.0000
      6 ****        -2.9635   0.9273   0.6323 C.3            1 S1                 0.0000
      7 ****        -2.4524   2.3065   0.5908 N.3            1 S1                 0.0000
      8 ****        -3.2422   3.3323   1.2626 C.3            1 S1                 0.0000
      9 ****        -1.1142   2.4663   0.7307 C.ar           1 S1                 0.0000
     10 ****        -0.5719   2.5896   1.9710 N.ar           1 S1                 0.0000
     11 ****         0.7542   2.6738   2.1153 C.ar           1 S1                 0.0000
     12 ****         1.6999   2.6401   1.1739 N.ar           1 S1                 0.0000
     13 ****         1.1549   2.5373  -0.0720 C.ar           1 S1                 0.0000
     14 ****        -0.2311   2.4694  -0.3817 C.ar           1 S1                 0.0000
     15 ****        -0.4105   2.3908  -1.7572 N.2            1 S1                 0.0000
     16 ****         0.8042   2.3825  -2.2342 C.2            1 S1                 0.0000
     17 ****         1.8041   2.4243  -1.2882 N.pl3          1 S1                 0.0000
     18 ****         3.2329   2.3742  -1.5328 C.3            1 S1                 0.0000
     19 ****         3.9328   1.0887  -1.0065 C.3            1 S1                 0.0000
     20 ****         5.4482   1.1804  -1.3110 C.3            1 S1                 0.0000
     21 ****         6.0399   2.2841  -0.6565 O.3            1 S1                 0.0000
     22 ****         3.3095  -0.2299  -1.5634 C.3            1 S1                 0.0000
     23 ****         4.1100  -1.4946  -1.2857 C.3            1 S1                 0.0000
     24 ****         3.0760  -2.5894  -1.4987 C.3            1 S1                 0.0000
     25 ****         1.8911  -2.0570  -0.9306 O.3            1 S1                 0.0000
     26 ****         1.9447  -0.6339  -0.9699 C.3            1 S1                 0.0000
     27 ****        -2.2509  -0.0317  -0.3408 C.3            1 S1                 0.0000
     28 ****        -2.8467  -1.4547  -0.3166 C.3            1 S1                 0.0000
     29 ****        -2.0687  -2.3217  -1.3293 C.3            1 S1                 0.0000
     30 ****        -3.2773  -5.1385   2.4914 H              1 S1                 0.0000
     31 ****        -3.6257  -3.6505   3.3408 H              1 S1                 0.0000
     32 ****        -1.9817  -3.9877   2.7890 H              1 S1                 0.0000
     33 ****        -2.8542  -4.0406   0.4289 H              1 S1                 0.0000
     34 ****        -4.4048  -3.4401   0.9622 H              1 S1                 0.0000
     35 ****        -4.5927  -1.0511   1.7713 H              1 S1                 0.0000
     36 ****        -3.4765  -1.4896   3.0445 H              1 S1                 0.0000
     37 ****        -3.4738   0.9276   2.7459 H              1 S1                 0.0000
     38 ****        -1.8995   0.2480   2.4051 H              1 S1                 0.0000
     39 ****        -4.0080   0.9847   0.3225 H              1 S1                 0.0000
     40 ****        -2.8835   4.3279   0.9982 H              1 S1                 0.0000
     41 ****        -3.1941   3.2285   2.3471 H              1 S1                 0.0000
     42 ****        -4.2876   3.2647   0.9605 H              1 S1                 0.0000
     43 ****         1.1094   2.7652   3.1313 H              1 S1                 0.0000
     44 ****         1.0051   2.3118  -3.2934 H              1 S1                 0.0000
     45 ****         3.4003   2.4730  -2.6060 H              1 S1                 0.0000
     46 ****         3.6665   3.2631  -1.0737 H              1 S1                 0.0000
     47 ****         3.8302   1.0629   0.0794 H              1 S1                 0.0000
     48 ****         5.9812   0.2970  -0.9621 H              1 S1                 0.0000
     49 ****         5.6251   1.2595  -2.3841 H              1 S1                 0.0000
     50 ****         6.9646   2.2895  -0.8515 H              1 S1                 0.0000
     51 ****         3.2039  -0.1413  -2.6460 H              1 S1                 0.0000
     52 ****         4.9720  -1.6119  -1.9434 H              1 S1                 0.0000
     53 ****         4.4592  -1.5100  -0.2519 H              1 S1                 0.0000
     54 ****         2.9160  -2.7638  -2.5637 H              1 S1                 0.0000
     55 ****         3.3574  -3.5340  -1.0330 H              1 S1                 0.0000
     56 ****         1.8265  -0.2675   0.0502 H              1 S1                 0.0000
     57 ****         1.1119  -0.2578  -1.5622 H              1 S1                 0.0000
     58 ****        -2.3157   0.3713  -1.3519 H              1 S1                 0.0000
     59 ****        -1.1895  -0.1003  -0.0978 H              1 S1                 0.0000
     60 ****        -3.8854  -1.3973  -0.6467 H              1 S1                 0.0000
     61 ****        -1.9678  -1.8061  -2.2849 H              1 S1                 0.0000
     62 ****        -2.5735  -3.2615  -1.5498 H              1 S1                 0.0000
     63 ****        -1.0626  -2.5463  -0.9730 H              1 S1                 0.0000
     64 ****        -1.8633  -2.0362   1.3587 H              1 S1                 0.0000
     65 ****        -2.6140   2.4963  -0.3776 LP             1 S1                 0.0000
     66 ****        -1.1651   2.6173   2.7756 LP             1 S1                 0.0000
     67 ****         2.6817   2.6845   1.3585 LP             1 S1                 0.0000
     68 ****        -1.2713   2.3500  -2.2644 LP             1 S1                 0.0000
     69 ****         5.9042   2.2027   0.3309 LP             1 S1                 0.0000
     70 ****         5.6220   3.1324  -0.9816 LP             1 S1                 0.0000
     71 ****         1.8102  -2.3617   0.0184 LP             1 S1                 0.0000
     72 ****         1.0992  -2.3755  -1.4516 LP             1 S1                 0.0000
@<TRIPOS>BOND
    1    1    2 1     
    2    1   30 1     
    3    1   31 1     
    4    1   32 1     
    5    2    3 1     
    6    2   33 1     
    7    2   34 1     
    8    3   28 1     
    9    3    4 1     
   10    3   64 1     
   11    4    5 1     
   12    4   35 1     
   13    4   36 1     
   14    5    6 1     
   15    5   37 1     
   16    5   38 1     
   17    6    7 1     
   18    6   27 1     
   19    6   39 1     
   20    7    8 1     
   21    7    9 1     
   22    8   40 1     
   23    8   41 1     
   24    8   42 1     
   25    9   14 ar    
   26    9   10 ar    
   27   10   11 ar    
   28   11   12 ar    
   29   11   43 1     
   30   12   13 ar    
   31   13   17 1     
   32   13   14 ar    
   33   14   15 1     
   34   15   16 2     
   35   16   17 1     
   36   16   44 1     
   37   17   18 1     
   38   18   19 1     
   39   18   45 1     
   40   18   46 1     
   41   19   20 1     
   42   19   22 1     
   43   19   47 1     
   44   20   21 1     
   45   20   48 1     
   46   20   49 1     
   47   21   50 1     
   48   22   26 1     
   49   22   23 1     
   50   22   51 1     
   51   23   24 1     
   52   23   52 1     
   53   23   53 1     
   54   24   25 1     
   55   24   54 1     
   56   24   55 1     
   57   25   26 1     
   58   26   56 1     
   59   26   57 1     
   60   27   28 1     
   61   27   58 1     
   62   27   59 1     
   63   28   29 1     
   64   28   60 1     
   65   29   61 1     
   66   29   62 1     
   67   29   63 1     
   68    7   65 1     
   69   10   66 1     
   70   12   67 1     
   71   15   68 1     
   72   21   69 1     
   73   21   70 1     
   74   25   71 1     
   75   25   72 1     
@<TRIPOS>SUBSTRUCTURE
      1 S1             1
@<TRIPOS>SET
LONE_PAIRS      STATIC     ATOMS    <user>   **** ""
8 65 66 67 68 69 70 71 72
DONOR_HYDROGENS      STATIC     ATOMS    <user>   **** ""
2 64 50
ATOM$BLUE        STATIC     ATOMS    COLORGROUP SYSTEM
8 65 66 67 68 69 70 71 72
ATOM$RED        STATIC     ATOMS    COLORGROUP SYSTEM
2 64 50
