AV-unprocessed.smi:3002|AV-procd|sdf|11433|dock5
  -GOLD-   2272016363D 1   1.00000     0.00000
 Structure written by MMmdl.
 34 35  0  0  0  0  0  0  0  0  1 V2000
  153.8593  141.6376  160.7013 C   0  0  0  0  0  0  0  0  0  0  0  0
  152.5237  141.5710  159.9276 C   0  0  2  0  0  0  0  0  0  0  0  0
  152.5964  140.5254  158.8025 C   0  0  0  0  0  0  0  0  0  0  0  0
  153.6299  139.8844  158.6107 O   0  0  0  0  0  0  0  0  0  0  0  0
  151.4923  140.3748  158.0562 N   0  0  0  0  0  0  0  0  0  0  0  0
  151.3750  139.4683  156.9217 C   0  0  0  0  0  0  0  0  0  0  0  0
  150.4340  138.2966  157.2486 C   0  0  2  0  0  0  0  0  0  0  0  0
  148.9793  138.7552  157.4679 C   0  0  0  0  0  0  0  0  0  0  0  0
  148.1811  137.5838  158.0477 C   0  0  0  0  0  0  0  0  0  0  0  0
  149.3518  136.6801  159.1274 S   0  0  0  0  0  0  0  0  0  0  0  0
  149.1460  137.0900  160.5247 O   0  0  0  0  0  0  0  0  0  0  0  0
  149.3560  135.2594  158.7474 O   0  0  0  0  0  0  0  0  0  0  0  0
  150.8667  137.4925  158.4882 C   0  0  0  0  0  0  0  0  0  0  0  0
  152.0896  142.8683  159.4020 N   0  0  0  0  0  0  0  0  0  0  0  0
  152.6762  144.0696  159.4643 C   0  0  0  0  0  0  0  0  0  0  0  0
  152.0315  145.0247  158.8097 N   0  0  0  0  0  0  0  0  0  0  0  0
  150.9926  144.2942  158.3093 C   0  0  0  0  0  0  0  0  0  0  0  0
  150.9913  142.9970  158.6144 N   0  0  0  0  0  0  0  0  0  0  0  0
  154.1857  140.6450  161.0141 H   0  0  0  0  0  0  0  0  0  0  0  0
  153.7617  142.2404  161.6046 H   0  0  0  0  0  0  0  0  0  0  0  0
  154.6561  142.0720  160.0958 H   0  0  0  0  0  0  0  0  0  0  0  0
  151.7557  141.2488  160.6329 H   0  0  0  0  0  0  0  0  0  0  0  0
  150.6837  140.9368  158.2801 H   0  0  0  0  0  0  0  0  0  0  0  0
  151.0045  140.0092  156.0490 H   0  0  0  0  0  0  0  0  0  0  0  0
  152.3672  139.0931  156.6675 H   0  0  0  0  0  0  0  0  0  0  0  0
  150.4287  137.6110  156.3996 H   0  0  0  0  0  0  0  0  0  0  0  0
  148.9655  139.5785  158.1835 H   0  0  0  0  0  0  0  0  0  0  0  0
  148.5287  139.1261  156.5469 H   0  0  0  0  0  0  0  0  0  0  0  0
  147.3059  137.8990  158.6161 H   0  0  0  0  0  0  0  0  0  0  0  0
  147.8597  136.9065  157.2561 H   0  0  0  0  0  0  0  0  0  0  0  0
  151.6276  136.7439  158.2671 H   0  0  0  0  0  0  0  0  0  0  0  0
  151.2462  138.1501  159.2712 H   0  0  0  0  0  0  0  0  0  0  0  0
  153.5982  144.2527  159.9965 H   0  0  0  0  0  0  0  0  0  0  0  0
  150.2206  144.7285  157.6911 H   0  0  0  0  0  0  0  0  0  0  0  0
  1  2  1  0  0  0  0
  1 19  1  0  0  0  0
  1 20  1  0  0  0  0
  1 21  1  0  0  0  0
  2  3  1  0  0  0  0
  2 14  1  0  0  0  0
  2 22  1  0  0  0  0
  3  4  2  0  0  0  0
  3  5  1  0  0  0  0
  5  6  1  0  0  0  0
  5 23  1  0  0  0  0
  6  7  1  0  0  0  0
  6 24  1  0  0  0  0
  6 25  1  0  0  0  0
  7 13  1  0  0  0  0
  7  8  1  0  0  0  0
  7 26  1  0  0  0  0
  8  9  1  0  0  0  0
  8 27  1  0  0  0  0
  8 28  1  0  0  0  0
  9 10  1  0  0  0  0
  9 29  1  0  0  0  0
  9 30  1  0  0  0  0
 10 11  2  0  0  0  0
 10 12  2  0  0  0  0
 10 13  1  0  0  0  0
 13 31  1  0  0  0  0
 13 32  1  0  0  0  0
 14 18  1  0  0  0  0
 14 15  1  0  0  0  0
 15 16  2  0  0  0  0
 15 33  1  0  0  0  0
 16 17  1  0  0  0  0
 17 18  2  0  0  0  0
 17 34  1  0  0  0  0
M  END
> <s_m_source_file>
AV-unprocessed.smi

> <i_m_source_file_index>
3002

> <i_lp_mmshare_version>
43012

> <i_f3d_flags>
0

> <s_epik_input>
bjFbY0hdbltjSF1uMVtDQEhdKFtDSDNdKUMoPU8pW05IXVtDSDJdW0NAQEhdKFtDSDJdMilbQ0gyXVtDSDJdUzIoPU8pPU8=

> <s_epik_cmdline>
J2VwaWtfcHl0aG9uJywgJy1waCcsICc3LjAnLCAnLXRuJywgJzgnLCAnLW1hJywgJzIwMCcsICctbWV0YWxfYmluZGluZycsICctaW1hZScsICc8aW5maWxlLm1hZT4nLCAnLW9tYWUnLCAnPG91dGZpbGUubWFlPic=

> <r_lp_tautomer_probability>
1

> <r_epik_Ionization_Penalty>
1.1748e-05

> <r_epik_Ionization_Penalty_Charging>
0

> <r_epik_Ionization_Penalty_Neutral>
1.1748e-05

> <r_epik_State_Penalty>
-0

> <r_epik_Charging_Adjusted_Penalty>
0

> <i_epik_Tot_Q>
0

> <i_epik_Tot_abs_Q>
0

> <r_epik_Metal_State_Penalty>
-0

> <b_epik_Metal_Only>
0

> <s_lp_Force_Field>
OPLS_2005

> <r_lp_Energy>
11.0715

> <b_lp_Chiralities_Consistent>
1

> <s_lp_Variant>
AV-unprocessed.smi:3002-1

> <Gold.Version>
5.8.1

> <Gold.Id.Protein>
6NUR|6NUR_protein|mol2

> <Gold.PLP.Fitness>
41.1267

> <Gold.PLP.PLP>
-30.4582

> <Gold.PLP.part.hbond>
-3.4671

> <Gold.PLP.part.metal>
0.0000

> <Gold.PLP.part.buried>
-5.2440

> <Gold.PLP.part.nonpolar>
-22.2777

> <Gold.PLP.part.repulsive>
0.2044

> <Gold.PLP.ligand.clash>
0.0000

> <Gold.PLP.ligand.torsion>
0.1631

> <Gold.PLP.Chemscore.Hbond>
2.6080

> <Gold.PLP.Chemscore.CHOScore>
1.0162

> <Gold.PLP.Chemscore.Metal>
0.0000

> <Gold.Chemscore.Hbonds>
donor molecule, donor type, donor heavy atom, donor atom, acceptor molecule, acceptor atom, score
      P1  H  6896  6909       L1    12  1.00
      P1  H  6931  6943       L1    11  0.62
      P1  H  7997  8010       L1     4  1.00
      L1  C    17    34       P1  8028  0.82
      L1  C    17    34       P1  8029  0.19

> <Gold.PLP.Chemscore.Internal.Correction>
0.1222

> <Gold.Rescore>
     Score         DG    S(hbond)    S(metal)    S(lipo)     H(rot)  DE(clash)    DE(int)     intcor
     10.29     -11.91       2.60        0.00      33.27       2.39       0.00       1.62       ----

> <Gold.Chemscore.Fitness>
10.2908

> <Gold.Chemscore.DG>
-11.9101

> <Gold.Chemscore.ZeroCoef>
-5.4800

> <Gold.Chemscore.Hbond>
2.5953

> <Gold.Chemscore.Metal>
0.0000

> <Gold.Chemscore.Lipo>
33.2653

> <Gold.Chemscore.Internal_Hbond>
0.0000

> <Gold.Chemscore.DEClash>
0.0029

> <Gold.Chemscore.DEInternal>
1.6165

> <Gold.Chemscore.Rot>
2.3946

> <Gold.Chemscore.Internal.Correction>
   9.000000E+99

> <Gold.Chemscore.Hbonds>
donor molecule, donor type, donor heavy atom, donor atom, acceptor molecule, acceptor atom, score
      P1  H  6896  6909       L1    12  0.91
      P1  H  6931  6943       L1    11  0.62
      P1  H  7997  8010       L1     4  0.93

> <Gold.Chemscore.Hbond.Weighted>
-8.6682

> <Gold.Chemscore.Metal.Weighted>
-0.0000

> <Gold.Chemscore.Lipo.Weighted>
-3.8920

> <Gold.Chemscore.Internal_Hbond.Weighted>
0.0000

> <Gold.Chemscore.DEClash.Weighted>
0.0029

> <Gold.Chemscore.DEInternal.Weighted>
1.6165

> <Gold.Chemscore.Rot.Weighted>
6.1301

> <Gold.Chemscore.Internal.Correction.Weighted>
   9.000000E+99

> <Gold.Protein.RotatedTorsions>
[ 6907 6896 6895 6894 ] final   30.05 input  -60.11 | X-H torsion
[ 7974 7965 7964 7962 ] final -179.01 input  175.53 | X-H torsion
[ 8008 7997 7996 7995 ] final   36.11 input   59.86 | X-H torsion
[ 10167 10162 10161 10158 ] final   28.05 input  -65.29 | X-H torsion
[ 10718 10713 10712 10709 ] final   28.07 input   66.30 | X-H torsion
[ 10763 10752 10751 10750 ] final   64.42 input  -60.55 | X-H torsion
[ 11005 11000 10999 10996 ] final   85.43 input  -57.11 | X-H torsion

> <Gold.Protein.ActiveResidues>
 VAL166  LYS551  ARG553  GLY616  TRP617  ASP618  TYR619  PRO620  LYS621  CYS622 
 ASP623  PHE694  ASN695  SER759  ASP760  ASP761  ALA762  ILE779  LEU786  VAL792 
 PHE793  MET794  SER795  GLU796  ALA797  LYS798  CYS799  TRP800  GLU811  SER814 

> <Gold.Protein.RotatedAtoms>
  152.0404  134.9715  160.0573 H   0  0  0  0  0  0  0  0  0  0  0  0  # atno 6907 bound_to 6896
  152.1156  133.4320  159.4659 H   0  0  0  0  0  0  0  0  0  0  0  0  # atno 6908 bound_to 6896
  150.6846  134.2515  159.4556 H   0  0  0  0  0  0  0  0  0  0  0  0  # atno 6909 bound_to 6896
  144.7134  140.0783  143.6426 H   0  0  0  0  0  0  0  0  0  0  0  0  # atno 7974 bound_to 7965
  155.1820  140.3300  155.4373 H   0  0  0  0  0  0  0  0  0  0  0  0  # atno 8008 bound_to 7997
  156.2473  140.1925  156.6868 H   0  0  0  0  0  0  0  0  0  0  0  0  # atno 8009 bound_to 7997
  154.6264  140.0588  156.9665 H   0  0  0  0  0  0  0  0  0  0  0  0  # atno 8010 bound_to 7997
  140.4886  144.0503  150.6289 H   0  0  0  0  0  0  0  0  0  0  0  0  # atno 10167 bound_to 10162
  157.2286  130.7013  149.6303 H   0  0  0  0  0  0  0  0  0  0  0  0  # atno 10718 bound_to 10713
  153.0055  135.5394  154.6507 H   0  0  0  0  0  0  0  0  0  0  0  0  # atno 10763 bound_to 10752
  154.5740  135.2844  155.0802 H   0  0  0  0  0  0  0  0  0  0  0  0  # atno 10764 bound_to 10752
  154.1956  135.6492  153.5125 H   0  0  0  0  0  0  0  0  0  0  0  0  # atno 10765 bound_to 10752
  139.8972  134.8286  156.2581 H   0  0  0  0  0  0  0  0  0  0  0  0  # atno 11005 bound_to 11000
  145.9724  139.2880  143.1090 LP  0  0  0  0  0  0  0  0  0  0  0  0  # atno 17320 bound_to 7965
  145.9101  140.9185  143.0458 LP  0  0  0  0  0  0  0  0  0  0  0  0  # atno 17321 bound_to 7965
  140.3765  143.2825  152.0218 LP  0  0  0  0  0  0  0  0  0  0  0  0  # atno 17342 bound_to 10162
  139.4847  144.6188  151.7294 LP  0  0  0  0  0  0  0  0  0  0  0  0  # atno 17343 bound_to 10162
  155.9677  130.4496  150.5665 LP  0  0  0  0  0  0  0  0  0  0  0  0  # atno 17370 bound_to 10713
  157.3502  131.0732  151.1719 LP  0  0  0  0  0  0  0  0  0  0  0  0  # atno 17371 bound_to 10713
  141.0180  133.7057  156.1221 LP  0  0  0  0  0  0  0  0  0  0  0  0  # atno 17394 bound_to 11000
  140.7274  134.4292  157.5569 LP  0  0  0  0  0  0  0  0  0  0  0  0  # atno 17395 bound_to 11000

$$$$
