AV-unprocessed.smi:171|AV-procd|sdf|1417|dock1
  -GOLD-   2262019183D 1   1.00000     0.00000
 Structure written by MMmdl.
 56 59  0  0  0  0  0  0  0  0  1 V2000
  152.2113  145.5806  159.3913 C   0  0  0  0  0  0  0  0  0  0  0  0
  151.6263  144.1658  159.5382 C   0  0  0  0  0  0  0  0  0  0  0  0
  152.3671  143.3899  160.6377 C   0  0  0  0  0  0  0  0  0  0  0  0
  151.6425  143.3731  158.2098 C   0  0  0  0  0  0  0  0  0  0  0  0
  150.7005  142.1453  158.1560 C   0  0  1  0  0  0  0  0  0  0  0  0
  149.2269  142.5951  158.2778 C   0  0  0  0  0  0  0  0  0  0  0  0
  148.8180  143.0477  159.3452 O   0  0  0  0  0  0  0  0  0  0  0  0
  148.4146  142.4801  157.2115 N   0  0  0  0  0  0  0  0  0  0  0  0
  148.7878  141.9391  155.9045 C   0  0  0  0  0  0  0  0  0  0  0  0
  150.3111  141.8594  155.7061 C   0  0  0  0  0  0  0  0  0  0  0  0
  150.9502  141.3778  156.9265 N   0  0  0  0  0  0  0  0  0  0  0  0
  151.0743  140.0298  157.0104 C   0  0  0  0  0  0  0  0  0  0  0  0
  151.3125  139.4370  158.2103 N   0  0  0  0  0  0  0  0  0  0  0  0
  151.4267  138.1083  158.2924 C   0  0  0  0  0  0  0  0  0  0  0  0
  151.3368  137.2010  157.3177 N   0  0  0  0  0  0  0  0  0  0  0  0
  151.0944  137.7914  156.1122 C   0  0  0  0  0  0  0  0  0  0  0  0
  150.9498  139.1865  155.8730 C   0  0  0  0  0  0  0  0  0  0  0  0
  150.7229  139.4168  154.5223 N   0  0  0  0  0  0  0  0  0  0  0  0
  150.7311  138.2242  153.9924 C   0  0  0  0  0  0  0  0  0  0  0  0
  150.9381  137.1881  154.8761 N   0  0  0  0  0  0  0  0  0  0  0  0
  151.0038  135.7690  154.5583 C   0  0  0  0  0  0  0  0  0  0  0  0
  149.7875  134.9513  155.0595 C   0  0  2  0  0  0  0  0  0  0  0  0
  148.6012  135.5972  154.6273 O   0  0  0  0  0  0  0  0  0  0  0  0
  149.7194  134.7894  156.5852 C   0  0  0  0  0  0  0  0  0  0  0  0
  149.8241  133.2836  156.8134 C   0  0  0  0  0  0  0  0  0  0  0  0
  149.3043  132.7247  155.6201 O   0  0  0  0  0  0  0  0  0  0  0  0
  149.8250  133.4924  154.5464 C   0  0  1  0  0  0  0  0  0  0  0  0
  149.0774  133.1914  153.2372 C   0  0  0  0  0  0  0  0  0  0  0  0
  153.2323  145.5504  159.0099 H   0  0  0  0  0  0  0  0  0  0  0  0
  152.2303  146.0977  160.3510 H   0  0  0  0  0  0  0  0  0  0  0  0
  151.6171  146.1925  158.7127 H   0  0  0  0  0  0  0  0  0  0  0  0
  150.5924  144.2682  159.8699 H   0  0  0  0  0  0  0  0  0  0  0  0
  153.4188  143.2511  160.3849 H   0  0  0  0  0  0  0  0  0  0  0  0
  151.9278  142.4035  160.7884 H   0  0  0  0  0  0  0  0  0  0  0  0
  152.3206  143.9171  161.5911 H   0  0  0  0  0  0  0  0  0  0  0  0
  151.3891  144.0539  157.3955 H   0  0  0  0  0  0  0  0  0  0  0  0
  152.6652  143.0490  158.0101 H   0  0  0  0  0  0  0  0  0  0  0  0
  150.9105  141.5357  159.0356 H   0  0  0  0  0  0  0  0  0  0  0  0
  147.4571  142.7811  157.3203 H   0  0  0  0  0  0  0  0  0  0  0  0
  148.3575  140.9398  155.8292 H   0  0  0  0  0  0  0  0  0  0  0  0
  148.3318  142.5381  155.1160 H   0  0  0  0  0  0  0  0  0  0  0  0
  150.5463  141.2370  154.8418 H   0  0  0  0  0  0  0  0  0  0  0  0
  150.7065  142.8496  155.4788 H   0  0  0  0  0  0  0  0  0  0  0  0
  151.6172  137.7163  159.2805 H   0  0  0  0  0  0  0  0  0  0  0  0
  150.5833  138.0658  152.9341 H   0  0  0  0  0  0  0  0  0  0  0  0
  151.1031  135.6687  153.4767 H   0  0  0  0  0  0  0  0  0  0  0  0
  151.9238  135.3677  154.9849 H   0  0  0  0  0  0  0  0  0  0  0  0
  148.6513  135.7138  153.6906 H   0  0  0  0  0  0  0  0  0  0  0  0
  150.5094  135.3162  157.1187 H   0  0  0  0  0  0  0  0  0  0  0  0
  148.7698  135.1537  156.9804 H   0  0  0  0  0  0  0  0  0  0  0  0
  150.8657  132.9812  156.9332 H   0  0  0  0  0  0  0  0  0  0  0  0
  149.2679  132.9505  157.6899 H   0  0  0  0  0  0  0  0  0  0  0  0
  150.8649  133.1839  154.4229 H   0  0  0  0  0  0  0  0  0  0  0  0
  149.4525  133.8102  152.4216 H   0  0  0  0  0  0  0  0  0  0  0  0
  148.0060  133.3692  153.3322 H   0  0  0  0  0  0  0  0  0  0  0  0
  149.2097  132.1486  152.9489 H   0  0  0  0  0  0  0  0  0  0  0  0
  1  2  1  0  0  0  0
  1 29  1  0  0  0  0
  1 30  1  0  0  0  0
  1 31  1  0  0  0  0
  2  3  1  0  0  0  0
  2  4  1  0  0  0  0
  2 32  1  0  0  0  0
  3 33  1  0  0  0  0
  3 34  1  0  0  0  0
  3 35  1  0  0  0  0
  4  5  1  0  0  0  0
  4 36  1  0  0  0  0
  4 37  1  0  0  0  0
  5 11  1  0  0  0  0
  5  6  1  0  0  0  0
  5 38  1  0  0  0  0
  6  7  2  0  0  0  0
  6  8  1  0  0  0  0
  8  9  1  0  0  0  0
  8 39  1  0  0  0  0
  9 10  1  0  0  0  0
  9 40  1  0  0  0  0
  9 41  1  0  0  0  0
 10 11  1  0  0  0  0
 10 42  1  0  0  0  0
 10 43  1  0  0  0  0
 11 12  1  0  0  0  0
 12 17  1  0  0  0  0
 12 13  2  0  0  0  0
 13 14  1  0  0  0  0
 14 15  2  0  0  0  0
 14 44  1  0  0  0  0
 15 16  1  0  0  0  0
 16 20  1  0  0  0  0
 16 17  2  0  0  0  0
 17 18  1  0  0  0  0
 18 19  2  0  0  0  0
 19 20  1  0  0  0  0
 19 45  1  0  0  0  0
 20 21  1  0  0  0  0
 21 22  1  0  0  0  0
 21 46  1  0  0  0  0
 21 47  1  0  0  0  0
 22 27  1  0  0  0  0
 22 23  1  0  0  0  0
 22 24  1  0  0  0  0
 23 48  1  0  0  0  0
 24 25  1  0  0  0  0
 24 49  1  0  0  0  0
 24 50  1  0  0  0  0
 25 26  1  0  0  0  0
 25 51  1  0  0  0  0
 25 52  1  0  0  0  0
 26 27  1  0  0  0  0
 27 28  1  0  0  0  0
 27 53  1  0  0  0  0
 28 54  1  0  0  0  0
 28 55  1  0  0  0  0
 28 56  1  0  0  0  0
M  END
> <s_m_source_file>
AV-unprocessed.smi

> <i_m_source_file_index>
171

> <i_lp_mmshare_version>
43012

> <i_f3d_flags>
0

> <s_epik_input>
W0NIM11bQ0hdKFtDSDNdKVtDSDJdW0NAQEhdMUMoPU8pW05IXVtDSDJdW0NIMl1OMWMobltjSF1uMiljKGMyMyluW2NIXW4zW0NIMl1bQ0BAXTQoW09IXSlbQ0gyXVtDSDJdT1tDQEhdNFtDSDNd

> <s_epik_cmdline>
J2VwaWtfcHl0aG9uJywgJy1waCcsICc3LjAnLCAnLXRuJywgJzgnLCAnLW1hJywgJzIwMCcsICctbWV0YWxfYmluZGluZycsICctaW1hZScsICc8aW5maWxlLm1hZT4nLCAnLW9tYWUnLCAnPG91dGZpbGUubWFlPic=

> <r_lp_tautomer_probability>
1

> <r_epik_Ionization_Penalty>
0.000670584

> <r_epik_Ionization_Penalty_Charging>
0

> <r_epik_Ionization_Penalty_Neutral>
0.000670584

> <r_epik_State_Penalty>
0.000304767

> <r_epik_Charging_Adjusted_Penalty>
0.000304767

> <i_epik_Tot_Q>
0

> <i_epik_Tot_abs_Q>
0

> <r_epik_Metal_State_Penalty>
-0

> <b_epik_Metal_Only>
0

> <s_lp_Force_Field>
OPLS_2005

> <r_lp_Energy>
42.7698

> <b_lp_Chiralities_Consistent>
1

> <s_lp_Variant>
AV-unprocessed.smi:171-4

> <Gold.Version>
5.8.1

> <Gold.Id.Protein>
6NUR|6NUR_protein|mol2

> <Gold.PLP.Fitness>
51.4123

> <Gold.PLP.PLP>
-42.6003

> <Gold.PLP.part.hbond>
-3.8826

> <Gold.PLP.part.metal>
0.0000

> <Gold.PLP.part.buried>
-0.8828

> <Gold.PLP.part.nonpolar>
-37.1350

> <Gold.PLP.part.repulsive>
0.2763

> <Gold.PLP.ligand.clash>
0.1676

> <Gold.PLP.ligand.torsion>
0.4551

> <Gold.PLP.Chemscore.Hbond>
2.0888

> <Gold.PLP.Chemscore.CHOScore>
1.0549

> <Gold.PLP.Chemscore.Metal>
0.0000

> <Gold.Chemscore.Hbonds>
donor molecule, donor type, donor heavy atom, donor atom, acceptor molecule, acceptor atom, score
      L1  H    23    48       P1  7948  1.00
      P1  H  6933  6944       L1     7  0.21
      P1  H  7989  7998       L1    18  1.00
      L1  C    19    45       P1  7948  0.39
      L1  C    19    45       P1  7949  0.51
      L1  C    19    45       P1  7957  0.20

> <Gold.PLP.Chemscore.Internal.Correction>
0.4589

> <Gold.Rescore>
     Score         DG    S(hbond)    S(metal)    S(lipo)     H(rot)  DE(clash)    DE(int)     intcor
     14.82     -18.57       2.06        0.00     103.16       2.29       1.09       2.66       ----

> <Gold.Chemscore.Fitness>
14.8216

> <Gold.Chemscore.DG>
-18.5714

> <Gold.Chemscore.ZeroCoef>
-5.4800

> <Gold.Chemscore.Hbond>
2.0632

> <Gold.Chemscore.Metal>
0.0000

> <Gold.Chemscore.Lipo>
103.1626

> <Gold.Chemscore.Internal_Hbond>
0.0000

> <Gold.Chemscore.DEClash>
1.0932

> <Gold.Chemscore.DEInternal>
2.6566

> <Gold.Chemscore.Rot>
2.2928

> <Gold.Chemscore.Internal.Correction>
   9.000000E+99

> <Gold.Chemscore.Hbonds>
donor molecule, donor type, donor heavy atom, donor atom, acceptor molecule, acceptor atom, score
      L1  H    23    48       P1  7948  0.99
      P1  H  6933  6944       L1     7  0.21
      P1  H  7989  7998       L1    18  0.89

> <Gold.Chemscore.Hbond.Weighted>
-6.8909

> <Gold.Chemscore.Metal.Weighted>
-0.0000

> <Gold.Chemscore.Lipo.Weighted>
-12.0700

> <Gold.Chemscore.Internal_Hbond.Weighted>
0.0000

> <Gold.Chemscore.DEClash.Weighted>
1.0932

> <Gold.Chemscore.DEInternal.Weighted>
2.6566

> <Gold.Chemscore.Rot.Weighted>
5.8696

> <Gold.Chemscore.Internal.Correction.Weighted>
   9.000000E+99

> <Gold.Protein.RotatedTorsions>
[ 6907 6896 6895 6894 ] final -119.89 input  -60.11 | X-H torsion
[ 7974 7965 7964 7962 ] final  131.81 input  175.53 | X-H torsion
[ 8008 7997 7996 7995 ] final  -61.74 input   59.86 | X-H torsion
[ 10167 10162 10161 10158 ] final   96.67 input  -65.29 | X-H torsion
[ 10718 10713 10712 10709 ] final -127.94 input   66.30 | X-H torsion
[ 10763 10752 10751 10750 ] final  -58.17 input  -60.55 | X-H torsion
[ 11005 11000 10999 10996 ] final   51.20 input  -57.11 | X-H torsion

> <Gold.Protein.ActiveResidues>
 VAL166  LYS551  ARG553  GLY616  TRP617  ASP618  TYR619  PRO620  LYS621  CYS622 
 ASP623  PHE694  ASN695  SER759  ASP760  ASP761  ALA762  ILE779  LEU786  VAL792 
 PHE793  MET794  SER795  GLU796  ALA797  LYS798  CYS799  TRP800  GLU811  SER814 

> <Gold.Protein.RotatedAtoms>
  150.8345  133.8037  159.3085 H   0  0  0  0  0  0  0  0  0  0  0  0  # atno 6907 bound_to 6896
  151.5757  135.1059  160.0015 H   0  0  0  0  0  0  0  0  0  0  0  0  # atno 6908 bound_to 6896
  152.4419  133.7423  159.6704 H   0  0  0  0  0  0  0  0  0  0  0  0  # atno 6909 bound_to 6896
  145.0034  139.4290  143.5281 H   0  0  0  0  0  0  0  0  0  0  0  0  # atno 7974 bound_to 7965
  154.4463  140.1011  156.6479 H   0  0  0  0  0  0  0  0  0  0  0  0  # atno 8008 bound_to 7997
  155.5430  140.3484  155.4432 H   0  0  0  0  0  0  0  0  0  0  0  0  # atno 8009 bound_to 7997
  156.0583  140.1320  156.9960 H   0  0  0  0  0  0  0  0  0  0  0  0  # atno 8010 bound_to 7997
  139.7872  144.6866  150.9941 H   0  0  0  0  0  0  0  0  0  0  0  0  # atno 10167 bound_to 10162
  156.1904  130.6791  151.0417 H   0  0  0  0  0  0  0  0  0  0  0  0  # atno 10718 bound_to 10713
  154.2340  135.6355  153.5184 H   0  0  0  0  0  0  0  0  0  0  0  0  # atno 10763 bound_to 10752
  152.9943  135.5526  154.5982 H   0  0  0  0  0  0  0  0  0  0  0  0  # atno 10764 bound_to 10752
  154.5472  135.2899  155.1016 H   0  0  0  0  0  0  0  0  0  0  0  0  # atno 10765 bound_to 10752
  140.0952  134.5155  155.8813 H   0  0  0  0  0  0  0  0  0  0  0  0  # atno 11005 bound_to 11000
  146.3456  139.9435  142.8738 LP  0  0  0  0  0  0  0  0  0  0  0  0  # atno 17320 bound_to 7965
  145.2122  140.9900  143.4094 LP  0  0  0  0  0  0  0  0  0  0  0  0  # atno 17321 bound_to 7965
  140.7820  143.4419  151.0539 LP  0  0  0  0  0  0  0  0  0  0  0  0  # atno 17342 bound_to 10162
  139.8097  143.7967  152.3170 LP  0  0  0  0  0  0  0  0  0  0  0  0  # atno 17343 bound_to 10162
  157.6925  131.0805  150.7065 LP  0  0  0  0  0  0  0  0  0  0  0  0  # atno 17370 bound_to 10713
  156.7121  130.4655  149.5544 LP  0  0  0  0  0  0  0  0  0  0  0  0  # atno 17371 bound_to 10713
  141.2090  133.6679  156.6409 LP  0  0  0  0  0  0  0  0  0  0  0  0  # atno 17394 bound_to 11000
  140.3296  134.7940  157.4316 LP  0  0  0  0  0  0  0  0  0  0  0  0  # atno 17395 bound_to 11000

$$$$
