AV-unprocessed.smi:2229|AV-procd|sdf|9032|dock7
  -GOLD-   2272012243D 1   1.00000     0.00000
 Structure written by MMmdl.
 43 44  0  0  0  0  0  0  0  0  2 V2000
  155.1764  139.4876  162.0230 C   0  0  0  0  0  0  0  0  0  0  0  0
  154.3989  139.7093  160.7139 C   0  0  0  0  0  0  0  0  0  0  0  0
  155.2870  139.3912  159.5016 C   0  0  0  0  0  0  0  0  0  0  0  0
  153.8122  141.1323  160.6010 C   0  0  0  0  0  0  0  0  0  0  0  0
  152.7430  141.2705  159.5044 C   0  0  0  0  0  0  0  0  0  0  0  0
  151.9664  142.6062  159.5356 C   0  0  1  0  0  0  0  0  0  0  0  0
  152.8659  143.8473  159.5456 C   0  0  0  0  0  0  0  0  0  0  0  0
  151.9407  144.9824  159.1222 C   0  0  0  0  0  0  0  0  0  0  0  0
  151.0379  144.3612  158.0558 C   0  0  0  0  0  0  0  0  0  0  0  0
  150.9670  142.8533  158.3710 C   0  0  1  0  0  0  0  0  0  0  0  0
  151.2771  142.0712  157.1727 N   0  0  0  0  0  0  0  0  0  0  0  0
  150.6143  140.9782  156.7627 C   0  0  0  0  0  0  0  0  0  0  0  0
  149.5998  140.5507  157.3138 O   0  0  0  0  0  0  0  0  0  0  0  0
  151.1908  140.2459  155.5486 C   0  0  0  0  0  0  0  0  0  0  0  0
  151.6061  138.8884  155.9058 N   0  0  0  0  0  0  0  0  0  0  0  0
  151.1323  137.7652  155.2749 C   0  0  0  0  0  0  0  0  0  0  0  0
  151.6276  136.7039  155.8031 N   0  0  0  0  0  0  0  0  0  0  0  0
  152.4895  137.1405  156.8594 N   0  5  0  0  0  0  0  0  0  0  0  0
  152.4322  138.4904  156.8745 C   0  0  0  0  0  0  0  0  0  0  0  0
  153.0159  139.2709  157.6252 O   0  0  0  0  0  0  0  0  0  0  0  0
  155.9904  140.2052  162.1288 H   0  0  0  0  0  0  0  0  0  0  0  0
  155.6091  138.4875  162.0558 H   0  0  0  0  0  0  0  0  0  0  0  0
  154.5317  139.5796  162.8968 H   0  0  0  0  0  0  0  0  0  0  0  0
  153.5693  139.0008  160.7000 H   0  0  0  0  0  0  0  0  0  0  0  0
  156.1419  140.0661  159.4488 H   0  0  0  0  0  0  0  0  0  0  0  0
  154.7295  139.4853  158.5693 H   0  0  0  0  0  0  0  0  0  0  0  0
  155.6697  138.3715  159.5511 H   0  0  0  0  0  0  0  0  0  0  0  0
  153.3966  141.4405  161.5611 H   0  0  0  0  0  0  0  0  0  0  0  0
  154.6263  141.8248  160.3866 H   0  0  0  0  0  0  0  0  0  0  0  0
  153.2158  141.1465  158.5306 H   0  0  0  0  0  0  0  0  0  0  0  0
  152.0308  140.4533  159.6124 H   0  0  0  0  0  0  0  0  0  0  0  0
  151.3817  142.6261  160.4569 H   0  0  0  0  0  0  0  0  0  0  0  0
  153.3226  144.0298  160.5188 H   0  0  0  0  0  0  0  0  0  0  0  0
  153.6686  143.7356  158.8151 H   0  0  0  0  0  0  0  0  0  0  0  0
  151.3383  145.2996  159.9745 H   0  0  0  0  0  0  0  0  0  0  0  0
  152.4845  145.8539  158.7569 H   0  0  0  0  0  0  0  0  0  0  0  0
  150.0504  144.8239  158.0454 H   0  0  0  0  0  0  0  0  0  0  0  0
  151.4805  144.5315  157.0729 H   0  0  0  0  0  0  0  0  0  0  0  0
  149.9593  142.6135  158.7156 H   0  0  0  0  0  0  0  0  0  0  0  0
  152.1012  142.3412  156.6552 H   0  0  0  0  0  0  0  0  0  0  0  0
  150.4374  140.2186  154.7597 H   0  0  0  0  0  0  0  0  0  0  0  0
  152.0404  140.7961  155.1405 H   0  0  0  0  0  0  0  0  0  0  0  0
  150.4278  137.8556  154.4465 H   0  0  0  0  0  0  0  0  0  0  0  0
  1  2  1  0  0  0  0
  1 21  1  0  0  0  0
  1 22  1  0  0  0  0
  1 23  1  0  0  0  0
  2  3  1  0  0  0  0
  2  4  1  0  0  0  0
  2 24  1  0  0  0  0
  3 25  1  0  0  0  0
  3 26  1  0  0  0  0
  3 27  1  0  0  0  0
  4  5  1  0  0  0  0
  4 28  1  0  0  0  0
  4 29  1  0  0  0  0
  5  6  1  0  0  0  0
  5 30  1  0  0  0  0
  5 31  1  0  0  0  0
  6 10  1  0  0  0  0
  6  7  1  0  0  0  0
  6 32  1  0  0  0  0
  7  8  1  0  0  0  0
  7 33  1  0  0  0  0
  7 34  1  0  0  0  0
  8  9  1  0  0  0  0
  8 35  1  0  0  0  0
  8 36  1  0  0  0  0
  9 10  1  0  0  0  0
  9 37  1  0  0  0  0
  9 38  1  0  0  0  0
 10 11  1  0  0  0  0
 10 39  1  0  0  0  0
 11 12  1  0  0  0  0
 11 40  1  0  0  0  0
 12 13  2  0  0  0  0
 12 14  1  0  0  0  0
 14 15  1  0  0  0  0
 14 41  1  0  0  0  0
 14 42  1  0  0  0  0
 15 19  1  0  0  0  0
 15 16  1  0  0  0  0
 16 17  2  0  0  0  0
 16 43  1  0  0  0  0
 17 18  1  0  0  0  0
 18 19  1  0  0  0  0
 19 20  2  0  0  0  0
M  CHG  1  18  -1
M  END
> <s_m_source_file>
AV-unprocessed.smi

> <i_m_source_file_index>
2229

> <i_lp_mmshare_version>
43012

> <i_f3d_flags>
0

> <s_epik_input>
W0NIM11bQ0hdKFtDSDNdKVtDSDJdW0NIMl1bQ0BASF0xW0NIMl1bQ0gyXVtDSDJdW0NASF0xW05IXUMoPU8pW0NIMl1uMltjSF1uW25IXWMyPU8=

> <s_epik_cmdline>
J2VwaWtfcHl0aG9uJywgJy1waCcsICc3LjAnLCAnLXRuJywgJzgnLCAnLW1hJywgJzIwMCcsICctbWV0YWxfYmluZGluZycsICctaW1hZScsICc8aW5maWxlLm1hZT4nLCAnLW9tYWUnLCAnPG91dGZpbGUubWFlPic=

> <r_lp_tautomer_probability>
1

> <r_epik_Ionization_Penalty>
13.6733

> <r_epik_Ionization_Penalty_Charging>
13.6725

> <r_epik_Ionization_Penalty_Neutral>
0.000837689

> <r_epik_State_Penalty>
5.67062

> <r_epik_Charging_Adjusted_Penalty>
19.3431

> <i_epik_Tot_Q>
-1

> <i_epik_Tot_abs_Q>
1

> <r_epik_Metal_State_Penalty>
1.61781

> <b_epik_Metal_Only>
1

> <s_lp_Force_Field>
OPLS_2005

> <r_lp_Energy>
25.9104

> <b_lp_Chiralities_Consistent>
1

> <s_lp_Variant>
AV-unprocessed.smi:2229-6

> <Gold.Version>
5.8.1

> <Gold.Id.Protein>
6NUR|6NUR_protein|mol2

> <Gold.PLP.Fitness>
43.6622

> <Gold.PLP.PLP>
-38.3380

> <Gold.PLP.part.hbond>
-2.0689

> <Gold.PLP.part.metal>
0.0000

> <Gold.PLP.part.buried>
-1.4143

> <Gold.PLP.part.nonpolar>
-35.4772

> <Gold.PLP.part.repulsive>
0.1526

> <Gold.PLP.ligand.clash>
0.0000

> <Gold.PLP.ligand.torsion>
0.3693

> <Gold.PLP.Chemscore.Hbond>
2.0000

> <Gold.PLP.Chemscore.CHOScore>
0.0000

> <Gold.PLP.Chemscore.Metal>
0.0000

> <Gold.Chemscore.Hbonds>
donor molecule, donor type, donor heavy atom, donor atom, acceptor molecule, acceptor atom, score
      P1  H  7997  8010       L1    20  1.00
      P1  H 10752 10765       L1    17  0.88

> <Gold.PLP.Chemscore.Internal.Correction>
0.0628

> <Gold.Rescore>
     Score         DG    S(hbond)    S(metal)    S(lipo)     H(rot)  DE(clash)    DE(int)     intcor
     12.43     -14.43       1.07        0.00     102.80       2.59       0.01       1.98       ----

> <Gold.Chemscore.Fitness>
12.4310

> <Gold.Chemscore.DG>
-14.4271

> <Gold.Chemscore.ZeroCoef>
-5.4800

> <Gold.Chemscore.Hbond>
1.0659

> <Gold.Chemscore.Metal>
0.0000

> <Gold.Chemscore.Lipo>
102.7999

> <Gold.Chemscore.Internal_Hbond>
0.0000

> <Gold.Chemscore.DEClash>
0.0137

> <Gold.Chemscore.DEInternal>
1.9824

> <Gold.Chemscore.Rot>
2.5939

> <Gold.Chemscore.Internal.Correction>
   9.000000E+99

> <Gold.Chemscore.Hbonds>
donor molecule, donor type, donor heavy atom, donor atom, acceptor molecule, acceptor atom, score
      P1  H  7997  8010       L1    20  0.53
      P1  H 10752 10765       L1    17  0.18

> <Gold.Chemscore.Hbond.Weighted>
-3.5600

> <Gold.Chemscore.Metal.Weighted>
-0.0000

> <Gold.Chemscore.Lipo.Weighted>
-12.0276

> <Gold.Chemscore.Internal_Hbond.Weighted>
0.0000

> <Gold.Chemscore.DEClash.Weighted>
0.0137

> <Gold.Chemscore.DEInternal.Weighted>
1.9824

> <Gold.Chemscore.Rot.Weighted>
6.6405

> <Gold.Chemscore.Internal.Correction.Weighted>
   9.000000E+99

> <Gold.Protein.RotatedTorsions>
[ 6907 6896 6895 6894 ] final -133.06 input  -60.11 | X-H torsion
[ 7974 7965 7964 7962 ] final -168.51 input  175.53 | X-H torsion
[ 8008 7997 7996 7995 ] final   65.95 input   59.86 | X-H torsion
[ 10167 10162 10161 10158 ] final   -6.98 input  -65.29 | X-H torsion
[ 10718 10713 10712 10709 ] final -129.32 input   66.30 | X-H torsion
[ 10763 10752 10751 10750 ] final -172.57 input  -60.55 | X-H torsion
[ 11005 11000 10999 10996 ] final   68.72 input  -57.11 | X-H torsion

> <Gold.Protein.ActiveResidues>
 VAL166  LYS551  ARG553  GLY616  TRP617  ASP618  TYR619  PRO620  LYS621  CYS622 
 ASP623  PHE694  ASN695  SER759  ASP760  ASP761  ALA762  ILE779  LEU786  VAL792 
 PHE793  MET794  SER795  GLU796  ALA797  LYS798  CYS799  TRP800  GLU811  SER814 

> <Gold.Protein.RotatedAtoms>
  150.9696  133.6358  159.2740 H   0  0  0  0  0  0  0  0  0  0  0  0  # atno 6907 bound_to 6896
  151.3651  135.0910  159.9457 H   0  0  0  0  0  0  0  0  0  0  0  0  # atno 6908 bound_to 6896
  152.5178  133.9262  159.7613 H   0  0  0  0  0  0  0  0  0  0  0  0  # atno 6909 bound_to 6896
  144.7202  140.2358  143.6298 H   0  0  0  0  0  0  0  0  0  0  0  0  # atno 7974 bound_to 7965
  155.6697  140.3497  155.4813 H   0  0  0  0  0  0  0  0  0  0  0  0  # atno 8008 bound_to 7997
  155.9699  140.1153  157.0845 H   0  0  0  0  0  0  0  0  0  0  0  0  # atno 8009 bound_to 7997
  154.4163  140.1159  156.5278 H   0  0  0  0  0  0  0  0  0  0  0  0  # atno 8010 bound_to 7997
  140.7014  143.6133  150.8683 H   0  0  0  0  0  0  0  0  0  0  0  0  # atno 10167 bound_to 10162
  156.2035  130.6873  151.0567 H   0  0  0  0  0  0  0  0  0  0  0  0  # atno 10718 bound_to 10713
  154.6178  135.2872  155.0360 H   0  0  0  0  0  0  0  0  0  0  0  0  # atno 10763 bound_to 10752
  154.1567  135.6495  153.4980 H   0  0  0  0  0  0  0  0  0  0  0  0  # atno 10764 bound_to 10752
  153.0222  135.5368  154.6956 H   0  0  0  0  0  0  0  0  0  0  0  0  # atno 10765 bound_to 10752
  139.9695  134.6925  156.0477 H   0  0  0  0  0  0  0  0  0  0  0  0  # atno 11005 bound_to 11000
  145.8366  139.2110  143.1851 LP  0  0  0  0  0  0  0  0  0  0  0  0  # atno 17320 bound_to 7965
  146.0383  140.8190  142.9841 LP  0  0  0  0  0  0  0  0  0  0  0  0  # atno 17321 bound_to 7965
  139.9855  143.5904  152.2928 LP  0  0  0  0  0  0  0  0  0  0  0  0  # atno 17342 bound_to 10162
  139.6540  144.7661  151.2091 LP  0  0  0  0  0  0  0  0  0  0  0  0  # atno 17343 bound_to 10162
  157.6999  131.0780  150.6852 LP  0  0  0  0  0  0  0  0  0  0  0  0  # atno 17370 bound_to 10713
  156.6910  130.4595  149.5600 LP  0  0  0  0  0  0  0  0  0  0  0  0  # atno 17371 bound_to 10713
  141.1374  133.6572  156.3633 LP  0  0  0  0  0  0  0  0  0  0  0  0  # atno 17394 bound_to 11000
  140.5324  134.6199  157.5354 LP  0  0  0  0  0  0  0  0  0  0  0  0  # atno 17395 bound_to 11000

$$$$
