AV-unprocessed.smi:1627|AV-procd|sdf|6516|dock2
  -GOLD-   22720 7183D 1   1.00000     0.00000
 Structure written by MMmdl.
 43 44  0  0  0  0  0  0  0  0  1 V2000
  155.7285  134.3330  159.3067 C   0  0  0  0  0  0  0  0  0  0  0  0
  155.4085  135.1883  160.5415 C   0  0  2  0  0  0  0  0  0  0  0  0
  154.6547  134.3771  161.4390 O   0  0  0  0  0  0  0  0  0  0  0  0
  154.6960  134.7726  162.8065 C   0  0  0  0  0  0  0  0  0  0  0  0
  155.0122  133.5507  163.6776 C   0  0  0  0  0  0  0  0  0  0  0  0
  154.2159  132.5418  163.3258 F   0  0  0  0  0  0  0  0  0  0  0  0
  156.2794  133.1768  163.5026 F   0  0  0  0  0  0  0  0  0  0  0  0
  154.8017  133.8335  164.9628 F   0  0  0  0  0  0  0  0  0  0  0  0
  154.6100  136.4447  160.1575 C   0  0  0  0  0  0  0  0  0  0  0  0
  153.5298  136.3261  159.5796 O   0  0  0  0  0  0  0  0  0  0  0  0
  155.1738  137.6209  160.4892 N   0  0  0  0  0  0  0  0  0  0  0  0
  154.6572  138.9314  160.3040 C   0  0  0  0  0  0  0  0  0  0  0  0
  155.0208  139.9263  161.2339 C   0  0  0  0  0  0  0  0  0  0  0  0
  154.4996  141.2258  161.0887 C   0  0  0  0  0  0  0  0  0  0  0  0
  153.6204  141.4875  160.0181 C   0  0  0  0  0  0  0  0  0  0  0  0
  153.0939  142.7781  159.8676 N   0  0  0  0  0  0  0  0  0  0  0  0
  152.3997  143.2574  161.0604 C   0  0  0  0  0  0  0  0  0  0  0  0
  152.0287  144.7437  160.9167 C   0  0  0  0  0  0  0  0  0  0  0  0
  151.2201  144.9858  159.6318 C   0  0  0  0  0  0  0  0  0  0  0  0
  151.9793  144.4348  158.4140 C   0  0  0  0  0  0  0  0  0  0  0  0
  152.3517  142.9564  158.6219 C   0  0  0  0  0  0  0  0  0  0  0  0
  153.2536  140.5361  159.1275 N   0  0  0  0  0  0  0  0  0  0  0  0
  153.7573  139.2918  159.2717 C   0  0  0  0  0  0  0  0  0  0  0  0
  156.2920  134.9016  158.5659 H   0  0  0  0  0  0  0  0  0  0  0  0
  154.8214  133.9631  158.8274 H   0  0  0  0  0  0  0  0  0  0  0  0
  156.3297  133.4667  159.5832 H   0  0  0  0  0  0  0  0  0  0  0  0
  156.3499  135.4734  161.0152 H   0  0  0  0  0  0  0  0  0  0  0  0
  155.4625  135.5358  162.9486 H   0  0  0  0  0  0  0  0  0  0  0  0
  153.7448  135.2046  163.1197 H   0  0  0  0  0  0  0  0  0  0  0  0
  156.1066  137.5721  160.8726 H   0  0  0  0  0  0  0  0  0  0  0  0
  155.6929  139.7004  162.0489 H   0  0  0  0  0  0  0  0  0  0  0  0
  154.7681  142.0043  161.7880 H   0  0  0  0  0  0  0  0  0  0  0  0
  151.4973  142.6651  161.2196 H   0  0  0  0  0  0  0  0  0  0  0  0
  153.0335  143.1163  161.9368 H   0  0  0  0  0  0  0  0  0  0  0  0
  151.4593  145.0723  161.7864 H   0  0  0  0  0  0  0  0  0  0  0  0
  152.9379  145.3459  160.8946 H   0  0  0  0  0  0  0  0  0  0  0  0
  150.2496  144.4946  159.7115 H   0  0  0  0  0  0  0  0  0  0  0  0
  151.0231  146.0505  159.5044 H   0  0  0  0  0  0  0  0  0  0  0  0
  151.3749  144.5446  157.5132 H   0  0  0  0  0  0  0  0  0  0  0  0
  152.8857  145.0200  158.2537 H   0  0  0  0  0  0  0  0  0  0  0  0
  152.9511  142.6030  157.7818 H   0  0  0  0  0  0  0  0  0  0  0  0
  151.4464  142.3478  158.6467 H   0  0  0  0  0  0  0  0  0  0  0  0
  153.4014  138.5747  158.5487 H   0  0  0  0  0  0  0  0  0  0  0  0
  1  2  1  0  0  0  0
  1 24  1  0  0  0  0
  1 25  1  0  0  0  0
  1 26  1  0  0  0  0
  2  3  1  0  0  0  0
  2  9  1  0  0  0  0
  2 27  1  0  0  0  0
  3  4  1  0  0  0  0
  4  5  1  0  0  0  0
  4 28  1  0  0  0  0
  4 29  1  0  0  0  0
  5  6  1  0  0  0  0
  5  7  1  0  0  0  0
  5  8  1  0  0  0  0
  9 10  2  0  0  0  0
  9 11  1  0  0  0  0
 11 12  1  0  0  0  0
 11 30  1  0  0  0  0
 12 23  1  0  0  0  0
 12 13  2  0  0  0  0
 13 14  1  0  0  0  0
 13 31  1  0  0  0  0
 14 15  2  0  0  0  0
 14 32  1  0  0  0  0
 15 16  1  0  0  0  0
 15 22  1  0  0  0  0
 16 21  1  0  0  0  0
 16 17  1  0  0  0  0
 17 18  1  0  0  0  0
 17 33  1  0  0  0  0
 17 34  1  0  0  0  0
 18 19  1  0  0  0  0
 18 35  1  0  0  0  0
 18 36  1  0  0  0  0
 19 20  1  0  0  0  0
 19 37  1  0  0  0  0
 19 38  1  0  0  0  0
 20 21  1  0  0  0  0
 20 39  1  0  0  0  0
 20 40  1  0  0  0  0
 21 41  1  0  0  0  0
 21 42  1  0  0  0  0
 22 23  2  0  0  0  0
 23 43  1  0  0  0  0
M  END
> <s_m_source_file>
AV-unprocessed.smi

> <i_m_source_file_index>
1627

> <i_lp_mmshare_version>
43012

> <i_f3d_flags>
0

> <s_epik_input>
RkMoRikoRilbQ0gyXU9bQ0BASF0oW0NIM10pQyg9TylbTkhdYzFbY0hdW2NIXWMobltjSF0xKU4yW0NIMl1bQ0gyXVtDSDJdW0NIMl1bQ0gyXTI=

> <s_epik_cmdline>
J2VwaWtfcHl0aG9uJywgJy1waCcsICc3LjAnLCAnLXRuJywgJzgnLCAnLW1hJywgJzIwMCcsICctbWV0YWxfYmluZGluZycsICctaW1hZScsICc8aW5maWxlLm1hZT4nLCAnLW9tYWUnLCAnPG91dGZpbGUubWFlPic=

> <r_lp_tautomer_probability>
1

> <r_epik_Ionization_Penalty>
0.0254771

> <r_epik_Ionization_Penalty_Charging>
0

> <r_epik_Ionization_Penalty_Neutral>
0.0254771

> <r_epik_State_Penalty>
0.0187406

> <r_epik_Charging_Adjusted_Penalty>
0.0187406

> <i_epik_Tot_Q>
0

> <i_epik_Tot_abs_Q>
0

> <r_epik_Metal_State_Penalty>
0.017939

> <b_epik_Metal_Only>
0

> <s_lp_Force_Field>
OPLS_2005

> <r_lp_Energy>
26.2479

> <b_lp_Chiralities_Consistent>
1

> <s_lp_Variant>
AV-unprocessed.smi:1627-1

> <Gold.Version>
5.8.1

> <Gold.Id.Protein>
6NUR|6NUR_protein|mol2

> <Gold.PLP.Fitness>
43.6413

> <Gold.PLP.PLP>
-42.2794

> <Gold.PLP.part.hbond>
-1.0477

> <Gold.PLP.part.metal>
0.0000

> <Gold.PLP.part.buried>
-4.2851

> <Gold.PLP.part.nonpolar>
-37.3656

> <Gold.PLP.part.repulsive>
0.0000

> <Gold.PLP.ligand.clash>
0.0000

> <Gold.PLP.ligand.torsion>
0.9387

> <Gold.PLP.Chemscore.Hbond>
1.0000

> <Gold.PLP.Chemscore.CHOScore>
0.0000

> <Gold.PLP.Chemscore.Metal>
0.0000

> <Gold.Chemscore.Hbonds>
donor molecule, donor type, donor heavy atom, donor atom, acceptor molecule, acceptor atom, score
      P1  H  6896  6909       L1    10  1.00

> <Gold.PLP.Chemscore.Internal.Correction>
0.2394

> <Gold.Rescore>
     Score         DG    S(hbond)    S(metal)    S(lipo)     H(rot)  DE(clash)    DE(int)     intcor
     14.69     -16.53       0.98        0.00     107.25       1.87       0.12       1.72       ----

> <Gold.Chemscore.Fitness>
14.6942

> <Gold.Chemscore.DG>
-16.5333

> <Gold.Chemscore.ZeroCoef>
-5.4800

> <Gold.Chemscore.Hbond>
0.9831

> <Gold.Chemscore.Metal>
0.0000

> <Gold.Chemscore.Lipo>
107.2486

> <Gold.Chemscore.Internal_Hbond>
0.0000

> <Gold.Chemscore.DEClash>
0.1194

> <Gold.Chemscore.DEInternal>
1.7198

> <Gold.Chemscore.Rot>
1.8665

> <Gold.Chemscore.Internal.Correction>
   9.000000E+99

> <Gold.Chemscore.Hbonds>
donor molecule, donor type, donor heavy atom, donor atom, acceptor molecule, acceptor atom, score
      P1  H  6896  6909       L1    10  0.97

> <Gold.Chemscore.Hbond.Weighted>
-3.2836

> <Gold.Chemscore.Metal.Weighted>
-0.0000

> <Gold.Chemscore.Lipo.Weighted>
-12.5481

> <Gold.Chemscore.Internal_Hbond.Weighted>
0.0000

> <Gold.Chemscore.DEClash.Weighted>
0.1194

> <Gold.Chemscore.DEInternal.Weighted>
1.7198

> <Gold.Chemscore.Rot.Weighted>
4.7783

> <Gold.Chemscore.Internal.Correction.Weighted>
   9.000000E+99

> <Gold.Protein.RotatedTorsions>
[ 6907 6896 6895 6894 ] final  159.34 input  -60.11 | X-H torsion
[ 7974 7965 7964 7962 ] final  143.93 input  175.53 | X-H torsion
[ 8008 7997 7996 7995 ] final   16.52 input   59.86 | X-H torsion
[ 10167 10162 10161 10158 ] final   88.19 input  -65.29 | X-H torsion
[ 10718 10713 10712 10709 ] final  175.05 input   66.30 | X-H torsion
[ 10763 10752 10751 10750 ] final  153.17 input  -60.55 | X-H torsion
[ 11005 11000 10999 10996 ] final -171.45 input  -57.11 | X-H torsion

> <Gold.Protein.ActiveResidues>
 VAL166  LYS551  ARG553  GLY616  TRP617  ASP618  TYR619  PRO620  LYS621  CYS622 
 ASP623  PHE694  ASN695  SER759  ASP760  ASP761  ALA762  ILE779  LEU786  VAL792 
 PHE793  MET794  SER795  GLU796  ALA797  LYS798  CYS799  TRP800  GLU811  SER814 

> <Gold.Protein.RotatedAtoms>
  151.9870  133.3777  159.4129 H   0  0  0  0  0  0  0  0  0  0  0  0  # atno 6907 bound_to 6896
  150.6927  134.3977  159.5114 H   0  0  0  0  0  0  0  0  0  0  0  0  # atno 6908 bound_to 6896
  152.1705  134.8838  160.0585 H   0  0  0  0  0  0  0  0  0  0  0  0  # atno 6909 bound_to 6896
  144.8878  139.5602  143.5812 H   0  0  0  0  0  0  0  0  0  0  0  0  # atno 7974 bound_to 7965
  154.8781  140.2969  155.5441 H   0  0  0  0  0  0  0  0  0  0  0  0  # atno 8008 bound_to 7997
  156.3022  140.2447  156.3714 H   0  0  0  0  0  0  0  0  0  0  0  0  # atno 8009 bound_to 7997
  154.8746  140.0400  157.1734 H   0  0  0  0  0  0  0  0  0  0  0  0  # atno 8010 bound_to 7997
  139.8697  144.6499  150.8963 H   0  0  0  0  0  0  0  0  0  0  0  0  # atno 10167 bound_to 10162
  156.9406  131.0000  151.2969 H   0  0  0  0  0  0  0  0  0  0  0  0  # atno 10718 bound_to 10713
  154.1318  135.2826  155.3183 H   0  0  0  0  0  0  0  0  0  0  0  0  # atno 10763 bound_to 10752
  154.6350  135.5422  153.7727 H   0  0  0  0  0  0  0  0  0  0  0  0  # atno 10764 bound_to 10752
  153.0279  135.6472  154.1468 H   0  0  0  0  0  0  0  0  0  0  0  0  # atno 10765 bound_to 10752
  140.5081  134.5828  157.5010 H   0  0  0  0  0  0  0  0  0  0  0  0  # atno 11005 bound_to 11000
  146.3035  139.7504  142.9073 LP  0  0  0  0  0  0  0  0  0  0  0  0  # atno 17320 bound_to 7965
  145.3837  141.0362  143.3163 LP  0  0  0  0  0  0  0  0  0  0  0  0  # atno 17321 bound_to 7965
  140.7762  143.3674  151.1713 LP  0  0  0  0  0  0  0  0  0  0  0  0  # atno 17342 bound_to 10162
  139.7295  143.9095  152.3014 LP  0  0  0  0  0  0  0  0  0  0  0  0  # atno 17343 bound_to 10162
  157.5788  130.8361  149.8493 LP  0  0  0  0  0  0  0  0  0  0  0  0  # atno 17370 bound_to 10713
  156.0406  130.3740  150.1445 LP  0  0  0  0  0  0  0  0  0  0  0  0  # atno 17371 bound_to 10713
  139.9674  134.7349  156.0110 LP  0  0  0  0  0  0  0  0  0  0  0  0  # atno 17394 bound_to 11000
  141.1400  133.6567  156.3702 LP  0  0  0  0  0  0  0  0  0  0  0  0  # atno 17395 bound_to 11000

$$$$
