AV-unprocessed.smi:3226|AV-procd|sdf|12315|dock4
  -GOLD-   2272018163D 1   1.00000     0.00000
 Structure written by MMmdl.
 41 43  0  0  0  0  0  0  0  0  2 V2000
  151.5623  137.8466  154.1833 C   0  0  0  0  0  0  0  0  0  0  0  0
  150.0364  137.9822  154.2363 C   0  0  0  0  0  0  0  0  0  0  0  0
  149.5873  139.4096  154.3015 C   0  0  0  0  0  0  0  0  0  0  0  0
  150.4247  140.4350  154.4977 N   0  0  0  0  0  0  0  0  0  0  0  0
  149.6402  141.5703  154.4628 N   0  0  0  0  0  0  0  0  0  0  0  0
  148.4078  141.1184  154.2391 C   0  0  0  0  0  0  0  0  0  0  0  0
  148.3012  139.7846  154.1332 N   0  0  0  0  0  0  0  0  0  0  0  0
  147.1062  138.9927  153.8941 C   0  0  0  0  0  0  0  0  0  0  0  0
  146.7586  138.8953  152.3996 C   0  0  0  0  0  0  0  0  0  0  0  0
  145.3758  138.4208  152.1897 N   0  3  0  0  0  0  0  0  0  0  0  0
  145.1302  137.0504  152.6788 C   0  0  0  0  0  0  0  0  0  0  0  0
  145.6466  135.9993  151.6782 C   0  0  2  0  0  0  0  0  0  0  0  0
  144.7495  135.8414  150.4122 C   0  0  0  0  0  0  0  0  0  0  0  0
  144.4773  134.3200  150.3658 C   0  0  2  0  0  0  0  0  0  0  0  0
  143.5913  133.9747  151.5435 C   0  0  0  0  0  0  0  0  0  0  0  0
  144.3296  134.1045  152.6467 C   0  0  0  0  0  0  0  0  0  0  0  0
  145.7147  134.5428  152.2139 C   0  0  1  0  0  0  0  0  0  0  0  0
  145.8207  133.7930  150.8804 C   0  0  0  0  0  0  0  0  0  0  0  0
  151.8578  136.7984  154.1372 H   0  0  0  0  0  0  0  0  0  0  0  0
  152.0274  138.2852  155.0669 H   0  0  0  0  0  0  0  0  0  0  0  0
  151.9726  138.3470  153.3058 H   0  0  0  0  0  0  0  0  0  0  0  0
  149.5866  137.4927  153.3730 H   0  0  0  0  0  0  0  0  0  0  0  0
  149.6549  137.4584  155.1136 H   0  0  0  0  0  0  0  0  0  0  0  0
  147.5577  141.7794  154.1541 H   0  0  0  0  0  0  0  0  0  0  0  0
  147.2539  137.9981  154.3173 H   0  0  0  0  0  0  0  0  0  0  0  0
  146.2774  139.4399  154.4435 H   0  0  0  0  0  0  0  0  0  0  0  0
  146.8661  139.8788  151.9403 H   0  0  0  0  0  0  0  0  0  0  0  0
  147.4538  138.2281  151.8885 H   0  0  0  0  0  0  0  0  0  0  0  0
  144.7433  139.0491  152.6648 H   0  0  0  0  0  0  0  0  0  0  0  0
  145.5966  136.9220  153.6562 H   0  0  0  0  0  0  0  0  0  0  0  0
  144.0571  136.9181  152.8230 H   0  0  0  0  0  0  0  0  0  0  0  0
  146.6458  136.2973  151.3549 H   0  0  0  0  0  0  0  0  0  0  0  0
  143.8222  136.4132  150.4753 H   0  0  0  0  0  0  0  0  0  0  0  0
  145.2816  136.1720  149.5192 H   0  0  0  0  0  0  0  0  0  0  0  0
  144.1470  133.9152  149.4089 H   0  0  0  0  0  0  0  0  0  0  0  0
  142.5474  133.7068  151.4730 H   0  0  0  0  0  0  0  0  0  0  0  0
  144.0178  133.9657  153.6714 H   0  0  0  0  0  0  0  0  0  0  0  0
  146.5089  134.3264  152.9289 H   0  0  0  0  0  0  0  0  0  0  0  0
  145.8346  132.7076  151.0005 H   0  0  0  0  0  0  0  0  0  0  0  0
  146.6754  134.0898  150.2690 H   0  0  0  0  0  0  0  0  0  0  0  0
  145.1738  138.4457  151.2003 H   0  0  0  0  0  0  0  0  0  0  0  0
  1  2  1  0  0  0  0
  1 19  1  0  0  0  0
  1 20  1  0  0  0  0
  1 21  1  0  0  0  0
  2  3  1  0  0  0  0
  2 22  1  0  0  0  0
  2 23  1  0  0  0  0
  3  7  1  0  0  0  0
  3  4  2  0  0  0  0
  4  5  1  0  0  0  0
  5  6  2  0  0  0  0
  6  7  1  0  0  0  0
  6 24  1  0  0  0  0
  7  8  1  0  0  0  0
  8  9  1  0  0  0  0
  8 25  1  0  0  0  0
  8 26  1  0  0  0  0
  9 10  1  0  0  0  0
  9 27  1  0  0  0  0
  9 28  1  0  0  0  0
 10 11  1  0  0  0  0
 10 29  1  0  0  0  0
 10 41  1  0  0  0  0
 11 12  1  0  0  0  0
 11 30  1  0  0  0  0
 11 31  1  0  0  0  0
 12 17  1  0  0  0  0
 12 13  1  0  0  0  0
 12 32  1  0  0  0  0
 13 14  1  0  0  0  0
 13 33  1  0  0  0  0
 13 34  1  0  0  0  0
 14 18  1  0  0  0  0
 14 15  1  0  0  0  0
 14 35  1  0  0  0  0
 15 16  2  0  0  0  0
 15 36  1  0  0  0  0
 16 17  1  0  0  0  0
 16 37  1  0  0  0  0
 17 18  1  0  0  0  0
 17 38  1  0  0  0  0
 18 39  1  0  0  0  0
 18 40  1  0  0  0  0
M  CHG  1  10   1
M  END
> <s_m_source_file>
AV-unprocessed.smi

> <i_m_source_file_index>
3226

> <i_lp_mmshare_version>
43012

> <i_f3d_flags>
0

> <s_epik_input>
W0NIM11bQ0gyXWMxbm5bY0hdbjFbQ0gyXVtDSDJdW05IXVtDSDJdW0NASF0oW0NIMl1bQ0BASF0yMylbQ0BASF0oW0NIMl0zKVtDSF09W0NIXTI=

> <s_epik_cmdline>
J2VwaWtfcHl0aG9uJywgJy1waCcsICc3LjAnLCAnLXRuJywgJzgnLCAnLW1hJywgJzIwMCcsICctbWV0YWxfYmluZGluZycsICctaW1hZScsICc8aW5maWxlLm1hZT4nLCAnLW9tYWUnLCAnPG91dGZpbGUubWFlPic=

> <r_lp_tautomer_probability>
1

> <r_epik_Ionization_Penalty>
0.00175008

> <r_epik_Ionization_Penalty_Charging>
0.00173932

> <r_epik_Ionization_Penalty_Neutral>
1.07546e-05

> <r_epik_State_Penalty>
-0

> <r_epik_Charging_Adjusted_Penalty>
0.00173932

> <i_epik_Tot_Q>
1

> <i_epik_Tot_abs_Q>
1

> <r_epik_Metal_State_Penalty>
-0

> <b_epik_Metal_Only>
0

> <s_lp_Force_Field>
OPLS_2005

> <r_lp_Energy>
64.9624

> <b_lp_Chiralities_Consistent>
1

> <s_lp_Variant>
AV-unprocessed.smi:3226-3

> <Gold.Version>
5.8.1

> <Gold.Id.Protein>
6NUR|6NUR_protein|mol2

> <Gold.PLP.Fitness>
47.7252

> <Gold.PLP.PLP>
-37.1337

> <Gold.PLP.part.hbond>
-5.0000

> <Gold.PLP.part.metal>
0.0000

> <Gold.PLP.part.buried>
-0.4006

> <Gold.PLP.part.nonpolar>
-30.8308

> <Gold.PLP.part.repulsive>
0.3359

> <Gold.PLP.ligand.clash>
0.0000

> <Gold.PLP.ligand.torsion>
0.6870

> <Gold.PLP.Chemscore.Hbond>
3.9693

> <Gold.PLP.Chemscore.CHOScore>
0.0000

> <Gold.PLP.Chemscore.Metal>
0.0000

> <Gold.Chemscore.Hbonds>
donor molecule, donor type, donor heavy atom, donor atom, acceptor molecule, acceptor atom, score
      L1  H    10    29       P1 10175  1.76
      L1  H    10    41       P1 10171  0.98
      P1  H  7989  7998       L1     4  1.00
      P1  H  8011  8017       L1     5  0.11

> <Gold.PLP.Chemscore.Internal.Correction>
0.0576

> <Gold.Rescore>
     Score         DG    S(hbond)    S(metal)    S(lipo)     H(rot)  DE(clash)    DE(int)     intcor
     16.26     -16.85       2.53        0.00      70.11       2.06       0.01       0.58       ----

> <Gold.Chemscore.Fitness>
16.2599

> <Gold.Chemscore.DG>
-16.8465

> <Gold.Chemscore.ZeroCoef>
-5.4800

> <Gold.Chemscore.Hbond>
2.5279

> <Gold.Chemscore.Metal>
0.0000

> <Gold.Chemscore.Lipo>
70.1115

> <Gold.Chemscore.Internal_Hbond>
0.0000

> <Gold.Chemscore.DEClash>
0.0082

> <Gold.Chemscore.DEInternal>
0.5783

> <Gold.Chemscore.Rot>
2.0623

> <Gold.Chemscore.Internal.Correction>
   9.000000E+99

> <Gold.Chemscore.Hbonds>
donor molecule, donor type, donor heavy atom, donor atom, acceptor molecule, acceptor atom, score
      L1  H    10    29       P1 10175  0.87
      L1  H    10    41       P1 10171  0.93
      P1  H  7989  7998       L1     4  0.24

> <Gold.Chemscore.Hbond.Weighted>
-8.4430

> <Gold.Chemscore.Metal.Weighted>
-0.0000

> <Gold.Chemscore.Lipo.Weighted>
-8.2031

> <Gold.Chemscore.Internal_Hbond.Weighted>
0.0000

> <Gold.Chemscore.DEClash.Weighted>
0.0082

> <Gold.Chemscore.DEInternal.Weighted>
0.5783

> <Gold.Chemscore.Rot.Weighted>
5.2796

> <Gold.Chemscore.Internal.Correction.Weighted>
   9.000000E+99

> <Gold.Protein.RotatedTorsions>
[ 6907 6896 6895 6894 ] final -117.21 input  -60.11 | X-H torsion
[ 7974 7965 7964 7962 ] final  -29.95 input  175.53 | X-H torsion
[ 8008 7997 7996 7995 ] final  -16.74 input   59.86 | X-H torsion
[ 10167 10162 10161 10158 ] final   32.56 input  -65.29 | X-H torsion
[ 10718 10713 10712 10709 ] final   68.10 input   66.30 | X-H torsion
[ 10763 10752 10751 10750 ] final  135.06 input  -60.55 | X-H torsion
[ 11005 11000 10999 10996 ] final -169.13 input  -57.11 | X-H torsion

> <Gold.Protein.ActiveResidues>
 VAL166  LYS551  ARG553  GLY616  TRP617  ASP618  TYR619  PRO620  LYS621  CYS622 
 ASP623  PHE694  ASN695  SER759  ASP760  ASP761  ALA762  ILE779  LEU786  VAL792 
 PHE793  MET794  SER795  GLU796  ALA797  LYS798  CYS799  TRP800  GLU811  SER814 

> <Gold.Protein.RotatedAtoms>
  150.8118  133.8409  159.3178 H   0  0  0  0  0  0  0  0  0  0  0  0  # atno 6907 bound_to 6896
  151.6192  135.1032  160.0107 H   0  0  0  0  0  0  0  0  0  0  0  0  # atno 6908 bound_to 6896
  152.4210  133.7075  159.6516 H   0  0  0  0  0  0  0  0  0  0  0  0  # atno 6909 bound_to 6896
  146.1179  140.5478  142.8748 H   0  0  0  0  0  0  0  0  0  0  0  0  # atno 7974 bound_to 7965
  154.5030  140.2161  155.9307 H   0  0  0  0  0  0  0  0  0  0  0  0  # atno 8008 bound_to 7997
  156.1458  140.3171  155.8535 H   0  0  0  0  0  0  0  0  0  0  0  0  # atno 8009 bound_to 7997
  155.4033  140.0485  157.3026 H   0  0  0  0  0  0  0  0  0  0  0  0  # atno 8010 bound_to 7997
  140.4487  144.1080  150.6187 H   0  0  0  0  0  0  0  0  0  0  0  0  # atno 10167 bound_to 10162
  157.6270  130.9356  150.0332 H   0  0  0  0  0  0  0  0  0  0  0  0  # atno 10718 bound_to 10713
  153.8339  135.3100  155.3421 H   0  0  0  0  0  0  0  0  0  0  0  0  # atno 10763 bound_to 10752
  154.7962  135.4754  154.0169 H   0  0  0  0  0  0  0  0  0  0  0  0  # atno 10764 bound_to 10752
  153.1617  135.6862  153.8824 H   0  0  0  0  0  0  0  0  0  0  0  0  # atno 10765 bound_to 10752
  140.5343  134.5586  157.5083 H   0  0  0  0  0  0  0  0  0  0  0  0  # atno 11005 bound_to 11000
  144.7570  140.5330  143.6762 LP  0  0  0  0  0  0  0  0  0  0  0  0  # atno 17320 bound_to 7965
  145.5528  139.1477  143.3384 LP  0  0  0  0  0  0  0  0  0  0  0  0  # atno 17321 bound_to 7965
  140.4233  143.2601  151.9688 LP  0  0  0  0  0  0  0  0  0  0  0  0  # atno 17342 bound_to 10162
  139.4795  144.5811  151.7931 LP  0  0  0  0  0  0  0  0  0  0  0  0  # atno 17343 bound_to 10162
  156.1448  130.3642  149.9527 LP  0  0  0  0  0  0  0  0  0  0  0  0  # atno 17370 bound_to 10713
  156.7560  130.9133  151.3639 LP  0  0  0  0  0  0  0  0  0  0  0  0  # atno 17371 bound_to 10713
  139.9538  134.7571  156.0388 LP  0  0  0  0  0  0  0  0  0  0  0  0  # atno 17394 bound_to 11000
  141.1264  133.6598  156.3347 LP  0  0  0  0  0  0  0  0  0  0  0  0  # atno 17395 bound_to 11000

$$$$
