AV-unprocessed.smi:1997|AV-procd|sdf|8086|dock1
  -GOLD-   2272010303D 1   1.00000     0.00000
 Structure written by MMmdl.
 37 39  0  0  0  0  0  0  0  0  1 V2000
  150.5943  134.9028  155.9726 O   0  0  0  0  0  0  0  0  0  0  0  0
  150.0895  135.2914  154.9188 C   0  0  0  0  0  0  0  0  0  0  0  0
  149.4426  134.5144  154.0325 N   0  0  0  0  0  0  0  0  0  0  0  0
  149.1988  133.1170  154.1003 C   0  0  0  0  0  0  0  0  0  0  0  0
  149.8558  132.2845  154.9195 N   0  0  0  0  0  0  0  0  0  0  0  0
  149.4196  130.9738  154.7841 N   0  0  0  0  0  0  0  0  0  0  0  0
  148.4481  130.8529  153.8717 C   0  0  0  0  0  0  0  0  0  0  0  0
  147.8168  129.5394  153.5493 C   0  0  0  0  0  0  0  0  0  0  0  0
  146.3588  129.4357  153.1575 C   0  0  0  0  0  0  0  0  0  0  0  0
  146.8183  128.9087  154.4927 C   0  0  0  0  0  0  0  0  0  0  0  0
  147.9811  132.3593  153.0887 S   0  0  0  0  0  0  0  0  0  0  0  0
  150.1253  136.5685  154.5083 N   0  0  0  0  0  0  0  0  0  0  0  0
  150.7860  137.6681  155.2153 C   0  0  2  0  0  0  0  0  0  0  0  0
  150.7031  138.9214  154.3139 C   0  0  0  0  0  0  0  0  0  0  0  0
  150.8475  140.2471  155.0816 C   0  0  0  0  0  0  0  0  0  0  0  0
  152.2171  140.4705  155.7411 C   0  0  0  0  0  0  0  0  0  0  0  0
  152.5631  139.4282  156.8184 C   0  0  0  0  0  0  0  0  0  0  0  0
  153.0007  138.1652  156.2386 N   0  0  0  0  0  0  0  0  0  0  0  0
  152.2719  137.3314  155.4812 C   0  0  0  0  0  0  0  0  0  0  0  0
  152.7832  136.3187  155.0029 O   0  0  0  0  0  0  0  0  0  0  0  0
  149.0886  134.9758  153.2076 H   0  0  0  0  0  0  0  0  0  0  0  0
  148.5262  128.8852  153.0463 H   0  0  0  0  0  0  0  0  0  0  0  0
  145.7571  130.3425  153.1624 H   0  0  0  0  0  0  0  0  0  0  0  0
  146.0953  128.7070  152.3935 H   0  0  0  0  0  0  0  0  0  0  0  0
  146.8623  127.8291  154.6201 H   0  0  0  0  0  0  0  0  0  0  0  0
  146.5340  129.4722  155.3793 H   0  0  0  0  0  0  0  0  0  0  0  0
  149.6888  136.7969  153.6273 H   0  0  0  0  0  0  0  0  0  0  0  0
  150.2669  137.8481  156.1587 H   0  0  0  0  0  0  0  0  0  0  0  0
  151.4344  138.8717  153.5052 H   0  0  0  0  0  0  0  0  0  0  0  0
  149.7286  138.9422  153.8235 H   0  0  0  0  0  0  0  0  0  0  0  0
  150.6597  141.0698  154.3910 H   0  0  0  0  0  0  0  0  0  0  0  0
  150.0655  140.3129  155.8391 H   0  0  0  0  0  0  0  0  0  0  0  0
  153.0007  140.5028  154.9829 H   0  0  0  0  0  0  0  0  0  0  0  0
  152.2109  141.4569  156.2057 H   0  0  0  0  0  0  0  0  0  0  0  0
  153.3855  139.8036  157.4276 H   0  0  0  0  0  0  0  0  0  0  0  0
  151.7255  139.2681  157.4989 H   0  0  0  0  0  0  0  0  0  0  0  0
  153.9636  137.9096  156.4037 H   0  0  0  0  0  0  0  0  0  0  0  0
  1  2  2  0  0  0  0
  2  3  1  0  0  0  0
  2 12  1  0  0  0  0
  3  4  1  0  0  0  0
  3 21  1  0  0  0  0
  4 11  1  0  0  0  0
  4  5  2  0  0  0  0
  5  6  1  0  0  0  0
  6  7  2  0  0  0  0
  7  8  1  0  0  0  0
  7 11  1  0  0  0  0
  8 10  1  0  0  0  0
  8  9  1  0  0  0  0
  8 22  1  0  0  0  0
  9 10  1  0  0  0  0
  9 23  1  0  0  0  0
  9 24  1  0  0  0  0
 10 25  1  0  0  0  0
 10 26  1  0  0  0  0
 12 13  1  0  0  0  0
 12 27  1  0  0  0  0
 13 19  1  0  0  0  0
 13 14  1  0  0  0  0
 13 28  1  0  0  0  0
 14 15  1  0  0  0  0
 14 29  1  0  0  0  0
 14 30  1  0  0  0  0
 15 16  1  0  0  0  0
 15 31  1  0  0  0  0
 15 32  1  0  0  0  0
 16 17  1  0  0  0  0
 16 33  1  0  0  0  0
 16 34  1  0  0  0  0
 17 18  1  0  0  0  0
 17 35  1  0  0  0  0
 17 36  1  0  0  0  0
 18 19  1  0  0  0  0
 18 37  1  0  0  0  0
 19 20  2  0  0  0  0
M  END
> <s_m_source_file>
AV-unprocessed.smi

> <i_m_source_file_index>
1997

> <i_lp_mmshare_version>
43012

> <i_f3d_flags>
0

> <s_epik_input>
W0NIMl0xW0NIMl1bQ0hdMWMoczIpbm5jMltOSF1DKD1PKVtOSF1bQ0BASF0zW0NIMl1bQ0gyXVtDSDJdW0NIMl1bTkhdQzM9Tw==

> <s_epik_cmdline>
J2VwaWtfcHl0aG9uJywgJy1waCcsICc3LjAnLCAnLXRuJywgJzgnLCAnLW1hJywgJzIwMCcsICctbWV0YWxfYmluZGluZycsICctaW1hZScsICc8aW5maWxlLm1hZT4nLCAnLW9tYWUnLCAnPG91dGZpbGUubWFlPic=

> <r_lp_tautomer_probability>
1

> <r_epik_Ionization_Penalty>
0.000421558

> <r_epik_Ionization_Penalty_Charging>
0

> <r_epik_Ionization_Penalty_Neutral>
0.000421558

> <r_epik_State_Penalty>
-0

> <r_epik_Charging_Adjusted_Penalty>
0

> <i_epik_Tot_Q>
0

> <i_epik_Tot_abs_Q>
0

> <r_epik_Metal_State_Penalty>
0.200761

> <b_epik_Metal_Only>
0

> <s_lp_Force_Field>
OPLS_2005

> <r_lp_Energy>
8.57521

> <b_lp_Chiralities_Consistent>
1

> <s_lp_Variant>
AV-unprocessed.smi:1997-1

> <Gold.Version>
5.8.1

> <Gold.Id.Protein>
6NUR|6NUR_protein|mol2

> <Gold.PLP.Fitness>
36.6193

> <Gold.PLP.PLP>
-28.9177

> <Gold.PLP.part.hbond>
-2.8507

> <Gold.PLP.part.metal>
0.0000

> <Gold.PLP.part.buried>
-3.6262

> <Gold.PLP.part.nonpolar>
-22.7589

> <Gold.PLP.part.repulsive>
0.2158

> <Gold.PLP.ligand.clash>
0.0000

> <Gold.PLP.ligand.torsion>
0.6525

> <Gold.PLP.Chemscore.Hbond>
2.9600

> <Gold.PLP.Chemscore.CHOScore>
0.0000

> <Gold.PLP.Chemscore.Metal>
0.0000

> <Gold.Chemscore.Hbonds>
donor molecule, donor type, donor heavy atom, donor atom, acceptor molecule, acceptor atom, score
      L1  H     3    21       P1  7948  0.80
      L1  H    12    27       P1  7948  0.99

> <Gold.PLP.Chemscore.Internal.Correction>
0.1265

> <Gold.Rescore>
     Score         DG    S(hbond)    S(metal)    S(lipo)     H(rot)  DE(clash)    DE(int)     intcor
     14.20     -16.82       2.45        0.00      55.08       1.29       0.00       2.61       ----

> <Gold.Chemscore.Fitness>
14.2005

> <Gold.Chemscore.DG>
-16.8203

> <Gold.Chemscore.ZeroCoef>
-5.4800

> <Gold.Chemscore.Hbond>
2.4515

> <Gold.Chemscore.Metal>
0.0000

> <Gold.Chemscore.Lipo>
55.0815

> <Gold.Chemscore.Internal_Hbond>
0.0000

> <Gold.Chemscore.DEClash>
0.0048

> <Gold.Chemscore.DEInternal>
2.6149

> <Gold.Chemscore.Rot>
1.2860

> <Gold.Chemscore.Internal.Correction>
   9.000000E+99

> <Gold.Chemscore.Hbonds>
donor molecule, donor type, donor heavy atom, donor atom, acceptor molecule, acceptor atom, score
      L1  H     3    21       P1  7948  0.12
      L1  H    12    27       P1  7948  0.61

> <Gold.Chemscore.Hbond.Weighted>
-8.1880

> <Gold.Chemscore.Metal.Weighted>
-0.0000

> <Gold.Chemscore.Lipo.Weighted>
-6.4445

> <Gold.Chemscore.Internal_Hbond.Weighted>
0.0000

> <Gold.Chemscore.DEClash.Weighted>
0.0048

> <Gold.Chemscore.DEInternal.Weighted>
2.6149

> <Gold.Chemscore.Rot.Weighted>
3.2923

> <Gold.Chemscore.Internal.Correction.Weighted>
   9.000000E+99

> <Gold.Protein.RotatedTorsions>
[ 6907 6896 6895 6894 ] final -100.72 input  -60.11 | X-H torsion
[ 7974 7965 7964 7962 ] final  -19.40 input  175.53 | X-H torsion
[ 8008 7997 7996 7995 ] final -101.34 input   59.86 | X-H torsion
[ 10167 10162 10161 10158 ] final   74.88 input  -65.29 | X-H torsion
[ 10718 10713 10712 10709 ] final  -56.40 input   66.30 | X-H torsion
[ 10763 10752 10751 10750 ] final -151.45 input  -60.55 | X-H torsion
[ 11005 11000 10999 10996 ] final   15.07 input  -57.11 | X-H torsion

> <Gold.Protein.ActiveResidues>
 VAL166  LYS551  ARG553  GLY616  TRP617  ASP618  TYR619  PRO620  LYS621  CYS622 
 ASP623  PHE694  ASN695  SER759  ASP760  ASP761  ALA762  ILE779  LEU786  VAL792 
 PHE793  MET794  SER795  GLU796  ALA797  LYS798  CYS799  TRP800  GLU811  SER814 

> <Gold.Protein.RotatedAtoms>
  150.7127  134.0843  159.3908 H   0  0  0  0  0  0  0  0  0  0  0  0  # atno 6907 bound_to 6896
  151.8828  135.0445  160.0499 H   0  0  0  0  0  0  0  0  0  0  0  0  # atno 6908 bound_to 6896
  152.2554  133.5215  159.5387 H   0  0  0  0  0  0  0  0  0  0  0  0  # atno 6909 bound_to 6896
  146.1843  140.4056  142.8482 H   0  0  0  0  0  0  0  0  0  0  0  0  # atno 7974 bound_to 7965
  154.8412  140.0435  157.1542 H   0  0  0  0  0  0  0  0  0  0  0  0  # atno 8008 bound_to 7997
  154.9045  140.3005  155.5279 H   0  0  0  0  0  0  0  0  0  0  0  0  # atno 8009 bound_to 7997
  156.2992  140.2369  156.4077 H   0  0  0  0  0  0  0  0  0  0  0  0  # atno 8010 bound_to 7997
  140.0090  144.5629  150.7674 H   0  0  0  0  0  0  0  0  0  0  0  0  # atno 10167 bound_to 10162
  156.1291  130.4160  150.0300 H   0  0  0  0  0  0  0  0  0  0  0  0  # atno 10718 bound_to 10713
  154.8057  135.3260  154.7437 H   0  0  0  0  0  0  0  0  0  0  0  0  # atno 10763 bound_to 10752
  153.8096  135.6897  153.4847 H   0  0  0  0  0  0  0  0  0  0  0  0  # atno 10764 bound_to 10752
  153.1801  135.4590  154.9961 H   0  0  0  0  0  0  0  0  0  0  0  0  # atno 10765 bound_to 10752
  140.4625  134.1113  155.7719 H   0  0  0  0  0  0  0  0  0  0  0  0  # atno 11005 bound_to 11000
  144.8370  140.6797  143.6254 LP  0  0  0  0  0  0  0  0  0  0  0  0  # atno 17320 bound_to 7965
  145.3984  139.1602  143.4191 LP  0  0  0  0  0  0  0  0  0  0  0  0  # atno 17321 bound_to 7965
  140.7389  143.2784  151.3672 LP  0  0  0  0  0  0  0  0  0  0  0  0  # atno 17342 bound_to 10162
  139.6218  144.0891  152.2398 LP  0  0  0  0  0  0  0  0  0  0  0  0  # atno 17343 bound_to 10162
  156.8217  130.9361  151.3641 LP  0  0  0  0  0  0  0  0  0  0  0  0  # atno 17370 bound_to 10713
  157.6471  130.8853  149.9559 LP  0  0  0  0  0  0  0  0  0  0  0  0  # atno 17371 bound_to 10713
  141.1615  133.8784  157.1835 LP  0  0  0  0  0  0  0  0  0  0  0  0  # atno 17394 bound_to 11000
  139.9936  135.0055  157.0032 LP  0  0  0  0  0  0  0  0  0  0  0  0  # atno 17395 bound_to 11000

$$$$
