#       Name:                AV-unprocessed.smi:2134
#       Creating user name   scv26
#       Creation time:       Fri Mar 27 11:45:36 2020


#       File generated by GOLD software.
#

@<TRIPOS>MOLECULE
AV-unprocessed.smi:2134
    41    42     1
SMALL
NO_CHARGES


@<TRIPOS>ATOM
      1 ****        -3.2834  -1.1008   0.5832 C.3            1 S1                 0.0000
      2 ****        -2.9282   0.3039   0.7820 N.am           1 S1                 0.0000
      3 ****        -1.5679   0.5288   0.8083 N.2            1 S1                 0.0000
      4 ****        -1.0575   1.7190   0.7381 C.2            1 S1                 0.0000
      5 ****         0.4263   1.8841   0.7359 C.2            1 S1                 0.0000
      6 ****         0.8311   3.0280   0.4966 O.2            1 S1                 0.0000
      7 ****         1.2036   0.7870   0.9788 N.pl3          1 S1                -1.0000
      8 ****         2.6626   0.7434   0.8798 C.3            1 S1                 0.0000
      9 ****         3.1332  -0.7224   0.7563 C.3            1 S1                 0.0000
     10 ****         2.6300  -1.4405  -0.4922 C.ar           1 S1                 0.0000
     11 ****         3.3756  -1.4163  -1.6934 C.ar           1 S1                 0.0000
     12 ****         2.8780  -2.0829  -2.8324 C.ar           1 S1                 0.0000
     13 ****         1.6456  -2.7622  -2.7468 C.ar           1 S1                 0.0000
     14 ****         0.9617  -2.7707  -1.5820 N.pl3          1 S1                 1.0000
     15 ****         1.4057  -2.1482  -0.4689 C.ar           1 S1                 0.0000
     16 ****        -1.9606   2.9321   0.6138 C.3            1 S1                 0.0000
     17 ****        -3.3524   2.6830   1.2265 C.3            1 S1                 0.0000
     18 ****        -3.8686   1.2699   0.9413 C.2            1 S1                 0.0000
     19 ****        -5.0819   1.0679   0.8918 O.2            1 S1                 0.0000
     20 ****        -4.3562  -1.2943   0.6182 H              1 S1                 0.0000
     21 ****        -2.8173  -1.7184   1.3519 H              1 S1                 0.0000
     22 ****        -2.9200  -1.4427  -0.3866 H              1 S1                 0.0000
     23 ****         3.0339   1.3026   0.0198 H              1 S1                 0.0000
     24 ****         3.1333   1.1917   1.7551 H              1 S1                 0.0000
     25 ****         4.2233  -0.7487   0.7543 H              1 S1                 0.0000
     26 ****         2.8245  -1.2866   1.6376 H              1 S1                 0.0000
     27 ****         4.3151  -0.8852  -1.7434 H              1 S1                 0.0000
     28 ****         3.4321  -2.0684  -3.7593 H              1 S1                 0.0000
     29 ****         1.1889  -3.2934  -3.5689 H              1 S1                 0.0000
     30 ****         0.7650  -2.2161   0.3986 H              1 S1                 0.0000
     31 ****        -1.5193   3.7949   1.1137 H              1 S1                 0.0000
     32 ****        -2.0585   3.2013  -0.4385 H              1 S1                 0.0000
     33 ****        -3.3027   2.8010   2.3095 H              1 S1                 0.0000
     34 ****        -4.0647   3.4239   0.8621 H              1 S1                 0.0000
     35 ****         0.0700  -3.2644  -1.5410 H              1 S1                 0.0000
     36 ****        -0.9519  -0.2553   0.8844 LP             1 S1                 0.0000
     37 ****         0.1766   3.7636   0.3220 LP             1 S1                 0.0000
     38 ****         1.8128   3.2172   0.4778 LP             1 S1                 0.0000
     39 ****         0.7366  -0.0558   1.2464 LP             1 S1                 0.0000
     40 ****        -5.4287   0.1449   0.7253 LP             1 S1                 0.0000
     41 ****        -5.7207   1.8268   1.0181 LP             1 S1                 0.0000
@<TRIPOS>BOND
    1    1    2 1     
    2    1   20 1     
    3    1   21 1     
    4    1   22 1     
    5    2   18 am    
    6    2    3 1     
    7    3    4 2     
    8    4    5 1     
    9    4   16 1     
   10    5    6 2     
   11    5    7 1     
   12    7    8 1     
   13    8    9 1     
   14    8   23 1     
   15    8   24 1     
   16    9   10 1     
   17    9   25 1     
   18    9   26 1     
   19   10   15 ar    
   20   10   11 ar    
   21   11   12 ar    
   22   11   27 1     
   23   12   13 ar    
   24   12   28 1     
   25   13   14 ar    
   26   13   29 1     
   27   14   15 ar    
   28   14   35 1     
   29   15   30 1     
   30   16   17 1     
   31   16   31 1     
   32   16   32 1     
   33   17   18 1     
   34   17   33 1     
   35   17   34 1     
   36   18   19 2     
   37    3   36 1     
   38    6   37 1     
   39    6   38 1     
   40    7   39 1     
   41   19   40 1     
   42   19   41 1     
@<TRIPOS>SUBSTRUCTURE
      1 S1             1
@<TRIPOS>SET
LONE_PAIRS      STATIC     ATOMS    <user>   **** ""
6 36 37 38 39 40 41
DONOR_HYDROGENS      STATIC     ATOMS    <user>   **** ""
1 35
ATOM$BLUE        STATIC     ATOMS    COLORGROUP SYSTEM
6 36 37 38 39 40 41
ATOM$RED        STATIC     ATOMS    COLORGROUP SYSTEM
1 35
