#       Name:                AV-unprocessed.smi:2440
#       Creating user name   scv26
#       Creation time:       Fri Mar 27 13:25:01 2020


#       File generated by GOLD software.
#

@<TRIPOS>MOLECULE
AV-unprocessed.smi:2440
    55    57     1
SMALL
NO_CHARGES


@<TRIPOS>ATOM
      1 ****        -4.8420  -2.9828  -0.2305 C.3            1 S1                 0.0000
      2 ****        -5.6723  -1.7111  -0.2430 C.ar           1 S1                 0.0000
      3 ****        -7.0818  -1.7900  -0.2586 C.ar           1 S1                 0.0000
      4 ****        -7.8896  -0.7098  -0.2729 N.ar           1 S1                 0.0000
      5 ****        -7.3103   0.5082  -0.2763 C.ar           1 S1                 0.0000
      6 ****        -5.9156   0.7038  -0.2608 C.ar           1 S1                 0.0000
      7 ****        -5.0685  -0.4303  -0.2307 C.ar           1 S1                 0.0000
      8 ****        -3.6477  -0.3400  -0.2382 N.am           1 S1                 0.0000
      9 ****        -2.8691   0.6680   0.1915 C.2            1 S1                 0.0000
     10 ****        -3.2734   1.7067   0.7136 O.2            1 S1                 0.0000
     11 ****        -1.5710   0.3910  -0.0021 N.am           1 S1                 0.0000
     12 ****        -0.4509   1.2593   0.3519 C.3            1 S1                 0.0000
     13 ****         0.4274   1.5118  -0.8872 C.3            1 S1                 0.0000
     14 ****         1.7047   2.2869  -0.5108 C.3            1 S1                 0.0000
     15 ****         2.4975   1.5734   0.5320 N.4            1 S1                 1.0000
     16 ****         3.1953   0.3218   0.0733 C.3            1 S1                 0.0000
     17 ****         4.0812  -0.2892   1.1930 C.3            1 S1                 0.0000
     18 ****         4.8594  -1.5314   0.7314 C.3            1 S1                 0.0000
     19 ****         5.7201  -1.2274  -0.4979 C.3            1 S1                 0.0000
     20 ****         4.8488  -0.6787  -1.6310 C.3            1 S1                 0.0000
     21 ****         4.0696   0.5692  -1.1863 C.3            1 S1                 0.0000
     22 ****         1.6602   1.4272   1.7581 C.3            1 S1                 0.0000
     23 ****         0.3754   0.6210   1.4841 C.3            1 S1                 0.0000
     24 ****        -5.4754  -3.8705  -0.2349 H              1 S1                 0.0000
     25 ****        -4.2167  -3.0199   0.6620 H              1 S1                 0.0000
     26 ****        -4.1959  -3.0259  -1.1077 H              1 S1                 0.0000
     27 ****        -7.5794  -2.7487  -0.2618 H              1 S1                 0.0000
     28 ****        -7.9789   1.3561  -0.2999 H              1 S1                 0.0000
     29 ****        -5.5277   1.7104  -0.2864 H              1 S1                 0.0000
     30 ****        -3.1665  -1.1681  -0.5566 H              1 S1                 0.0000
     31 ****        -1.3393  -0.4930  -0.4313 H              1 S1                 0.0000
     32 ****        -0.8134   2.2269   0.7040 H              1 S1                 0.0000
     33 ****         0.6914   0.5674  -1.3644 H              1 S1                 0.0000
     34 ****        -0.1380   2.0777  -1.6288 H              1 S1                 0.0000
     35 ****         2.2958   2.5235  -1.3927 H              1 S1                 0.0000
     36 ****         1.4181   3.2603  -0.1103 H              1 S1                 0.0000
     37 ****         2.4415  -0.4194  -0.1923 H              1 S1                 0.0000
     38 ****         4.7825   0.4618   1.5594 H              1 S1                 0.0000
     39 ****         3.4799  -0.5993   2.0457 H              1 S1                 0.0000
     40 ****         5.4901  -1.8964   1.5426 H              1 S1                 0.0000
     41 ****         4.1603  -2.3357   0.4985 H              1 S1                 0.0000
     42 ****         6.4937  -0.5030  -0.2399 H              1 S1                 0.0000
     43 ****         6.2357  -2.1303  -0.8263 H              1 S1                 0.0000
     44 ****         5.4720  -0.4388  -2.4932 H              1 S1                 0.0000
     45 ****         4.1496  -1.4484  -1.9604 H              1 S1                 0.0000
     46 ****         3.4584   0.8708  -2.0353 H              1 S1                 0.0000
     47 ****         4.7694   1.3843  -0.9960 H              1 S1                 0.0000
     48 ****         2.2158   1.0056   2.5926 H              1 S1                 0.0000
     49 ****         1.3809   2.4259   2.0968 H              1 S1                 0.0000
     50 ****        -0.2249   0.5712   2.3936 H              1 S1                 0.0000
     51 ****         0.6288  -0.4098   1.2338 H              1 S1                 0.0000
     52 ****         3.2429   2.2066   0.7852 H              1 S1                 0.0000
     53 ****        -8.8846  -0.8087  -0.2807 LP             1 S1                 0.0000
     54 ****        -4.2540   1.8506   0.8467 LP             1 S1                 0.0000
     55 ****        -2.6212   2.4067   1.0047 LP             1 S1                 0.0000
@<TRIPOS>BOND
    1    1    2 1     
    2    1   24 1     
    3    1   25 1     
    4    1   26 1     
    5    2    7 ar    
    6    2    3 ar    
    7    3    4 ar    
    8    3   27 1     
    9    4    5 ar    
   10    5    6 ar    
   11    5   28 1     
   12    6    7 ar    
   13    6   29 1     
   14    7    8 1     
   15    8    9 am    
   16    8   30 1     
   17    9   10 2     
   18    9   11 am    
   19   11   12 1     
   20   11   31 1     
   21   12   23 1     
   22   12   13 1     
   23   12   32 1     
   24   13   14 1     
   25   13   33 1     
   26   13   34 1     
   27   14   15 1     
   28   14   35 1     
   29   14   36 1     
   30   15   16 1     
   31   15   22 1     
   32   15   52 1     
   33   16   21 1     
   34   16   17 1     
   35   16   37 1     
   36   17   18 1     
   37   17   38 1     
   38   17   39 1     
   39   18   19 1     
   40   18   40 1     
   41   18   41 1     
   42   19   20 1     
   43   19   42 1     
   44   19   43 1     
   45   20   21 1     
   46   20   44 1     
   47   20   45 1     
   48   21   46 1     
   49   21   47 1     
   50   22   23 1     
   51   22   48 1     
   52   22   49 1     
   53   23   50 1     
   54   23   51 1     
   55    4   53 1     
   56   10   54 1     
   57   10   55 1     
@<TRIPOS>SUBSTRUCTURE
      1 S1             1
@<TRIPOS>SET
LONE_PAIRS      STATIC     ATOMS    <user>   **** ""
3 53 54 55
DONOR_HYDROGENS      STATIC     ATOMS    <user>   **** ""
3 30 31 52
ATOM$BLUE        STATIC     ATOMS    COLORGROUP SYSTEM
3 53 54 55
ATOM$RED        STATIC     ATOMS    COLORGROUP SYSTEM
3 30 31 52
