AV-unprocessed.smi:247|AV-procd|sdf|1892|dock10
  -GOLD-   2262020553D 1   1.00000     0.00000
 Structure written by MMmdl.
 61 65  0  0  0  0  0  0  0  0  1 V2000
  144.6453  135.7914  149.4000 O   0  0  0  0  0  0  0  0  0  0  0  0
  144.3513  135.4957  150.7512 C   0  0  0  0  0  0  0  0  0  0  0  0
  144.7739  134.0619  151.1780 C   0  0  0  0  0  0  0  0  0  0  0  0
  144.5376  133.9091  152.7148 C   0  0  0  0  0  0  0  0  0  0  0  0
  145.5379  134.5479  153.5577 N   0  0  0  0  0  0  0  0  0  0  0  0
  146.4562  133.9185  154.3687 C   0  0  0  0  0  0  0  0  0  0  0  0
  147.2446  134.7124  155.0395 N   0  0  0  0  0  0  0  0  0  0  0  0
  146.8546  135.9862  154.6449 C   0  0  0  0  0  0  0  0  0  0  0  0
  147.2668  137.3040  154.9911 C   0  0  0  0  0  0  0  0  0  0  0  0
  148.2216  137.5985  155.8995 N   0  0  0  0  0  0  0  0  0  0  0  0
  148.0050  137.0015  157.2153 C   0  0  0  0  0  0  0  0  0  0  0  0
  148.3148  138.0890  158.2483 C   0  0  0  0  0  0  0  0  0  0  0  0
  149.1618  139.0863  157.4672 C   0  0  0  0  0  0  0  0  0  0  0  0
  148.5235  139.0201  156.0735 C   0  0  1  0  0  0  0  0  0  0  0  0
  149.3117  139.6398  154.8684 C   0  0  2  0  0  0  0  0  0  0  0  0
  150.6011  138.8795  154.4750 C   0  0  0  0  0  0  0  0  0  0  0  0
  151.5854  138.9897  155.5003 O   0  0  0  0  0  0  0  0  0  0  0  0
  152.0253  140.3269  155.7141 C   0  0  0  0  0  0  0  0  0  0  0  0
  150.8442  141.2183  156.1296 C   0  0  0  0  0  0  0  0  0  0  0  0
  149.7196  141.1173  155.0890 C   0  0  2  0  0  0  0  0  0  0  0  0
  148.6324  141.9417  155.4550 O   0  0  0  0  0  0  0  0  0  0  0  0
  146.6468  138.3458  154.3859 N   0  0  0  0  0  0  0  0  0  0  0  0
  145.6732  138.1180  153.4990 C   0  0  0  0  0  0  0  0  0  0  0  0
  145.1730  136.9501  153.0890 N   0  0  0  0  0  0  0  0  0  0  0  0
  145.7963  135.9007  153.6986 C   0  0  0  0  0  0  0  0  0  0  0  0
  143.9735  133.0158  150.3594 C   0  0  0  0  0  0  0  0  0  0  0  0
  144.5023  131.5849  150.5626 C   0  0  0  0  0  0  0  0  0  0  0  0
  145.8803  131.5259  150.2153 O   0  0  0  0  0  0  0  0  0  0  0  0
  146.6978  132.3584  151.0293 C   0  0  0  0  0  0  0  0  0  0  0  0
  146.2774  133.8332  150.8755 C   0  0  0  0  0  0  0  0  0  0  0  0
  144.3722  136.6781  149.2205 H   0  0  0  0  0  0  0  0  0  0  0  0
  144.8491  136.2395  151.3743 H   0  0  0  0  0  0  0  0  0  0  0  0
  143.2788  135.6389  150.8828 H   0  0  0  0  0  0  0  0  0  0  0  0
  143.5690  134.3086  153.0107 H   0  0  0  0  0  0  0  0  0  0  0  0
  144.5044  132.8515  152.9796 H   0  0  0  0  0  0  0  0  0  0  0  0
  146.5154  132.8437  154.4583 H   0  0  0  0  0  0  0  0  0  0  0  0
  146.9999  136.6001  157.3512 H   0  0  0  0  0  0  0  0  0  0  0  0
  148.7038  136.1720  157.3252 H   0  0  0  0  0  0  0  0  0  0  0  0
  147.3879  138.5666  158.5689 H   0  0  0  0  0  0  0  0  0  0  0  0
  148.8189  137.7013  159.1339 H   0  0  0  0  0  0  0  0  0  0  0  0
  149.1400  140.0861  157.9016 H   0  0  0  0  0  0  0  0  0  0  0  0
  150.1930  138.7331  157.4564 H   0  0  0  0  0  0  0  0  0  0  0  0
  147.5739  139.5471  156.1629 H   0  0  0  0  0  0  0  0  0  0  0  0
  148.6611  139.6083  153.9930 H   0  0  0  0  0  0  0  0  0  0  0  0
  150.3979  137.8293  154.2702 H   0  0  0  0  0  0  0  0  0  0  0  0
  151.0071  139.2815  153.5451 H   0  0  0  0  0  0  0  0  0  0  0  0
  152.7877  140.3272  156.4929 H   0  0  0  0  0  0  0  0  0  0  0  0
  152.4976  140.7096  154.8080 H   0  0  0  0  0  0  0  0  0  0  0  0
  150.4842  140.9122  157.1124 H   0  0  0  0  0  0  0  0  0  0  0  0
  151.1775  142.2520  156.2290 H   0  0  0  0  0  0  0  0  0  0  0  0
  150.0943  141.5138  154.1442 H   0  0  0  0  0  0  0  0  0  0  0  0
  148.9515  142.8230  155.5768 H   0  0  0  0  0  0  0  0  0  0  0  0
  145.2270  138.9975  153.0594 H   0  0  0  0  0  0  0  0  0  0  0  0
  142.9095  133.0642  150.5878 H   0  0  0  0  0  0  0  0  0  0  0  0
  144.0508  133.2422  149.2954 H   0  0  0  0  0  0  0  0  0  0  0  0
  144.3555  131.2419  151.5870 H   0  0  0  0  0  0  0  0  0  0  0  0
  143.9539  130.8945  149.9216 H   0  0  0  0  0  0  0  0  0  0  0  0
  146.6533  132.0305  152.0678 H   0  0  0  0  0  0  0  0  0  0  0  0
  147.7341  132.2369  150.7142 H   0  0  0  0  0  0  0  0  0  0  0  0
  146.5055  134.1290  149.8514 H   0  0  0  0  0  0  0  0  0  0  0  0
  146.8953  134.4657  151.5138 H   0  0  0  0  0  0  0  0  0  0  0  0
  1  2  1  0  0  0  0
  1 31  1  0  0  0  0
  2  3  1  0  0  0  0
  2 32  1  0  0  0  0
  2 33  1  0  0  0  0
  3 30  1  0  0  0  0
  3  4  1  0  0  0  0
  3 26  1  0  0  0  0
  4  5  1  0  0  0  0
  4 34  1  0  0  0  0
  4 35  1  0  0  0  0
  5 25  1  0  0  0  0
  5  6  1  0  0  0  0
  6  7  2  0  0  0  0
  6 36  1  0  0  0  0
  7  8  1  0  0  0  0
  8 25  2  0  0  0  0
  8  9  1  0  0  0  0
  9 10  1  0  0  0  0
  9 22  2  0  0  0  0
 10 14  1  0  0  0  0
 10 11  1  0  0  0  0
 11 12  1  0  0  0  0
 11 37  1  0  0  0  0
 11 38  1  0  0  0  0
 12 13  1  0  0  0  0
 12 39  1  0  0  0  0
 12 40  1  0  0  0  0
 13 14  1  0  0  0  0
 13 41  1  0  0  0  0
 13 42  1  0  0  0  0
 14 15  1  0  0  0  0
 14 43  1  0  0  0  0
 15 20  1  0  0  0  0
 15 16  1  0  0  0  0
 15 44  1  0  0  0  0
 16 17  1  0  0  0  0
 16 45  1  0  0  0  0
 16 46  1  0  0  0  0
 17 18  1  0  0  0  0
 18 19  1  0  0  0  0
 18 47  1  0  0  0  0
 18 48  1  0  0  0  0
 19 20  1  0  0  0  0
 19 49  1  0  0  0  0
 19 50  1  0  0  0  0
 20 21  1  0  0  0  0
 20 51  1  0  0  0  0
 21 52  1  0  0  0  0
 22 23  1  0  0  0  0
 23 24  2  0  0  0  0
 23 53  1  0  0  0  0
 24 25  1  0  0  0  0
 26 27  1  0  0  0  0
 26 54  1  0  0  0  0
 26 55  1  0  0  0  0
 27 28  1  0  0  0  0
 27 56  1  0  0  0  0
 27 57  1  0  0  0  0
 28 29  1  0  0  0  0
 29 30  1  0  0  0  0
 29 58  1  0  0  0  0
 29 59  1  0  0  0  0
 30 60  1  0  0  0  0
 30 61  1  0  0  0  0
M  END
> <s_m_source_file>
AV-unprocessed.smi

> <i_m_source_file_index>
247

> <i_lp_mmshare_version>
43012

> <i_f3d_flags>
0

> <s_epik_input>
W0NIMl0xW0NIMl1PW0NIMl1bQ0gyXUMxKFtDSDJdW09IXSlbQ0gyXW4oW2NIXW4yKWMoYzIzKW5bY0hdbmMzTjRbQ0gyXVtDSDJdW0NIMl1bQ0BIXTRbQ0BASF01W0NIMl1PW0NIMl1bQ0gyXVtDQEhdNVtPSF0=

> <s_epik_cmdline>
J2VwaWtfcHl0aG9uJywgJy1waCcsICc3LjAnLCAnLXRuJywgJzgnLCAnLW1hJywgJzIwMCcsICctbWV0YWxfYmluZGluZycsICctaW1hZScsICc8aW5maWxlLm1hZT4nLCAnLW9tYWUnLCAnPG91dGZpbGUubWFlPic=

> <r_lp_tautomer_probability>
1

> <r_epik_Ionization_Penalty>
0.00362597

> <r_epik_Ionization_Penalty_Charging>
0

> <r_epik_Ionization_Penalty_Neutral>
0.00362597

> <r_epik_State_Penalty>
0.00241433

> <r_epik_Charging_Adjusted_Penalty>
0.00241433

> <i_epik_Tot_Q>
0

> <i_epik_Tot_abs_Q>
0

> <r_epik_Metal_State_Penalty>
-0

> <b_epik_Metal_Only>
0

> <s_lp_Force_Field>
OPLS_2005

> <r_lp_Energy>
63.5358

> <b_lp_Chiralities_Consistent>
1

> <s_lp_Variant>
AV-unprocessed.smi:247-5

> <Gold.Version>
5.8.1

> <Gold.Id.Protein>
6NUR|6NUR_protein|mol2

> <Gold.PLP.Fitness>
43.6570

> <Gold.PLP.PLP>
-35.2835

> <Gold.PLP.part.hbond>
-2.7871

> <Gold.PLP.part.metal>
0.0000

> <Gold.PLP.part.buried>
-2.9226

> <Gold.PLP.part.nonpolar>
-29.9975

> <Gold.PLP.part.repulsive>
0.5135

> <Gold.PLP.ligand.clash>
0.0000

> <Gold.PLP.ligand.torsion>
0.3634

> <Gold.PLP.Chemscore.Hbond>
2.0000

> <Gold.PLP.Chemscore.CHOScore>
1.0000

> <Gold.PLP.Chemscore.Metal>
0.0000

> <Gold.Chemscore.Hbonds>
donor molecule, donor type, donor heavy atom, donor atom, acceptor molecule, acceptor atom, score
      L1  H     1    31       P1 10171  1.00
      L1  H    21    52       P1  8028  1.00
      L1  C    23    53       P1 10175  1.00

> <Gold.PLP.Chemscore.Internal.Correction>
0.1003

> <Gold.Rescore>
     Score         DG    S(hbond)    S(metal)    S(lipo)     H(rot)  DE(clash)    DE(int)     intcor
      9.55     -14.04       1.95        0.00      88.00       3.23       0.81       3.67       ----

> <Gold.Chemscore.Fitness>
9.5517

> <Gold.Chemscore.DG>
-14.0381

> <Gold.Chemscore.ZeroCoef>
-5.4800

> <Gold.Chemscore.Hbond>
1.9537

> <Gold.Chemscore.Metal>
0.0000

> <Gold.Chemscore.Lipo>
88.0008

> <Gold.Chemscore.Internal_Hbond>
0.0000

> <Gold.Chemscore.DEClash>
0.8145

> <Gold.Chemscore.DEInternal>
3.6720

> <Gold.Chemscore.Rot>
3.2278

> <Gold.Chemscore.Internal.Correction>
   9.000000E+99

> <Gold.Chemscore.Hbonds>
donor molecule, donor type, donor heavy atom, donor atom, acceptor molecule, acceptor atom, score
      L1  H     1    31       P1 10171  0.92
      L1  H    21    52       P1  8028  0.99

> <Gold.Chemscore.Hbond.Weighted>
-6.5253

> <Gold.Chemscore.Metal.Weighted>
-0.0000

> <Gold.Chemscore.Lipo.Weighted>
-10.2961

> <Gold.Chemscore.Internal_Hbond.Weighted>
0.0000

> <Gold.Chemscore.DEClash.Weighted>
0.8145

> <Gold.Chemscore.DEInternal.Weighted>
3.6720

> <Gold.Chemscore.Rot.Weighted>
8.2633

> <Gold.Chemscore.Internal.Correction.Weighted>
   9.000000E+99

> <Gold.Protein.RotatedTorsions>
[ 6907 6896 6895 6894 ] final    4.86 input  -60.11 | X-H torsion
[ 7974 7965 7964 7962 ] final   76.38 input  175.53 | X-H torsion
[ 8008 7997 7996 7995 ] final  -36.01 input   59.86 | X-H torsion
[ 10167 10162 10161 10158 ] final -173.82 input  -65.29 | X-H torsion
[ 10718 10713 10712 10709 ] final   95.53 input   66.30 | X-H torsion
[ 10763 10752 10751 10750 ] final   58.38 input  -60.55 | X-H torsion
[ 11005 11000 10999 10996 ] final -161.52 input  -57.11 | X-H torsion

> <Gold.Protein.ActiveResidues>
 VAL166  LYS551  ARG553  GLY616  TRP617  ASP618  TYR619  PRO620  LYS621  CYS622 
 ASP623  PHE694  ASN695  SER759  ASP760  ASP761  ALA762  ILE779  LEU786  VAL792 
 PHE793  MET794  SER795  GLU796  ALA797  LYS798  CYS799  TRP800  GLU811  SER814 

> <Gold.Protein.RotatedAtoms>
  151.6482  135.1005  160.0155 H   0  0  0  0  0  0  0  0  0  0  0  0  # atno 6907 bound_to 6896
  152.4016  133.6822  159.6329 H   0  0  0  0  0  0  0  0  0  0  0  0  # atno 6908 bound_to 6896
  150.7915  133.8698  159.3296 H   0  0  0  0  0  0  0  0  0  0  0  0  # atno 6909 bound_to 6896
  145.7036  139.2591  143.1691 H   0  0  0  0  0  0  0  0  0  0  0  0  # atno 7974 bound_to 7965
  154.4082  140.1642  156.2304 H   0  0  0  0  0  0  0  0  0  0  0  0  # atno 8008 bound_to 7997
  155.9287  140.3416  155.6209 H   0  0  0  0  0  0  0  0  0  0  0  0  # atno 8009 bound_to 7997
  155.7133  140.0759  157.2352 H   0  0  0  0  0  0  0  0  0  0  0  0  # atno 8010 bound_to 7997
  139.5667  144.1738  152.1323 H   0  0  0  0  0  0  0  0  0  0  0  0  # atno 10167 bound_to 10162
  157.6937  131.0548  150.4352 H   0  0  0  0  0  0  0  0  0  0  0  0  # atno 10718 bound_to 10713
  152.9869  135.5609  154.5543 H   0  0  0  0  0  0  0  0  0  0  0  0  # atno 10763 bound_to 10752
  154.4974  135.2795  155.1450 H   0  0  0  0  0  0  0  0  0  0  0  0  # atno 10764 bound_to 10752
  154.2895  135.6329  153.5432 H   0  0  0  0  0  0  0  0  0  0  0  0  # atno 10765 bound_to 10752
  140.6195  134.4766  157.5222 H   0  0  0  0  0  0  0  0  0  0  0  0  # atno 11005 bound_to 11000
  146.0776  140.7800  142.9657 LP  0  0  0  0  0  0  0  0  0  0  0  0  # atno 17320 bound_to 7965
  144.6961  140.3438  143.7194 LP  0  0  0  0  0  0  0  0  0  0  0  0  # atno 17321 bound_to 7965
  140.1263  144.5328  150.6831 LP  0  0  0  0  0  0  0  0  0  0  0  0  # atno 17342 bound_to 10162
  140.6951  143.2399  151.5024 LP  0  0  0  0  0  0  0  0  0  0  0  0  # atno 17343 bound_to 10162
  156.4716  130.4054  149.6515 LP  0  0  0  0  0  0  0  0  0  0  0  0  # atno 17370 bound_to 10713
  156.3593  130.7473  151.2443 LP  0  0  0  0  0  0  0  0  0  0  0  0  # atno 17371 bound_to 10713
  139.9159  134.8247  156.1368 LP  0  0  0  0  0  0  0  0  0  0  0  0  # atno 17394 bound_to 11000
  141.0752  133.6778  156.2223 LP  0  0  0  0  0  0  0  0  0  0  0  0  # atno 17395 bound_to 11000

$$$$
