AV-unprocessed.smi:3226|AV-procd|sdf|12313|dock9
  -GOLD-   2272018163D 1   1.00000     0.00000
 Structure written by MMmdl.
 41 43  0  0  0  0  0  0  0  0  2 V2000
  151.8915  137.9576  159.3081 C   0  0  0  0  0  0  0  0  0  0  0  0
  150.9916  138.5681  158.2279 C   0  0  0  0  0  0  0  0  0  0  0  0
  151.7380  138.8834  156.9684 C   0  0  0  0  0  0  0  0  0  0  0  0
  153.0334  138.5974  156.7913 N   0  0  0  0  0  0  0  0  0  0  0  0
  153.3355  139.0108  155.5096 N   0  0  0  0  0  0  0  0  0  0  0  0
  152.1896  139.4965  155.0359 C   0  0  0  0  0  0  0  0  0  0  0  0
  151.1560  139.4524  155.8913 N   0  0  0  0  0  0  0  0  0  0  0  0
  149.7901  139.9010  155.6784 C   0  0  0  0  0  0  0  0  0  0  0  0
  149.7153  141.3973  155.3335 C   0  0  0  0  0  0  0  0  0  0  0  0
  149.7371  142.2372  156.5478 N   0  3  0  0  0  0  0  0  0  0  0  0
  151.0034  142.1736  157.3030 C   0  0  0  0  0  0  0  0  0  0  0  0
  151.0063  143.1799  158.4685 C   0  0  2  0  0  0  0  0  0  0  0  0
  150.9951  144.6672  157.9961 C   0  0  0  0  0  0  0  0  0  0  0  0
  152.2202  145.2768  158.7161 C   0  0  1  0  0  0  0  0  0  0  0  0
  151.9590  145.2392  160.2071 C   0  0  0  0  0  0  0  0  0  0  0  0
  152.0058  143.9605  160.5857 C   0  0  0  0  0  0  0  0  0  0  0  0
  152.2858  143.1342  159.3474 C   0  0  2  0  0  0  0  0  0  0  0  0
  153.1988  144.1064  158.5885 C   0  0  0  0  0  0  0  0  0  0  0  0
  151.3229  137.7451  160.2136 H   0  0  0  0  0  0  0  0  0  0  0  0
  152.7014  138.6370  159.5753 H   0  0  0  0  0  0  0  0  0  0  0  0
  152.3377  137.0228  158.9678 H   0  0  0  0  0  0  0  0  0  0  0  0
  150.1619  137.8969  158.0078 H   0  0  0  0  0  0  0  0  0  0  0  0
  150.5441  139.4884  158.6048 H   0  0  0  0  0  0  0  0  0  0  0  0
  152.1032  139.8994  154.0374 H   0  0  0  0  0  0  0  0  0  0  0  0
  149.3442  139.3025  154.8828 H   0  0  0  0  0  0  0  0  0  0  0  0
  149.2120  139.6939  156.5793 H   0  0  0  0  0  0  0  0  0  0  0  0
  150.5647  141.6676  154.7049 H   0  0  0  0  0  0  0  0  0  0  0  0
  148.8137  141.6105  154.7580 H   0  0  0  0  0  0  0  0  0  0  0  0
  149.5749  143.1970  156.2782 H   0  0  0  0  0  0  0  0  0  0  0  0
  151.1628  141.1571  157.6636 H   0  0  0  0  0  0  0  0  0  0  0  0
  151.8246  142.4016  156.6222 H   0  0  0  0  0  0  0  0  0  0  0  0
  150.1270  142.9889  159.0871 H   0  0  0  0  0  0  0  0  0  0  0  0
  151.1129  144.7437  156.9141 H   0  0  0  0  0  0  0  0  0  0  0  0
  150.0685  145.1772  158.2634 H   0  0  0  0  0  0  0  0  0  0  0  0
  152.5800  146.2334  158.3361 H   0  0  0  0  0  0  0  0  0  0  0  0
  151.7472  146.1039  160.8185 H   0  0  0  0  0  0  0  0  0  0  0  0
  151.8377  143.5567  161.5732 H   0  0  0  0  0  0  0  0  0  0  0  0
  152.7104  142.1504  159.5489 H   0  0  0  0  0  0  0  0  0  0  0  0
  153.4100  143.8176  157.5577 H   0  0  0  0  0  0  0  0  0  0  0  0
  154.1466  144.2872  159.1001 H   0  0  0  0  0  0  0  0  0  0  0  0
  148.9873  141.9412  157.1564 H   0  0  0  0  0  0  0  0  0  0  0  0
  1  2  1  0  0  0  0
  1 19  1  0  0  0  0
  1 20  1  0  0  0  0
  1 21  1  0  0  0  0
  2  3  1  0  0  0  0
  2 22  1  0  0  0  0
  2 23  1  0  0  0  0
  3  7  1  0  0  0  0
  3  4  2  0  0  0  0
  4  5  1  0  0  0  0
  5  6  2  0  0  0  0
  6  7  1  0  0  0  0
  6 24  1  0  0  0  0
  7  8  1  0  0  0  0
  8  9  1  0  0  0  0
  8 25  1  0  0  0  0
  8 26  1  0  0  0  0
  9 10  1  0  0  0  0
  9 27  1  0  0  0  0
  9 28  1  0  0  0  0
 10 11  1  0  0  0  0
 10 29  1  0  0  0  0
 10 41  1  0  0  0  0
 11 12  1  0  0  0  0
 11 30  1  0  0  0  0
 11 31  1  0  0  0  0
 12 17  1  0  0  0  0
 12 13  1  0  0  0  0
 12 32  1  0  0  0  0
 13 14  1  0  0  0  0
 13 33  1  0  0  0  0
 13 34  1  0  0  0  0
 14 18  1  0  0  0  0
 14 15  1  0  0  0  0
 14 35  1  0  0  0  0
 15 16  2  0  0  0  0
 15 36  1  0  0  0  0
 16 17  1  0  0  0  0
 16 37  1  0  0  0  0
 17 18  1  0  0  0  0
 17 38  1  0  0  0  0
 18 39  1  0  0  0  0
 18 40  1  0  0  0  0
M  CHG  1  10   1
M  END
> <s_m_source_file>
AV-unprocessed.smi

> <i_m_source_file_index>
3226

> <i_lp_mmshare_version>
43012

> <i_f3d_flags>
0

> <s_epik_input>
W0NIM11bQ0gyXWMxbm5bY0hdbjFbQ0gyXVtDSDJdW05IXVtDSDJdW0NASF0oW0NIMl1bQ0BASF0yMylbQ0BASF0oW0NIMl0zKVtDSF09W0NIXTI=

> <s_epik_cmdline>
J2VwaWtfcHl0aG9uJywgJy1waCcsICc3LjAnLCAnLXRuJywgJzgnLCAnLW1hJywgJzIwMCcsICctbWV0YWxfYmluZGluZycsICctaW1hZScsICc8aW5maWxlLm1hZT4nLCAnLW9tYWUnLCAnPG91dGZpbGUubWFlPic=

> <r_lp_tautomer_probability>
1

> <r_epik_Ionization_Penalty>
0.00175008

> <r_epik_Ionization_Penalty_Charging>
0.00173932

> <r_epik_Ionization_Penalty_Neutral>
1.07546e-05

> <r_epik_State_Penalty>
-0

> <r_epik_Charging_Adjusted_Penalty>
0.00173932

> <i_epik_Tot_Q>
1

> <i_epik_Tot_abs_Q>
1

> <r_epik_Metal_State_Penalty>
-0

> <b_epik_Metal_Only>
0

> <s_lp_Force_Field>
OPLS_2005

> <r_lp_Energy>
64.8147

> <b_lp_Chiralities_Consistent>
1

> <s_lp_Variant>
AV-unprocessed.smi:3226-1

> <Gold.Version>
5.8.1

> <Gold.Id.Protein>
6NUR|6NUR_protein|mol2

> <Gold.PLP.Fitness>
51.3747

> <Gold.PLP.PLP>
-42.6636

> <Gold.PLP.part.hbond>
-2.9915

> <Gold.PLP.part.metal>
0.0000

> <Gold.PLP.part.buried>
-3.6485

> <Gold.PLP.part.nonpolar>
-36.6761

> <Gold.PLP.part.repulsive>
0.0507

> <Gold.PLP.ligand.clash>
0.0000

> <Gold.PLP.ligand.torsion>
0.1605

> <Gold.PLP.Chemscore.Hbond>
3.0000

> <Gold.PLP.Chemscore.CHOScore>
0.0000

> <Gold.PLP.Chemscore.Metal>
0.0000

> <Gold.Chemscore.Hbonds>
donor molecule, donor type, donor heavy atom, donor atom, acceptor molecule, acceptor atom, score
      L1  H    10    29       P1  8028  2.00
      P1  H  7997  8008       L1     5  0.80

> <Gold.PLP.Chemscore.Internal.Correction>
0.0321

> <Gold.Rescore>
     Score         DG    S(hbond)    S(metal)    S(lipo)     H(rot)  DE(clash)    DE(int)     intcor
     18.26     -18.77       1.66        0.00     111.36       2.06       0.08       0.43       ----

> <Gold.Chemscore.Fitness>
18.2599

> <Gold.Chemscore.DG>
-18.7747

> <Gold.Chemscore.ZeroCoef>
-5.4800

> <Gold.Chemscore.Hbond>
1.6603

> <Gold.Chemscore.Metal>
0.0000

> <Gold.Chemscore.Lipo>
111.3571

> <Gold.Chemscore.Internal_Hbond>
0.0000

> <Gold.Chemscore.DEClash>
0.0830

> <Gold.Chemscore.DEInternal>
0.4318

> <Gold.Chemscore.Rot>
2.0623

> <Gold.Chemscore.Internal.Correction>
   9.000000E+99

> <Gold.Chemscore.Hbonds>
donor molecule, donor type, donor heavy atom, donor atom, acceptor molecule, acceptor atom, score
      L1  H    10    29       P1  8028  1.00
      P1  H  7997  8008       L1     5  0.10

> <Gold.Chemscore.Hbond.Weighted>
-5.5455

> <Gold.Chemscore.Metal.Weighted>
-0.0000

> <Gold.Chemscore.Lipo.Weighted>
-13.0288

> <Gold.Chemscore.Internal_Hbond.Weighted>
0.0000

> <Gold.Chemscore.DEClash.Weighted>
0.0830

> <Gold.Chemscore.DEInternal.Weighted>
0.4318

> <Gold.Chemscore.Rot.Weighted>
5.2796

> <Gold.Chemscore.Internal.Correction.Weighted>
   9.000000E+99

> <Gold.Protein.RotatedTorsions>
[ 6907 6896 6895 6894 ] final   -8.91 input  -60.11 | X-H torsion
[ 7974 7965 7964 7962 ] final  -24.56 input  175.53 | X-H torsion
[ 8008 7997 7996 7995 ] final  -19.94 input   59.86 | X-H torsion
[ 10167 10162 10161 10158 ] final -112.54 input  -65.29 | X-H torsion
[ 10718 10713 10712 10709 ] final  178.41 input   66.30 | X-H torsion
[ 10763 10752 10751 10750 ] final  -90.02 input  -60.55 | X-H torsion
[ 11005 11000 10999 10996 ] final -112.76 input  -57.11 | X-H torsion

> <Gold.Protein.ActiveResidues>
 VAL166  LYS551  ARG553  GLY616  TRP617  ASP618  TYR619  PRO620  LYS621  CYS622 
 ASP623  PHE694  ASN695  SER759  ASP760  ASP761  ALA762  ILE779  LEU786  VAL792 
 PHE793  MET794  SER795  GLU796  ALA797  LYS798  CYS799  TRP800  GLU811  SER814 

> <Gold.Protein.RotatedAtoms>
  151.4261  135.1004  159.9628 H   0  0  0  0  0  0  0  0  0  0  0  0  # atno 6907 bound_to 6896
  152.4972  133.8661  159.7285 H   0  0  0  0  0  0  0  0  0  0  0  0  # atno 6908 bound_to 6896
  150.9188  133.6847  159.2865 H   0  0  0  0  0  0  0  0  0  0  0  0  # atno 6909 bound_to 6896
  146.1547  140.4767  142.8596 H   0  0  0  0  0  0  0  0  0  0  0  0  # atno 7974 bound_to 7965
  154.4803  140.2075  155.9781 H   0  0  0  0  0  0  0  0  0  0  0  0  # atno 8008 bound_to 7997
  156.1154  140.3222  155.8101 H   0  0  0  0  0  0  0  0  0  0  0  0  # atno 8009 bound_to 7997
  155.4562  140.0520  157.2986 H   0  0  0  0  0  0  0  0  0  0  0  0  # atno 8010 bound_to 7997
  140.1217  143.4438  152.1687 H   0  0  0  0  0  0  0  0  0  0  0  0  # atno 10167 bound_to 10162
  156.8910  130.9847  151.3049 H   0  0  0  0  0  0  0  0  0  0  0  0  # atno 10718 bound_to 10713
  154.6615  135.5319  153.8023 H   0  0  0  0  0  0  0  0  0  0  0  0  # atno 10763 bound_to 10752
  153.0444  135.6507  154.0865 H   0  0  0  0  0  0  0  0  0  0  0  0  # atno 10764 bound_to 10752
  154.0773  135.2949  155.3277 H   0  0  0  0  0  0  0  0  0  0  0  0  # atno 10765 bound_to 10752
  141.0655  133.9465  157.2586 H   0  0  0  0  0  0  0  0  0  0  0  0  # atno 11005 bound_to 11000
  144.7948  140.6102  143.6517 LP  0  0  0  0  0  0  0  0  0  0  0  0  # atno 17320 bound_to 7965
  145.4737  139.1501  143.3800 LP  0  0  0  0  0  0  0  0  0  0  0  0  # atno 17321 bound_to 7965
  139.5565  144.7376  151.4278 LP  0  0  0  0  0  0  0  0  0  0  0  0  # atno 17342 bound_to 10162
  140.6868  143.7954  150.7198 LP  0  0  0  0  0  0  0  0  0  0  0  0  # atno 17343 bound_to 10162
  157.6083  130.8564  149.8911 LP  0  0  0  0  0  0  0  0  0  0  0  0  # atno 17370 bound_to 10713
  156.0629  130.3697  150.0942 LP  0  0  0  0  0  0  0  0  0  0  0  0  # atno 17371 bound_to 10713
  139.9473  135.0182  156.8889 LP  0  0  0  0  0  0  0  0  0  0  0  0  # atno 17394 bound_to 11000
  140.5781  134.0379  155.7454 LP  0  0  0  0  0  0  0  0  0  0  0  0  # atno 17395 bound_to 11000

$$$$
