AV-unprocessed.smi:620|AV-procd|sdf|3088|dock2
  -GOLD-   22720 0 13D 1   1.00000     0.00000
 Structure written by MMmdl.
 32 34  0  0  0  0  0  0  0  0  2 V2000
  145.5101  134.8614  162.5647 C   0  0  0  0  0  0  0  0  0  0  0  0
  146.5753  135.4607  161.7120 C   0  0  0  0  0  0  0  0  0  0  0  0
  147.0036  136.7152  161.8590 N   0  0  0  0  0  0  0  0  0  0  0  0
  147.9959  137.0364  160.9460 N   0  0  0  0  0  0  0  0  0  0  0  0
  148.3139  136.0255  160.1159 C   0  0  0  0  0  0  0  0  0  0  0  0
  149.2401  136.0578  159.1310 N   0  5  0  0  0  0  0  0  0  0  0  0
  150.0237  137.1220  158.8195 C   0  0  0  0  0  0  0  0  0  0  0  0
  151.0570  137.4815  159.3872 O   0  0  0  0  0  0  0  0  0  0  0  0
  149.5648  137.8171  157.7674 N   0  0  0  0  0  0  0  0  0  0  0  0
  150.1562  139.0131  157.1718 C   0  0  0  0  0  0  0  0  0  0  0  0
  151.4826  138.7086  156.4997 C   0  0  0  0  0  0  0  0  0  0  0  0
  152.1623  139.7160  155.6026 C   0  0  0  0  0  0  0  0  0  0  0  0
  151.5615  138.4596  155.0128 C   0  0  0  0  0  0  0  0  0  0  0  0
  150.3188  140.1272  158.1898 C   0  0  0  0  0  0  0  0  0  0  0  0
  151.0540  141.3985  157.8404 C   0  0  0  0  0  0  0  0  0  0  0  0
  151.6554  140.4236  158.8278 C   0  0  0  0  0  0  0  0  0  0  0  0
  147.3697  134.5686  160.4278 S   0  0  0  0  0  0  0  0  0  0  0  0
  145.1571  135.5821  163.3032 H   0  0  0  0  0  0  0  0  0  0  0  0
  145.8991  133.9876  163.0874 H   0  0  0  0  0  0  0  0  0  0  0  0
  144.6670  134.5540  161.9459 H   0  0  0  0  0  0  0  0  0  0  0  0
  148.7159  137.4789  157.3387 H   0  0  0  0  0  0  0  0  0  0  0  0
  149.4939  139.3964  156.3936 H   0  0  0  0  0  0  0  0  0  0  0  0
  152.1484  138.1037  157.1130 H   0  0  0  0  0  0  0  0  0  0  0  0
  151.6481  140.6543  155.4049 H   0  0  0  0  0  0  0  0  0  0  0  0
  153.2472  139.7803  155.6523 H   0  0  0  0  0  0  0  0  0  0  0  0
  152.2448  137.6853  154.6701 H   0  0  0  0  0  0  0  0  0  0  0  0
  150.6458  138.5634  154.4337 H   0  0  0  0  0  0  0  0  0  0  0  0
  149.4532  140.2486  158.8387 H   0  0  0  0  0  0  0  0  0  0  0  0
  151.5114  141.4634  156.8549 H   0  0  0  0  0  0  0  0  0  0  0  0
  150.6545  142.3319  158.2315 H   0  0  0  0  0  0  0  0  0  0  0  0
  151.6579  140.7072  159.8781 H   0  0  0  0  0  0  0  0  0  0  0  0
  152.5187  139.8493  158.4979 H   0  0  0  0  0  0  0  0  0  0  0  0
  1  2  1  0  0  0  0
  1 18  1  0  0  0  0
  1 19  1  0  0  0  0
  1 20  1  0  0  0  0
  2 17  1  0  0  0  0
  2  3  2  0  0  0  0
  3  4  1  0  0  0  0
  4  5  2  0  0  0  0
  5  6  1  0  0  0  0
  5 17  1  0  0  0  0
  6  7  1  0  0  0  0
  7  8  2  0  0  0  0
  7  9  1  0  0  0  0
  9 10  1  0  0  0  0
  9 21  1  0  0  0  0
 10 11  1  0  0  0  0
 10 14  1  0  0  0  0
 10 22  1  0  0  0  0
 11 13  1  0  0  0  0
 11 12  1  0  0  0  0
 11 23  1  0  0  0  0
 12 13  1  0  0  0  0
 12 24  1  0  0  0  0
 12 25  1  0  0  0  0
 13 26  1  0  0  0  0
 13 27  1  0  0  0  0
 14 16  1  0  0  0  0
 14 15  1  0  0  0  0
 14 28  1  0  0  0  0
 15 16  1  0  0  0  0
 15 29  1  0  0  0  0
 15 30  1  0  0  0  0
 16 31  1  0  0  0  0
 16 32  1  0  0  0  0
M  CHG  1   6  -1
M  END
> <s_m_source_file>
AV-unprocessed.smi

> <i_m_source_file_index>
620

> <i_lp_mmshare_version>
43012

> <i_f3d_flags>
0

> <s_epik_input>
W0NIM11jMW5uYyhzMSlbTkhdQyg9TylbTkhdW0NIXShbQ0hdMltDSDJdW0NIMl0yKVtDSF0zW0NIMl1bQ0gyXTM=

> <s_epik_cmdline>
J2VwaWtfcHl0aG9uJywgJy1waCcsICc3LjAnLCAnLXRuJywgJzgnLCAnLW1hJywgJzIwMCcsICctbWV0YWxfYmluZGluZycsICctaW1hZScsICc8aW5maWxlLm1hZT4nLCAnLW9tYWUnLCAnPG91dGZpbGUubWFlPic=

> <r_lp_tautomer_probability>
1

> <r_epik_Ionization_Penalty>
4.60723

> <r_epik_Ionization_Penalty_Charging>
4.45392

> <r_epik_Ionization_Penalty_Neutral>
0.153307

> <r_epik_State_Penalty>
4.4536

> <r_epik_Charging_Adjusted_Penalty>
8.90752

> <i_epik_Tot_Q>
-1

> <i_epik_Tot_abs_Q>
1

> <r_epik_Metal_State_Penalty>
0.796734

> <b_epik_Metal_Only>
1

> <s_lp_Force_Field>
OPLS_2005

> <r_lp_Energy>
26.5225

> <b_lp_Chiralities_Consistent>
1

> <s_lp_Variant>
AV-unprocessed.smi:620-2

> <Gold.Version>
5.8.1

> <Gold.Id.Protein>
6NUR|6NUR_protein|mol2

> <Gold.PLP.Fitness>
35.8091

> <Gold.PLP.PLP>
-27.5730

> <Gold.PLP.part.hbond>
-3.3741

> <Gold.PLP.part.metal>
0.0000

> <Gold.PLP.part.buried>
-3.7355

> <Gold.PLP.part.nonpolar>
-20.8879

> <Gold.PLP.part.repulsive>
0.0781

> <Gold.PLP.ligand.clash>
0.0000

> <Gold.PLP.ligand.torsion>
1.9457

> <Gold.PLP.Chemscore.Hbond>
3.3255

> <Gold.PLP.Chemscore.CHOScore>
0.0000

> <Gold.PLP.Chemscore.Metal>
0.0000

> <Gold.Chemscore.Hbonds>
donor molecule, donor type, donor heavy atom, donor atom, acceptor molecule, acceptor atom, score
      P1  H  6896  6908       L1     6  1.67
      P1  H  6931  6943       L1     4  0.99
      P1  H  6934  6947       L1     4  0.20

> <Gold.PLP.Chemscore.Internal.Correction>
2.1512

> <Gold.Rescore>
     Score         DG    S(hbond)    S(metal)    S(lipo)     H(rot)  DE(clash)    DE(int)     intcor
     10.65     -13.64       1.58        0.00      55.53       1.41       0.00       2.99       ----

> <Gold.Chemscore.Fitness>
10.6453

> <Gold.Chemscore.DG>
-13.6360

> <Gold.Chemscore.ZeroCoef>
-5.4800

> <Gold.Chemscore.Hbond>
1.5796

> <Gold.Chemscore.Metal>
0.0000

> <Gold.Chemscore.Lipo>
55.5278

> <Gold.Chemscore.Internal_Hbond>
0.0000

> <Gold.Chemscore.DEClash>
0.0038

> <Gold.Chemscore.DEInternal>
2.9869

> <Gold.Chemscore.Rot>
1.4127

> <Gold.Chemscore.Internal.Correction>
   9.000000E+99

> <Gold.Chemscore.Hbonds>
donor molecule, donor type, donor heavy atom, donor atom, acceptor molecule, acceptor atom, score
      P1  H  6896  6908       L1     6  0.10
      P1  H  6931  6943       L1     4  0.37

> <Gold.Chemscore.Hbond.Weighted>
-5.2757

> <Gold.Chemscore.Metal.Weighted>
-0.0000

> <Gold.Chemscore.Lipo.Weighted>
-6.4967

> <Gold.Chemscore.Internal_Hbond.Weighted>
0.0000

> <Gold.Chemscore.DEClash.Weighted>
0.0038

> <Gold.Chemscore.DEInternal.Weighted>
2.9869

> <Gold.Chemscore.Rot.Weighted>
3.6165

> <Gold.Chemscore.Internal.Correction.Weighted>
   9.000000E+99

> <Gold.Protein.RotatedTorsions>
[ 6907 6896 6895 6894 ] final  179.71 input  -60.11 | X-H torsion
[ 7974 7965 7964 7962 ] final  106.81 input  175.53 | X-H torsion
[ 8008 7997 7996 7995 ] final -178.78 input   59.86 | X-H torsion
[ 10167 10162 10161 10158 ] final   31.75 input  -65.29 | X-H torsion
[ 10718 10713 10712 10709 ] final  -11.81 input   66.30 | X-H torsion
[ 10763 10752 10751 10750 ] final -117.98 input  -60.55 | X-H torsion
[ 11005 11000 10999 10996 ] final  107.88 input  -57.11 | X-H torsion

> <Gold.Protein.ActiveResidues>
 VAL166  LYS551  ARG553  GLY616  TRP617  ASP618  TYR619  PRO620  LYS621  CYS622 
 ASP623  PHE694  ASN695  SER759  ASP760  ASP761  ALA762  ILE779  LEU786  VAL792 
 PHE793  MET794  SER795  GLU796  ALA797  LYS798  CYS799  TRP800  GLU811  SER814 

> <Gold.Protein.RotatedAtoms>
  151.6672  133.3315  159.3187 H   0  0  0  0  0  0  0  0  0  0  0  0  # atno 6907 bound_to 6896
  150.7885  134.6893  159.6497 H   0  0  0  0  0  0  0  0  0  0  0  0  # atno 6908 bound_to 6896
  152.3960  134.6368  160.0141 H   0  0  0  0  0  0  0  0  0  0  0  0  # atno 6909 bound_to 6896
  145.3018  139.2567  143.3810 H   0  0  0  0  0  0  0  0  0  0  0  0  # atno 7974 bound_to 7965
  156.0228  140.1265  157.0340 H   0  0  0  0  0  0  0  0  0  0  0  0  # atno 8008 bound_to 7997
  154.4318  140.1065  156.6058 H   0  0  0  0  0  0  0  0  0  0  0  0  # atno 8009 bound_to 7997
  155.5920  140.3469  155.4571 H   0  0  0  0  0  0  0  0  0  0  0  0  # atno 8010 bound_to 7997
  140.4560  144.0977  150.6202 H   0  0  0  0  0  0  0  0  0  0  0  0  # atno 10167 bound_to 10162
  156.6537  130.4962  149.6053 H   0  0  0  0  0  0  0  0  0  0  0  0  # atno 10718 bound_to 10713
  154.8572  135.4290  154.2065 H   0  0  0  0  0  0  0  0  0  0  0  0  # atno 10763 bound_to 10752
  153.3100  135.6975  153.7130 H   0  0  0  0  0  0  0  0  0  0  0  0  # atno 10764 bound_to 10752
  153.6226  135.3499  155.2990 H   0  0  0  0  0  0  0  0  0  0  0  0  # atno 10765 bound_to 10752
  139.8835  134.9414  156.5888 H   0  0  0  0  0  0  0  0  0  0  0  0  # atno 11005 bound_to 11000
  146.3149  140.3534  142.8658 LP  0  0  0  0  0  0  0  0  0  0  0  0  # atno 17320 bound_to 7965
  144.9087  140.7731  143.5821 LP  0  0  0  0  0  0  0  0  0  0  0  0  # atno 17321 bound_to 7965
  140.4150  143.2638  151.9786 LP  0  0  0  0  0  0  0  0  0  0  0  0  # atno 17342 bound_to 10162
  139.4801  144.5881  151.7818 LP  0  0  0  0  0  0  0  0  0  0  0  0  # atno 17343 bound_to 10162
  156.2065  130.6652  151.1223 LP  0  0  0  0  0  0  0  0  0  0  0  0  # atno 17370 bound_to 10713
  157.7132  131.0723  150.6423 LP  0  0  0  0  0  0  0  0  0  0  0  0  # atno 17371 bound_to 10713
  140.7971  133.8535  155.8695 LP  0  0  0  0  0  0  0  0  0  0  0  0  # atno 17394 bound_to 11000
  140.9625  134.1637  157.4642 LP  0  0  0  0  0  0  0  0  0  0  0  0  # atno 17395 bound_to 11000

$$$$
