AV-unprocessed.smi:1576|AV-procd|sdf|6348|dock10
  -GOLD-   22720 6563D 1   1.00000     0.00000
 Structure written by MMmdl.
 45 47  0  0  0  0  0  0  0  0  3 V2000
  146.4848  139.9190  154.2681 O   0  0  0  0  0  0  0  0  0  0  0  0
  147.2576  139.4817  153.4080 C   0  0  0  0  0  0  0  0  0  0  0  0
  148.5842  139.6687  153.5272 N   0  0  0  0  0  0  0  0  0  0  0  0
  149.3018  140.3876  154.5201 C   0  0  0  0  0  0  0  0  0  0  0  0
  150.5400  139.8632  154.9478 C   0  0  0  0  0  0  0  0  0  0  0  0
  151.2961  140.5562  155.9150 C   0  0  0  0  0  0  0  0  0  0  0  0
  150.8045  141.7759  156.4335 C   0  0  0  0  0  0  0  0  0  0  0  0
  151.4848  142.5345  157.3948 N   0  0  0  0  0  0  0  0  0  0  0  0
  151.5606  143.9520  157.0503 C   0  0  0  0  0  0  0  0  0  0  0  0
  152.4741  144.7064  158.0324 C   0  0  0  0  0  0  0  0  0  0  0  0
  152.0274  144.4772  159.4854 C   0  0  0  0  0  0  0  0  0  0  0  0
  151.9366  142.9717  159.7821 C   0  0  0  0  0  0  0  0  0  0  0  0
  151.0336  142.2641  158.7572 C   0  0  0  0  0  0  0  0  0  0  0  0
  149.6230  142.2546  155.9872 N   0  3  0  0  0  0  0  0  0  0  0  0
  148.8681  141.6212  155.0632 C   0  0  0  0  0  0  0  0  0  0  0  0
  146.9409  138.7684  152.2941 N   0  5  0  0  0  0  0  0  0  0  0  0
  145.9467  137.6926  152.2422 C   0  0  1  0  0  0  0  0  0  0  0  0
  145.9891  136.9737  150.8791 C   0  0  0  0  0  0  0  0  0  0  0  0
  145.2045  135.6591  150.9929 C   0  0  0  0  0  0  0  0  0  0  0  0
  145.4414  135.0865  152.7197 S   0  0  0  0  0  0  0  0  0  0  0  0
  144.1235  134.8989  153.3468 O   0  0  0  0  0  0  0  0  0  0  0  0
  146.4473  134.0132  152.7472 O   0  0  0  0  0  0  0  0  0  0  0  0
  146.2053  136.6398  153.3321 C   0  0  0  0  0  0  0  0  0  0  0  0
  149.1483  139.1916  152.8392 H   0  0  0  0  0  0  0  0  0  0  0  0
  150.9082  138.9319  154.5425 H   0  0  0  0  0  0  0  0  0  0  0  0
  152.2407  140.1538  156.2496 H   0  0  0  0  0  0  0  0  0  0  0  0
  151.9383  144.0642  156.0330 H   0  0  0  0  0  0  0  0  0  0  0  0
  150.5601  144.3866  157.0698 H   0  0  0  0  0  0  0  0  0  0  0  0
  153.5033  144.3662  157.9093 H   0  0  0  0  0  0  0  0  0  0  0  0
  152.4711  145.7721  157.8028 H   0  0  0  0  0  0  0  0  0  0  0  0
  152.7228  144.9569  160.1747 H   0  0  0  0  0  0  0  0  0  0  0  0
  151.0546  144.9427  159.6481 H   0  0  0  0  0  0  0  0  0  0  0  0
  152.9350  142.5332  159.7531 H   0  0  0  0  0  0  0  0  0  0  0  0
  151.5566  142.8099  160.7909 H   0  0  0  0  0  0  0  0  0  0  0  0
  150.0040  142.6044  158.8763 H   0  0  0  0  0  0  0  0  0  0  0  0
  151.0381  141.1885  158.9396 H   0  0  0  0  0  0  0  0  0  0  0  0
  147.9584  142.1335  154.7878 H   0  0  0  0  0  0  0  0  0  0  0  0
  144.9313  138.0698  152.3745 H   0  0  0  0  0  0  0  0  0  0  0  0
  145.5982  137.6015  150.0778 H   0  0  0  0  0  0  0  0  0  0  0  0
  147.0237  136.7395  150.6233 H   0  0  0  0  0  0  0  0  0  0  0  0
  144.1376  135.8190  150.8301 H   0  0  0  0  0  0  0  0  0  0  0  0
  145.5512  134.8990  150.2932 H   0  0  0  0  0  0  0  0  0  0  0  0
  147.2721  136.4550  153.4625 H   0  0  0  0  0  0  0  0  0  0  0  0
  145.7787  136.9158  154.2964 H   0  0  0  0  0  0  0  0  0  0  0  0
  149.2845  143.1406  156.3624 H   0  0  0  0  0  0  0  0  0  0  0  0
  1  2  2  0  0  0  0
  2  3  1  0  0  0  0
  2 16  1  0  0  0  0
  3  4  1  0  0  0  0
  3 24  1  0  0  0  0
  4 15  1  0  0  0  0
  4  5  2  0  0  0  0
  5  6  1  0  0  0  0
  5 25  1  0  0  0  0
  6  7  2  0  0  0  0
  6 26  1  0  0  0  0
  7  8  1  0  0  0  0
  7 14  1  0  0  0  0
  8 13  1  0  0  0  0
  8  9  1  0  0  0  0
  9 10  1  0  0  0  0
  9 27  1  0  0  0  0
  9 28  1  0  0  0  0
 10 11  1  0  0  0  0
 10 29  1  0  0  0  0
 10 30  1  0  0  0  0
 11 12  1  0  0  0  0
 11 31  1  0  0  0  0
 11 32  1  0  0  0  0
 12 13  1  0  0  0  0
 12 33  1  0  0  0  0
 12 34  1  0  0  0  0
 13 35  1  0  0  0  0
 13 36  1  0  0  0  0
 14 15  2  0  0  0  0
 14 45  1  0  0  0  0
 15 37  1  0  0  0  0
 16 17  1  0  0  0  0
 17 23  1  0  0  0  0
 17 18  1  0  0  0  0
 17 38  1  0  0  0  0
 18 19  1  0  0  0  0
 18 39  1  0  0  0  0
 18 40  1  0  0  0  0
 19 20  1  0  0  0  0
 19 41  1  0  0  0  0
 19 42  1  0  0  0  0
 20 21  2  0  0  0  0
 20 22  2  0  0  0  0
 20 23  1  0  0  0  0
 23 43  1  0  0  0  0
 23 44  1  0  0  0  0
M  CHG  1  14   1
M  CHG  1  16  -1
M  END
> <s_m_source_file>
AV-unprocessed.smi

> <i_m_source_file_index>
1576

> <i_lp_mmshare_version>
43012

> <i_f3d_flags>
0

> <s_epik_input>
Tz1TMSg9TylbQ0gyXVtDSDJdW0NASF0oW0NIMl0xKVtOSF1DKD1PKVtOSF1jMltjSF1bY0hdYyhuW2NIXTIpTjNbQ0gyXVtDSDJdW0NIMl1bQ0gyXVtDSDJdMw==

> <s_epik_cmdline>
J2VwaWtfcHl0aG9uJywgJy1waCcsICc3LjAnLCAnLXRuJywgJzgnLCAnLW1hJywgJzIwMCcsICctbWV0YWxfYmluZGluZycsICctaW1hZScsICc8aW5maWxlLm1hZT4nLCAnLW9tYWUnLCAnPG91dGZpbGUubWFlPic=

> <r_lp_tautomer_probability>
0.999994

> <r_epik_Ionization_Penalty>
8.26491

> <r_epik_Ionization_Penalty_Charging>
8.26491

> <r_epik_Ionization_Penalty_Neutral>
3.15169e-06

> <r_epik_State_Penalty>
7.8977

> <r_epik_Charging_Adjusted_Penalty>
16.1626

> <i_epik_Tot_Q>
0

> <i_epik_Tot_abs_Q>
2

> <r_epik_Metal_State_Penalty>
3.88896

> <b_epik_Metal_Only>
1

> <s_lp_Force_Field>
OPLS_2005

> <r_lp_Energy>
27.2537

> <b_lp_Chiralities_Consistent>
1

> <s_lp_Variant>
AV-unprocessed.smi:1576-6

> <Gold.Version>
5.8.1

> <Gold.Id.Protein>
6NUR|6NUR_protein|mol2

> <Gold.PLP.Fitness>
46.3487

> <Gold.PLP.PLP>
-42.8257

> <Gold.PLP.part.hbond>
-2.0000

> <Gold.PLP.part.metal>
0.0000

> <Gold.PLP.part.buried>
1.1438

> <Gold.PLP.part.nonpolar>
-43.1773

> <Gold.PLP.part.repulsive>
0.8924

> <Gold.PLP.ligand.clash>
0.0000

> <Gold.PLP.ligand.torsion>
1.1687

> <Gold.PLP.Chemscore.Hbond>
1.9040

> <Gold.PLP.Chemscore.CHOScore>
0.0000

> <Gold.PLP.Chemscore.Metal>
0.0000

> <Gold.Chemscore.Hbonds>
donor molecule, donor type, donor heavy atom, donor atom, acceptor molecule, acceptor atom, score
      L1  H     3    24       P1  7957  0.43
      L1  H    14    45       P1  8028  1.41

> <Gold.PLP.Chemscore.Internal.Correction>
0.1484

> <Gold.Rescore>
     Score         DG    S(hbond)    S(metal)    S(lipo)     H(rot)  DE(clash)    DE(int)     intcor
     15.93     -19.24       1.18        0.00     111.10       1.24       1.18       2.14       ----

> <Gold.Chemscore.Fitness>
15.9273

> <Gold.Chemscore.DG>
-19.2389

> <Gold.Chemscore.ZeroCoef>
-5.4800

> <Gold.Chemscore.Hbond>
1.1753

> <Gold.Chemscore.Metal>
0.0000

> <Gold.Chemscore.Lipo>
111.1038

> <Gold.Chemscore.Internal_Hbond>
0.0000

> <Gold.Chemscore.DEClash>
1.1757

> <Gold.Chemscore.DEInternal>
2.1359

> <Gold.Chemscore.Rot>
1.2366

> <Gold.Chemscore.Internal.Correction>
   9.000000E+99

> <Gold.Chemscore.Hbonds>
donor molecule, donor type, donor heavy atom, donor atom, acceptor molecule, acceptor atom, score
      L1  H     3    24       P1  7957  0.44
      L1  H    14    45       P1  8028  0.70

> <Gold.Chemscore.Hbond.Weighted>
-3.9255

> <Gold.Chemscore.Metal.Weighted>
-0.0000

> <Gold.Chemscore.Lipo.Weighted>
-12.9991

> <Gold.Chemscore.Internal_Hbond.Weighted>
0.0000

> <Gold.Chemscore.DEClash.Weighted>
1.1757

> <Gold.Chemscore.DEInternal.Weighted>
2.1359

> <Gold.Chemscore.Rot.Weighted>
3.1657

> <Gold.Chemscore.Internal.Correction.Weighted>
   9.000000E+99

> <Gold.Protein.RotatedTorsions>
[ 6907 6896 6895 6894 ] final   22.82 input  -60.11 | X-H torsion
[ 7974 7965 7964 7962 ] final  157.70 input  175.53 | X-H torsion
[ 8008 7997 7996 7995 ] final -146.70 input   59.86 | X-H torsion
[ 10167 10162 10161 10158 ] final  -67.98 input  -65.29 | X-H torsion
[ 10718 10713 10712 10709 ] final  -38.03 input   66.30 | X-H torsion
[ 10763 10752 10751 10750 ] final   -4.06 input  -60.55 | X-H torsion
[ 11005 11000 10999 10996 ] final  160.97 input  -57.11 | X-H torsion

> <Gold.Protein.ActiveResidues>
 VAL166  LYS551  ARG553  GLY616  TRP617  ASP618  TYR619  PRO620  LYS621  CYS622 
 ASP623  PHE694  ASN695  SER759  ASP760  ASP761  ALA762  ILE779  LEU786  VAL792 
 PHE793  MET794  SER795  GLU796  ALA797  LYS798  CYS799  TRP800  GLU811  SER814 

> <Gold.Protein.RotatedAtoms>
  151.9329  135.0248  160.0530 H   0  0  0  0  0  0  0  0  0  0  0  0  # atno 6907 bound_to 6896
  152.2103  133.4901  159.5114 H   0  0  0  0  0  0  0  0  0  0  0  0  # atno 6908 bound_to 6896
  150.6974  134.1393  159.4141 H   0  0  0  0  0  0  0  0  0  0  0  0  # atno 6909 bound_to 6896
  144.7888  139.7377  143.6230 H   0  0  0  0  0  0  0  0  0  0  0  0  # atno 7974 bound_to 7965
  155.5637  140.0627  157.2823 H   0  0  0  0  0  0  0  0  0  0  0  0  # atno 8008 bound_to 7997
  154.4382  140.1881  156.0853 H   0  0  0  0  0  0  0  0  0  0  0  0  # atno 8009 bound_to 7997
  156.0428  140.3293  155.7266 H   0  0  0  0  0  0  0  0  0  0  0  0  # atno 8010 bound_to 7997
  140.5542  143.2312  151.6853 H   0  0  0  0  0  0  0  0  0  0  0  0  # atno 10167 bound_to 10162
  156.3084  130.4249  149.8074 H   0  0  0  0  0  0  0  0  0  0  0  0  # atno 10718 bound_to 10713
  153.3797  135.6998  153.6574 H   0  0  0  0  0  0  0  0  0  0  0  0  # atno 10763 bound_to 10752
  153.5190  135.3616  155.2623 H   0  0  0  0  0  0  0  0  0  0  0  0  # atno 10764 bound_to 10752
  154.8691  135.4153  154.3093 H   0  0  0  0  0  0  0  0  0  0  0  0  # atno 10765 bound_to 10752
  140.2112  134.8266  157.3123 H   0  0  0  0  0  0  0  0  0  0  0  0  # atno 11005 bound_to 11000
  146.2131  139.5502  142.9668 LP  0  0  0  0  0  0  0  0  0  0  0  0  # atno 17320 bound_to 7965
  145.5850  141.0377  143.2101 LP  0  0  0  0  0  0  0  0  0  0  0  0  # atno 17321 bound_to 7965
  139.5040  144.3768  152.0416 LP  0  0  0  0  0  0  0  0  0  0  0  0  # atno 17342 bound_to 10162
  140.2888  144.3777  150.6095 LP  0  0  0  0  0  0  0  0  0  0  0  0  # atno 17343 bound_to 10162
  156.5426  130.8306  151.3274 LP  0  0  0  0  0  0  0  0  0  0  0  0  # atno 17370 bound_to 10713
  157.7385  130.9815  150.2257 LP  0  0  0  0  0  0  0  0  0  0  0  0  # atno 17371 bound_to 10713
  140.1949  134.4326  155.7695 LP  0  0  0  0  0  0  0  0  0  0  0  0  # atno 17394 bound_to 11000
  141.2226  133.7044  156.8088 LP  0  0  0  0  0  0  0  0  0  0  0  0  # atno 17395 bound_to 11000

$$$$
