AV-unprocessed.smi:3191|AV-procd|sdf|12199|dock7
  -GOLD-   2272018 33D 1   1.00000     0.00000
 Structure written by MMmdl.
 35 36  0  0  0  0  0  0  0  0  1 V2000
  148.3829  138.7172  153.7573 C   0  0  0  0  0  0  0  0  0  0  0  0
  149.7436  138.8494  154.2381 N   0  0  0  0  0  0  0  0  0  0  0  0
  150.7179  137.9332  154.1564 C   0  0  0  0  0  0  0  0  0  0  0  0
  151.8758  138.3144  154.6780 N   0  0  0  0  0  0  0  0  0  0  0  0
  151.6212  139.6023  155.1409 C   0  0  0  0  0  0  0  0  0  0  0  0
  150.3119  139.9472  154.8786 C   0  0  0  0  0  0  0  0  0  0  0  0
  149.5509  141.2040  155.1708 C   0  0  0  0  0  0  0  0  0  0  0  0
  149.2793  141.4451  156.6663 C   0  0  0  0  0  0  0  0  0  0  0  0
  149.8454  142.7110  157.1177 N   0  0  0  0  0  0  0  0  0  0  0  0
  150.7374  142.8467  158.1108 C   0  0  0  0  0  0  0  0  0  0  0  0
  151.1755  141.8881  158.7480 O   0  0  0  0  0  0  0  0  0  0  0  0
  151.1506  144.2647  158.3580 C   0  0  2  0  0  0  0  0  0  0  0  0
  152.5838  144.6508  158.0554 C   0  0  0  0  0  0  0  0  0  0  0  0
  152.1157  144.6020  159.4929 C   0  0  0  0  0  0  0  0  0  0  0  0
  151.8918  145.8972  160.2537 C   0  0  0  0  0  0  0  0  0  0  0  0
  152.6937  143.5487  160.4305 C   0  0  0  0  0  0  0  0  0  0  0  0
  150.3894  145.0141  158.1446 H   0  0  0  0  0  0  0  0  0  0  0  0
  148.2446  137.7492  153.2746 H   0  0  0  0  0  0  0  0  0  0  0  0
  148.1693  139.5058  153.0352 H   0  0  0  0  0  0  0  0  0  0  0  0
  147.6880  138.7985  154.5934 H   0  0  0  0  0  0  0  0  0  0  0  0
  150.5762  136.9627  153.7037 H   0  0  0  0  0  0  0  0  0  0  0  0
  152.3964  140.1784  155.6249 H   0  0  0  0  0  0  0  0  0  0  0  0
  150.1030  142.0511  154.7620 H   0  0  0  0  0  0  0  0  0  0  0  0
  148.6011  141.1756  154.6356 H   0  0  0  0  0  0  0  0  0  0  0  0
  148.2049  141.4742  156.8502 H   0  0  0  0  0  0  0  0  0  0  0  0
  149.6770  140.6250  157.2667 H   0  0  0  0  0  0  0  0  0  0  0  0
  149.5350  143.5455  156.6412 H   0  0  0  0  0  0  0  0  0  0  0  0
  153.2738  143.8773  157.7222 H   0  0  0  0  0  0  0  0  0  0  0  0
  152.7437  145.6260  157.5999 H   0  0  0  0  0  0  0  0  0  0  0  0
  152.8332  146.2689  160.6598 H   0  0  0  0  0  0  0  0  0  0  0  0
  151.1950  145.7375  161.0772 H   0  0  0  0  0  0  0  0  0  0  0  0
  151.4781  146.6650  159.5991 H   0  0  0  0  0  0  0  0  0  0  0  0
  153.5256  143.9625  161.0010 H   0  0  0  0  0  0  0  0  0  0  0  0
  153.0740  142.6873  159.8829 H   0  0  0  0  0  0  0  0  0  0  0  0
  151.9309  143.2070  161.1306 H   0  0  0  0  0  0  0  0  0  0  0  0
  1  2  1  0  0  0  0
  1 18  1  0  0  0  0
  1 19  1  0  0  0  0
  1 20  1  0  0  0  0
  2  6  1  0  0  0  0
  2  3  1  0  0  0  0
  3  4  2  0  0  0  0
  3 21  1  0  0  0  0
  4  5  1  0  0  0  0
  5  6  2  0  0  0  0
  5 22  1  0  0  0  0
  6  7  1  0  0  0  0
  7  8  1  0  0  0  0
  7 23  1  0  0  0  0
  7 24  1  0  0  0  0
  8  9  1  0  0  0  0
  8 25  1  0  0  0  0
  8 26  1  0  0  0  0
  9 10  1  0  0  0  0
  9 27  1  0  0  0  0
 10 11  2  0  0  0  0
 10 12  1  0  0  0  0
 12 17  1  0  0  0  0
 12 14  1  0  0  0  0
 12 13  1  0  0  0  0
 13 14  1  0  0  0  0
 13 28  1  0  0  0  0
 13 29  1  0  0  0  0
 14 15  1  0  0  0  0
 14 16  1  0  0  0  0
 15 30  1  0  0  0  0
 15 31  1  0  0  0  0
 15 32  1  0  0  0  0
 16 33  1  0  0  0  0
 16 34  1  0  0  0  0
 16 35  1  0  0  0  0
M  END
> <s_m_source_file>
AV-unprocessed.smi

> <i_m_source_file_index>
3191

> <i_lp_mmshare_version>
43012

> <i_f3d_flags>
0

> <s_epik_input>
W0NIM11uMVtjSF1uW2NIXWMxW0NIMl1bQ0gyXVtOSF1DKD1PKVtDQEBIXShbQ0gyXTIpQzIoW0NIM10pW0NIM10=

> <s_epik_cmdline>
J2VwaWtfcHl0aG9uJywgJy1waCcsICc3LjAnLCAnLXRuJywgJzgnLCAnLW1hJywgJzIwMCcsICctbWV0YWxfYmluZGluZycsICctaW1hZScsICc8aW5maWxlLm1hZT4nLCAnLW9tYWUnLCAnPG91dGZpbGUubWFlPic=

> <r_lp_tautomer_probability>
1

> <r_epik_Ionization_Penalty>
0.874249

> <r_epik_Ionization_Penalty_Charging>
0.874249

> <r_epik_Ionization_Penalty_Neutral>
1.97773e-08

> <r_epik_State_Penalty>
0.911868

> <r_epik_Charging_Adjusted_Penalty>
1.78612

> <i_epik_Tot_Q>
0

> <i_epik_Tot_abs_Q>
0

> <r_epik_Metal_State_Penalty>
0.361186

> <b_epik_Metal_Only>
0

> <s_lp_Force_Field>
OPLS_2005

> <r_lp_Energy>
11.6999

> <b_lp_Chiralities_Consistent>
1

> <s_lp_Variant>
AV-unprocessed.smi:3191-4

> <Gold.Version>
5.8.1

> <Gold.Id.Protein>
6NUR|6NUR_protein|mol2

> <Gold.PLP.Fitness>
45.0938

> <Gold.PLP.PLP>
-39.6274

> <Gold.PLP.part.hbond>
-1.0000

> <Gold.PLP.part.metal>
0.0000

> <Gold.PLP.part.buried>
-1.5417

> <Gold.PLP.part.nonpolar>
-37.8831

> <Gold.PLP.part.repulsive>
0.1110

> <Gold.PLP.ligand.clash>
0.0000

> <Gold.PLP.ligand.torsion>
0.5026

> <Gold.PLP.Chemscore.Hbond>
1.0000

> <Gold.PLP.Chemscore.CHOScore>
1.1271

> <Gold.PLP.Chemscore.Metal>
0.0000

> <Gold.Chemscore.Hbonds>
donor molecule, donor type, donor heavy atom, donor atom, acceptor molecule, acceptor atom, score
      L1  H     9    27       P1  8028  1.00
      L1  C     3    21       P1  7948  0.54
      L1  C     3    21       P1  7949  0.58

> <Gold.PLP.Chemscore.Internal.Correction>
0.0904

> <Gold.Rescore>
     Score         DG    S(hbond)    S(metal)    S(lipo)     H(rot)  DE(clash)    DE(int)     intcor
     13.86     -16.07       1.00        0.00      99.07       1.69       0.36       1.86       ----

> <Gold.Chemscore.Fitness>
13.8560

> <Gold.Chemscore.DG>
-16.0711

> <Gold.Chemscore.ZeroCoef>
-5.4800

> <Gold.Chemscore.Hbond>
0.9973

> <Gold.Chemscore.Metal>
0.0000

> <Gold.Chemscore.Lipo>
99.0708

> <Gold.Chemscore.Internal_Hbond>
0.0000

> <Gold.Chemscore.DEClash>
0.3559

> <Gold.Chemscore.DEInternal>
1.8592

> <Gold.Chemscore.Rot>
1.6919

> <Gold.Chemscore.Internal.Correction>
   9.000000E+99

> <Gold.Chemscore.Hbonds>
donor molecule, donor type, donor heavy atom, donor atom, acceptor molecule, acceptor atom, score
      L1  H     9    27       P1  8028  1.00

> <Gold.Chemscore.Hbond.Weighted>
-3.3310

> <Gold.Chemscore.Metal.Weighted>
-0.0000

> <Gold.Chemscore.Lipo.Weighted>
-11.5913

> <Gold.Chemscore.Internal_Hbond.Weighted>
0.0000

> <Gold.Chemscore.DEClash.Weighted>
0.3559

> <Gold.Chemscore.DEInternal.Weighted>
1.8592

> <Gold.Chemscore.Rot.Weighted>
4.3312

> <Gold.Chemscore.Internal.Correction.Weighted>
   9.000000E+99

> <Gold.Protein.RotatedTorsions>
[ 6907 6896 6895 6894 ] final -124.07 input  -60.11 | X-H torsion
[ 7974 7965 7964 7962 ] final  170.68 input  175.53 | X-H torsion
[ 8008 7997 7996 7995 ] final    2.54 input   59.86 | X-H torsion
[ 10167 10162 10161 10158 ] final  -22.09 input  -65.29 | X-H torsion
[ 10718 10713 10712 10709 ] final -115.32 input   66.30 | X-H torsion
[ 10763 10752 10751 10750 ] final  -87.30 input  -60.55 | X-H torsion
[ 11005 11000 10999 10996 ] final -102.73 input  -57.11 | X-H torsion

> <Gold.Protein.ActiveResidues>
 VAL166  LYS551  ARG553  GLY616  TRP617  ASP618  TYR619  PRO620  LYS621  CYS622 
 ASP623  PHE694  ASN695  SER759  ASP760  ASP761  ALA762  ILE779  LEU786  VAL792 
 PHE793  MET794  SER795  GLU796  ALA797  LYS798  CYS799  TRP800  GLU811  SER814 

> <Gold.Protein.RotatedAtoms>
  150.8732  133.7476  159.2954 H   0  0  0  0  0  0  0  0  0  0  0  0  # atno 6907 bound_to 6896
  151.5081  135.1062  159.9856 H   0  0  0  0  0  0  0  0  0  0  0  0  # atno 6908 bound_to 6896
  152.4710  133.7984  159.6995 H   0  0  0  0  0  0  0  0  0  0  0  0  # atno 6909 bound_to 6896
  144.7317  139.9237  143.6421 H   0  0  0  0  0  0  0  0  0  0  0  0  # atno 7974 bound_to 7965
  154.6928  140.2656  155.6796 H   0  0  0  0  0  0  0  0  0  0  0  0  # atno 8008 bound_to 7997
  156.2738  140.2788  156.1435 H   0  0  0  0  0  0  0  0  0  0  0  0  # atno 8009 bound_to 7997
  155.0873  140.0373  157.2648 H   0  0  0  0  0  0  0  0  0  0  0  0  # atno 8010 bound_to 7997
  140.7284  143.4567  151.0438 H   0  0  0  0  0  0  0  0  0  0  0  0  # atno 10167 bound_to 10162
  156.0888  130.6074  150.8890 H   0  0  0  0  0  0  0  0  0  0  0  0  # atno 10718 bound_to 10713
  154.6321  135.5418  153.7692 H   0  0  0  0  0  0  0  0  0  0  0  0  # atno 10763 bound_to 10752
  153.0290  135.6438  154.1285 H   0  0  0  0  0  0  0  0  0  0  0  0  # atno 10764 bound_to 10752
  154.1215  135.2920  155.3187 H   0  0  0  0  0  0  0  0  0  0  0  0  # atno 10765 bound_to 10752
  141.1177  133.8582  157.1396 H   0  0  0  0  0  0  0  0  0  0  0  0  # atno 11005 bound_to 11000
  146.0910  139.3900  143.0406 LP  0  0  0  0  0  0  0  0  0  0  0  0  # atno 17320 bound_to 7965
  145.7711  140.9896  143.1149 LP  0  0  0  0  0  0  0  0  0  0  0  0  # atno 17321 bound_to 7965
  139.8248  143.7771  152.3178 LP  0  0  0  0  0  0  0  0  0  0  0  0  # atno 17342 bound_to 10162
  139.7866  144.7425  151.0013 LP  0  0  0  0  0  0  0  0  0  0  0  0  # atno 17343 bound_to 10162
  157.6031  131.0940  150.8926 LP  0  0  0  0  0  0  0  0  0  0  0  0  # atno 17370 bound_to 10713
  156.9080  130.5270  149.5281 LP  0  0  0  0  0  0  0  0  0  0  0  0  # atno 17371 bound_to 10713
  140.0110  134.9988  157.0395 LP  0  0  0  0  0  0  0  0  0  0  0  0  # atno 17394 bound_to 11000
  140.4599  134.1494  155.7190 LP  0  0  0  0  0  0  0  0  0  0  0  0  # atno 17395 bound_to 11000

$$$$
