AV-unprocessed.smi:2321|AV-procd|sdf|9283|dock8
  -GOLD-   2272012503D 1   1.00000     0.00000
 Structure written by MMmdl.
 36 37  0  0  0  0  0  0  0  0  1 V2000
  149.7082  140.6412  157.4214 O   0  0  0  0  0  0  0  0  0  0  0  0
  149.5680  141.7384  156.8860 C   0  0  0  0  0  0  0  0  0  0  0  0
  148.9771  141.9422  155.6923 N   0  0  0  0  0  0  0  0  0  0  0  0
  148.4015  140.9947  154.8033 C   0  0  0  0  0  0  0  0  0  0  0  0
  148.9069  139.6884  154.5950 C   0  0  0  0  0  0  0  0  0  0  0  0
  148.2506  138.8515  153.6701 C   0  0  0  0  0  0  0  0  0  0  0  0
  147.1658  139.2311  152.9617 N   0  0  0  0  0  0  0  0  0  0  0  0
  146.6959  140.4821  153.1525 C   0  0  0  0  0  0  0  0  0  0  0  0
  147.2768  141.3978  154.0526 C   0  0  0  0  0  0  0  0  0  0  0  0
  146.7575  142.6415  154.1941 F   0  0  0  0  0  0  0  0  0  0  0  0
  149.9898  142.8642  157.4912 N   0  0  0  0  0  0  0  0  0  0  0  0
  150.6654  143.0066  158.7833 C   0  0  2  0  0  0  0  0  0  0  0  0
  151.2346  144.4310  158.9073 C   0  0  0  0  0  0  0  0  0  0  0  0
  151.9989  144.6130  160.2270 C   0  0  0  0  0  0  0  0  0  0  0  0
  153.1122  143.5643  160.3750 C   0  0  0  0  0  0  0  0  0  0  0  0
  152.5594  142.1279  160.2620 C   0  0  2  0  0  0  0  0  0  0  0  0
  153.6671  141.0670  160.4274 C   0  0  0  0  0  0  0  0  0  0  0  0
  153.2376  139.8670  160.0357 F   0  0  0  0  0  0  0  0  0  0  0  0
  154.7323  141.4021  159.6993 F   0  0  0  0  0  0  0  0  0  0  0  0
  154.0432  140.9950  161.7044 F   0  0  0  0  0  0  0  0  0  0  0  0
  151.7891  141.9587  158.9347 C   0  0  0  0  0  0  0  0  0  0  0  0
  148.8663  142.9074  155.4179 H   0  0  0  0  0  0  0  0  0  0  0  0
  149.7807  139.3187  155.1085 H   0  0  0  0  0  0  0  0  0  0  0  0
  148.6120  137.8499  153.4900 H   0  0  0  0  0  0  0  0  0  0  0  0
  145.8318  140.7628  152.5687 H   0  0  0  0  0  0  0  0  0  0  0  0
  149.8031  143.7279  157.0022 H   0  0  0  0  0  0  0  0  0  0  0  0
  149.9402  142.8716  159.5879 H   0  0  0  0  0  0  0  0  0  0  0  0
  151.9036  144.6384  158.0707 H   0  0  0  0  0  0  0  0  0  0  0  0
  150.4286  145.1634  158.8475 H   0  0  0  0  0  0  0  0  0  0  0  0
  152.4249  145.6156  160.2732 H   0  0  0  0  0  0  0  0  0  0  0  0
  151.3064  144.5332  161.0658 H   0  0  0  0  0  0  0  0  0  0  0  0
  153.8700  143.7303  159.6084 H   0  0  0  0  0  0  0  0  0  0  0  0
  153.6107  143.7005  161.3352 H   0  0  0  0  0  0  0  0  0  0  0  0
  151.8481  141.9829  161.0767 H   0  0  0  0  0  0  0  0  0  0  0  0
  151.3688  140.9540  158.8830 H   0  0  0  0  0  0  0  0  0  0  0  0
  152.4822  142.0426  158.0964 H   0  0  0  0  0  0  0  0  0  0  0  0
  1  2  2  0  0  0  0
  2  3  1  0  0  0  0
  2 11  1  0  0  0  0
  3  4  1  0  0  0  0
  3 22  1  0  0  0  0
  4  9  1  0  0  0  0
  4  5  2  0  0  0  0
  5  6  1  0  0  0  0
  5 23  1  0  0  0  0
  6  7  2  0  0  0  0
  6 24  1  0  0  0  0
  7  8  1  0  0  0  0
  8  9  2  0  0  0  0
  8 25  1  0  0  0  0
  9 10  1  0  0  0  0
 11 12  1  0  0  0  0
 11 26  1  0  0  0  0
 12 21  1  0  0  0  0
 12 13  1  0  0  0  0
 12 27  1  0  0  0  0
 13 14  1  0  0  0  0
 13 28  1  0  0  0  0
 13 29  1  0  0  0  0
 14 15  1  0  0  0  0
 14 30  1  0  0  0  0
 14 31  1  0  0  0  0
 15 16  1  0  0  0  0
 15 32  1  0  0  0  0
 15 33  1  0  0  0  0
 16 17  1  0  0  0  0
 16 21  1  0  0  0  0
 16 34  1  0  0  0  0
 17 18  1  0  0  0  0
 17 19  1  0  0  0  0
 17 20  1  0  0  0  0
 21 35  1  0  0  0  0
 21 36  1  0  0  0  0
M  END
> <s_m_source_file>
AV-unprocessed.smi

> <i_m_source_file_index>
2321

> <i_lp_mmshare_version>
43012

> <i_f3d_flags>
0

> <s_epik_input>
RkMoRikoRilbQ0BASF0oW0NIMl0xKVtDSDJdW0NIMl1bQ0gyXVtDQEhdMVtOSF1DKD1PKVtOSF1jMltjSF1bY0hdbltjSF1jMkY=

> <s_epik_cmdline>
J2VwaWtfcHl0aG9uJywgJy1waCcsICc3LjAnLCAnLXRuJywgJzgnLCAnLW1hJywgJzIwMCcsICctbWV0YWxfYmluZGluZycsICctaW1hZScsICc8aW5maWxlLm1hZT4nLCAnLW9tYWUnLCAnPG91dGZpbGUubWFlPic=

> <r_epik_Ionization_Penalty>
0.00319438

> <r_epik_Ionization_Penalty_Charging>
0

> <r_epik_Ionization_Penalty_Neutral>
0.00319438

> <r_epik_State_Penalty>
0.00222511

> <r_epik_Charging_Adjusted_Penalty>
0.00222511

> <i_epik_Tot_Q>
0

> <i_epik_Tot_abs_Q>
0

> <r_epik_Metal_State_Penalty>
-0

> <b_epik_Metal_Only>
0

> <s_lp_Force_Field>
OPLS_2005

> <r_lp_Energy>
26.7556

> <b_lp_Chiralities_Consistent>
1

> <s_lp_Variant>
AV-unprocessed.smi:2321-3

> <Gold.Version>
5.8.1

> <Gold.Id.Protein>
6NUR|6NUR_protein|mol2

> <Gold.PLP.Fitness>
53.3356

> <Gold.PLP.PLP>
-42.8892

> <Gold.PLP.part.hbond>
-2.0000

> <Gold.PLP.part.metal>
0.0000

> <Gold.PLP.part.buried>
-4.3519

> <Gold.PLP.part.nonpolar>
-38.1762

> <Gold.PLP.part.repulsive>
1.3013

> <Gold.PLP.ligand.clash>
0.0000

> <Gold.PLP.ligand.torsion>
0.7856

> <Gold.PLP.Chemscore.Hbond>
2.0000

> <Gold.PLP.Chemscore.CHOScore>
2.0000

> <Gold.PLP.Chemscore.Metal>
0.0000

> <Gold.Chemscore.Hbonds>
donor molecule, donor type, donor heavy atom, donor atom, acceptor molecule, acceptor atom, score
      L1  H     3    22       P1  8028  1.00
      L1  H    11    26       P1  8028  1.00
      L1  C     6    24       P1  7948  1.00
      L1  C     8    25       P1 10175  1.00

> <Gold.PLP.Chemscore.Internal.Correction>
0.0177

> <Gold.Rescore>
     Score         DG    S(hbond)    S(metal)    S(lipo)     H(rot)  DE(clash)    DE(int)     intcor
     19.49     -21.30       1.91        0.00     102.68       1.00       0.05       1.76       ----

> <Gold.Chemscore.Fitness>
19.4947

> <Gold.Chemscore.DG>
-21.2976

> <Gold.Chemscore.ZeroCoef>
-5.4800

> <Gold.Chemscore.Hbond>
1.9053

> <Gold.Chemscore.Metal>
0.0000

> <Gold.Chemscore.Lipo>
102.6831

> <Gold.Chemscore.Internal_Hbond>
0.0000

> <Gold.Chemscore.DEClash>
0.0470

> <Gold.Chemscore.DEInternal>
1.7559

> <Gold.Chemscore.Rot>
1.0000

> <Gold.Chemscore.Internal.Correction>
   9.000000E+99

> <Gold.Chemscore.Hbonds>
donor molecule, donor type, donor heavy atom, donor atom, acceptor molecule, acceptor atom, score
      L1  H     3    22       P1  8028  0.99
      L1  H    11    26       P1  8028  0.92

> <Gold.Chemscore.Hbond.Weighted>
-6.3637

> <Gold.Chemscore.Metal.Weighted>
-0.0000

> <Gold.Chemscore.Lipo.Weighted>
-12.0139

> <Gold.Chemscore.Internal_Hbond.Weighted>
0.0000

> <Gold.Chemscore.DEClash.Weighted>
0.0470

> <Gold.Chemscore.DEInternal.Weighted>
1.7559

> <Gold.Chemscore.Rot.Weighted>
2.5600

> <Gold.Chemscore.Internal.Correction.Weighted>
   9.000000E+99

> <Gold.Protein.RotatedTorsions>
[ 6907 6896 6895 6894 ] final   47.51 input  -60.11 | X-H torsion
[ 7974 7965 7964 7962 ] final   64.49 input  175.53 | X-H torsion
[ 8008 7997 7996 7995 ] final  -23.99 input   59.86 | X-H torsion
[ 10167 10162 10161 10158 ] final -114.90 input  -65.29 | X-H torsion
[ 10718 10713 10712 10709 ] final   97.23 input   66.30 | X-H torsion
[ 10763 10752 10751 10750 ] final  -20.55 input  -60.55 | X-H torsion
[ 11005 11000 10999 10996 ] final   30.49 input  -57.11 | X-H torsion

> <Gold.Protein.ActiveResidues>
 VAL166  LYS551  ARG553  GLY616  TRP617  ASP618  TYR619  PRO620  LYS621  CYS622 
 ASP623  PHE694  ASN695  SER759  ASP760  ASP761  ALA762  ILE779  LEU786  VAL792 
 PHE793  MET794  SER795  GLU796  ALA797  LYS798  CYS799  TRP800  GLU811  SER814 

> <Gold.Protein.RotatedAtoms>
  152.2689  134.7954  160.0417 H   0  0  0  0  0  0  0  0  0  0  0  0  # atno 6907 bound_to 6896
  151.8574  133.3445  159.3701 H   0  0  0  0  0  0  0  0  0  0  0  0  # atno 6908 bound_to 6896
  150.7144  134.5167  159.5678 H   0  0  0  0  0  0  0  0  0  0  0  0  # atno 6909 bound_to 6896
  145.8496  139.3246  143.0883 H   0  0  0  0  0  0  0  0  0  0  0  0  # atno 7974 bound_to 7965
  154.4554  140.1965  156.0396 H   0  0  0  0  0  0  0  0  0  0  0  0  # atno 8008 bound_to 7997
  156.0734  140.3281  155.7576 H   0  0  0  0  0  0  0  0  0  0  0  0  # atno 8009 bound_to 7997
  155.5226  140.0571  157.2894 H   0  0  0  0  0  0  0  0  0  0  0  0  # atno 8010 bound_to 7997
  140.0960  143.4656  152.1841 H   0  0  0  0  0  0  0  0  0  0  0  0  # atno 10167 bound_to 10162
  157.6915  131.0603  150.4611 H   0  0  0  0  0  0  0  0  0  0  0  0  # atno 10718 bound_to 10713
  153.6222  135.6992  153.5306 H   0  0  0  0  0  0  0  0  0  0  0  0  # atno 10763 bound_to 10752
  153.2928  135.4152  155.1182 H   0  0  0  0  0  0  0  0  0  0  0  0  # atno 10764 bound_to 10752
  154.8541  135.3629  154.5763 H   0  0  0  0  0  0  0  0  0  0  0  0  # atno 10765 bound_to 10752
  140.2938  134.2834  155.7769 H   0  0  0  0  0  0  0  0  0  0  0  0  # atno 11005 bound_to 11000
  145.9372  140.9006  143.0326 LP  0  0  0  0  0  0  0  0  0  0  0  0  # atno 17320 bound_to 7965
  144.6729  140.1499  143.7431 LP  0  0  0  0  0  0  0  0  0  0  0  0  # atno 17321 bound_to 7965
  139.5698  144.7456  151.3922 LP  0  0  0  0  0  0  0  0  0  0  0  0  # atno 17342 bound_to 10162
  140.7003  143.7647  150.7393 LP  0  0  0  0  0  0  0  0  0  0  0  0  # atno 17343 bound_to 10162
  156.4956  130.4105  149.6382 LP  0  0  0  0  0  0  0  0  0  0  0  0  # atno 17370 bound_to 10713
  156.3376  130.7365  151.2305 LP  0  0  0  0  0  0  0  0  0  0  0  0  # atno 17371 bound_to 10713
  141.2141  133.7602  156.9665 LP  0  0  0  0  0  0  0  0  0  0  0  0  # atno 17394 bound_to 11000
  140.1171  134.9440  157.2150 LP  0  0  0  0  0  0  0  0  0  0  0  0  # atno 17395 bound_to 11000

$$$$
