AV-unprocessed.smi:1800|AV-procd|sdf|7264|dock8
  -GOLD-   22720 8513D 1   1.00000     0.00000
 Structure written by MMmdl.
 36 37  0  0  0  0  0  0  0  0  1 V2000
  153.1691  139.4424  159.9600 C   0  0  0  0  0  0  0  0  0  0  0  0
  152.4512  140.6706  159.3784 C   0  0  1  0  0  0  0  0  0  0  0  0
  152.9908  142.0139  159.9094 C   0  0  0  0  0  0  0  0  0  0  0  0
  152.3819  143.1572  159.2541 N   0  0  0  0  0  0  0  0  0  0  0  0
  152.3864  144.4750  159.6602 C   0  0  0  0  0  0  0  0  0  0  0  0
  151.6917  145.1901  158.7273 C   0  0  0  0  0  0  0  0  0  0  0  0
  151.2941  144.2087  157.7768 C   0  0  0  0  0  0  0  0  0  0  0  0
  151.7073  142.9926  158.0954 N   0  0  0  0  0  0  0  0  0  0  0  0
  152.5580  140.6431  157.9184 N   0  0  0  0  0  0  0  0  0  0  0  0
  152.0074  139.2424  157.0748 S   0  0  0  0  0  0  0  0  0  0  0  0
  153.2008  138.5572  156.5553 O   0  0  0  0  0  0  0  0  0  0  0  0
  151.0809  138.5282  157.9669 O   0  0  0  0  0  0  0  0  0  0  0  0
  151.0621  139.9867  155.6643 C   0  0  0  0  0  0  0  0  0  0  0  0
  150.0275  141.0284  156.1094 C   0  0  0  0  0  0  0  0  0  0  0  0
  148.9810  141.0060  154.9992 C   0  0  0  0  0  0  0  0  0  0  0  0
  148.8782  139.5294  154.6157 C   0  0  0  0  0  0  0  0  0  0  0  0
  150.2696  138.9318  154.8708 C   0  0  0  0  0  0  0  0  0  0  0  0
  153.0399  139.3792  161.0406 H   0  0  0  0  0  0  0  0  0  0  0  0
  154.2396  139.4748  159.7541 H   0  0  0  0  0  0  0  0  0  0  0  0
  152.7749  138.5195  159.5334 H   0  0  0  0  0  0  0  0  0  0  0  0
  151.3958  140.5891  159.6431 H   0  0  0  0  0  0  0  0  0  0  0  0
  152.8252  142.0911  160.9854 H   0  0  0  0  0  0  0  0  0  0  0  0
  154.0690  142.0780  159.7581 H   0  0  0  0  0  0  0  0  0  0  0  0
  152.8801  144.7895  160.5679 H   0  0  0  0  0  0  0  0  0  0  0  0
  151.4972  146.2523  158.7243 H   0  0  0  0  0  0  0  0  0  0  0  0
  150.7216  144.3432  156.8710 H   0  0  0  0  0  0  0  0  0  0  0  0
  153.4942  140.9093  157.6146 H   0  0  0  0  0  0  0  0  0  0  0  0
  151.7801  140.4528  154.9886 H   0  0  0  0  0  0  0  0  0  0  0  0
  149.5488  140.7340  157.0432 H   0  0  0  0  0  0  0  0  0  0  0  0
  150.4660  142.0159  156.2562 H   0  0  0  0  0  0  0  0  0  0  0  0
  148.0248  141.4254  155.3136 H   0  0  0  0  0  0  0  0  0  0  0  0
  149.3365  141.5860  154.1465 H   0  0  0  0  0  0  0  0  0  0  0  0
  148.1476  139.0371  155.2590 H   0  0  0  0  0  0  0  0  0  0  0  0
  148.5500  139.3937  153.5847 H   0  0  0  0  0  0  0  0  0  0  0  0
  150.7777  138.7017  153.9337 H   0  0  0  0  0  0  0  0  0  0  0  0
  150.1706  137.9962  155.4217 H   0  0  0  0  0  0  0  0  0  0  0  0
  1  2  1  0  0  0  0
  1 18  1  0  0  0  0
  1 19  1  0  0  0  0
  1 20  1  0  0  0  0
  2  3  1  0  0  0  0
  2  9  1  0  0  0  0
  2 21  1  0  0  0  0
  3  4  1  0  0  0  0
  3 22  1  0  0  0  0
  3 23  1  0  0  0  0
  4  8  1  0  0  0  0
  4  5  1  0  0  0  0
  5  6  2  0  0  0  0
  5 24  1  0  0  0  0
  6  7  1  0  0  0  0
  6 25  1  0  0  0  0
  7  8  2  0  0  0  0
  7 26  1  0  0  0  0
  9 10  1  0  0  0  0
  9 27  1  0  0  0  0
 10 11  2  0  0  0  0
 10 12  2  0  0  0  0
 10 13  1  0  0  0  0
 13 17  1  0  0  0  0
 13 14  1  0  0  0  0
 13 28  1  0  0  0  0
 14 15  1  0  0  0  0
 14 29  1  0  0  0  0
 14 30  1  0  0  0  0
 15 16  1  0  0  0  0
 15 31  1  0  0  0  0
 15 32  1  0  0  0  0
 16 17  1  0  0  0  0
 16 33  1  0  0  0  0
 16 34  1  0  0  0  0
 17 35  1  0  0  0  0
 17 36  1  0  0  0  0
M  END
> <s_m_source_file>
AV-unprocessed.smi

> <i_m_source_file_index>
1800

> <i_lp_mmshare_version>
43012

> <i_f3d_flags>
0

> <s_epik_input>
bjFbY0hdW2NIXVtjSF1uMVtDSDJdW0NAQEhdKFtDSDNdKVtOSF1TKD1PKSg9TylbQ0hdMltDSDJdW0NIMl1bQ0gyXVtDSDJdMg==

> <s_epik_cmdline>
J2VwaWtfcHl0aG9uJywgJy1waCcsICc3LjAnLCAnLXRuJywgJzgnLCAnLW1hJywgJzIwMCcsICctbWV0YWxfYmluZGluZycsICctaW1hZScsICc8aW5maWxlLm1hZT4nLCAnLW9tYWUnLCAnPG91dGZpbGUubWFlPic=

> <r_lp_tautomer_probability>
1

> <r_epik_Ionization_Penalty>
1.44925e-05

> <r_epik_Ionization_Penalty_Charging>
0

> <r_epik_Ionization_Penalty_Neutral>
1.44925e-05

> <r_epik_State_Penalty>
-0

> <r_epik_Charging_Adjusted_Penalty>
0

> <i_epik_Tot_Q>
0

> <i_epik_Tot_abs_Q>
0

> <r_epik_Metal_State_Penalty>
0.00862991

> <b_epik_Metal_Only>
0

> <s_lp_Force_Field>
OPLS_2005

> <r_lp_Energy>
17.3369

> <b_lp_Chiralities_Consistent>
1

> <s_lp_Variant>
AV-unprocessed.smi:1800-2

> <Gold.Version>
5.8.1

> <Gold.Id.Protein>
6NUR|6NUR_protein|mol2

> <Gold.PLP.Fitness>
44.9459

> <Gold.PLP.PLP>
-40.4951

> <Gold.PLP.part.hbond>
-2.0000

> <Gold.PLP.part.metal>
0.0000

> <Gold.PLP.part.buried>
-1.2957

> <Gold.PLP.part.nonpolar>
-36.7949

> <Gold.PLP.part.repulsive>
0.0361

> <Gold.PLP.ligand.clash>
0.0000

> <Gold.PLP.ligand.torsion>
0.8130

> <Gold.PLP.Chemscore.Hbond>
0.9424

> <Gold.PLP.Chemscore.CHOScore>
1.0000

> <Gold.PLP.Chemscore.Metal>
0.0000

> <Gold.Chemscore.Hbonds>
donor molecule, donor type, donor heavy atom, donor atom, acceptor molecule, acceptor atom, score
      P1  H  7997  8010       L1    11  0.89
      L1  C     7    26       P1  8028  1.00

> <Gold.PLP.Chemscore.Internal.Correction>
0.2496

> <Gold.Rescore>
     Score         DG    S(hbond)    S(metal)    S(lipo)     H(rot)  DE(clash)    DE(int)     intcor
     14.25     -15.02       0.96        0.00      92.48       1.76       0.08       0.68       ----

> <Gold.Chemscore.Fitness>
14.2545

> <Gold.Chemscore.DG>
-15.0158

> <Gold.Chemscore.ZeroCoef>
-5.4800

> <Gold.Chemscore.Hbond>
0.9633

> <Gold.Chemscore.Metal>
0.0000

> <Gold.Chemscore.Lipo>
92.4825

> <Gold.Chemscore.Internal_Hbond>
0.0000

> <Gold.Chemscore.DEClash>
0.0830

> <Gold.Chemscore.DEInternal>
0.6783

> <Gold.Chemscore.Rot>
1.7585

> <Gold.Chemscore.Internal.Correction>
   9.000000E+99

> <Gold.Chemscore.Hbonds>
donor molecule, donor type, donor heavy atom, donor atom, acceptor molecule, acceptor atom, score
      P1  H  7997  8010       L1    11  0.17

> <Gold.Chemscore.Hbond.Weighted>
-3.2173

> <Gold.Chemscore.Metal.Weighted>
-0.0000

> <Gold.Chemscore.Lipo.Weighted>
-10.8205

> <Gold.Chemscore.Internal_Hbond.Weighted>
0.0000

> <Gold.Chemscore.DEClash.Weighted>
0.0830

> <Gold.Chemscore.DEInternal.Weighted>
0.6783

> <Gold.Chemscore.Rot.Weighted>
4.5019

> <Gold.Chemscore.Internal.Correction.Weighted>
   9.000000E+99

> <Gold.Protein.RotatedTorsions>
[ 6907 6896 6895 6894 ] final  -47.76 input  -60.11 | X-H torsion
[ 7974 7965 7964 7962 ] final  -30.17 input  175.53 | X-H torsion
[ 8008 7997 7996 7995 ] final   73.19 input   59.86 | X-H torsion
[ 10167 10162 10161 10158 ] final  -28.38 input  -65.29 | X-H torsion
[ 10718 10713 10712 10709 ] final   85.08 input   66.30 | X-H torsion
[ 10763 10752 10751 10750 ] final -149.29 input  -60.55 | X-H torsion
[ 11005 11000 10999 10996 ] final  -98.39 input  -57.11 | X-H torsion

> <Gold.Protein.ActiveResidues>
 VAL166  LYS551  ARG553  GLY616  TRP617  ASP618  TYR619  PRO620  LYS621  CYS622 
 ASP623  PHE694  ASN695  SER759  ASP760  ASP761  ALA762  ILE779  LEU786  VAL792 
 PHE793  MET794  SER795  GLU796  ALA797  LYS798  CYS799  TRP800  GLU811  SER814 

> <Gold.Protein.RotatedAtoms>
  150.8975  134.8384  159.7336 H   0  0  0  0  0  0  0  0  0  0  0  0  # atno 6907 bound_to 6896
  152.4873  134.4554  159.9598 H   0  0  0  0  0  0  0  0  0  0  0  0  # atno 6908 bound_to 6896
  151.4609  133.3554  159.2844 H   0  0  0  0  0  0  0  0  0  0  0  0  # atno 6909 bound_to 6896
  146.1163  140.5506  142.8755 H   0  0  0  0  0  0  0  0  0  0  0  0  # atno 7974 bound_to 7965
  155.7800  140.3482  155.5292 H   0  0  0  0  0  0  0  0  0  0  0  0  # atno 8008 bound_to 7997
  155.8738  140.0991  157.1553 H   0  0  0  0  0  0  0  0  0  0  0  0  # atno 8009 bound_to 7997
  154.4019  140.1335  156.4098 H   0  0  0  0  0  0  0  0  0  0  0  0  # atno 8010 bound_to 7997
  140.7270  143.4015  151.1257 H   0  0  0  0  0  0  0  0  0  0  0  0  # atno 10167 bound_to 10162
  157.6909  131.0160  150.2768 H   0  0  0  0  0  0  0  0  0  0  0  0  # atno 10718 bound_to 10713
  154.8185  135.3313  154.7106 H   0  0  0  0  0  0  0  0  0  0  0  0  # atno 10763 bound_to 10752
  153.7743  135.6923  153.4905 H   0  0  0  0  0  0  0  0  0  0  0  0  # atno 10764 bound_to 10752
  153.2023  135.4511  155.0230 H   0  0  0  0  0  0  0  0  0  0  0  0  # atno 10765 bound_to 10752
  141.1346  133.8242  157.0833 H   0  0  0  0  0  0  0  0  0  0  0  0  # atno 11005 bound_to 11000
  144.7556  140.5298  143.6771 LP  0  0  0  0  0  0  0  0  0  0  0  0  # atno 17320 bound_to 7965
  145.5560  139.1478  143.3367 LP  0  0  0  0  0  0  0  0  0  0  0  0  # atno 17321 bound_to 7965
  139.7635  143.8600  152.3105 LP  0  0  0  0  0  0  0  0  0  0  0  0  # atno 17342 bound_to 10162
  139.8494  144.7172  150.9233 LP  0  0  0  0  0  0  0  0  0  0  0  0  # atno 17343 bound_to 10162
  156.3322  130.3802  149.7481 LP  0  0  0  0  0  0  0  0  0  0  0  0  # atno 17370 bound_to 10713
  156.5017  130.8132  151.3135 LP  0  0  0  0  0  0  0  0  0  0  0  0  # atno 17371 bound_to 10713
  140.0438  134.9841  157.1010 LP  0  0  0  0  0  0  0  0  0  0  0  0  # atno 17394 bound_to 11000
  140.4095  134.1996  155.7163 LP  0  0  0  0  0  0  0  0  0  0  0  0  # atno 17395 bound_to 11000

$$$$
