AV-unprocessed.smi:1914|AV-procd|sdf|7759|dock2
  -GOLD-   22720 9503D 1   1.00000     0.00000
 Structure written by MMmdl.
 44 45  0  0  0  0  0  0  0  0  2 V2000
  145.7713  132.3445  150.1434 C   0  0  0  0  0  0  0  0  0  0  0  0
  146.2215  133.4745  151.0800 C   0  0  1  0  0  0  0  0  0  0  0  0
  145.0265  134.3141  151.5616 C   0  0  0  0  0  0  0  0  0  0  0  0
  145.5001  135.4144  152.5193 C   0  0  0  0  0  0  0  0  0  0  0  0
  146.3044  134.8199  153.6860 C   0  0  0  0  0  0  0  0  0  0  0  0
  147.4551  134.0211  153.1906 N   0  3  1  0  0  0  0  0  0  0  0  0
  148.3271  133.5488  154.2958 C   0  0  0  0  0  0  0  0  0  0  0  0
  148.6061  134.6498  155.3317 C   0  0  0  0  0  0  0  0  0  0  0  0
  149.4102  135.7130  154.7457 N   0  0  0  0  0  0  0  0  0  0  0  0
  150.5391  136.1912  155.2883 C   0  0  0  0  0  0  0  0  0  0  0  0
  151.0184  135.7535  156.3350 O   0  0  0  0  0  0  0  0  0  0  0  0
  151.2346  137.3211  154.5153 C   0  0  0  0  0  0  0  0  0  0  0  0
  150.6634  138.6505  154.7895 N   0  0  0  0  0  0  0  0  0  0  0  0
  149.4114  138.9445  154.2132 C   0  0  0  0  0  0  0  0  0  0  0  0
  148.8035  140.1265  154.4012 C   0  0  0  0  0  0  0  0  0  0  0  0
  149.4668  141.1131  155.2206 C   0  0  0  0  0  0  0  0  0  0  0  0
  150.6654  140.8430  155.7748 C   0  0  0  0  0  0  0  0  0  0  0  0
  151.3342  139.5527  155.5711 C   0  0  0  0  0  0  0  0  0  0  0  0
  152.4300  139.2977  156.0719 O   0  0  0  0  0  0  0  0  0  0  0  0
  147.0104  132.9261  152.2861 C   0  0  0  0  0  0  0  0  0  0  0  0
  145.0985  131.6525  150.6511 H   0  0  0  0  0  0  0  0  0  0  0  0
  146.6248  131.7718  149.7796 H   0  0  0  0  0  0  0  0  0  0  0  0
  145.2463  132.7406  149.2736 H   0  0  0  0  0  0  0  0  0  0  0  0
  146.8860  134.1268  150.5110 H   0  0  0  0  0  0  0  0  0  0  0  0
  144.5091  134.7601  150.7115 H   0  0  0  0  0  0  0  0  0  0  0  0
  144.3012  133.6755  152.0684 H   0  0  0  0  0  0  0  0  0  0  0  0
  146.1163  136.1333  151.9774 H   0  0  0  0  0  0  0  0  0  0  0  0
  144.6427  135.9689  152.9023 H   0  0  0  0  0  0  0  0  0  0  0  0
  146.6628  135.6319  154.3200 H   0  0  0  0  0  0  0  0  0  0  0  0
  145.6628  134.1919  154.3063 H   0  0  0  0  0  0  0  0  0  0  0  0
  147.8377  132.7210  154.8115 H   0  0  0  0  0  0  0  0  0  0  0  0
  149.2578  133.1501  153.8885 H   0  0  0  0  0  0  0  0  0  0  0  0
  147.6779  135.0854  155.7022 H   0  0  0  0  0  0  0  0  0  0  0  0
  149.1311  134.2288  156.1908 H   0  0  0  0  0  0  0  0  0  0  0  0
  149.0847  136.1208  153.8809 H   0  0  0  0  0  0  0  0  0  0  0  0
  152.2960  137.2985  154.7661 H   0  0  0  0  0  0  0  0  0  0  0  0
  151.1899  137.1129  153.4445 H   0  0  0  0  0  0  0  0  0  0  0  0
  148.9842  138.1567  153.6097 H   0  0  0  0  0  0  0  0  0  0  0  0
  147.8450  140.3354  153.9492 H   0  0  0  0  0  0  0  0  0  0  0  0
  149.0000  142.0725  155.3889 H   0  0  0  0  0  0  0  0  0  0  0  0
  151.1472  141.5937  156.3841 H   0  0  0  0  0  0  0  0  0  0  0  0
  146.3975  132.2187  152.8474 H   0  0  0  0  0  0  0  0  0  0  0  0
  147.8729  132.3704  151.9198 H   0  0  0  0  0  0  0  0  0  0  0  0
  148.0147  134.6530  152.6358 H   0  0  0  0  0  0  0  0  0  0  0  0
  1  2  1  0  0  0  0
  1 21  1  0  0  0  0
  1 22  1  0  0  0  0
  1 23  1  0  0  0  0
  2 20  1  0  0  0  0
  2  3  1  0  0  0  0
  2 24  1  0  0  0  0
  3  4  1  0  0  0  0
  3 25  1  0  0  0  0
  3 26  1  0  0  0  0
  4  5  1  0  0  0  0
  4 27  1  0  0  0  0
  4 28  1  0  0  0  0
  5  6  1  0  0  0  0
  5 29  1  0  0  0  0
  5 30  1  0  0  0  0
  6  7  1  0  0  0  0
  6 20  1  0  0  0  0
  6 44  1  0  0  0  0
  7  8  1  0  0  0  0
  7 31  1  0  0  0  0
  7 32  1  0  0  0  0
  8  9  1  0  0  0  0
  8 33  1  0  0  0  0
  8 34  1  0  0  0  0
  9 10  1  0  0  0  0
  9 35  1  0  0  0  0
 10 11  2  0  0  0  0
 10 12  1  0  0  0  0
 12 13  1  0  0  0  0
 12 36  1  0  0  0  0
 12 37  1  0  0  0  0
 13 18  1  0  0  0  0
 13 14  1  0  0  0  0
 14 15  2  0  0  0  0
 14 38  1  0  0  0  0
 15 16  1  0  0  0  0
 15 39  1  0  0  0  0
 16 17  2  0  0  0  0
 16 40  1  0  0  0  0
 17 18  1  0  0  0  0
 17 41  1  0  0  0  0
 18 19  2  0  0  0  0
 20 42  1  0  0  0  0
 20 43  1  0  0  0  0
M  CHG  1   6   1
M  END
> <s_m_source_file>
AV-unprocessed.smi

> <i_m_source_file_index>
1914

> <i_lp_mmshare_version>
43012

> <i_f3d_flags>
0

> <s_epik_input>
W0NIM11bQ0BASF0xW0NIMl1bQ0gyXVtDSDJdTihbQ0gyXTEpW0NIMl1bQ0gyXVtOSF1DKD1PKVtDSDJdbjJbY0hdW2NIXVtjSF1bY0hdYzI9Tw==

> <s_epik_cmdline>
J2VwaWtfcHl0aG9uJywgJy1waCcsICc3LjAnLCAnLXRuJywgJzgnLCAnLW1hJywgJzIwMCcsICctbWV0YWxfYmluZGluZycsICctaW1hZScsICc8aW5maWxlLm1hZT4nLCAnLW9tYWUnLCAnPG91dGZpbGUubWFlPic=

> <r_lp_tautomer_probability>
1

> <r_epik_Ionization_Penalty>
0.00192477

> <r_epik_Ionization_Penalty_Charging>
0.00192469

> <r_epik_Ionization_Penalty_Neutral>
8.16761e-08

> <r_epik_State_Penalty>
0.00131115

> <r_epik_Charging_Adjusted_Penalty>
0.00323584

> <i_epik_Tot_Q>
1

> <i_epik_Tot_abs_Q>
1

> <r_epik_Metal_State_Penalty>
-0

> <b_epik_Metal_Only>
0

> <s_lp_Force_Field>
OPLS_2005

> <r_lp_Energy>
25.5857

> <b_lp_Chiralities_Consistent>
1

> <s_lp_Variant>
AV-unprocessed.smi:1914-4

> <Gold.Version>
5.8.1

> <Gold.Id.Protein>
6NUR|6NUR_protein|mol2

> <Gold.PLP.Fitness>
56.0543

> <Gold.PLP.PLP>
-39.2936

> <Gold.PLP.part.hbond>
-4.2304

> <Gold.PLP.part.metal>
0.0000

> <Gold.PLP.part.buried>
0.8826

> <Gold.PLP.part.nonpolar>
-36.0139

> <Gold.PLP.part.repulsive>
0.0880

> <Gold.PLP.ligand.clash>
0.0000

> <Gold.PLP.ligand.torsion>
0.6124

> <Gold.PLP.Chemscore.Hbond>
4.9920

> <Gold.PLP.Chemscore.CHOScore>
0.9732

> <Gold.PLP.Chemscore.Metal>
0.0000

> <Gold.Chemscore.Hbonds>
donor molecule, donor type, donor heavy atom, donor atom, acceptor molecule, acceptor atom, score
      L1  H     6    44       P1  7948  2.00
      L1  H     9    35       P1  7948  1.00
      P1  H  7997  8008       L1    19  0.49
      L1  C    14    38       P1  7948  0.88

> <Gold.PLP.Chemscore.Internal.Correction>
0.0900

> <Gold.Rescore>
     Score         DG    S(hbond)    S(metal)    S(lipo)     H(rot)  DE(clash)    DE(int)     intcor
     19.47     -20.19       3.33        0.00      71.49       1.86       0.15       0.58       ----

> <Gold.Chemscore.Fitness>
19.4698

> <Gold.Chemscore.DG>
-20.1925

> <Gold.Chemscore.ZeroCoef>
-5.4800

> <Gold.Chemscore.Hbond>
3.3253

> <Gold.Chemscore.Metal>
0.0000

> <Gold.Chemscore.Lipo>
71.4876

> <Gold.Chemscore.Internal_Hbond>
0.0000

> <Gold.Chemscore.DEClash>
0.1456

> <Gold.Chemscore.DEInternal>
0.5770

> <Gold.Chemscore.Rot>
1.8586

> <Gold.Chemscore.Internal.Correction>
   9.000000E+99

> <Gold.Chemscore.Hbonds>
donor molecule, donor type, donor heavy atom, donor atom, acceptor molecule, acceptor atom, score
      L1  H     6    44       P1  7948  0.65
      L1  H     9    35       P1  7948  0.88
      P1  H  7997  8008       L1    19  0.48

> <Gold.Chemscore.Hbond.Weighted>
-11.1066

> <Gold.Chemscore.Metal.Weighted>
-0.0000

> <Gold.Chemscore.Lipo.Weighted>
-8.3640

> <Gold.Chemscore.Internal_Hbond.Weighted>
0.0000

> <Gold.Chemscore.DEClash.Weighted>
0.1456

> <Gold.Chemscore.DEInternal.Weighted>
0.5770

> <Gold.Chemscore.Rot.Weighted>
4.7581

> <Gold.Chemscore.Internal.Correction.Weighted>
   9.000000E+99

> <Gold.Protein.RotatedTorsions>
[ 6907 6896 6895 6894 ] final -154.37 input  -60.11 | X-H torsion
[ 7974 7965 7964 7962 ] final -139.30 input  175.53 | X-H torsion
[ 8008 7997 7996 7995 ] final  -15.37 input   59.86 | X-H torsion
[ 10167 10162 10161 10158 ] final -173.59 input  -65.29 | X-H torsion
[ 10718 10713 10712 10709 ] final   38.61 input   66.30 | X-H torsion
[ 10763 10752 10751 10750 ] final -141.86 input  -60.55 | X-H torsion
[ 11005 11000 10999 10996 ] final   13.43 input  -57.11 | X-H torsion

> <Gold.Protein.ActiveResidues>
 VAL166  LYS551  ARG553  GLY616  TRP617  ASP618  TYR619  PRO620  LYS621  CYS622 
 ASP623  PHE694  ASN695  SER759  ASP760  ASP761  ALA762  ILE779  LEU786  VAL792 
 PHE793  MET794  SER795  GLU796  ALA797  LYS798  CYS799  TRP800  GLU811  SER814 

> <Gold.Protein.RotatedAtoms>
  151.2565  133.4323  159.2613 H   0  0  0  0  0  0  0  0  0  0  0  0  # atno 6907 bound_to 6896
  151.0569  134.9711  159.8250 H   0  0  0  0  0  0  0  0  0  0  0  0  # atno 6908 bound_to 6896
  152.5392  134.2517  159.8954 H   0  0  0  0  0  0  0  0  0  0  0  0  # atno 6909 bound_to 6896
  144.8688  140.6335  143.5280 H   0  0  0  0  0  0  0  0  0  0  0  0  # atno 7974 bound_to 7965
  154.5136  140.2198  155.9109 H   0  0  0  0  0  0  0  0  0  0  0  0  # atno 8008 bound_to 7997
  156.1581  140.3148  155.8726 H   0  0  0  0  0  0  0  0  0  0  0  0  # atno 8009 bound_to 7997
  155.3806  140.0472  157.3034 H   0  0  0  0  0  0  0  0  0  0  0  0  # atno 8010 bound_to 7997
  139.5680  144.1709  152.1341 H   0  0  0  0  0  0  0  0  0  0  0  0  # atno 10167 bound_to 10162
  157.3608  130.7648  149.7046 H   0  0  0  0  0  0  0  0  0  0  0  0  # atno 10718 bound_to 10713
  154.8530  135.3512  154.5935 H   0  0  0  0  0  0  0  0  0  0  0  0  # atno 10763 bound_to 10752
  153.6545  135.6992  153.5202 H   0  0  0  0  0  0  0  0  0  0  0  0  # atno 10764 bound_to 10752
  153.2867  135.4247  155.1087 H   0  0  0  0  0  0  0  0  0  0  0  0  # atno 10765 bound_to 10752
  140.4808  134.0937  155.7750 H   0  0  0  0  0  0  0  0  0  0  0  0  # atno 11005 bound_to 11000
  145.4170  139.1570  143.4095 LP  0  0  0  0  0  0  0  0  0  0  0  0  # atno 17320 bound_to 7965
  146.2915  140.4277  142.8737 LP  0  0  0  0  0  0  0  0  0  0  0  0  # atno 17321 bound_to 7965
  140.1236  144.5351  150.6847 LP  0  0  0  0  0  0  0  0  0  0  0  0  # atno 17342 bound_to 10162
  140.6964  143.2406  151.4989 LP  0  0  0  0  0  0  0  0  0  0  0  0  # atno 17343 bound_to 10162
  155.9737  130.4114  150.3980 LP  0  0  0  0  0  0  0  0  0  0  0  0  # atno 17370 bound_to 10713
  157.2057  131.0448  151.2626 LP  0  0  0  0  0  0  0  0  0  0  0  0  # atno 17371 bound_to 10713
  141.1532  133.8931  157.2045 LP  0  0  0  0  0  0  0  0  0  0  0  0  # atno 17394 bound_to 11000
  139.9828  135.0092  156.9790 LP  0  0  0  0  0  0  0  0  0  0  0  0  # atno 17395 bound_to 11000

$$$$
