AV-unprocessed.smi:1076|AV-procd|sdf|4697|dock9
  -GOLD-   22720 3213D 1   1.00000     0.00000
 Structure written by MMmdl.
 45 46  0  0  0  0  0  0  0  0  2 V2000
  154.3658  141.0643  160.4281 C   0  0  0  0  0  0  0  0  0  0  0  0
  153.1903  141.8655  159.9493 C   0  0  0  0  0  0  0  0  0  0  0  0
  153.0142  143.2767  160.0085 C   0  0  0  0  0  0  0  0  0  0  0  0
  151.8519  143.6702  159.5144 N   0  0  0  0  0  0  0  0  0  0  0  0
  151.2498  142.5287  159.1167 N   0  0  0  0  0  0  0  0  0  0  0  0
  149.9136  142.5786  158.5457 C   0  0  0  0  0  0  0  0  0  0  0  0
  149.8246  141.7811  157.2301 C   0  0  2  0  0  0  0  0  0  0  0  0
  150.8620  142.2601  156.2041 C   0  0  0  0  0  0  0  0  0  0  0  0
  148.4555  141.8787  156.6792 N   0  3  0  0  0  0  0  0  0  0  0  0
  147.3726  141.3562  157.5408 C   0  0  0  0  0  0  0  0  0  0  0  0
  146.4865  142.5034  158.0673 C   0  0  0  0  0  0  0  0  0  0  0  0
  146.2385  142.4519  159.5895 C   0  0  0  0  0  0  0  0  0  0  0  0
  146.9650  141.7404  160.2855 O   0  0  0  0  0  0  0  0  0  0  0  0
  145.2497  143.2052  160.1254 N   0  0  0  0  0  0  0  0  0  0  0  0
  144.2613  143.9214  159.3148 C   0  0  0  0  0  0  0  0  0  0  0  0
  142.8857  143.2749  159.5616 C   0  0  0  0  0  0  0  0  0  0  0  0
  142.5732  143.3216  160.9525 O   0  0  0  0  0  0  0  0  0  0  0  0
  143.5419  142.6692  161.7712 C   0  0  0  0  0  0  0  0  0  0  0  0
  144.9202  143.3163  161.5487 C   0  0  0  0  0  0  0  0  0  0  0  0
  152.0371  141.4245  159.3645 C   0  0  0  0  0  0  0  0  0  0  0  0
  155.2633  141.6767  160.5183 H   0  0  0  0  0  0  0  0  0  0  0  0
  154.6027  140.2470  159.7470 H   0  0  0  0  0  0  0  0  0  0  0  0
  154.1775  140.6241  161.4074 H   0  0  0  0  0  0  0  0  0  0  0  0
  153.6907  144.0214  160.4011 H   0  0  0  0  0  0  0  0  0  0  0  0
  149.1990  142.1985  159.2780 H   0  0  0  0  0  0  0  0  0  0  0  0
  149.6576  143.6243  158.3721 H   0  0  0  0  0  0  0  0  0  0  0  0
  150.0299  140.7367  157.4701 H   0  0  0  0  0  0  0  0  0  0  0  0
  151.8726  142.1843  156.6063 H   0  0  0  0  0  0  0  0  0  0  0  0
  150.6933  143.3008  155.9248 H   0  0  0  0  0  0  0  0  0  0  0  0
  150.8276  141.6603  155.2942 H   0  0  0  0  0  0  0  0  0  0  0  0
  148.2746  142.8667  156.5643 H   0  0  0  0  0  0  0  0  0  0  0  0
  146.7757  140.6482  156.9657 H   0  0  0  0  0  0  0  0  0  0  0  0
  147.7850  140.7999  158.3840 H   0  0  0  0  0  0  0  0  0  0  0  0
  146.9632  143.4485  157.8053 H   0  0  0  0  0  0  0  0  0  0  0  0
  145.5207  142.4796  157.5614 H   0  0  0  0  0  0  0  0  0  0  0  0
  144.2430  144.9731  159.6046 H   0  0  0  0  0  0  0  0  0  0  0  0
  144.4886  143.9045  158.2481 H   0  0  0  0  0  0  0  0  0  0  0  0
  142.1123  143.8061  159.0067 H   0  0  0  0  0  0  0  0  0  0  0  0
  142.8753  142.2405  159.2147 H   0  0  0  0  0  0  0  0  0  0  0  0
  143.2431  142.7637  162.8152 H   0  0  0  0  0  0  0  0  0  0  0  0
  143.5701  141.6031  161.5402 H   0  0  0  0  0  0  0  0  0  0  0  0
  145.6617  142.8693  162.2089 H   0  0  0  0  0  0  0  0  0  0  0  0
  144.8831  144.3709  161.8258 H   0  0  0  0  0  0  0  0  0  0  0  0
  151.7101  140.4251  159.1176 H   0  0  0  0  0  0  0  0  0  0  0  0
  148.4165  141.4443  155.7683 H   0  0  0  0  0  0  0  0  0  0  0  0
  1  2  1  0  0  0  0
  1 21  1  0  0  0  0
  1 22  1  0  0  0  0
  1 23  1  0  0  0  0
  2 20  2  0  0  0  0
  2  3  1  0  0  0  0
  3  4  2  0  0  0  0
  3 24  1  0  0  0  0
  4  5  1  0  0  0  0
  5  6  1  0  0  0  0
  5 20  1  0  0  0  0
  6  7  1  0  0  0  0
  6 25  1  0  0  0  0
  6 26  1  0  0  0  0
  7  8  1  0  0  0  0
  7  9  1  0  0  0  0
  7 27  1  0  0  0  0
  8 28  1  0  0  0  0
  8 29  1  0  0  0  0
  8 30  1  0  0  0  0
  9 10  1  0  0  0  0
  9 31  1  0  0  0  0
  9 45  1  0  0  0  0
 10 11  1  0  0  0  0
 10 32  1  0  0  0  0
 10 33  1  0  0  0  0
 11 12  1  0  0  0  0
 11 34  1  0  0  0  0
 11 35  1  0  0  0  0
 12 13  2  0  0  0  0
 12 14  1  0  0  0  0
 14 19  1  0  0  0  0
 14 15  1  0  0  0  0
 15 16  1  0  0  0  0
 15 36  1  0  0  0  0
 15 37  1  0  0  0  0
 16 17  1  0  0  0  0
 16 38  1  0  0  0  0
 16 39  1  0  0  0  0
 17 18  1  0  0  0  0
 18 19  1  0  0  0  0
 18 40  1  0  0  0  0
 18 41  1  0  0  0  0
 19 42  1  0  0  0  0
 19 43  1  0  0  0  0
 20 44  1  0  0  0  0
M  CHG  1   9   1
M  END
> <s_m_source_file>
AV-unprocessed.smi

> <i_m_source_file_index>
1076

> <i_lp_mmshare_version>
43012

> <i_f3d_flags>
0

> <s_epik_input>
W0NIM11jMVtjSF1ubihbY0hdMSlbQ0gyXVtDQEhdKFtDSDNdKVtOSF1bQ0gyXVtDSDJdQyg9TylOMltDSDJdW0NIMl1PW0NIMl1bQ0gyXTI=

> <s_epik_cmdline>
J2VwaWtfcHl0aG9uJywgJy1waCcsICc3LjAnLCAnLXRuJywgJzgnLCAnLW1hJywgJzIwMCcsICctbWV0YWxfYmluZGluZycsICctaW1hZScsICc8aW5maWxlLm1hZT4nLCAnLW9tYWUnLCAnPG91dGZpbGUubWFlPic=

> <r_lp_tautomer_probability>
1

> <r_epik_Ionization_Penalty>
0.00797518

> <r_epik_Ionization_Penalty_Charging>
0.0079672

> <r_epik_Ionization_Penalty_Neutral>
7.97619e-06

> <r_epik_State_Penalty>
0.00597998

> <r_epik_Charging_Adjusted_Penalty>
0.0139472

> <i_epik_Tot_Q>
1

> <i_epik_Tot_abs_Q>
1

> <r_epik_Metal_State_Penalty>
0.00598062

> <b_epik_Metal_Only>
0

> <s_lp_Force_Field>
OPLS_2005

> <r_lp_Energy>
21.8291

> <b_lp_Chiralities_Consistent>
1

> <s_lp_Variant>
AV-unprocessed.smi:1076-1

> <Gold.Version>
5.8.1

> <Gold.Id.Protein>
6NUR|6NUR_protein|mol2

> <Gold.PLP.Fitness>
40.8300

> <Gold.PLP.PLP>
-31.7160

> <Gold.PLP.part.hbond>
-3.0000

> <Gold.PLP.part.metal>
0.0000

> <Gold.PLP.part.buried>
-4.5120

> <Gold.PLP.part.nonpolar>
-24.1520

> <Gold.PLP.part.repulsive>
0.1065

> <Gold.PLP.ligand.clash>
0.0000

> <Gold.PLP.ligand.torsion>
1.0215

> <Gold.PLP.Chemscore.Hbond>
3.6640

> <Gold.PLP.Chemscore.CHOScore>
0.0000

> <Gold.PLP.Chemscore.Metal>
0.0000

> <Gold.Chemscore.Hbonds>
donor molecule, donor type, donor heavy atom, donor atom, acceptor molecule, acceptor atom, score
      L1  H     9    31       P1  8028  1.40
      P1  H  6933  6944       L1    13  0.27

> <Gold.PLP.Chemscore.Internal.Correction>
0.1650

> <Gold.Rescore>
     Score         DG    S(hbond)    S(metal)    S(lipo)     H(rot)  DE(clash)    DE(int)     intcor
     17.50     -18.53       2.53        0.00      82.69       1.98       0.06       0.98       ----

> <Gold.Chemscore.Fitness>
17.4971

> <Gold.Chemscore.DG>
-18.5303

> <Gold.Chemscore.ZeroCoef>
-5.4800

> <Gold.Chemscore.Hbond>
2.5310

> <Gold.Chemscore.Metal>
0.0000

> <Gold.Chemscore.Lipo>
82.6929

> <Gold.Chemscore.Internal_Hbond>
0.0000

> <Gold.Chemscore.DEClash>
0.0565

> <Gold.Chemscore.DEInternal>
0.9767

> <Gold.Chemscore.Rot>
1.9837

> <Gold.Chemscore.Internal.Correction>
   9.000000E+99

> <Gold.Chemscore.Hbonds>
donor molecule, donor type, donor heavy atom, donor atom, acceptor molecule, acceptor atom, score
      L1  H     9    31       P1  8028  0.44
      P1  H  6933  6944       L1    13  0.27

> <Gold.Chemscore.Hbond.Weighted>
-8.4534

> <Gold.Chemscore.Metal.Weighted>
-0.0000

> <Gold.Chemscore.Lipo.Weighted>
-9.6751

> <Gold.Chemscore.Internal_Hbond.Weighted>
0.0000

> <Gold.Chemscore.DEClash.Weighted>
0.0565

> <Gold.Chemscore.DEInternal.Weighted>
0.9767

> <Gold.Chemscore.Rot.Weighted>
5.0782

> <Gold.Chemscore.Internal.Correction.Weighted>
   9.000000E+99

> <Gold.Protein.RotatedTorsions>
[ 6907 6896 6895 6894 ] final  164.56 input  -60.11 | X-H torsion
[ 7974 7965 7964 7962 ] final -159.59 input  175.53 | X-H torsion
[ 8008 7997 7996 7995 ] final  -36.96 input   59.86 | X-H torsion
[ 10167 10162 10161 10158 ] final -141.35 input  -65.29 | X-H torsion
[ 10718 10713 10712 10709 ] final   76.34 input   66.30 | X-H torsion
[ 10763 10752 10751 10750 ] final   61.39 input  -60.55 | X-H torsion
[ 11005 11000 10999 10996 ] final  -10.07 input  -57.11 | X-H torsion

> <Gold.Protein.ActiveResidues>
 VAL166  LYS551  ARG553  GLY616  TRP617  ASP618  TYR619  PRO620  LYS621  CYS622 
 ASP623  PHE694  ASN695  SER759  ASP760  ASP761  ALA762  ILE779  LEU786  VAL792 
 PHE793  MET794  SER795  GLU796  ALA797  LYS798  CYS799  TRP800  GLU811  SER814 

> <Gold.Protein.RotatedAtoms>
  151.9079  133.3554  159.3853 H   0  0  0  0  0  0  0  0  0  0  0  0  # atno 6907 bound_to 6896
  150.7065  134.4762  159.5458 H   0  0  0  0  0  0  0  0  0  0  0  0  # atno 6908 bound_to 6896
  152.2362  134.8273  160.0517 H   0  0  0  0  0  0  0  0  0  0  0  0  # atno 6909 bound_to 6896
  144.7459  140.3664  143.6085 H   0  0  0  0  0  0  0  0  0  0  0  0  # atno 7974 bound_to 7965
  154.4062  140.1617  156.2458 H   0  0  0  0  0  0  0  0  0  0  0  0  # atno 8008 bound_to 7997
  155.9161  140.3424  155.6114 H   0  0  0  0  0  0  0  0  0  0  0  0  # atno 8009 bound_to 7997
  155.7277  140.0776  157.2293 H   0  0  0  0  0  0  0  0  0  0  0  0  # atno 8010 bound_to 7997
  139.8193  143.7595  152.2666 H   0  0  0  0  0  0  0  0  0  0  0  0  # atno 10167 bound_to 10162
  157.6669  130.9769  150.1482 H   0  0  0  0  0  0  0  0  0  0  0  0  # atno 10718 bound_to 10713
  152.9949  135.5502  154.6026 H   0  0  0  0  0  0  0  0  0  0  0  0  # atno 10763 bound_to 10752
  154.5364  135.2817  155.1137 H   0  0  0  0  0  0  0  0  0  0  0  0  # atno 10764 bound_to 10752
  154.2432  135.6412  153.5267 H   0  0  0  0  0  0  0  0  0  0  0  0  # atno 10765 bound_to 10752
  140.7408  133.8672  155.8966 H   0  0  0  0  0  0  0  0  0  0  0  0  # atno 11005 bound_to 11000
  145.7124  139.1688  143.2531 LP  0  0  0  0  0  0  0  0  0  0  0  0  # atno 17320 bound_to 7965
  146.1337  140.7151  142.9400 LP  0  0  0  0  0  0  0  0  0  0  0  0  # atno 17321 bound_to 7965
  139.7769  144.7458  151.0144 LP  0  0  0  0  0  0  0  0  0  0  0  0  # atno 17342 bound_to 10162
  140.7814  143.4584  151.0312 LP  0  0  0  0  0  0  0  0  0  0  0  0  # atno 17343 bound_to 10162
  156.2288  130.3680  149.8469 LP  0  0  0  0  0  0  0  0  0  0  0  0  # atno 17370 bound_to 10713
  156.6302  130.8662  151.3493 LP  0  0  0  0  0  0  0  0  0  0  0  0  # atno 17371 bound_to 10713
  140.9838  134.1370  157.4470 LP  0  0  0  0  0  0  0  0  0  0  0  0  # atno 17394 bound_to 11000
  139.8806  135.0019  156.6094 LP  0  0  0  0  0  0  0  0  0  0  0  0  # atno 17395 bound_to 11000

$$$$
