#       Name:                AV-unprocessed.smi:694
#       Creating user name   scv26
#       Creation time:       Fri Mar 27 00:35:46 2020


#       File generated by GOLD software.
#

@<TRIPOS>MOLECULE
AV-unprocessed.smi:694
    47    48     1
SMALL
NO_CHARGES


@<TRIPOS>ATOM
      1 ****        -6.4104   0.5211   0.5488 C.3            1 S1                 0.0000
      2 ****        -5.6921  -0.6635   1.0055 N.pl3          1 S1                 0.0000
      3 ****        -6.4189  -1.7765   1.6024 C.3            1 S1                 0.0000
      4 ****        -4.2802  -0.6644   1.0139 C.ar           1 S1                 0.0000
      5 ****        -3.5073  -1.7519   1.4888 C.ar           1 S1                 0.0000
      6 ****        -2.0997  -1.6732   1.4689 C.ar           1 S1                 0.0000
      7 ****        -1.4644  -0.5147   0.9748 C.ar           1 S1                 0.0000
      8 ****        -0.0416  -0.4889   0.9940 N.am           1 S1                 0.0000
      9 ****         0.8005   0.4572   0.5413 C.2            1 S1                 0.0000
     10 ****         0.4719   1.4821  -0.0546 O.2            1 S1                 0.0000
     11 ****         2.0740   0.1423   0.8171 N.am           1 S1                 0.0000
     12 ****         3.2320   0.9636   0.4783 C.3            1 S1                 0.0000
     13 ****         3.6837   0.7591  -0.9816 C.3            1 S1                 0.0000
     14 ****         4.0904  -0.6865  -1.3138 C.3            1 S1                 0.0000
     15 ****         5.1835  -0.5986  -2.3916 C.3            1 S1                 0.0000
     16 ****         5.4434   0.8935  -2.6231 C.3            1 S1                 0.0000
     17 ****         4.9183   1.5828  -1.3638 C.3            1 S1                 0.0000
     18 ****         4.6031   2.9371  -1.6135 O.3            1 S1                 0.0000
     19 ****        -2.2809   0.5441   0.5092 C.ar           1 S1                 0.0000
     20 ****        -3.6259   0.4268   0.5470 N.pl3          1 S1                 1.0000
     21 ****        -6.1560   0.7476  -0.4871 H              1 S1                 0.0000
     22 ****        -6.1578   1.3840   1.1658 H              1 S1                 0.0000
     23 ****        -7.4898   0.3766   0.6016 H              1 S1                 0.0000
     24 ****        -6.1430  -1.8971   2.6504 H              1 S1                 0.0000
     25 ****        -6.2000  -2.7047   1.0735 H              1 S1                 0.0000
     26 ****        -7.4963  -1.6160   1.5581 H              1 S1                 0.0000
     27 ****        -3.9710  -2.6490   1.8710 H              1 S1                 0.0000
     28 ****        -1.5136  -2.5034   1.8356 H              1 S1                 0.0000
     29 ****         0.3947  -1.2896   1.4272 H              1 S1                 0.0000
     30 ****         2.2581  -0.7216   1.3060 H              1 S1                 0.0000
     31 ****         3.0082   2.0158   0.6621 H              1 S1                 0.0000
     32 ****         4.0416   0.7014   1.1601 H              1 S1                 0.0000
     33 ****         2.8690   1.0377  -1.6530 H              1 S1                 0.0000
     34 ****         4.4961  -1.1817  -0.4306 H              1 S1                 0.0000
     35 ****         3.2347  -1.2740  -1.6486 H              1 S1                 0.0000
     36 ****         6.0909  -1.0900  -2.0387 H              1 S1                 0.0000
     37 ****         4.8839  -1.0941  -3.3157 H              1 S1                 0.0000
     38 ****         6.4947   1.1127  -2.8136 H              1 S1                 0.0000
     39 ****         4.8752   1.2240  -3.4942 H              1 S1                 0.0000
     40 ****         5.6696   1.5244  -0.5747 H              1 S1                 0.0000
     41 ****         4.2435   3.3132  -0.8247 H              1 S1                 0.0000
     42 ****        -1.9279   1.4840   0.1143 H              1 S1                 0.0000
     43 ****        -4.1828   1.2103   0.2057 H              1 S1                 0.0000
     44 ****        -0.4938   1.6657  -0.2384 LP             1 S1                 0.0000
     45 ****         1.1704   2.1315  -0.3551 LP             1 S1                 0.0000
     46 ****         3.9310   2.9960  -2.3516 LP             1 S1                 0.0000
     47 ****         5.4309   3.4328  -1.8761 LP             1 S1                 0.0000
@<TRIPOS>BOND
    1    1    2 1     
    2    1   21 1     
    3    1   22 1     
    4    1   23 1     
    5    2    3 1     
    6    2    4 1     
    7    3   24 1     
    8    3   25 1     
    9    3   26 1     
   10    4   20 ar    
   11    4    5 ar    
   12    5    6 ar    
   13    5   27 1     
   14    6    7 ar    
   15    6   28 1     
   16    7    8 1     
   17    7   19 ar    
   18    8    9 am    
   19    8   29 1     
   20    9   10 2     
   21    9   11 am    
   22   11   12 1     
   23   11   30 1     
   24   12   13 1     
   25   12   31 1     
   26   12   32 1     
   27   13   17 1     
   28   13   14 1     
   29   13   33 1     
   30   14   15 1     
   31   14   34 1     
   32   14   35 1     
   33   15   16 1     
   34   15   36 1     
   35   15   37 1     
   36   16   17 1     
   37   16   38 1     
   38   16   39 1     
   39   17   18 1     
   40   17   40 1     
   41   18   41 1     
   42   19   20 ar    
   43   19   42 1     
   44   20   43 1     
   45   10   44 1     
   46   10   45 1     
   47   18   46 1     
   48   18   47 1     
@<TRIPOS>SUBSTRUCTURE
      1 S1             1
@<TRIPOS>SET
LONE_PAIRS      STATIC     ATOMS    <user>   **** ""
4 44 45 46 47
DONOR_HYDROGENS      STATIC     ATOMS    <user>   **** ""
4 29 30 41 43
ATOM$BLUE        STATIC     ATOMS    COLORGROUP SYSTEM
4 44 45 46 47
ATOM$RED        STATIC     ATOMS    COLORGROUP SYSTEM
4 29 30 41 43
