AV-unprocessed.smi:1374|AV-procd|sdf|5588|dock4
  -GOLD-   22720 5193D 1   1.00000     0.00000
 Structure written by MMmdl.
 42 43  0  0  0  0  0  0  0  0  2 V2000
  145.8542  131.5408  151.4760 C   0  0  0  0  0  0  0  0  0  0  0  0
  146.3972  132.9690  151.3602 C   0  0  0  0  0  0  0  0  0  0  0  0
  147.7586  133.1407  152.0541 C   0  0  0  0  0  0  0  0  0  0  0  0
  147.7985  132.6498  153.5181 C   0  0  0  0  0  0  0  0  0  0  0  0
  148.9579  133.1793  154.2723 N   0  0  0  0  0  0  0  0  0  0  0  0
  149.0174  134.5724  154.5458 C   0  0  0  0  0  0  0  0  0  0  0  0
  147.9994  135.3943  154.0833 N   0  0  0  0  0  0  0  0  0  0  0  0
  150.0378  135.0779  155.2895 C   0  0  0  0  0  0  0  0  0  0  0  0
  150.1320  136.4534  155.5954 N   0  0  0  0  0  0  0  0  0  0  0  0
  149.1185  136.9888  156.5113 C   0  0  0  0  0  0  0  0  0  0  0  0
  151.0548  137.3049  155.0584 C   0  0  0  0  0  0  0  0  0  0  0  0
  152.0281  136.8733  154.4354 O   0  0  0  0  0  0  0  0  0  0  0  0
  150.8107  138.7419  155.2199 C   0  0  0  0  0  0  0  0  0  0  0  0
  150.0835  139.3882  154.2802 C   0  0  0  0  0  0  0  0  0  0  0  0
  149.7512  140.7184  154.3505 O   0  0  0  0  0  0  0  0  0  0  0  0
  150.0199  141.3363  155.6040 C   0  0  0  0  0  0  0  0  0  0  0  0
  151.3504  140.8326  156.1810 C   0  0  0  0  0  0  0  0  0  0  0  0
  151.3131  139.4172  156.3098 O   0  0  0  0  0  0  0  0  0  0  0  0
  151.1010  134.1701  155.7420 C   0  0  0  0  0  0  0  0  0  0  0  0
  152.0647  134.6074  156.3713 O   0  0  0  0  0  0  0  0  0  0  0  0
  150.9792  132.8520  155.4369 N   0  5  0  0  0  0  0  0  0  0  0  0
  149.9376  132.3362  154.7249 C   0  0  0  0  0  0  0  0  0  0  0  0
  149.8561  131.1303  154.4877 O   0  0  0  0  0  0  0  0  0  0  0  0
  144.8944  131.4492  150.9675 H   0  0  0  0  0  0  0  0  0  0  0  0
  145.7078  131.2580  152.5187 H   0  0  0  0  0  0  0  0  0  0  0  0
  146.5391  130.8222  151.0250 H   0  0  0  0  0  0  0  0  0  0  0  0
  146.4831  133.2251  150.3041 H   0  0  0  0  0  0  0  0  0  0  0  0
  145.6768  133.6653  151.7904 H   0  0  0  0  0  0  0  0  0  0  0  0
  148.5146  132.5949  151.4888 H   0  0  0  0  0  0  0  0  0  0  0  0
  148.0520  134.1893  152.0057 H   0  0  0  0  0  0  0  0  0  0  0  0
  146.8504  132.8925  153.9997 H   0  0  0  0  0  0  0  0  0  0  0  0
  147.8156  131.5597  153.5366 H   0  0  0  0  0  0  0  0  0  0  0  0
  147.2191  135.0272  153.5583 H   0  0  0  0  0  0  0  0  0  0  0  0
  148.0590  136.3998  154.1540 H   0  0  0  0  0  0  0  0  0  0  0  0
  149.5883  137.4466  157.3829 H   0  0  0  0  0  0  0  0  0  0  0  0
  148.4416  136.2129  156.8714 H   0  0  0  0  0  0  0  0  0  0  0  0
  148.5075  137.7431  156.0133 H   0  0  0  0  0  0  0  0  0  0  0  0
  149.6685  138.9219  153.3980 H   0  0  0  0  0  0  0  0  0  0  0  0
  150.0472  142.4177  155.4700 H   0  0  0  0  0  0  0  0  0  0  0  0
  149.2018  141.1182  156.2916 H   0  0  0  0  0  0  0  0  0  0  0  0
  152.1834  141.1140  155.5351 H   0  0  0  0  0  0  0  0  0  0  0  0
  151.5383  141.2753  157.1593 H   0  0  0  0  0  0  0  0  0  0  0  0
  1  2  1  0  0  0  0
  1 24  1  0  0  0  0
  1 25  1  0  0  0  0
  1 26  1  0  0  0  0
  2  3  1  0  0  0  0
  2 27  1  0  0  0  0
  2 28  1  0  0  0  0
  3  4  1  0  0  0  0
  3 29  1  0  0  0  0
  3 30  1  0  0  0  0
  4  5  1  0  0  0  0
  4 31  1  0  0  0  0
  4 32  1  0  0  0  0
  5 22  1  0  0  0  0
  5  6  1  0  0  0  0
  6  7  1  0  0  0  0
  6  8  2  0  0  0  0
  7 33  1  0  0  0  0
  7 34  1  0  0  0  0
  8  9  1  0  0  0  0
  8 19  1  0  0  0  0
  9 10  1  0  0  0  0
  9 11  1  0  0  0  0
 10 35  1  0  0  0  0
 10 36  1  0  0  0  0
 10 37  1  0  0  0  0
 11 12  2  0  0  0  0
 11 13  1  0  0  0  0
 13 18  1  0  0  0  0
 13 14  2  0  0  0  0
 14 15  1  0  0  0  0
 14 38  1  0  0  0  0
 15 16  1  0  0  0  0
 16 17  1  0  0  0  0
 16 39  1  0  0  0  0
 16 40  1  0  0  0  0
 17 18  1  0  0  0  0
 17 41  1  0  0  0  0
 17 42  1  0  0  0  0
 19 20  2  0  0  0  0
 19 21  1  0  0  0  0
 21 22  1  0  0  0  0
 22 23  2  0  0  0  0
M  CHG  1  21  -1
M  END
> <s_m_source_file>
AV-unprocessed.smi

> <i_m_source_file_index>
1374

> <i_lp_mmshare_version>
43012

> <i_f3d_flags>
0

> <s_epik_input>
W0NIM11bQ0gyXVtDSDJdW0NIMl1uMWMoW05IMl0pYyhjKD1PKVtuSF1jMT1PKU4oW0NIM10pQyg9TylDMj1bQ0hdT1tDSDJdW0NIMl1PMg==

> <s_epik_cmdline>
J2VwaWtfcHl0aG9uJywgJy1waCcsICc3LjAnLCAnLXRuJywgJzgnLCAnLW1hJywgJzIwMCcsICctbWV0YWxfYmluZGluZycsICctaW1hZScsICc8aW5maWxlLm1hZT4nLCAnLW9tYWUnLCAnPG91dGZpbGUubWFlPic=

> <r_lp_tautomer_probability>
1

> <r_epik_Ionization_Penalty>
6.1831

> <r_epik_Ionization_Penalty_Charging>
0.183564

> <r_epik_Ionization_Penalty_Neutral>
5.99954

> <r_epik_State_Penalty>
5.99952

> <r_epik_Charging_Adjusted_Penalty>
6.18308

> <i_epik_Tot_Q>
-1

> <i_epik_Tot_abs_Q>
1

> <r_epik_Metal_State_Penalty>
1.93002

> <b_epik_Metal_Only>
1

> <s_epik_Chemistry_Notes>
This compound has an imine and may undergo hydrolysis.

> <s_lp_Force_Field>
OPLS_2005

> <r_lp_Energy>
38.087

> <b_lp_Chiralities_Consistent>
1

> <s_lp_Variant>
AV-unprocessed.smi:1374-2

> <Gold.Version>
5.8.1

> <Gold.Id.Protein>
6NUR|6NUR_protein|mol2

> <Gold.PLP.Fitness>
39.8368

> <Gold.PLP.PLP>
-36.3079

> <Gold.PLP.part.hbond>
-3.8051

> <Gold.PLP.part.metal>
0.0000

> <Gold.PLP.part.buried>
-4.4929

> <Gold.PLP.part.nonpolar>
-28.8328

> <Gold.PLP.part.repulsive>
0.2938

> <Gold.PLP.ligand.clash>
0.0000

> <Gold.PLP.ligand.torsion>
2.9965

> <Gold.PLP.Chemscore.Hbond>
1.1376

> <Gold.PLP.Chemscore.CHOScore>
0.8776

> <Gold.PLP.Chemscore.Metal>
0.0000

> <Gold.Chemscore.Hbonds>
donor molecule, donor type, donor heavy atom, donor atom, acceptor molecule, acceptor atom, score
      P1  H  7989  7998       L1    15  0.03
      P1  H 10752 10763       L1    12  0.96
      L1  C    14    38       P1  7957  0.87

> <Gold.PLP.Chemscore.Internal.Correction>
3.4763

> <Gold.Rescore>
     Score         DG    S(hbond)    S(metal)    S(lipo)     H(rot)  DE(clash)    DE(int)     intcor
      8.51     -13.11       1.21        0.00      62.86       1.47       0.67       3.93       ----

> <Gold.Chemscore.Fitness>
8.5082

> <Gold.Chemscore.DG>
-13.1098

> <Gold.Chemscore.ZeroCoef>
-5.4800

> <Gold.Chemscore.Hbond>
1.2103

> <Gold.Chemscore.Metal>
0.0000

> <Gold.Chemscore.Lipo>
62.8599

> <Gold.Chemscore.Internal_Hbond>
0.0000

> <Gold.Chemscore.DEClash>
0.6673

> <Gold.Chemscore.DEInternal>
3.9343

> <Gold.Chemscore.Rot>
1.4715

> <Gold.Chemscore.Internal.Correction>
   9.000000E+99

> <Gold.Chemscore.Hbonds>
donor molecule, donor type, donor heavy atom, donor atom, acceptor molecule, acceptor atom, score
      P1  H 10752 10763       L1    12  0.87

> <Gold.Chemscore.Hbond.Weighted>
-4.0423

> <Gold.Chemscore.Metal.Weighted>
-0.0000

> <Gold.Chemscore.Lipo.Weighted>
-7.3546

> <Gold.Chemscore.Internal_Hbond.Weighted>
0.0000

> <Gold.Chemscore.DEClash.Weighted>
0.6673

> <Gold.Chemscore.DEInternal.Weighted>
3.9343

> <Gold.Chemscore.Rot.Weighted>
3.7671

> <Gold.Chemscore.Internal.Correction.Weighted>
   9.000000E+99

> <Gold.Protein.RotatedTorsions>
[ 6907 6896 6895 6894 ] final -127.13 input  -60.11 | X-H torsion
[ 7974 7965 7964 7962 ] final   93.76 input  175.53 | X-H torsion
[ 8008 7997 7996 7995 ] final  167.54 input   59.86 | X-H torsion
[ 10167 10162 10161 10158 ] final  -58.70 input  -65.29 | X-H torsion
[ 10718 10713 10712 10709 ] final   -8.97 input   66.30 | X-H torsion
[ 10763 10752 10751 10750 ] final   55.39 input  -60.55 | X-H torsion
[ 11005 11000 10999 10996 ] final  -83.22 input  -57.11 | X-H torsion

> <Gold.Protein.ActiveResidues>
 VAL166  LYS551  ARG553  GLY616  TRP617  ASP618  TYR619  PRO620  LYS621  CYS622 
 ASP623  PHE694  ASN695  SER759  ASP760  ASP761  ALA762  ILE779  LEU786  VAL792 
 PHE793  MET794  SER795  GLU796  ALA797  LYS798  CYS799  TRP800  GLU811  SER814 

> <Gold.Protein.RotatedAtoms>
  150.9041  133.7081  159.2871 H   0  0  0  0  0  0  0  0  0  0  0  0  # atno 6907 bound_to 6896
  151.4590  135.1035  159.9729 H   0  0  0  0  0  0  0  0  0  0  0  0  # atno 6908 bound_to 6896
  152.4893  133.8409  159.7207 H   0  0  0  0  0  0  0  0  0  0  0  0  # atno 6909 bound_to 6896
  145.4746  139.2280  143.2916 H   0  0  0  0  0  0  0  0  0  0  0  0  # atno 7974 bound_to 7965
  156.1625  140.1614  156.8587 H   0  0  0  0  0  0  0  0  0  0  0  0  # atno 8008 bound_to 7997
  154.5175  140.0786  156.8144 H   0  0  0  0  0  0  0  0  0  0  0  0  # atno 8009 bound_to 7997
  155.3678  140.3398  155.4244 H   0  0  0  0  0  0  0  0  0  0  0  0  # atno 8010 bound_to 7997
  140.6181  143.2409  151.5548 H   0  0  0  0  0  0  0  0  0  0  0  0  # atno 10167 bound_to 10162
  156.6949  130.5076  149.5933 H   0  0  0  0  0  0  0  0  0  0  0  0  # atno 10718 bound_to 10713
  152.9816  135.5712  154.5059 H   0  0  0  0  0  0  0  0  0  0  0  0  # atno 10763 bound_to 10752
  154.4571  135.2780  155.1742 H   0  0  0  0  0  0  0  0  0  0  0  0  # atno 10764 bound_to 10752
  154.3345  135.6242  153.5620 H   0  0  0  0  0  0  0  0  0  0  0  0  # atno 10765 bound_to 10752
  141.1659  133.7284  156.8688 H   0  0  0  0  0  0  0  0  0  0  0  0  # atno 11005 bound_to 11000
  146.2376  140.5527  142.8948 LP  0  0  0  0  0  0  0  0  0  0  0  0  # atno 17320 bound_to 7965
  144.7925  140.6059  143.6532 LP  0  0  0  0  0  0  0  0  0  0  0  0  # atno 17321 bound_to 7965
  139.5415  144.2634  152.1360 LP  0  0  0  0  0  0  0  0  0  0  0  0  # atno 17342 bound_to 10162
  140.1848  144.4809  150.6509 LP  0  0  0  0  0  0  0  0  0  0  0  0  # atno 17343 bound_to 10162
  156.1771  130.6475  151.0907 LP  0  0  0  0  0  0  0  0  0  0  0  0  # atno 17370 bound_to 10713
  157.6995  131.0781  150.6865 LP  0  0  0  0  0  0  0  0  0  0  0  0  # atno 17371 bound_to 10713
  140.1796  134.9043  157.2932 LP  0  0  0  0  0  0  0  0  0  0  0  0  # atno 17394 bound_to 11000
  140.2410  134.3795  155.7481 LP  0  0  0  0  0  0  0  0  0  0  0  0  # atno 17395 bound_to 11000

$$$$
