#       Name:                AV-unprocessed.smi:2083
#       Creating user name   scv26
#       Creation time:       Fri Mar 27 11:20:19 2020


#       File generated by GOLD software.
#

@<TRIPOS>MOLECULE
AV-unprocessed.smi:2083
    50    51     1
SMALL
NO_CHARGES


@<TRIPOS>ATOM
      1 ****        -3.5740   7.0268   2.3377 C.3            1 S1                 0.0000
      2 ****        -3.0433   5.6801   1.9830 C.2            1 S1                 0.0000
      3 ****        -3.0406   4.9570   0.8232 C.2            1 S1                 0.0000
      4 ****        -2.3676   3.7623   1.1929 C.2            1 S1                 0.0000
      5 ****        -2.1465   2.7276   0.2480 N.am           1 S1                 0.0000
      6 ****        -1.5254   1.5536   0.4532 C.2            1 S1                 0.0000
      7 ****        -1.0584   1.1750   1.5280 O.2            1 S1                 0.0000
      8 ****        -1.4650   0.8252  -0.6711 N.am           1 S1                 0.0000
      9 ****        -0.8406  -0.4909  -0.7687 C.3            1 S1                 0.0000
     10 ****         0.7087  -0.4255  -0.7949 C.3            1 S1                 0.0000
     11 ****         1.1868   0.4198  -2.0001 C.3            1 S1                 0.0000
     12 ****         1.2716  -1.8145  -0.7523 N.4            1 S1                 1.0000
     13 ****         2.5917  -2.0131  -1.4181 C.3            1 S1                 0.0000
     14 ****         2.9920  -3.4978  -1.4434 C.3            1 S1                 0.0000
     15 ****         2.9945  -4.1039  -0.0350 C.3            1 S1                 0.0000
     16 ****         1.6530  -3.8564   0.6744 C.3            1 S1                 0.0000
     17 ****         0.5156  -4.7403   0.1336 C.3            1 S1                 0.0000
     18 ****         1.2963  -2.3573   0.6373 C.3            1 S1                 0.0000
     19 ****        -1.9955   3.7553   2.4640 N.2            1 S1                 0.0000
     20 ****        -2.4271   4.9842   2.9769 O.3            1 S1                 0.0000
     21 ****        -3.8161   7.5983   1.4416 H              1 S1                 0.0000
     22 ****        -2.8406   7.5942   2.9112 H              1 S1                 0.0000
     23 ****        -4.4796   6.9385   2.9380 H              1 S1                 0.0000
     24 ****        -3.4528   5.2414  -0.1337 H              1 S1                 0.0000
     25 ****        -2.4881   2.9067  -0.6848 H              1 S1                 0.0000
     26 ****        -1.8736   1.2045  -1.5131 H              1 S1                 0.0000
     27 ****        -1.2079  -1.1072   0.0517 H              1 S1                 0.0000
     28 ****        -1.2026  -0.9659  -1.6811 H              1 S1                 0.0000
     29 ****         1.0582   0.0937   0.0992 H              1 S1                 0.0000
     30 ****         0.7460   1.4165  -1.9891 H              1 S1                 0.0000
     31 ****         0.9146  -0.0439  -2.9487 H              1 S1                 0.0000
     32 ****         2.2660   0.5738  -1.9886 H              1 S1                 0.0000
     33 ****         2.5615  -1.6775  -2.4540 H              1 S1                 0.0000
     34 ****         3.3535  -1.4228  -0.9065 H              1 S1                 0.0000
     35 ****         2.3053  -4.0517  -2.0844 H              1 S1                 0.0000
     36 ****         3.9795  -3.6066  -1.8928 H              1 S1                 0.0000
     37 ****         3.2140  -5.1712  -0.0807 H              1 S1                 0.0000
     38 ****         3.7986  -3.6513   0.5469 H              1 S1                 0.0000
     39 ****         1.7854  -4.1342   1.7210 H              1 S1                 0.0000
     40 ****         0.2885  -4.5217  -0.9098 H              1 S1                 0.0000
     41 ****        -0.3999  -4.5918   0.7068 H              1 S1                 0.0000
     42 ****         0.7758  -5.7969   0.2023 H              1 S1                 0.0000
     43 ****         2.0279  -1.7953   1.2206 H              1 S1                 0.0000
     44 ****         0.3387  -2.2088   1.1346 H              1 S1                 0.0000
     45 ****         0.6222  -2.3859  -1.2738 H              1 S1                 0.0000
     46 ****        -1.1268   1.7594   2.3365 LP             1 S1                 0.0000
     47 ****        -0.6108   0.2830   1.5922 LP             1 S1                 0.0000
     48 ****        -1.5110   3.0291   2.9518 LP             1 S1                 0.0000
     49 ****        -3.0698   4.8286   3.7270 LP             1 S1                 0.0000
     50 ****        -1.6412   5.5029   3.3135 LP             1 S1                 0.0000
@<TRIPOS>BOND
    1    1    2 1     
    2    1   21 1     
    3    1   22 1     
    4    1   23 1     
    5    2   20 1     
    6    2    3 2     
    7    3    4 1     
    8    3   24 1     
    9    4    5 1     
   10    4   19 2     
   11    5    6 am    
   12    5   25 1     
   13    6    7 2     
   14    6    8 am    
   15    8    9 1     
   16    8   26 1     
   17    9   10 1     
   18    9   27 1     
   19    9   28 1     
   20   10   11 1     
   21   10   12 1     
   22   10   29 1     
   23   11   30 1     
   24   11   31 1     
   25   11   32 1     
   26   12   18 1     
   27   12   13 1     
   28   12   45 1     
   29   13   14 1     
   30   13   33 1     
   31   13   34 1     
   32   14   15 1     
   33   14   35 1     
   34   14   36 1     
   35   15   16 1     
   36   15   37 1     
   37   15   38 1     
   38   16   17 1     
   39   16   18 1     
   40   16   39 1     
   41   17   40 1     
   42   17   41 1     
   43   17   42 1     
   44   18   43 1     
   45   18   44 1     
   46   19   20 1     
   47    7   46 1     
   48    7   47 1     
   49   19   48 1     
   50   20   49 1     
   51   20   50 1     
@<TRIPOS>SUBSTRUCTURE
      1 S1             1
@<TRIPOS>SET
LONE_PAIRS      STATIC     ATOMS    <user>   **** ""
5 46 47 48 49 50
DONOR_HYDROGENS      STATIC     ATOMS    <user>   **** ""
3 25 26 45
ATOM$BLUE        STATIC     ATOMS    COLORGROUP SYSTEM
5 46 47 48 49 50
ATOM$RED        STATIC     ATOMS    COLORGROUP SYSTEM
3 25 26 45
