AV-unprocessed.smi:2785|AV-procd|sdf|10747|dock9
  -GOLD-   2272015183D 1   1.00000     0.00000
 Structure written by MMmdl.
 37 38  0  0  0  0  0  0  0  0  1 V2000
  144.5159  132.5825  149.3146 C   0  0  0  0  0  0  0  0  0  0  0  0
  145.2346  132.6562  150.6742 C   0  0  0  0  0  0  0  0  0  0  0  0
  144.7040  131.6025  151.6592 C   0  0  0  0  0  0  0  0  0  0  0  0
  145.1710  133.9944  151.2784 N   0  0  0  0  0  0  0  0  0  0  0  0
  144.6291  135.1443  150.5724 C   0  0  0  0  0  0  0  0  0  0  0  0
  144.5173  136.2424  151.6345 C   0  0  0  0  0  0  0  0  0  0  0  0
  145.3694  135.7893  152.8311 C   0  0  2  0  0  0  0  0  0  0  0  0
  146.6390  136.5127  152.8398 N   0  0  0  0  0  0  0  0  0  0  0  0
  146.9538  137.5131  153.6759 C   0  0  0  0  0  0  0  0  0  0  0  0
  146.1804  137.9572  154.5248 O   0  0  0  0  0  0  0  0  0  0  0  0
  148.2080  137.9482  153.4614 N   0  0  0  0  0  0  0  0  0  0  0  0
  148.9098  138.9765  154.1451 C   0  0  0  0  0  0  0  0  0  0  0  0
  148.1371  140.1155  154.4669 C   0  0  0  0  0  0  0  0  0  0  0  0
  148.7399  141.1934  155.1444 C   0  0  0  0  0  0  0  0  0  0  0  0
  150.1016  141.1018  155.4830 C   0  0  0  0  0  0  0  0  0  0  0  0
  150.7245  142.1125  156.1344 F   0  0  0  0  0  0  0  0  0  0  0  0
  150.7997  139.9331  155.1274 C   0  0  0  0  0  0  0  0  0  0  0  0
  150.2230  138.8995  154.4778 N   0  0  0  0  0  0  0  0  0  0  0  0
  145.6103  134.3168  152.5029 C   0  0  0  0  0  0  0  0  0  0  0  0
  146.1323  133.5414  153.3037 O   0  0  0  0  0  0  0  0  0  0  0  0
  144.6613  131.6053  148.8535 H   0  0  0  0  0  0  0  0  0  0  0  0
  144.9045  133.3296  148.6219 H   0  0  0  0  0  0  0  0  0  0  0  0
  143.4411  132.7380  149.4126 H   0  0  0  0  0  0  0  0  0  0  0  0
  146.2843  132.4268  150.4807 H   0  0  0  0  0  0  0  0  0  0  0  0
  144.7841  130.5993  151.2400 H   0  0  0  0  0  0  0  0  0  0  0  0
  143.6555  131.7794  151.9010 H   0  0  0  0  0  0  0  0  0  0  0  0
  145.2677  131.6133  152.5924 H   0  0  0  0  0  0  0  0  0  0  0  0
  145.3173  135.4462  149.7819 H   0  0  0  0  0  0  0  0  0  0  0  0
  143.6610  134.9212  150.1219 H   0  0  0  0  0  0  0  0  0  0  0  0
  144.8076  137.2189  151.2439 H   0  0  0  0  0  0  0  0  0  0  0  0
  143.4770  136.3283  151.9519 H   0  0  0  0  0  0  0  0  0  0  0  0
  144.8274  135.9039  153.7715 H   0  0  0  0  0  0  0  0  0  0  0  0
  147.3360  136.2114  152.1748 H   0  0  0  0  0  0  0  0  0  0  0  0
  148.7246  137.4835  152.7297 H   0  0  0  0  0  0  0  0  0  0  0  0
  147.0920  140.1679  154.1977 H   0  0  0  0  0  0  0  0  0  0  0  0
  148.1674  142.0731  155.3988 H   0  0  0  0  0  0  0  0  0  0  0  0
  151.8465  139.8240  155.3698 H   0  0  0  0  0  0  0  0  0  0  0  0
  1  2  1  0  0  0  0
  1 21  1  0  0  0  0
  1 22  1  0  0  0  0
  1 23  1  0  0  0  0
  2  3  1  0  0  0  0
  2  4  1  0  0  0  0
  2 24  1  0  0  0  0
  3 25  1  0  0  0  0
  3 26  1  0  0  0  0
  3 27  1  0  0  0  0
  4 19  1  0  0  0  0
  4  5  1  0  0  0  0
  5  6  1  0  0  0  0
  5 28  1  0  0  0  0
  5 29  1  0  0  0  0
  6  7  1  0  0  0  0
  6 30  1  0  0  0  0
  6 31  1  0  0  0  0
  7  8  1  0  0  0  0
  7 19  1  0  0  0  0
  7 32  1  0  0  0  0
  8  9  1  0  0  0  0
  8 33  1  0  0  0  0
  9 10  2  0  0  0  0
  9 11  1  0  0  0  0
 11 12  1  0  0  0  0
 11 34  1  0  0  0  0
 12 18  1  0  0  0  0
 12 13  2  0  0  0  0
 13 14  1  0  0  0  0
 13 35  1  0  0  0  0
 14 15  2  0  0  0  0
 14 36  1  0  0  0  0
 15 16  1  0  0  0  0
 15 17  1  0  0  0  0
 17 18  2  0  0  0  0
 17 37  1  0  0  0  0
 19 20  2  0  0  0  0
M  END
> <s_m_source_file>
AV-unprocessed.smi

> <i_m_source_file_index>
2785

> <i_lp_mmshare_version>
43012

> <i_f3d_flags>
0

> <s_epik_input>
W0NIM11bQ0hdKFtDSDNdKU4xW0NIMl1bQ0gyXVtDQEhdKEMxPU8pW05IXUMoPU8pW05IXWMyW2NIXVtjSF1jKEYpW2NIXW4y

> <s_epik_cmdline>
J2VwaWtfcHl0aG9uJywgJy1waCcsICc3LjAnLCAnLXRuJywgJzgnLCAnLW1hJywgJzIwMCcsICctbWV0YWxfYmluZGluZycsICctaW1hZScsICc8aW5maWxlLm1hZT4nLCAnLW9tYWUnLCAnPG91dGZpbGUubWFlPic=

> <r_lp_tautomer_probability>
1

> <r_epik_Ionization_Penalty>
3.20266e-05

> <r_epik_Ionization_Penalty_Charging>
0

> <r_epik_Ionization_Penalty_Neutral>
3.20266e-05

> <r_epik_State_Penalty>
-0

> <r_epik_Charging_Adjusted_Penalty>
0

> <i_epik_Tot_Q>
0

> <i_epik_Tot_abs_Q>
0

> <r_epik_Metal_State_Penalty>
-0

> <b_epik_Metal_Only>
0

> <s_lp_Force_Field>
OPLS_2005

> <r_lp_Energy>
23.5858

> <b_lp_Chiralities_Consistent>
1

> <s_lp_Variant>
AV-unprocessed.smi:2785-2

> <Gold.Version>
5.8.1

> <Gold.Id.Protein>
6NUR|6NUR_protein|mol2

> <Gold.PLP.Fitness>
35.6370

> <Gold.PLP.PLP>
-31.3168

> <Gold.PLP.part.hbond>
-1.7817

> <Gold.PLP.part.metal>
0.0000

> <Gold.PLP.part.buried>
-2.2246

> <Gold.PLP.part.nonpolar>
-27.6166

> <Gold.PLP.part.repulsive>
0.3809

> <Gold.PLP.ligand.clash>
0.0000

> <Gold.PLP.ligand.torsion>
0.7450

> <Gold.PLP.Chemscore.Hbond>
1.9120

> <Gold.PLP.Chemscore.CHOScore>
0.0000

> <Gold.PLP.Chemscore.Metal>
0.0000

> <Gold.Chemscore.Hbonds>
donor molecule, donor type, donor heavy atom, donor atom, acceptor molecule, acceptor atom, score
      L1  H     8    33       P1  7948  0.90
      L1  H    11    34       P1  7948  0.98

> <Gold.PLP.Chemscore.Internal.Correction>
0.0741

> <Gold.Rescore>
     Score         DG    S(hbond)    S(metal)    S(lipo)     H(rot)  DE(clash)    DE(int)     intcor
     13.27     -15.98       1.94        0.00      62.67       1.29       0.01       2.70       ----

> <Gold.Chemscore.Fitness>
13.2722

> <Gold.Chemscore.DG>
-15.9803

> <Gold.Chemscore.ZeroCoef>
-5.4800

> <Gold.Chemscore.Hbond>
1.9353

> <Gold.Chemscore.Metal>
0.0000

> <Gold.Chemscore.Lipo>
62.6702

> <Gold.Chemscore.Internal_Hbond>
0.0000

> <Gold.Chemscore.DEClash>
0.0126

> <Gold.Chemscore.DEInternal>
2.6955

> <Gold.Chemscore.Rot>
1.2875

> <Gold.Chemscore.Internal.Correction>
   9.000000E+99

> <Gold.Chemscore.Hbonds>
donor molecule, donor type, donor heavy atom, donor atom, acceptor molecule, acceptor atom, score
      L1  H     8    33       P1  7948  0.88
      L1  H    11    34       P1  7948  0.87

> <Gold.Chemscore.Hbond.Weighted>
-6.4638

> <Gold.Chemscore.Metal.Weighted>
-0.0000

> <Gold.Chemscore.Lipo.Weighted>
-7.3324

> <Gold.Chemscore.Internal_Hbond.Weighted>
0.0000

> <Gold.Chemscore.DEClash.Weighted>
0.0126

> <Gold.Chemscore.DEInternal.Weighted>
2.6955

> <Gold.Chemscore.Rot.Weighted>
3.2959

> <Gold.Chemscore.Internal.Correction.Weighted>
   9.000000E+99

> <Gold.Protein.RotatedTorsions>
[ 6907 6896 6895 6894 ] final  172.34 input  -60.11 | X-H torsion
[ 7974 7965 7964 7962 ] final -123.28 input  175.53 | X-H torsion
[ 8008 7997 7996 7995 ] final  -14.21 input   59.86 | X-H torsion
[ 10167 10162 10161 10158 ] final -105.79 input  -65.29 | X-H torsion
[ 10718 10713 10712 10709 ] final   29.85 input   66.30 | X-H torsion
[ 10763 10752 10751 10750 ] final -100.48 input  -60.55 | X-H torsion
[ 11005 11000 10999 10996 ] final -119.54 input  -57.11 | X-H torsion

> <Gold.Protein.ActiveResidues>
 VAL166  LYS551  ARG553  GLY616  TRP617  ASP618  TYR619  PRO620  LYS621  CYS622 
 ASP623  PHE694  ASN695  SER759  ASP760  ASP761  ALA762  ILE779  LEU786  VAL792 
 PHE793  MET794  SER795  GLU796  ALA797  LYS798  CYS799  TRP800  GLU811  SER814 

> <Gold.Protein.RotatedAtoms>
  151.7858  133.3354  159.3484 H   0  0  0  0  0  0  0  0  0  0  0  0  # atno 6907 bound_to 6896
  150.7410  134.5889  159.5986 H   0  0  0  0  0  0  0  0  0  0  0  0  # atno 6908 bound_to 6896
  152.3244  134.7340  160.0357 H   0  0  0  0  0  0  0  0  0  0  0  0  # atno 6909 bound_to 6896
  145.0204  140.7983  143.4384 H   0  0  0  0  0  0  0  0  0  0  0  0  # atno 7974 bound_to 7965
  154.5228  140.2229  155.8944 H   0  0  0  0  0  0  0  0  0  0  0  0  # atno 8008 bound_to 7997
  156.1681  140.3128  155.8889 H   0  0  0  0  0  0  0  0  0  0  0  0  # atno 8009 bound_to 7997
  155.3615  140.0461  157.3037 H   0  0  0  0  0  0  0  0  0  0  0  0  # atno 8010 bound_to 7997
  140.1948  143.3864  152.1177 H   0  0  0  0  0  0  0  0  0  0  0  0  # atno 10167 bound_to 10162
  157.2520  130.7119  149.6410 H   0  0  0  0  0  0  0  0  0  0  0  0  # atno 10718 bound_to 10713
  154.7583  135.4933  153.9415 H   0  0  0  0  0  0  0  0  0  0  0  0  # atno 10763 bound_to 10752
  153.1221  135.6734  153.9326 H   0  0  0  0  0  0  0  0  0  0  0  0  # atno 10764 bound_to 10752
  153.9055  135.3105  155.3427 H   0  0  0  0  0  0  0  0  0  0  0  0  # atno 10765 bound_to 10752
  141.0208  134.0127  157.3285 H   0  0  0  0  0  0  0  0  0  0  0  0  # atno 11005 bound_to 11000
  145.1904  139.2304  143.5246 LP  0  0  0  0  0  0  0  0  0  0  0  0  # atno 17320 bound_to 7965
  146.3484  140.1698  142.8590 LP  0  0  0  0  0  0  0  0  0  0  0  0  # atno 17321 bound_to 7965
  139.5241  144.7080  151.5295 LP  0  0  0  0  0  0  0  0  0  0  0  0  # atno 17342 bound_to 10162
  140.6431  143.8849  150.6711 LP  0  0  0  0  0  0  0  0  0  0  0  0  # atno 17343 bound_to 10162
  155.9666  130.4425  150.5382 LP  0  0  0  0  0  0  0  0  0  0  0  0  # atno 17370 bound_to 10713
  157.3268  131.0692  151.1891 LP  0  0  0  0  0  0  0  0  0  0  0  0  # atno 17371 bound_to 10713
  139.9145  135.0195  156.7825 LP  0  0  0  0  0  0  0  0  0  0  0  0  # atno 17394 bound_to 11000
  140.6576  133.9674  155.7788 LP  0  0  0  0  0  0  0  0  0  0  0  0  # atno 17395 bound_to 11000

$$$$
