AV-unprocessed.smi:2345|AV-procd|sdf|9361|dock1
  -GOLD-   2272012583D 1   1.00000     0.00000
 Structure written by MMmdl.
 37 38  0  0  0  0  0  0  0  0  1 V2000
  147.6711  141.6024  154.5530 C   0  0  0  0  0  0  0  0  0  0  0  0
  149.0273  141.1761  155.1203 C   0  0  0  0  0  0  0  0  0  0  0  0
  149.4345  139.4698  154.6574 S   0  0  0  0  0  0  0  0  0  0  0  0
  151.2408  139.4912  154.8582 C   0  0  2  0  0  0  0  0  0  0  0  0
  151.9279  138.4115  154.0182 C   0  0  0  0  0  0  0  0  0  0  0  0
  153.2470  138.1603  154.7407 C   0  0  0  0  0  0  0  0  0  0  0  0
  152.8847  138.2560  156.2231 C   0  0  0  0  0  0  0  0  0  0  0  0
  151.6982  139.2370  156.3108 C   0  0  1  0  0  0  0  0  0  0  0  0
  152.0913  140.4890  156.9526 N   0  0  0  0  0  0  0  0  0  0  0  0
  152.1454  140.6923  158.2761 C   0  0  0  0  0  0  0  0  0  0  0  0
  151.8908  139.8206  159.1069 O   0  0  0  0  0  0  0  0  0  0  0  0
  152.4878  141.9609  158.5569 N   0  0  0  0  0  0  0  0  0  0  0  0
  152.6323  142.5800  159.8282 C   0  0  0  0  0  0  0  0  0  0  0  0
  153.1366  141.9238  160.9771 C   0  0  0  0  0  0  0  0  0  0  0  0
  153.2470  142.6544  162.1772 C   0  0  0  0  0  0  0  0  0  0  0  0
  152.9045  143.9552  162.2907 N   0  0  0  0  0  0  0  0  0  0  0  0
  152.4381  144.5814  161.1897 C   0  0  0  0  0  0  0  0  0  0  0  0
  152.2889  143.9438  159.9417 C   0  0  0  0  0  0  0  0  0  0  0  0
  151.8184  144.6326  158.8737 F   0  0  0  0  0  0  0  0  0  0  0  0
  147.4322  142.6250  154.8448 H   0  0  0  0  0  0  0  0  0  0  0  0
  146.8721  140.9563  154.9173 H   0  0  0  0  0  0  0  0  0  0  0  0
  147.6698  141.5574  153.4636 H   0  0  0  0  0  0  0  0  0  0  0  0
  149.8092  141.8407  154.7527 H   0  0  0  0  0  0  0  0  0  0  0  0
  149.0170  141.2593  156.2069 H   0  0  0  0  0  0  0  0  0  0  0  0
  151.6085  140.4599  154.5148 H   0  0  0  0  0  0  0  0  0  0  0  0
  151.3341  137.4962  154.0206 H   0  0  0  0  0  0  0  0  0  0  0  0
  152.0688  138.7144  152.9803 H   0  0  0  0  0  0  0  0  0  0  0  0
  153.6947  137.2012  154.4791 H   0  0  0  0  0  0  0  0  0  0  0  0
  153.9611  138.9442  154.4846 H   0  0  0  0  0  0  0  0  0  0  0  0
  152.5649  137.2759  156.5794 H   0  0  0  0  0  0  0  0  0  0  0  0
  153.7404  138.5518  156.8319 H   0  0  0  0  0  0  0  0  0  0  0  0
  150.8926  138.7664  156.8783 H   0  0  0  0  0  0  0  0  0  0  0  0
  152.3155  141.2611  156.3421 H   0  0  0  0  0  0  0  0  0  0  0  0
  152.5861  142.5795  157.7652 H   0  0  0  0  0  0  0  0  0  0  0  0
  153.4490  140.8911  160.9601 H   0  0  0  0  0  0  0  0  0  0  0  0
  153.6281  142.1811  163.0698 H   0  0  0  0  0  0  0  0  0  0  0  0
  152.1772  145.6229  161.3061 H   0  0  0  0  0  0  0  0  0  0  0  0
  1  2  1  0  0  0  0
  1 20  1  0  0  0  0
  1 21  1  0  0  0  0
  1 22  1  0  0  0  0
  2  3  1  0  0  0  0
  2 23  1  0  0  0  0
  2 24  1  0  0  0  0
  3  4  1  0  0  0  0
  4  8  1  0  0  0  0
  4  5  1  0  0  0  0
  4 25  1  0  0  0  0
  5  6  1  0  0  0  0
  5 26  1  0  0  0  0
  5 27  1  0  0  0  0
  6  7  1  0  0  0  0
  6 28  1  0  0  0  0
  6 29  1  0  0  0  0
  7  8  1  0  0  0  0
  7 30  1  0  0  0  0
  7 31  1  0  0  0  0
  8  9  1  0  0  0  0
  8 32  1  0  0  0  0
  9 10  1  0  0  0  0
  9 33  1  0  0  0  0
 10 11  2  0  0  0  0
 10 12  1  0  0  0  0
 12 13  1  0  0  0  0
 12 34  1  0  0  0  0
 13 18  1  0  0  0  0
 13 14  2  0  0  0  0
 14 15  1  0  0  0  0
 14 35  1  0  0  0  0
 15 16  2  0  0  0  0
 15 36  1  0  0  0  0
 16 17  1  0  0  0  0
 17 18  2  0  0  0  0
 17 37  1  0  0  0  0
 18 19  1  0  0  0  0
M  END
> <s_m_source_file>
AV-unprocessed.smi

> <i_m_source_file_index>
2345

> <i_lp_mmshare_version>
43012

> <i_f3d_flags>
0

> <s_epik_input>
W0NIM11bQ0gyXVNbQ0BASF0xW0NIMl1bQ0gyXVtDSDJdW0NASF0xW05IXUMoPU8pW05IXWMyW2NIXVtjSF1uW2NIXWMyRg==

> <s_epik_cmdline>
J2VwaWtfcHl0aG9uJywgJy1waCcsICc3LjAnLCAnLXRuJywgJzgnLCAnLW1hJywgJzIwMCcsICctbWV0YWxfYmluZGluZycsICctaW1hZScsICc8aW5maWxlLm1hZT4nLCAnLW9tYWUnLCAnPG91dGZpbGUubWFlPic=

> <r_epik_Ionization_Penalty>
0.00333745

> <r_epik_Ionization_Penalty_Charging>
0

> <r_epik_Ionization_Penalty_Neutral>
0.00333745

> <r_epik_State_Penalty>
0.00233401

> <r_epik_Charging_Adjusted_Penalty>
0.00233401

> <i_epik_Tot_Q>
0

> <i_epik_Tot_abs_Q>
0

> <r_epik_Metal_State_Penalty>
-0

> <b_epik_Metal_Only>
0

> <s_lp_Force_Field>
OPLS_2005

> <r_lp_Energy>
20.2563

> <b_lp_Chiralities_Consistent>
1

> <s_lp_Variant>
AV-unprocessed.smi:2345-1

> <Gold.Version>
5.8.1

> <Gold.Id.Protein>
6NUR|6NUR_protein|mol2

> <Gold.PLP.Fitness>
41.0422

> <Gold.PLP.PLP>
-42.8585

> <Gold.PLP.part.hbond>
0.0000

> <Gold.PLP.part.metal>
0.0000

> <Gold.PLP.part.buried>
-0.4091

> <Gold.PLP.part.nonpolar>
-41.8782

> <Gold.PLP.part.repulsive>
0.3994

> <Gold.PLP.ligand.clash>
0.0000

> <Gold.PLP.ligand.torsion>
0.9216

> <Gold.PLP.Chemscore.Hbond>
0.0000

> <Gold.PLP.Chemscore.CHOScore>
0.0000

> <Gold.PLP.Chemscore.Metal>
0.0000

> <Gold.PLP.Chemscore.Internal.Correction>
0.0269

> <Gold.Rescore>
     Score         DG    S(hbond)    S(metal)    S(lipo)     H(rot)  DE(clash)    DE(int)     intcor
     14.09     -15.63       0.00        0.00     116.27       1.35       0.71       0.84       ----

> <Gold.Chemscore.Fitness>
14.0861

> <Gold.Chemscore.DG>
-15.6340

> <Gold.Chemscore.ZeroCoef>
-5.4800

> <Gold.Chemscore.Hbond>
0.0000

> <Gold.Chemscore.Metal>
0.0000

> <Gold.Chemscore.Lipo>
116.2700

> <Gold.Chemscore.Internal_Hbond>
0.0000

> <Gold.Chemscore.DEClash>
0.7073

> <Gold.Chemscore.DEInternal>
0.8405

> <Gold.Chemscore.Rot>
1.3475

> <Gold.Chemscore.Internal.Correction>
   9.000000E+99

> <Gold.Chemscore.Hbond.Weighted>
-0.0000

> <Gold.Chemscore.Metal.Weighted>
-0.0000

> <Gold.Chemscore.Lipo.Weighted>
-13.6036

> <Gold.Chemscore.Internal_Hbond.Weighted>
0.0000

> <Gold.Chemscore.DEClash.Weighted>
0.7073

> <Gold.Chemscore.DEInternal.Weighted>
0.8405

> <Gold.Chemscore.Rot.Weighted>
3.4496

> <Gold.Chemscore.Internal.Correction.Weighted>
   9.000000E+99

> <Gold.Protein.RotatedTorsions>
[ 6907 6896 6895 6894 ] final   31.20 input  -60.11 | X-H torsion
[ 7974 7965 7964 7962 ] final   38.93 input  175.53 | X-H torsion
[ 8008 7997 7996 7995 ] final   19.62 input   59.86 | X-H torsion
[ 10167 10162 10161 10158 ] final   52.02 input  -65.29 | X-H torsion
[ 10718 10713 10712 10709 ] final  -49.29 input   66.30 | X-H torsion
[ 10763 10752 10751 10750 ] final  145.86 input  -60.55 | X-H torsion
[ 11005 11000 10999 10996 ] final   35.11 input  -57.11 | X-H torsion

> <Gold.Protein.ActiveResidues>
 VAL166  LYS551  ARG553  GLY616  TRP617  ASP618  TYR619  PRO620  LYS621  CYS622 
 ASP623  PHE694  ASN695  SER759  ASP760  ASP761  ALA762  ILE779  LEU786  VAL792 
 PHE793  MET794  SER795  GLU796  ALA797  LYS798  CYS799  TRP800  GLU811  SER814 

> <Gold.Protein.RotatedAtoms>
  152.0570  134.9618  160.0574 H   0  0  0  0  0  0  0  0  0  0  0  0  # atno 6907 bound_to 6896
  152.0997  133.4238  159.4589 H   0  0  0  0  0  0  0  0  0  0  0  0  # atno 6908 bound_to 6896
  150.6839  134.2694  159.4625 H   0  0  0  0  0  0  0  0  0  0  0  0  # atno 6909 bound_to 6896
  146.1024  139.5713  142.9405 H   0  0  0  0  0  0  0  0  0  0  0  0  # atno 7974 bound_to 7965
  154.9234  140.3030  155.5204 H   0  0  0  0  0  0  0  0  0  0  0  0  # atno 8008 bound_to 7997
  156.3008  140.2367  156.4223 H   0  0  0  0  0  0  0  0  0  0  0  0  # atno 8009 bound_to 7997
  154.8308  140.0418  157.1464 H   0  0  0  0  0  0  0  0  0  0  0  0  # atno 8010 bound_to 7997
  140.2558  144.3429  150.6333 H   0  0  0  0  0  0  0  0  0  0  0  0  # atno 10167 bound_to 10162
  156.1907  130.4153  149.9375 H   0  0  0  0  0  0  0  0  0  0  0  0  # atno 10718 bound_to 10713
  154.0124  135.2913  155.3391 H   0  0  0  0  0  0  0  0  0  0  0  0  # atno 10763 bound_to 10752
  154.7095  135.5155  153.8648 H   0  0  0  0  0  0  0  0  0  0  0  0  # atno 10764 bound_to 10752
  153.0717  135.6650  154.0354 H   0  0  0  0  0  0  0  0  0  0  0  0  # atno 10765 bound_to 10752
  140.2460  134.3359  155.7908 H   0  0  0  0  0  0  0  0  0  0  0  0  # atno 11005 bound_to 11000
  145.5828  141.0380  143.2113 LP  0  0  0  0  0  0  0  0  0  0  0  0  # atno 17320 bound_to 7965
  144.7443  139.7362  143.7298 LP  0  0  0  0  0  0  0  0  0  0  0  0  # atno 17321 bound_to 7965
  140.6005  143.2167  151.7081 LP  0  0  0  0  0  0  0  0  0  0  0  0  # atno 17342 bound_to 10162
  139.5032  144.3800  152.0385 LP  0  0  0  0  0  0  0  0  0  0  0  0  # atno 17343 bound_to 10162
  156.7116  130.8972  151.3610 LP  0  0  0  0  0  0  0  0  0  0  0  0  # atno 17370 bound_to 10713
  157.6927  130.9250  150.0559 LP  0  0  0  0  0  0  0  0  0  0  0  0  # atno 17371 bound_to 10713
  141.2206  133.7326  156.8961 LP  0  0  0  0  0  0  0  0  0  0  0  0  # atno 17394 bound_to 11000
  140.1605  134.9168  157.2709 LP  0  0  0  0  0  0  0  0  0  0  0  0  # atno 17395 bound_to 11000

$$$$
