AV-unprocessed.smi:794|AV-procd|sdf|3756|dock3
  -GOLD-   22720 1193D 1   1.00000     0.00000
 Structure written by MMmdl.
 41 43  0  0  0  0  0  0  0  0  1 V2000
  141.9277  134.1373  152.5078 C   0  0  0  0  0  0  0  0  0  0  0  0
  143.3405  134.3186  152.0446 C   0  0  0  0  0  0  0  0  0  0  0  0
  144.1341  135.3146  152.6213 N   0  0  0  0  0  0  0  0  0  0  0  0
  145.3645  135.3471  152.0999 C   0  0  0  0  0  0  0  0  0  0  0  0
  146.3791  136.2573  152.4960 N   0  0  0  0  0  0  0  0  0  0  0  0
  146.3339  137.1772  153.4755 C   0  0  0  0  0  0  0  0  0  0  0  0
  145.3697  137.3831  154.2132 O   0  0  0  0  0  0  0  0  0  0  0  0
  147.4876  137.8554  153.5543 N   0  0  0  0  0  0  0  0  0  0  0  0
  147.7880  138.9038  154.5269 C   0  0  2  0  0  0  0  0  0  0  0  0
  146.7584  140.0507  154.4230 C   0  0  1  0  0  0  0  0  0  0  0  0
  146.8598  140.9206  155.6887 C   0  0  0  0  0  0  0  0  0  0  0  0
  148.1978  141.6549  155.4808 C   0  0  0  0  0  0  0  0  0  0  0  0
  148.6884  141.1046  154.1238 C   0  0  2  0  0  0  0  0  0  0  0  0
  147.3717  140.9689  153.3696 C   0  0  0  0  0  0  0  0  0  0  0  0
  149.1278  139.6242  154.2246 C   0  0  1  0  0  0  0  0  0  0  0  0
  150.2566  139.3481  155.2365 C   0  0  0  0  0  0  0  0  0  0  0  0
  151.4060  140.0933  154.8968 O   0  0  0  0  0  0  0  0  0  0  0  0
  145.6315  134.1436  150.8507 S   0  0  0  0  0  0  0  0  0  0  0  0
  143.9895  133.5921  151.0730 C   0  0  0  0  0  0  0  0  0  0  0  0
  143.4431  132.4647  150.2620 C   0  0  0  0  0  0  0  0  0  0  0  0
  141.2285  134.2203  151.6757 H   0  0  0  0  0  0  0  0  0  0  0  0
  141.6460  134.8862  153.2488 H   0  0  0  0  0  0  0  0  0  0  0  0
  141.7873  133.1563  152.9619 H   0  0  0  0  0  0  0  0  0  0  0  0
  147.2414  136.1984  151.9747 H   0  0  0  0  0  0  0  0  0  0  0  0
  148.2224  137.6191  152.9037 H   0  0  0  0  0  0  0  0  0  0  0  0
  147.7732  138.4877  155.5363 H   0  0  0  0  0  0  0  0  0  0  0  0
  145.7414  139.7181  154.2114 H   0  0  0  0  0  0  0  0  0  0  0  0
  146.0358  141.6337  155.7378 H   0  0  0  0  0  0  0  0  0  0  0  0
  146.8448  140.3303  156.6058 H   0  0  0  0  0  0  0  0  0  0  0  0
  148.0296  142.7307  155.4163 H   0  0  0  0  0  0  0  0  0  0  0  0
  148.9017  141.4875  156.2951 H   0  0  0  0  0  0  0  0  0  0  0  0
  149.4256  141.7433  153.6364 H   0  0  0  0  0  0  0  0  0  0  0  0
  147.4770  140.4987  152.3905 H   0  0  0  0  0  0  0  0  0  0  0  0
  146.8371  141.9137  153.2545 H   0  0  0  0  0  0  0  0  0  0  0  0
  149.4877  139.3341  153.2350 H   0  0  0  0  0  0  0  0  0  0  0  0
  149.9453  139.6377  156.2404 H   0  0  0  0  0  0  0  0  0  0  0  0
  150.5194  138.2908  155.2676 H   0  0  0  0  0  0  0  0  0  0  0  0
  152.1420  139.7518  155.3814 H   0  0  0  0  0  0  0  0  0  0  0  0
  143.0961  131.6571  150.9069 H   0  0  0  0  0  0  0  0  0  0  0  0
  144.1991  132.0570  149.5907 H   0  0  0  0  0  0  0  0  0  0  0  0
  142.6007  132.7986  149.6562 H   0  0  0  0  0  0  0  0  0  0  0  0
  1  2  1  0  0  0  0
  1 21  1  0  0  0  0
  1 22  1  0  0  0  0
  1 23  1  0  0  0  0
  2 19  2  0  0  0  0
  2  3  1  0  0  0  0
  3  4  2  0  0  0  0
  4  5  1  0  0  0  0
  4 18  1  0  0  0  0
  5  6  1  0  0  0  0
  5 24  1  0  0  0  0
  6  7  2  0  0  0  0
  6  8  1  0  0  0  0
  8  9  1  0  0  0  0
  8 25  1  0  0  0  0
  9 15  1  0  0  0  0
  9 10  1  0  0  0  0
  9 26  1  0  0  0  0
 10 14  1  0  0  0  0
 10 11  1  0  0  0  0
 10 27  1  0  0  0  0
 11 12  1  0  0  0  0
 11 28  1  0  0  0  0
 11 29  1  0  0  0  0
 12 13  1  0  0  0  0
 12 30  1  0  0  0  0
 12 31  1  0  0  0  0
 13 14  1  0  0  0  0
 13 15  1  0  0  0  0
 13 32  1  0  0  0  0
 14 33  1  0  0  0  0
 14 34  1  0  0  0  0
 15 16  1  0  0  0  0
 15 35  1  0  0  0  0
 16 17  1  0  0  0  0
 16 36  1  0  0  0  0
 16 37  1  0  0  0  0
 17 38  1  0  0  0  0
 18 19  1  0  0  0  0
 19 20  1  0  0  0  0
 20 39  1  0  0  0  0
 20 40  1  0  0  0  0
 20 41  1  0  0  0  0
M  END
> <s_m_source_file>
AV-unprocessed.smi

> <i_m_source_file_index>
794

> <i_lp_mmshare_version>
43012

> <i_f3d_flags>
0

> <s_epik_input>
W0NIM11jMW5jKHNjMVtDSDNdKVtOSF1DKD1PKVtOSF1bQ0BIXShbQ0BASF0yMylbQ0BIXShbQ0gyXVtPSF0pW0NAQEhdKFtDSDJdMylbQ0gyXVtDSDJdMg==

> <s_epik_cmdline>
J2VwaWtfcHl0aG9uJywgJy1waCcsICc3LjAnLCAnLXRuJywgJzgnLCAnLW1hJywgJzIwMCcsICctbWV0YWxfYmluZGluZycsICctaW1hZScsICc8aW5maWxlLm1hZT4nLCAnLW9tYWUnLCAnPG91dGZpbGUubWFlPic=

> <r_lp_tautomer_probability>
0.999

> <r_epik_Ionization_Penalty>
0.000713029

> <r_epik_Ionization_Penalty_Charging>
0

> <r_epik_Ionization_Penalty_Neutral>
0.000713029

> <r_epik_State_Penalty>
0.000177984

> <r_epik_Charging_Adjusted_Penalty>
0.000177984

> <i_epik_Tot_Q>
0

> <i_epik_Tot_abs_Q>
0

> <r_epik_Metal_State_Penalty>
-0

> <b_epik_Metal_Only>
0

> <s_lp_Force_Field>
OPLS_2005

> <r_lp_Energy>
47.5891

> <b_lp_Chiralities_Consistent>
1

> <s_lp_Variant>
AV-unprocessed.smi:794-1

> <Gold.Version>
5.8.1

> <Gold.Id.Protein>
6NUR|6NUR_protein|mol2

> <Gold.PLP.Fitness>
39.6251

> <Gold.PLP.PLP>
-30.9940

> <Gold.PLP.part.hbond>
-2.9262

> <Gold.PLP.part.metal>
0.0000

> <Gold.PLP.part.buried>
-1.6044

> <Gold.PLP.part.nonpolar>
-26.1392

> <Gold.PLP.part.repulsive>
0.2093

> <Gold.PLP.ligand.clash>
0.0000

> <Gold.PLP.ligand.torsion>
0.0388

> <Gold.PLP.Chemscore.Hbond>
2.8960

> <Gold.PLP.Chemscore.CHOScore>
0.0000

> <Gold.PLP.Chemscore.Metal>
0.0000

> <Gold.Chemscore.Hbonds>
donor molecule, donor type, donor heavy atom, donor atom, acceptor molecule, acceptor atom, score
      L1  H     5    24       P1  7948  1.00
      L1  H     8    25       P1  7948  0.91
      P1  H  7989  7998       L1    17  1.00

> <Gold.PLP.Chemscore.Internal.Correction>
0.0206

> <Gold.Rescore>
     Score         DG    S(hbond)    S(metal)    S(lipo)     H(rot)  DE(clash)    DE(int)     intcor
     17.46     -20.02       2.93        0.00      79.58       1.78       0.11       2.44       ----

> <Gold.Chemscore.Fitness>
17.4609

> <Gold.Chemscore.DG>
-20.0182

> <Gold.Chemscore.ZeroCoef>
-5.4800

> <Gold.Chemscore.Hbond>
2.9292

> <Gold.Chemscore.Metal>
0.0000

> <Gold.Chemscore.Lipo>
79.5809

> <Gold.Chemscore.Internal_Hbond>
0.0000

> <Gold.Chemscore.DEClash>
0.1131

> <Gold.Chemscore.DEInternal>
2.4442

> <Gold.Chemscore.Rot>
1.7798

> <Gold.Chemscore.Internal.Correction>
   9.000000E+99

> <Gold.Chemscore.Hbonds>
donor molecule, donor type, donor heavy atom, donor atom, acceptor molecule, acceptor atom, score
      L1  H     5    24       P1  7948  0.98
      L1  H     8    25       P1  7948  0.88
      P1  H  7989  7998       L1    17  0.96

> <Gold.Chemscore.Hbond.Weighted>
-9.7835

> <Gold.Chemscore.Metal.Weighted>
-0.0000

> <Gold.Chemscore.Lipo.Weighted>
-9.3110

> <Gold.Chemscore.Internal_Hbond.Weighted>
0.0000

> <Gold.Chemscore.DEClash.Weighted>
0.1131

> <Gold.Chemscore.DEInternal.Weighted>
2.4442

> <Gold.Chemscore.Rot.Weighted>
4.5562

> <Gold.Chemscore.Internal.Correction.Weighted>
   9.000000E+99

> <Gold.Protein.RotatedTorsions>
[ 6907 6896 6895 6894 ] final  -98.23 input  -60.11 | X-H torsion
[ 7974 7965 7964 7962 ] final -130.23 input  175.53 | X-H torsion
[ 8008 7997 7996 7995 ] final  -16.39 input   59.86 | X-H torsion
[ 10167 10162 10161 10158 ] final  -32.17 input  -65.29 | X-H torsion
[ 10718 10713 10712 10709 ] final -173.59 input   66.30 | X-H torsion
[ 10763 10752 10751 10750 ] final   49.85 input  -60.55 | X-H torsion
[ 11005 11000 10999 10996 ] final -103.33 input  -57.11 | X-H torsion

> <Gold.Protein.ActiveResidues>
 VAL166  LYS551  ARG553  GLY616  TRP617  ASP618  TYR619  PRO620  LYS621  CYS622 
 ASP623  PHE694  ASN695  SER759  ASP760  ASP761  ALA762  ILE779  LEU786  VAL792 
 PHE793  MET794  SER795  GLU796  ALA797  LYS798  CYS799  TRP800  GLU811  SER814 

> <Gold.Protein.RotatedAtoms>
  150.7040  134.1227  159.4040 H   0  0  0  0  0  0  0  0  0  0  0  0  # atno 6907 bound_to 6896
  151.9213  135.0294  160.0531 H   0  0  0  0  0  0  0  0  0  0  0  0  # atno 6908 bound_to 6896
  152.2253  133.4980  159.5222 H   0  0  0  0  0  0  0  0  0  0  0  0  # atno 6909 bound_to 6896
  144.9495  140.7329  143.4796 H   0  0  0  0  0  0  0  0  0  0  0  0  # atno 7974 bound_to 7965
  154.5057  140.2171  155.9257 H   0  0  0  0  0  0  0  0  0  0  0  0  # atno 8008 bound_to 7997
  156.1490  140.3165  155.8584 H   0  0  0  0  0  0  0  0  0  0  0  0  # atno 8009 bound_to 7997
  155.3975  140.0482  157.3029 H   0  0  0  0  0  0  0  0  0  0  0  0  # atno 8010 bound_to 7997
  140.7225  143.3715  151.1770 H   0  0  0  0  0  0  0  0  0  0  0  0  # atno 10167 bound_to 10162
  156.7726  130.9454  151.3120 H   0  0  0  0  0  0  0  0  0  0  0  0  # atno 10718 bound_to 10713
  152.9785  135.5898  154.4156 H   0  0  0  0  0  0  0  0  0  0  0  0  # atno 10763 bound_to 10752
  154.3786  135.2767  155.2226 H   0  0  0  0  0  0  0  0  0  0  0  0  # atno 10764 bound_to 10752
  154.4150  135.6072  153.6030 H   0  0  0  0  0  0  0  0  0  0  0  0  # atno 10765 bound_to 10752
  141.1150  133.8632  157.1473 H   0  0  0  0  0  0  0  0  0  0  0  0  # atno 11005 bound_to 11000
  145.2866  139.1899  143.4763 LP  0  0  0  0  0  0  0  0  0  0  0  0  # atno 17320 bound_to 7965
  146.3316  140.2836  142.8611 LP  0  0  0  0  0  0  0  0  0  0  0  0  # atno 17321 bound_to 7965
  139.7287  143.9108  152.3012 LP  0  0  0  0  0  0  0  0  0  0  0  0  # atno 17342 bound_to 10162
  139.8889  144.6976  150.8793 LP  0  0  0  0  0  0  0  0  0  0  0  0  # atno 17343 bound_to 10162
  157.6684  130.9028  149.9983 LP  0  0  0  0  0  0  0  0  0  0  0  0  # atno 17370 bound_to 10713
  156.1268  130.3644  149.9796 LP  0  0  0  0  0  0  0  0  0  0  0  0  # atno 17371 bound_to 10713
  140.0067  135.0005  157.0307 LP  0  0  0  0  0  0  0  0  0  0  0  0  # atno 17394 bound_to 11000
  140.4670  134.1425  155.7198 LP  0  0  0  0  0  0  0  0  0  0  0  0  # atno 17395 bound_to 11000

$$$$
