AV-unprocessed.smi:2961|AV-procd|sdf|11314|dock6
  -GOLD-   2272016213D 1   1.00000     0.00000
 Structure written by MMmdl.
 49 51  0  0  0  0  0  0  0  0  2 V2000
  151.9505  138.8555  154.7220 C   0  0  0  0  0  0  0  0  0  0  0  0
  152.3396  137.9811  155.9090 C   0  0  0  0  0  0  0  0  0  0  0  0
  152.2710  136.7558  155.8232 O   0  0  0  0  0  0  0  0  0  0  0  0
  152.7572  138.6248  157.0090 N   0  0  0  0  0  0  0  0  0  0  0  0
  153.1687  137.9823  158.2544 C   0  0  0  0  0  0  0  0  0  0  0  0
  154.2619  138.7617  159.0145 C   0  0  0  0  0  0  0  0  0  0  0  0
  153.7714  140.0536  159.5896 C   0  0  0  0  0  0  0  0  0  0  0  0
  153.1057  141.0269  158.9055 N   0  3  0  0  0  0  0  0  0  0  0  0
  152.8004  142.0838  159.7632 C   0  0  0  0  0  0  0  0  0  0  0  0
  152.1413  143.2864  159.5275 C   0  0  0  0  0  0  0  0  0  0  0  0
  152.0011  144.1572  160.6278 C   0  0  0  0  0  0  0  0  0  0  0  0
  152.5056  143.8194  161.9004 C   0  0  0  0  0  0  0  0  0  0  0  0
  153.1687  142.5954  162.1276 C   0  0  0  0  0  0  0  0  0  0  0  0
  153.3031  141.7390  161.0347 C   0  0  0  0  0  0  0  0  0  0  0  0
  153.8899  140.4765  160.8811 N   0  0  0  0  0  0  0  0  0  0  0  0
  154.5253  139.8265  162.0378 C   0  0  0  0  0  0  0  0  0  0  0  0
  155.7727  140.5832  162.5163 C   0  0  0  0  0  0  0  0  0  0  0  0
  155.3866  141.6072  163.4231 O   0  0  0  0  0  0  0  0  0  0  0  0
  155.4700  141.3525  164.7743 C   0  0  0  0  0  0  0  0  0  0  0  0
  155.7983  140.0900  165.3293 C   0  0  0  0  0  0  0  0  0  0  0  0
  155.8634  139.9225  166.7261 C   0  0  0  0  0  0  0  0  0  0  0  0
  155.6011  141.0080  167.5822 C   0  0  0  0  0  0  0  0  0  0  0  0
  155.2704  142.2662  167.0423 C   0  0  0  0  0  0  0  0  0  0  0  0
  154.9904  143.4347  167.9646 C   0  0  0  0  0  0  0  0  0  0  0  0
  155.2069  142.4313  165.6433 C   0  0  0  0  0  0  0  0  0  0  0  0
  151.2841  139.6592  155.0379 H   0  0  0  0  0  0  0  0  0  0  0  0
  151.4376  138.2678  153.9599 H   0  0  0  0  0  0  0  0  0  0  0  0
  152.8391  139.2993  154.2721 H   0  0  0  0  0  0  0  0  0  0  0  0
  152.7767  139.6344  156.9882 H   0  0  0  0  0  0  0  0  0  0  0  0
  152.2807  137.8957  158.8804 H   0  0  0  0  0  0  0  0  0  0  0  0
  153.5018  136.9626  158.0556 H   0  0  0  0  0  0  0  0  0  0  0  0
  154.6644  138.1447  159.8181 H   0  0  0  0  0  0  0  0  0  0  0  0
  155.0992  138.9731  158.3487 H   0  0  0  0  0  0  0  0  0  0  0  0
  151.7563  143.5483  158.5527 H   0  0  0  0  0  0  0  0  0  0  0  0
  151.4991  145.1044  160.4929 H   0  0  0  0  0  0  0  0  0  0  0  0
  152.3828  144.5134  162.7193 H   0  0  0  0  0  0  0  0  0  0  0  0
  153.5557  142.3499  163.1055 H   0  0  0  0  0  0  0  0  0  0  0  0
  153.7949  139.7266  162.8407 H   0  0  0  0  0  0  0  0  0  0  0  0
  154.7966  138.8128  161.7445 H   0  0  0  0  0  0  0  0  0  0  0  0
  156.4572  139.8877  163.0037 H   0  0  0  0  0  0  0  0  0  0  0  0
  156.2858  141.0146  161.6553 H   0  0  0  0  0  0  0  0  0  0  0  0
  156.0038  139.2337  164.7052 H   0  0  0  0  0  0  0  0  0  0  0  0
  156.1154  138.9579  167.1415 H   0  0  0  0  0  0  0  0  0  0  0  0
  155.6536  140.8721  168.6527 H   0  0  0  0  0  0  0  0  0  0  0  0
  154.4920  144.2468  167.4340 H   0  0  0  0  0  0  0  0  0  0  0  0
  155.9227  143.8177  168.3797 H   0  0  0  0  0  0  0  0  0  0  0  0
  154.3481  143.1255  168.7897 H   0  0  0  0  0  0  0  0  0  0  0  0
  154.9557  143.3959  165.2269 H   0  0  0  0  0  0  0  0  0  0  0  0
  152.8803  140.9691  157.9206 H   0  0  0  0  0  0  0  0  0  0  0  0
  1  2  1  0  0  0  0
  1 26  1  0  0  0  0
  1 27  1  0  0  0  0
  1 28  1  0  0  0  0
  2  3  2  0  0  0  0
  2  4  1  0  0  0  0
  4  5  1  0  0  0  0
  4 29  1  0  0  0  0
  5  6  1  0  0  0  0
  5 30  1  0  0  0  0
  5 31  1  0  0  0  0
  6  7  1  0  0  0  0
  6 32  1  0  0  0  0
  6 33  1  0  0  0  0
  7 15  1  0  0  0  0
  7  8  2  0  0  0  0
  8  9  1  0  0  0  0
  8 49  1  0  0  0  0
  9 14  2  0  0  0  0
  9 10  1  0  0  0  0
 10 11  2  0  0  0  0
 10 34  1  0  0  0  0
 11 12  1  0  0  0  0
 11 35  1  0  0  0  0
 12 13  2  0  0  0  0
 12 36  1  0  0  0  0
 13 14  1  0  0  0  0
 13 37  1  0  0  0  0
 14 15  1  0  0  0  0
 15 16  1  0  0  0  0
 16 17  1  0  0  0  0
 16 38  1  0  0  0  0
 16 39  1  0  0  0  0
 17 18  1  0  0  0  0
 17 40  1  0  0  0  0
 17 41  1  0  0  0  0
 18 19  1  0  0  0  0
 19 25  1  0  0  0  0
 19 20  2  0  0  0  0
 20 21  1  0  0  0  0
 20 42  1  0  0  0  0
 21 22  2  0  0  0  0
 21 43  1  0  0  0  0
 22 23  1  0  0  0  0
 22 44  1  0  0  0  0
 23 24  1  0  0  0  0
 23 25  2  0  0  0  0
 24 45  1  0  0  0  0
 24 46  1  0  0  0  0
 24 47  1  0  0  0  0
 25 48  1  0  0  0  0
M  CHG  1   8   1
M  END
> <s_m_source_file>
AV-unprocessed.smi

> <i_m_source_file_index>
2961

> <i_lp_mmshare_version>
43012

> <i_f3d_flags>
0

> <s_epik_input>
W0NIM11DKD1PKVtOSF1bQ0gyXVtDSDJdYyhuMSluKGMoYzEyKVtjSF1bY0hdW2NIXVtjSF0yKVtDSDJdW0NIMl1PYzNbY0hdW2NIXVtjSF1jKFtDSDNdKVtjSF0z

> <s_epik_cmdline>
J2VwaWtfcHl0aG9uJywgJy1waCcsICc3LjAnLCAnLXRuJywgJzgnLCAnLW1hJywgJzIwMCcsICctbWV0YWxfYmluZGluZycsICctaW1hZScsICc8aW5maWxlLm1hZT4nLCAnLW9tYWUnLCAnPG91dGZpbGUubWFlPic=

> <r_lp_tautomer_probability>
1

> <r_epik_Ionization_Penalty>
1.11168

> <r_epik_Ionization_Penalty_Charging>
1.11168

> <r_epik_Ionization_Penalty_Neutral>
3.05925e-07

> <r_epik_State_Penalty>
1.16973

> <r_epik_Charging_Adjusted_Penalty>
2.28141

> <i_epik_Tot_Q>
1

> <i_epik_Tot_abs_Q>
1

> <r_epik_Metal_State_Penalty>
1.2554

> <b_epik_Metal_Only>
0

> <s_lp_Force_Field>
OPLS_2005

> <r_lp_Energy>
19.5135

> <b_lp_Chiralities_Consistent>
1

> <s_lp_Variant>
AV-unprocessed.smi:2961-2

> <Gold.Version>
5.8.1

> <Gold.Id.Protein>
6NUR|6NUR_protein|mol2

> <Gold.PLP.Fitness>
57.2251

> <Gold.PLP.PLP>
-55.6797

> <Gold.PLP.part.hbond>
-1.5287

> <Gold.PLP.part.metal>
0.0000

> <Gold.PLP.part.buried>
-2.6987

> <Gold.PLP.part.nonpolar>
-49.1210

> <Gold.PLP.part.repulsive>
0.2387

> <Gold.PLP.ligand.clash>
0.0000

> <Gold.PLP.ligand.torsion>
0.7572

> <Gold.PLP.Chemscore.Hbond>
1.0000

> <Gold.PLP.Chemscore.CHOScore>
0.0000

> <Gold.PLP.Chemscore.Metal>
0.0000

> <Gold.Chemscore.Hbonds>
donor molecule, donor type, donor heavy atom, donor atom, acceptor molecule, acceptor atom, score
      P1  H 10752 10764       L1     3  1.00

> <Gold.PLP.Chemscore.Internal.Correction>
0.0597

> <Gold.Rescore>
     Score         DG    S(hbond)    S(metal)    S(lipo)     H(rot)  DE(clash)    DE(int)     intcor
     14.93     -20.82       0.99        0.00     150.61       2.18       3.74       2.15       ----

> <Gold.Chemscore.Fitness>
14.9313

> <Gold.Chemscore.DG>
-20.8152

> <Gold.Chemscore.ZeroCoef>
-5.4800

> <Gold.Chemscore.Hbond>
0.9859

> <Gold.Chemscore.Metal>
0.0000

> <Gold.Chemscore.Lipo>
150.6105

> <Gold.Chemscore.Internal_Hbond>
0.0000

> <Gold.Chemscore.DEClash>
3.7381

> <Gold.Chemscore.DEInternal>
2.1458

> <Gold.Chemscore.Rot>
2.1793

> <Gold.Chemscore.Internal.Correction>
   9.000000E+99

> <Gold.Chemscore.Hbonds>
donor molecule, donor type, donor heavy atom, donor atom, acceptor molecule, acceptor atom, score
      P1  H 10752 10764       L1     3  0.94

> <Gold.Chemscore.Hbond.Weighted>
-3.2929

> <Gold.Chemscore.Metal.Weighted>
-0.0000

> <Gold.Chemscore.Lipo.Weighted>
-17.6214

> <Gold.Chemscore.Internal_Hbond.Weighted>
0.0000

> <Gold.Chemscore.DEClash.Weighted>
3.7381

> <Gold.Chemscore.DEInternal.Weighted>
2.1458

> <Gold.Chemscore.Rot.Weighted>
5.5791

> <Gold.Chemscore.Internal.Correction.Weighted>
   9.000000E+99

> <Gold.Protein.RotatedTorsions>
[ 6907 6896 6895 6894 ] final  -93.94 input  -60.11 | X-H torsion
[ 7974 7965 7964 7962 ] final   75.18 input  175.53 | X-H torsion
[ 8008 7997 7996 7995 ] final -119.99 input   59.86 | X-H torsion
[ 10167 10162 10161 10158 ] final  -68.94 input  -65.29 | X-H torsion
[ 10718 10713 10712 10709 ] final  -18.65 input   66.30 | X-H torsion
[ 10763 10752 10751 10750 ] final  -41.04 input  -60.55 | X-H torsion
[ 11005 11000 10999 10996 ] final  128.31 input  -57.11 | X-H torsion

> <Gold.Protein.ActiveResidues>
 VAL166  LYS551  ARG553  GLY616  TRP617  ASP618  TYR619  PRO620  LYS621  CYS622 
 ASP623  PHE694  ASN695  SER759  ASP760  ASP761  ALA762  ILE779  LEU786  VAL792 
 PHE793  MET794  SER795  GLU796  ALA797  LYS798  CYS799  TRP800  GLU811  SER814 

> <Gold.Protein.RotatedAtoms>
  150.6932  134.1890  159.4277 H   0  0  0  0  0  0  0  0  0  0  0  0  # atno 6907 bound_to 6896
  151.9861  135.0001  160.0569 H   0  0  0  0  0  0  0  0  0  0  0  0  # atno 6908 bound_to 6896
  152.1710  133.4609  159.4946 H   0  0  0  0  0  0  0  0  0  0  0  0  # atno 6909 bound_to 6896
  145.7188  139.2641  143.1608 H   0  0  0  0  0  0  0  0  0  0  0  0  # atno 7974 bound_to 7965
  155.1246  140.0399  157.2759 H   0  0  0  0  0  0  0  0  0  0  0  0  # atno 8008 bound_to 7997
  154.6588  140.2586  155.7106 H   0  0  0  0  0  0  0  0  0  0  0  0  # atno 8009 bound_to 7997
  156.2610  140.2821  156.1051 H   0  0  0  0  0  0  0  0  0  0  0  0  # atno 8010 bound_to 7997
  140.5469  143.2313  151.6985 H   0  0  0  0  0  0  0  0  0  0  0  0  # atno 10167 bound_to 10162
  156.5566  130.4715  149.6426 H   0  0  0  0  0  0  0  0  0  0  0  0  # atno 10718 bound_to 10713
  153.9560  135.6745  153.4744 H   0  0  0  0  0  0  0  0  0  0  0  0  # atno 10763 bound_to 10752
  153.0861  135.4898  154.8596 H   0  0  0  0  0  0  0  0  0  0  0  0  # atno 10764 bound_to 10752
  154.7299  135.3136  154.8868 H   0  0  0  0  0  0  0  0  0  0  0  0  # atno 10765 bound_to 10752
  139.9554  134.9614  156.8983 H   0  0  0  0  0  0  0  0  0  0  0  0  # atno 11005 bound_to 11000
  146.0645  140.7936  142.9718 LP  0  0  0  0  0  0  0  0  0  0  0  0  # atno 17320 bound_to 7965
  144.6922  140.3247  143.7226 LP  0  0  0  0  0  0  0  0  0  0  0  0  # atno 17321 bound_to 7965
  139.5011  144.3880  152.0308 LP  0  0  0  0  0  0  0  0  0  0  0  0  # atno 17342 bound_to 10162
  140.2994  144.3664  150.6065 LP  0  0  0  0  0  0  0  0  0  0  0  0  # atno 17343 bound_to 10162
  156.2836  130.7085  151.1916 LP  0  0  0  0  0  0  0  0  0  0  0  0  # atno 17370 bound_to 10713
  157.7377  131.0549  150.5340 LP  0  0  0  0  0  0  0  0  0  0  0  0  # atno 17371 bound_to 10713
  140.5622  134.0524  155.7402 LP  0  0  0  0  0  0  0  0  0  0  0  0  # atno 17394 bound_to 11000
  141.1224  133.9439  157.2703 LP  0  0  0  0  0  0  0  0  0  0  0  0  # atno 17395 bound_to 11000

$$$$
