AV-unprocessed.smi:2797|AV-procd|sdf|10783|dock8
  -GOLD-   2272015223D 1   1.00000     0.00000
 Structure written by MMmdl.
 37 38  0  0  0  0  0  0  0  0  1 V2000
  149.7400  139.8038  154.6108 C   0  0  0  0  0  0  0  0  0  0  0  0
  148.4950  140.1924  155.1795 O   0  0  0  0  0  0  0  0  0  0  0  0
  147.3692  140.2741  154.2982 C   0  0  0  0  0  0  0  0  0  0  0  0
  147.1271  138.9485  153.5640 C   0  0  0  0  0  0  0  0  0  0  0  0
  145.7053  138.7429  153.3054 N   0  0  0  0  0  0  0  0  0  0  0  0
  145.0136  137.6279  153.5788 C   0  0  0  0  0  0  0  0  0  0  0  0
  145.5198  136.6098  154.0496 O   0  0  0  0  0  0  0  0  0  0  0  0
  143.7176  137.7732  153.2540 N   0  0  0  0  0  0  0  0  0  0  0  0
  142.6524  136.8393  153.3907 C   0  0  0  0  0  0  0  0  0  0  0  0
  142.8346  135.4358  153.3503 C   0  0  0  0  0  0  0  0  0  0  0  0
  141.7122  134.6025  153.5168 C   0  0  0  0  0  0  0  0  0  0  0  0
  140.4643  135.0705  153.7231 N   0  0  0  0  0  0  0  0  0  0  0  0
  140.2888  136.4089  153.7775 C   0  0  0  0  0  0  0  0  0  0  0  0
  138.8656  136.8746  154.0217 C   0  0  0  0  0  0  0  0  0  0  0  0
  141.3475  137.3346  153.6233 C   0  0  0  0  0  0  0  0  0  0  0  0
  141.0498  139.0388  153.7122 Cl  0  0  0  0  0  0  0  0  0  0  0  0
  146.2083  140.8612  155.1241 C   0  0  0  0  0  0  0  0  0  0  0  0
  146.6436  142.2616  154.6891 C   0  0  0  0  0  0  0  0  0  0  0  0
  147.3466  141.5988  153.5034 C   0  0  0  0  0  0  0  0  0  0  0  0
  150.4900  139.7670  155.4005 H   0  0  0  0  0  0  0  0  0  0  0  0
  150.0940  140.5129  153.8643 H   0  0  0  0  0  0  0  0  0  0  0  0
  149.7027  138.8145  154.1586 H   0  0  0  0  0  0  0  0  0  0  0  0
  147.6256  138.9683  152.5947 H   0  0  0  0  0  0  0  0  0  0  0  0
  147.5699  138.1044  154.0926 H   0  0  0  0  0  0  0  0  0  0  0  0
  145.2033  139.5250  152.9118 H   0  0  0  0  0  0  0  0  0  0  0  0
  143.4713  138.6387  152.7967 H   0  0  0  0  0  0  0  0  0  0  0  0
  143.8044  134.9842  153.2100 H   0  0  0  0  0  0  0  0  0  0  0  0
  141.8216  133.5284  153.4905 H   0  0  0  0  0  0  0  0  0  0  0  0
  138.5285  137.5104  153.2027 H   0  0  0  0  0  0  0  0  0  0  0  0
  138.8085  137.4457  154.9485 H   0  0  0  0  0  0  0  0  0  0  0  0
  138.1755  136.0333  154.1004 H   0  0  0  0  0  0  0  0  0  0  0  0
  145.2280  140.5895  154.7288 H   0  0  0  0  0  0  0  0  0  0  0  0
  146.2665  140.6775  156.1976 H   0  0  0  0  0  0  0  0  0  0  0  0
  145.8275  142.9331  154.4211 H   0  0  0  0  0  0  0  0  0  0  0  0
  147.3406  142.7254  155.3890 H   0  0  0  0  0  0  0  0  0  0  0  0
  148.3106  142.0380  153.2523 H   0  0  0  0  0  0  0  0  0  0  0  0
  146.7046  141.5458  152.6227 H   0  0  0  0  0  0  0  0  0  0  0  0
  1  2  1  0  0  0  0
  1 20  1  0  0  0  0
  1 21  1  0  0  0  0
  1 22  1  0  0  0  0
  2  3  1  0  0  0  0
  3 19  1  0  0  0  0
  3  4  1  0  0  0  0
  3 17  1  0  0  0  0
  4  5  1  0  0  0  0
  4 23  1  0  0  0  0
  4 24  1  0  0  0  0
  5  6  1  0  0  0  0
  5 25  1  0  0  0  0
  6  7  2  0  0  0  0
  6  8  1  0  0  0  0
  8  9  1  0  0  0  0
  8 26  1  0  0  0  0
  9 15  1  0  0  0  0
  9 10  2  0  0  0  0
 10 11  1  0  0  0  0
 10 27  1  0  0  0  0
 11 12  2  0  0  0  0
 11 28  1  0  0  0  0
 12 13  1  0  0  0  0
 13 14  1  0  0  0  0
 13 15  2  0  0  0  0
 14 29  1  0  0  0  0
 14 30  1  0  0  0  0
 14 31  1  0  0  0  0
 15 16  1  0  0  0  0
 17 18  1  0  0  0  0
 17 32  1  0  0  0  0
 17 33  1  0  0  0  0
 18 19  1  0  0  0  0
 18 34  1  0  0  0  0
 18 35  1  0  0  0  0
 19 36  1  0  0  0  0
 19 37  1  0  0  0  0
M  END
> <s_m_source_file>
AV-unprocessed.smi

> <i_m_source_file_index>
2797

> <i_lp_mmshare_version>
43012

> <i_f3d_flags>
0

> <s_epik_input>
W0NIMl0xW0NIMl1bQ0gyXUMxKE9bQ0gzXSlbQ0gyXVtOSF1DKD1PKVtOSF1jMltjSF1bY0hdbmMoW0NIM10pYzJDbA==

> <s_epik_cmdline>
J2VwaWtfcHl0aG9uJywgJy1waCcsICc3LjAnLCAnLXRuJywgJzgnLCAnLW1hJywgJzIwMCcsICctbWV0YWxfYmluZGluZycsICctaW1hZScsICc8aW5maWxlLm1hZT4nLCAnLW9tYWUnLCAnPG91dGZpbGUubWFlPic=

> <r_epik_Ionization_Penalty>
0.0099818

> <r_epik_Ionization_Penalty_Charging>
0

> <r_epik_Ionization_Penalty_Neutral>
0.0099818

> <r_epik_State_Penalty>
0.00758124

> <r_epik_Charging_Adjusted_Penalty>
0.00758124

> <i_epik_Tot_Q>
0

> <i_epik_Tot_abs_Q>
0

> <r_epik_Metal_State_Penalty>
0.00745574

> <b_epik_Metal_Only>
0

> <s_lp_Force_Field>
OPLS_2005

> <r_lp_Energy>
22.2651

> <b_lp_Chiralities_Consistent>
1

> <s_lp_Variant>
AV-unprocessed.smi:2797-1

> <Gold.Version>
5.8.1

> <Gold.Id.Protein>
6NUR|6NUR_protein|mol2

> <Gold.PLP.Fitness>
43.2955

> <Gold.PLP.PLP>
-33.3449

> <Gold.PLP.part.hbond>
-3.9527

> <Gold.PLP.part.metal>
0.0000

> <Gold.PLP.part.buried>
-5.1649

> <Gold.PLP.part.nonpolar>
-24.7732

> <Gold.PLP.part.repulsive>
0.3563

> <Gold.PLP.ligand.clash>
0.0000

> <Gold.PLP.ligand.torsion>
0.8822

> <Gold.PLP.Chemscore.Hbond>
2.8125

> <Gold.PLP.Chemscore.CHOScore>
1.0000

> <Gold.PLP.Chemscore.Metal>
0.0000

> <Gold.Chemscore.Hbonds>
donor molecule, donor type, donor heavy atom, donor atom, acceptor molecule, acceptor atom, score
      L1  H     5    25       P1 10175  1.00
      L1  H     8    26       P1 10175  1.00
      P1  H 11000 11005       L1    12  0.62
      L1  C    11    28       P1 10957  1.00

> <Gold.PLP.Chemscore.Internal.Correction>
0.2776

> <Gold.Rescore>
     Score         DG    S(hbond)    S(metal)    S(lipo)     H(rot)  DE(clash)    DE(int)     intcor
     15.42     -17.51       2.16        0.00      71.94       1.41       0.24       1.86       ----

> <Gold.Chemscore.Fitness>
15.4205

> <Gold.Chemscore.DG>
-17.5110

> <Gold.Chemscore.ZeroCoef>
-5.4800

> <Gold.Chemscore.Hbond>
2.1620

> <Gold.Chemscore.Metal>
0.0000

> <Gold.Chemscore.Lipo>
71.9433

> <Gold.Chemscore.Internal_Hbond>
0.0000

> <Gold.Chemscore.DEClash>
0.2352

> <Gold.Chemscore.DEInternal>
1.8553

> <Gold.Chemscore.Rot>
1.4092

> <Gold.Chemscore.Internal.Correction>
   9.000000E+99

> <Gold.Chemscore.Hbonds>
donor molecule, donor type, donor heavy atom, donor atom, acceptor molecule, acceptor atom, score
      L1  H     5    25       P1 10175  0.98
      L1  H     8    26       P1 10175  0.98
      P1  H 11000 11005       L1    12  0.06

> <Gold.Chemscore.Hbond.Weighted>
-7.2212

> <Gold.Chemscore.Metal.Weighted>
-0.0000

> <Gold.Chemscore.Lipo.Weighted>
-8.4174

> <Gold.Chemscore.Internal_Hbond.Weighted>
0.0000

> <Gold.Chemscore.DEClash.Weighted>
0.2352

> <Gold.Chemscore.DEInternal.Weighted>
1.8553

> <Gold.Chemscore.Rot.Weighted>
3.6075

> <Gold.Chemscore.Internal.Correction.Weighted>
   9.000000E+99

> <Gold.Protein.RotatedTorsions>
[ 6907 6896 6895 6894 ] final  -56.12 input  -60.11 | X-H torsion
[ 7974 7965 7964 7962 ] final  169.49 input  175.53 | X-H torsion
[ 8008 7997 7996 7995 ] final -109.92 input   59.86 | X-H torsion
[ 10167 10162 10161 10158 ] final -150.10 input  -65.29 | X-H torsion
[ 10718 10713 10712 10709 ] final   -0.33 input   66.30 | X-H torsion
[ 10763 10752 10751 10750 ] final  -45.93 input  -60.55 | X-H torsion
[ 11005 11000 10999 10996 ] final   34.92 input  -57.11 | X-H torsion

> <Gold.Protein.ActiveResidues>
 VAL166  LYS551  ARG553  GLY616  TRP617  ASP618  TYR619  PRO620  LYS621  CYS622 
 ASP623  PHE694  ASN695  SER759  ASP760  ASP761  ALA762  ILE779  LEU786  VAL792 
 PHE793  MET794  SER795  GLU796  ALA797  LYS798  CYS799  TRP800  GLU811  SER814 

> <Gold.Protein.RotatedAtoms>
  150.8194  134.7394  159.6758 H   0  0  0  0  0  0  0  0  0  0  0  0  # atno 6907 bound_to 6896
  152.4311  134.5772  159.9947 H   0  0  0  0  0  0  0  0  0  0  0  0  # atno 6908 bound_to 6896
  151.5960  133.3324  159.3073 H   0  0  0  0  0  0  0  0  0  0  0  0  # atno 6909 bound_to 6896
  144.7353  139.9062  143.6412 H   0  0  0  0  0  0  0  0  0  0  0  0  # atno 7974 bound_to 7965
  154.9666  140.0398  157.2215 H   0  0  0  0  0  0  0  0  0  0  0  0  # atno 8008 bound_to 7997
  154.7839  140.2823  155.6020 H   0  0  0  0  0  0  0  0  0  0  0  0  # atno 8009 bound_to 7997
  156.2940  140.2586  156.2671 H   0  0  0  0  0  0  0  0  0  0  0  0  # atno 8010 bound_to 7997
  139.7384  143.8700  152.2555 H   0  0  0  0  0  0  0  0  0  0  0  0  # atno 10167 bound_to 10162
  156.8220  130.5459  149.5696 H   0  0  0  0  0  0  0  0  0  0  0  0  # atno 10718 bound_to 10713
  154.0367  135.6649  153.4786 H   0  0  0  0  0  0  0  0  0  0  0  0  # atno 10763 bound_to 10752
  153.0518  135.5080  154.7881 H   0  0  0  0  0  0  0  0  0  0  0  0  # atno 10764 bound_to 10752
  154.6844  135.3050  154.9533 H   0  0  0  0  0  0  0  0  0  0  0  0  # atno 10765 bound_to 10752
  140.2479  134.3338  155.7901 H   0  0  0  0  0  0  0  0  0  0  0  0  # atno 11005 bound_to 11000
  146.1035  139.4032  143.0332 LP  0  0  0  0  0  0  0  0  0  0  0  0  # atno 17320 bound_to 7965
  145.7545  140.9959  143.1233 LP  0  0  0  0  0  0  0  0  0  0  0  0  # atno 17321 bound_to 7965
  139.8643  144.7101  150.9062 LP  0  0  0  0  0  0  0  0  0  0  0  0  # atno 17342 bound_to 10162
  140.7782  143.3791  151.1509 LP  0  0  0  0  0  0  0  0  0  0  0  0  # atno 17343 bound_to 10162
  156.0983  130.5949  150.9851 LP  0  0  0  0  0  0  0  0  0  0  0  0  # atno 17370 bound_to 10713
  157.6452  131.0905  150.8169 LP  0  0  0  0  0  0  0  0  0  0  0  0  # atno 17371 bound_to 10713
  141.2204  133.7336  156.8990 LP  0  0  0  0  0  0  0  0  0  0  0  0  # atno 17394 bound_to 11000
  140.1587  134.9180  157.2687 LP  0  0  0  0  0  0  0  0  0  0  0  0  # atno 17395 bound_to 11000

$$$$
