AV-unprocessed.smi:1492|AV-procd|sdf|6036|dock10
  -GOLD-   22720 6143D 1   1.00000     0.00000
 Structure written by MMmdl.
 52 53  0  0  0  0  0  0  0  0  1 V2000
  147.0721  140.5350  153.4946 C   0  0  0  0  0  0  0  0  0  0  0  0
  147.5226  139.0746  153.2991 C   0  0  0  0  0  0  0  0  0  0  0  0
  147.6256  138.1641  154.5707 C   0  0  1  0  0  0  0  0  0  0  0  0
  147.3829  139.0456  155.8222 C   0  0  0  0  0  0  0  0  0  0  0  0
  146.4748  137.1140  154.5202 C   0  0  0  0  0  0  0  0  0  0  0  0
  146.5654  136.2788  153.3295 N   0  0  0  0  0  0  0  0  0  0  0  0
  145.6560  135.3711  152.9535 C   0  0  0  0  0  0  0  0  0  0  0  0
  144.6677  135.0784  153.6256 O   0  0  0  0  0  0  0  0  0  0  0  0
  145.8962  134.7073  151.5983 C   0  0  0  0  0  0  0  0  0  0  0  0
  146.0136  133.1842  151.6413 C   0  0  0  0  0  0  0  0  0  0  0  0
  145.1165  132.3524  151.0351 C   0  0  0  0  0  0  0  0  0  0  0  0
  143.9113  132.8619  150.2639 C   0  0  0  0  0  0  0  0  0  0  0  0
  145.2533  130.9584  151.0898 N   0  0  0  0  0  0  0  0  0  0  0  0
  146.2584  130.4569  151.7288 C   0  0  0  0  0  0  0  0  0  0  0  0
  146.5149  128.9711  151.8655 C   0  0  0  0  0  0  0  0  0  0  0  0
  147.2142  131.2495  152.3621 N   0  0  0  0  0  0  0  0  0  0  0  0
  147.1635  132.6005  152.3597 C   0  0  0  0  0  0  0  0  0  0  0  0
  148.0408  133.2563  152.9198 O   0  0  0  0  0  0  0  0  0  0  0  0
  148.9602  137.4898  154.6038 N   0  0  0  0  0  0  0  0  0  0  0  0
  149.1494  136.5176  155.6898 C   0  0  0  0  0  0  0  0  0  0  0  0
  150.4952  135.7800  155.5864 C   0  0  0  0  0  0  0  0  0  0  0  0
  151.5597  136.7218  155.5725 O   0  0  0  0  0  0  0  0  0  0  0  0
  151.4514  137.6392  154.4922 C   0  0  0  0  0  0  0  0  0  0  0  0
  150.1162  138.3966  154.5867 C   0  0  0  0  0  0  0  0  0  0  0  0
  147.9816  130.8019  152.8417 H   0  0  0  0  0  0  0  0  0  0  0  0
  147.1398  141.0784  152.5521 H   0  0  0  0  0  0  0  0  0  0  0  0
  147.6941  141.0632  154.2163 H   0  0  0  0  0  0  0  0  0  0  0  0
  146.0341  140.6036  153.8201 H   0  0  0  0  0  0  0  0  0  0  0  0
  146.8469  138.6137  152.5765 H   0  0  0  0  0  0  0  0  0  0  0  0
  148.4928  139.1222  152.8052 H   0  0  0  0  0  0  0  0  0  0  0  0
  146.3939  139.5025  155.8050 H   0  0  0  0  0  0  0  0  0  0  0  0
  148.1031  139.8597  155.8981 H   0  0  0  0  0  0  0  0  0  0  0  0
  147.4356  138.4703  156.7461 H   0  0  0  0  0  0  0  0  0  0  0  0
  146.4588  136.4801  155.4061 H   0  0  0  0  0  0  0  0  0  0  0  0
  145.5033  137.6092  154.5364 H   0  0  0  0  0  0  0  0  0  0  0  0
  147.3551  136.4422  152.7213 H   0  0  0  0  0  0  0  0  0  0  0  0
  145.1011  135.0079  150.9145 H   0  0  0  0  0  0  0  0  0  0  0  0
  146.8043  135.1261  151.1645 H   0  0  0  0  0  0  0  0  0  0  0  0
  144.2211  133.5349  149.4646 H   0  0  0  0  0  0  0  0  0  0  0  0
  143.2317  133.3976  150.9269 H   0  0  0  0  0  0  0  0  0  0  0  0
  143.3558  132.0406  149.8093 H   0  0  0  0  0  0  0  0  0  0  0  0
  145.6721  128.4900  152.3627 H   0  0  0  0  0  0  0  0  0  0  0  0
  147.4150  128.7689  152.4477 H   0  0  0  0  0  0  0  0  0  0  0  0
  146.6359  128.5192  150.8808 H   0  0  0  0  0  0  0  0  0  0  0  0
  149.0969  137.0155  156.6578 H   0  0  0  0  0  0  0  0  0  0  0  0
  148.3705  135.7585  155.6789 H   0  0  0  0  0  0  0  0  0  0  0  0
  150.6251  135.1097  156.4361 H   0  0  0  0  0  0  0  0  0  0  0  0
  150.5304  135.1657  154.6854 H   0  0  0  0  0  0  0  0  0  0  0  0
  152.2865  138.3385  154.5350 H   0  0  0  0  0  0  0  0  0  0  0  0
  151.5277  137.1071  153.5427 H   0  0  0  0  0  0  0  0  0  0  0  0
  150.0712  139.0748  153.7374 H   0  0  0  0  0  0  0  0  0  0  0  0
  150.1256  139.0125  155.4859 H   0  0  0  0  0  0  0  0  0  0  0  0
  1  2  1  0  0  0  0
  1 26  1  0  0  0  0
  1 27  1  0  0  0  0
  1 28  1  0  0  0  0
  2  3  1  0  0  0  0
  2 29  1  0  0  0  0
  2 30  1  0  0  0  0
  3  4  1  0  0  0  0
  3  5  1  0  0  0  0
  3 19  1  0  0  0  0
  4 31  1  0  0  0  0
  4 32  1  0  0  0  0
  4 33  1  0  0  0  0
  5  6  1  0  0  0  0
  5 34  1  0  0  0  0
  5 35  1  0  0  0  0
  6  7  1  0  0  0  0
  6 36  1  0  0  0  0
  7  8  2  0  0  0  0
  7  9  1  0  0  0  0
  9 10  1  0  0  0  0
  9 37  1  0  0  0  0
  9 38  1  0  0  0  0
 10 17  1  0  0  0  0
 10 11  2  0  0  0  0
 11 12  1  0  0  0  0
 11 13  1  0  0  0  0
 12 39  1  0  0  0  0
 12 40  1  0  0  0  0
 12 41  1  0  0  0  0
 13 14  2  0  0  0  0
 14 15  1  0  0  0  0
 14 16  1  0  0  0  0
 15 42  1  0  0  0  0
 15 43  1  0  0  0  0
 15 44  1  0  0  0  0
 16 25  1  0  0  0  0
 16 17  1  0  0  0  0
 17 18  2  0  0  0  0
 19 24  1  0  0  0  0
 19 20  1  0  0  0  0
 20 21  1  0  0  0  0
 20 45  1  0  0  0  0
 20 46  1  0  0  0  0
 21 22  1  0  0  0  0
 21 47  1  0  0  0  0
 21 48  1  0  0  0  0
 22 23  1  0  0  0  0
 23 24  1  0  0  0  0
 23 49  1  0  0  0  0
 23 50  1  0  0  0  0
 24 51  1  0  0  0  0
 24 52  1  0  0  0  0
M  END
> <s_m_source_file>
AV-unprocessed.smi

> <i_m_source_file_index>
1492

> <i_lp_mmshare_version>
43012

> <i_f3d_flags>
0

> <s_epik_input>
W0NIMl0xW0NIMl1PW0NIMl1bQ0gyXU4xW0NAQF0oW0NIM10pKFtDSDJdW0NIM10pW0NIMl1bTkhdQyg9TylbQ0gyXWMyYyhbQ0gzXSluYyhbQ0gzXSlbbkhdYzI9Tw==

> <s_epik_cmdline>
J2VwaWtfcHl0aG9uJywgJy1waCcsICc3LjAnLCAnLXRuJywgJzgnLCAnLW1hJywgJzIwMCcsICctbWV0YWxfYmluZGluZycsICctaW1hZScsICc8aW5maWxlLm1hZT4nLCAnLW9tYWUnLCAnPG91dGZpbGUubWFlPic=

> <r_lp_tautomer_probability>
0.839158

> <r_epik_Ionization_Penalty>
0.328652

> <r_epik_Ionization_Penalty_Charging>
0.000364731

> <r_epik_Ionization_Penalty_Neutral>
0.328288

> <r_epik_State_Penalty>
0.414451

> <r_epik_Charging_Adjusted_Penalty>
0.414816

> <i_epik_Tot_Q>
0

> <i_epik_Tot_abs_Q>
0

> <r_epik_Metal_State_Penalty>
0.592978

> <b_epik_Metal_Only>
0

> <s_lp_Force_Field>
OPLS_2005

> <r_lp_Energy>
47.024

> <b_lp_Chiralities_Consistent>
1

> <s_lp_Variant>
AV-unprocessed.smi:1492-1

> <Gold.Version>
5.8.1

> <Gold.Id.Protein>
6NUR|6NUR_protein|mol2

> <Gold.PLP.Fitness>
38.4110

> <Gold.PLP.PLP>
-34.5924

> <Gold.PLP.part.hbond>
-3.0000

> <Gold.PLP.part.metal>
0.0000

> <Gold.PLP.part.buried>
-5.5919

> <Gold.PLP.part.nonpolar>
-28.7571

> <Gold.PLP.part.repulsive>
1.8430

> <Gold.PLP.ligand.clash>
0.0000

> <Gold.PLP.ligand.torsion>
1.1372

> <Gold.PLP.Chemscore.Hbond>
2.0000

> <Gold.PLP.Chemscore.CHOScore>
0.0000

> <Gold.PLP.Chemscore.Metal>
0.0000

> <Gold.Chemscore.Hbonds>
donor molecule, donor type, donor heavy atom, donor atom, acceptor molecule, acceptor atom, score
      L1  H     6    36       P1  7948  1.00
      P1  H 10752 10764       L1    22  0.95

> <Gold.PLP.Chemscore.Internal.Correction>
0.0930

> <Gold.Rescore>
     Score         DG    S(hbond)    S(metal)    S(lipo)     H(rot)  DE(clash)    DE(int)     intcor
     13.11     -15.04       1.65        0.00      81.04       2.12       1.55       0.38       ----

> <Gold.Chemscore.Fitness>
13.1098

> <Gold.Chemscore.DG>
-15.0403

> <Gold.Chemscore.ZeroCoef>
-5.4800

> <Gold.Chemscore.Hbond>
1.6450

> <Gold.Chemscore.Metal>
0.0000

> <Gold.Chemscore.Lipo>
81.0395

> <Gold.Chemscore.Internal_Hbond>
0.0000

> <Gold.Chemscore.DEClash>
1.5465

> <Gold.Chemscore.DEInternal>
0.3840

> <Gold.Chemscore.Rot>
2.1155

> <Gold.Chemscore.Internal.Correction>
   9.000000E+99

> <Gold.Chemscore.Hbonds>
donor molecule, donor type, donor heavy atom, donor atom, acceptor molecule, acceptor atom, score
      L1  H     6    36       P1  7948  1.00
      P1  H 10752 10764       L1    22  0.05

> <Gold.Chemscore.Hbond.Weighted>
-5.4944

> <Gold.Chemscore.Metal.Weighted>
-0.0000

> <Gold.Chemscore.Lipo.Weighted>
-9.4816

> <Gold.Chemscore.Internal_Hbond.Weighted>
0.0000

> <Gold.Chemscore.DEClash.Weighted>
1.5465

> <Gold.Chemscore.DEInternal.Weighted>
0.3840

> <Gold.Chemscore.Rot.Weighted>
5.4157

> <Gold.Chemscore.Internal.Correction.Weighted>
   9.000000E+99

> <Gold.Protein.RotatedTorsions>
[ 6907 6896 6895 6894 ] final  118.78 input  -60.11 | X-H torsion
[ 7974 7965 7964 7962 ] final  -51.67 input  175.53 | X-H torsion
[ 8008 7997 7996 7995 ] final  -18.22 input   59.86 | X-H torsion
[ 10167 10162 10161 10158 ] final  -22.16 input  -65.29 | X-H torsion
[ 10718 10713 10712 10709 ] final   44.04 input   66.30 | X-H torsion
[ 10763 10752 10751 10750 ] final  -41.59 input  -60.55 | X-H torsion
[ 11005 11000 10999 10996 ] final -128.10 input  -57.11 | X-H torsion

> <Gold.Protein.ActiveResidues>
 VAL166  LYS551  ARG553  GLY616  TRP617  ASP618  TYR619  PRO620  LYS621  CYS622 
 ASP623  PHE694  ASN695  SER759  ASP760  ASP761  ALA762  ILE779  LEU786  VAL792 
 PHE793  MET794  SER795  GLU796  ALA797  LYS798  CYS799  TRP800  GLU811  SER814 

> <Gold.Protein.RotatedAtoms>
  152.4519  133.7646  159.6765 H   0  0  0  0  0  0  0  0  0  0  0  0  # atno 6907 bound_to 6896
  150.8433  133.7890  159.3058 H   0  0  0  0  0  0  0  0  0  0  0  0  # atno 6908 bound_to 6896
  151.5508  135.1070  160.0001 H   0  0  0  0  0  0  0  0  0  0  0  0  # atno 6909 bound_to 6896
  145.9164  140.7871  142.9669 H   0  0  0  0  0  0  0  0  0  0  0  0  # atno 7974 bound_to 7965
  154.4922  140.2122  155.9524 H   0  0  0  0  0  0  0  0  0  0  0  0  # atno 8008 bound_to 7997
  156.1321  140.3195  155.8333 H   0  0  0  0  0  0  0  0  0  0  0  0  # atno 8009 bound_to 7997
  155.4278  140.0501  157.3011 H   0  0  0  0  0  0  0  0  0  0  0  0  # atno 8010 bound_to 7997
  140.7285  143.4560  151.0447 H   0  0  0  0  0  0  0  0  0  0  0  0  # atno 10167 bound_to 10162
  157.4225  130.7977  149.7528 H   0  0  0  0  0  0  0  0  0  0  0  0  # atno 10718 bound_to 10713
  153.9650  135.6735  153.4746 H   0  0  0  0  0  0  0  0  0  0  0  0  # atno 10763 bound_to 10752
  153.0820  135.4918  154.8518 H   0  0  0  0  0  0  0  0  0  0  0  0  # atno 10764 bound_to 10752
  154.7251  135.3125  154.8944 H   0  0  0  0  0  0  0  0  0  0  0  0  # atno 10765 bound_to 10752
  140.9544  134.1022  157.4030 H   0  0  0  0  0  0  0  0  0  0  0  0  # atno 11005 bound_to 11000
  144.6748  140.1906  143.7397 LP  0  0  0  0  0  0  0  0  0  0  0  0  # atno 17320 bound_to 7965
  145.8606  139.2221  143.1719 LP  0  0  0  0  0  0  0  0  0  0  0  0  # atno 17321 bound_to 7965
  139.8241  143.7780  152.3178 LP  0  0  0  0  0  0  0  0  0  0  0  0  # atno 17342 bound_to 10162
  139.7873  144.7423  151.0004 LP  0  0  0  0  0  0  0  0  0  0  0  0  # atno 17343 bound_to 10162
  155.9885  130.3958  150.3115 LP  0  0  0  0  0  0  0  0  0  0  0  0  # atno 17370 bound_to 10713
  157.1264  131.0260  151.2988 LP  0  0  0  0  0  0  0  0  0  0  0  0  # atno 17371 bound_to 10713
  139.8857  135.0075  156.6455 LP  0  0  0  0  0  0  0  0  0  0  0  0  # atno 17394 bound_to 11000
  140.7557  133.8860  155.8380 LP  0  0  0  0  0  0  0  0  0  0  0  0  # atno 17395 bound_to 11000

$$$$
