AV-unprocessed.smi:2061|AV-procd|sdf|8367|dock9
  -GOLD-   2272011 43D 1   1.00000     0.00000
 Structure written by MMmdl.
 46 47  0  0  0  0  0  0  0  0  2 V2000
  151.9887  140.8761  157.4024 C   0  0  0  0  0  0  0  0  0  0  0  0
  151.3555  140.0651  156.3244 C   0  0  0  0  0  0  0  0  0  0  0  0
  151.0508  138.7373  156.2168 C   0  0  0  0  0  0  0  0  0  0  0  0
  150.4644  138.6475  154.9263 C   0  0  0  0  0  0  0  0  0  0  0  0
  150.0056  137.4044  154.4212 N   0  0  0  0  0  0  0  0  0  0  0  0
  149.8620  136.2500  155.0936 C   0  0  0  0  0  0  0  0  0  0  0  0
  150.1410  136.0781  156.2804 O   0  0  0  0  0  0  0  0  0  0  0  0
  149.3597  135.2868  154.3074 N   0  0  0  0  0  0  0  0  0  0  0  0
  149.0533  133.9271  154.7431 C   0  0  0  0  0  0  0  0  0  0  0  0
  148.6869  132.9741  153.5712 C   0  0  1  0  0  0  0  0  0  0  0  0
  148.3040  131.5776  154.1215 C   0  0  0  0  0  0  0  0  0  0  0  0
  147.6205  133.5817  152.7077 N   0  3  1  0  0  0  0  0  0  0  0  0
  147.1326  132.6518  151.6525 C   0  0  0  0  0  0  0  0  0  0  0  0
  146.1083  133.3408  150.7325 C   0  0  1  0  0  0  0  0  0  0  0  0
  145.5482  132.3858  149.6725 C   0  0  0  0  0  0  0  0  0  0  0  0
  145.0237  133.8089  151.5215 O   0  0  0  0  0  0  0  0  0  0  0  0
  145.4342  134.7787  152.4751 C   0  0  1  0  0  0  0  0  0  0  0  0
  144.1842  135.2849  153.2038 C   0  0  0  0  0  0  0  0  0  0  0  0
  146.4540  134.1463  153.4422 C   0  0  0  0  0  0  0  0  0  0  0  0
  150.4146  139.8145  154.3026 N   0  0  0  0  0  0  0  0  0  0  0  0
  150.9855  140.7293  155.1958 O   0  0  0  0  0  0  0  0  0  0  0  0
  152.2659  140.2489  158.2498 H   0  0  0  0  0  0  0  0  0  0  0  0
  151.3034  141.6446  157.7604 H   0  0  0  0  0  0  0  0  0  0  0  0
  152.8901  141.3686  157.0373 H   0  0  0  0  0  0  0  0  0  0  0  0
  151.2227  137.9587  156.9451 H   0  0  0  0  0  0  0  0  0  0  0  0
  149.7403  137.3998  153.4474 H   0  0  0  0  0  0  0  0  0  0  0  0
  149.1649  135.5116  153.3426 H   0  0  0  0  0  0  0  0  0  0  0  0
  149.9263  133.5415  155.2708 H   0  0  0  0  0  0  0  0  0  0  0  0
  148.2580  133.9943  155.4838 H   0  0  0  0  0  0  0  0  0  0  0  0
  149.5687  132.8339  152.9440 H   0  0  0  0  0  0  0  0  0  0  0  0
  149.0743  131.1729  154.7774 H   0  0  0  0  0  0  0  0  0  0  0  0
  148.1874  130.8412  153.3264 H   0  0  0  0  0  0  0  0  0  0  0  0
  147.3760  131.6151  154.6932 H   0  0  0  0  0  0  0  0  0  0  0  0
  147.9526  132.2905  151.0351 H   0  0  0  0  0  0  0  0  0  0  0  0
  146.6828  131.7751  152.1219 H   0  0  0  0  0  0  0  0  0  0  0  0
  146.5779  134.1849  150.2237 H   0  0  0  0  0  0  0  0  0  0  0  0
  146.3415  132.0033  149.0294 H   0  0  0  0  0  0  0  0  0  0  0  0
  144.8216  132.8926  149.0370 H   0  0  0  0  0  0  0  0  0  0  0  0
  145.0497  131.5321  150.1329 H   0  0  0  0  0  0  0  0  0  0  0  0
  145.8954  135.6208  151.9556 H   0  0  0  0  0  0  0  0  0  0  0  0
  144.4397  136.0433  153.9442 H   0  0  0  0  0  0  0  0  0  0  0  0
  143.6713  134.4726  153.7197 H   0  0  0  0  0  0  0  0  0  0  0  0
  143.4785  135.7309  152.5024 H   0  0  0  0  0  0  0  0  0  0  0  0
  145.9810  133.3590  154.0321 H   0  0  0  0  0  0  0  0  0  0  0  0
  146.7721  134.9276  154.1316 H   0  0  0  0  0  0  0  0  0  0  0  0
  148.0517  134.3628  152.2342 H   0  0  0  0  0  0  0  0  0  0  0  0
  1  2  1  0  0  0  0
  1 22  1  0  0  0  0
  1 23  1  0  0  0  0
  1 24  1  0  0  0  0
  2 21  1  0  0  0  0
  2  3  2  0  0  0  0
  3  4  1  0  0  0  0
  3 25  1  0  0  0  0
  4  5  1  0  0  0  0
  4 20  2  0  0  0  0
  5  6  1  0  0  0  0
  5 26  1  0  0  0  0
  6  7  2  0  0  0  0
  6  8  1  0  0  0  0
  8  9  1  0  0  0  0
  8 27  1  0  0  0  0
  9 10  1  0  0  0  0
  9 28  1  0  0  0  0
  9 29  1  0  0  0  0
 10 11  1  0  0  0  0
 10 12  1  0  0  0  0
 10 30  1  0  0  0  0
 11 31  1  0  0  0  0
 11 32  1  0  0  0  0
 11 33  1  0  0  0  0
 12 19  1  0  0  0  0
 12 13  1  0  0  0  0
 12 46  1  0  0  0  0
 13 14  1  0  0  0  0
 13 34  1  0  0  0  0
 13 35  1  0  0  0  0
 14 15  1  0  0  0  0
 14 16  1  0  0  0  0
 14 36  1  0  0  0  0
 15 37  1  0  0  0  0
 15 38  1  0  0  0  0
 15 39  1  0  0  0  0
 16 17  1  0  0  0  0
 17 18  1  0  0  0  0
 17 19  1  0  0  0  0
 17 40  1  0  0  0  0
 18 41  1  0  0  0  0
 18 42  1  0  0  0  0
 18 43  1  0  0  0  0
 19 44  1  0  0  0  0
 19 45  1  0  0  0  0
 20 21  1  0  0  0  0
M  CHG  1  12   1
M  END
> <s_m_source_file>
AV-unprocessed.smi

> <i_m_source_file_index>
2061

> <i_lp_mmshare_version>
43012

> <i_f3d_flags>
0

> <s_epik_input>
W0NIM11jMVtjSF1jKG5vMSlbTkhdQyg9TylbTkhdW0NIMl1bQ0BIXShbQ0gzXSlOMltDSDJdW0NAQEhdKFtDSDNdKU9bQ0BASF0oW0NIM10pW0NIMl0y

> <s_epik_cmdline>
J2VwaWtfcHl0aG9uJywgJy1waCcsICc3LjAnLCAnLXRuJywgJzgnLCAnLW1hJywgJzIwMCcsICctbWV0YWxfYmluZGluZycsICctaW1hZScsICc8aW5maWxlLm1hZT4nLCAnLW9tYWUnLCAnPG91dGZpbGUubWFlPic=

> <r_epik_Ionization_Penalty>
0.707076

> <r_epik_Ionization_Penalty_Charging>
0.707039

> <r_epik_Ionization_Penalty_Neutral>
3.6548e-05

> <r_epik_State_Penalty>
0.730276

> <r_epik_Charging_Adjusted_Penalty>
1.43732

> <i_epik_Tot_Q>
1

> <i_epik_Tot_abs_Q>
1

> <r_epik_Metal_State_Penalty>
0.743132

> <b_epik_Metal_Only>
0

> <s_lp_Force_Field>
OPLS_2005

> <r_lp_Energy>
16.4142

> <b_lp_Chiralities_Consistent>
1

> <s_lp_Variant>
AV-unprocessed.smi:2061-8

> <Gold.Version>
5.8.1

> <Gold.Id.Protein>
6NUR|6NUR_protein|mol2

> <Gold.PLP.Fitness>
40.4686

> <Gold.PLP.PLP>
-30.1563

> <Gold.PLP.part.hbond>
-5.0000

> <Gold.PLP.part.metal>
0.0000

> <Gold.PLP.part.buried>
-1.7108

> <Gold.PLP.part.nonpolar>
-23.4504

> <Gold.PLP.part.repulsive>
0.3799

> <Gold.PLP.ligand.clash>
0.0000

> <Gold.PLP.ligand.torsion>
0.2226

> <Gold.PLP.Chemscore.Hbond>
3.5706

> <Gold.PLP.Chemscore.CHOScore>
0.0000

> <Gold.PLP.Chemscore.Metal>
0.0000

> <Gold.Chemscore.Hbonds>
donor molecule, donor type, donor heavy atom, donor atom, acceptor molecule, acceptor atom, score
      L1  H     5    26       P1  7948  0.79
      L1  H     8    27       P1  7948  1.00
      L1  H    12    46       P1  7948  1.60

> <Gold.PLP.Chemscore.Internal.Correction>
0.0456

> <Gold.Rescore>
     Score         DG    S(hbond)    S(metal)    S(lipo)     H(rot)  DE(clash)    DE(int)     intcor
     13.83     -15.57       2.02        0.00      63.38       1.58       0.04       1.71       ----

> <Gold.Chemscore.Fitness>
13.8328

> <Gold.Chemscore.DG>
-15.5744

> <Gold.Chemscore.ZeroCoef>
-5.4800

> <Gold.Chemscore.Hbond>
2.0158

> <Gold.Chemscore.Metal>
0.0000

> <Gold.Chemscore.Lipo>
63.3765

> <Gold.Chemscore.Internal_Hbond>
0.0000

> <Gold.Chemscore.DEClash>
0.0358

> <Gold.Chemscore.DEInternal>
1.7059

> <Gold.Chemscore.Rot>
1.5834

> <Gold.Chemscore.Internal.Correction>
   9.000000E+99

> <Gold.Chemscore.Hbonds>
donor molecule, donor type, donor heavy atom, donor atom, acceptor molecule, acceptor atom, score
      L1  H     5    26       P1  7948  0.53
      L1  H     8    27       P1  7948  0.44
      L1  H    12    46       P1  7948  0.13

> <Gold.Chemscore.Hbond.Weighted>
-6.7328

> <Gold.Chemscore.Metal.Weighted>
-0.0000

> <Gold.Chemscore.Lipo.Weighted>
-7.4150

> <Gold.Chemscore.Internal_Hbond.Weighted>
0.0000

> <Gold.Chemscore.DEClash.Weighted>
0.0358

> <Gold.Chemscore.DEInternal.Weighted>
1.7059

> <Gold.Chemscore.Rot.Weighted>
4.0535

> <Gold.Chemscore.Internal.Correction.Weighted>
   9.000000E+99

> <Gold.Protein.RotatedTorsions>
[ 6907 6896 6895 6894 ] final -154.03 input  -60.11 | X-H torsion
[ 7974 7965 7964 7962 ] final -179.14 input  175.53 | X-H torsion
[ 8008 7997 7996 7995 ] final   -2.65 input   59.86 | X-H torsion
[ 10167 10162 10161 10158 ] final  -43.87 input  -65.29 | X-H torsion
[ 10718 10713 10712 10709 ] final   61.68 input   66.30 | X-H torsion
[ 10763 10752 10751 10750 ] final  -69.59 input  -60.55 | X-H torsion
[ 11005 11000 10999 10996 ] final  112.43 input  -57.11 | X-H torsion

> <Gold.Protein.ActiveResidues>
 VAL166  LYS551  ARG553  GLY616  TRP617  ASP618  TYR619  PRO620  LYS621  CYS622 
 ASP623  PHE694  ASN695  SER759  ASP760  ASP761  ALA762  ILE779  LEU786  VAL792 
 PHE793  MET794  SER795  GLU796  ALA797  LYS798  CYS799  TRP800  GLU811  SER814 

> <Gold.Protein.RotatedAtoms>
  151.2514  133.4348  159.2611 H   0  0  0  0  0  0  0  0  0  0  0  0  # atno 6907 bound_to 6896
  151.0614  134.9739  159.8272 H   0  0  0  0  0  0  0  0  0  0  0  0  # atno 6908 bound_to 6896
  152.5399  134.2464  159.8935 H   0  0  0  0  0  0  0  0  0  0  0  0  # atno 6909 bound_to 6896
  144.7135  140.0763  143.6427 H   0  0  0  0  0  0  0  0  0  0  0  0  # atno 7974 bound_to 7965
  154.6334  140.2529  155.7406 H   0  0  0  0  0  0  0  0  0  0  0  0  # atno 8008 bound_to 7997
  156.2491  140.2902  156.0616 H   0  0  0  0  0  0  0  0  0  0  0  0  # atno 8009 bound_to 7997
  155.1709  140.0386  157.2853 H   0  0  0  0  0  0  0  0  0  0  0  0  # atno 8010 bound_to 7997
  140.6918  143.2960  151.3414 H   0  0  0  0  0  0  0  0  0  0  0  0  # atno 10167 bound_to 10162
  157.5846  130.9008  149.9492 H   0  0  0  0  0  0  0  0  0  0  0  0  # atno 10718 bound_to 10713
  154.4056  135.6021  153.5923 H   0  0  0  0  0  0  0  0  0  0  0  0  # atno 10763 bound_to 10752
  152.9789  135.5917  154.4131 H   0  0  0  0  0  0  0  0  0  0  0  0  # atno 10764 bound_to 10752
  154.3936  135.2842  155.2118 H   0  0  0  0  0  0  0  0  0  0  0  0  # atno 10765 bound_to 10752
  139.8927  134.9529  156.6585 H   0  0  0  0  0  0  0  0  0  0  0  0  # atno 11005 bound_to 11000
  145.9740  139.2891  143.1081 LP  0  0  0  0  0  0  0  0  0  0  0  0  # atno 17320 bound_to 7965
  145.9084  140.9196  143.0466 LP  0  0  0  0  0  0  0  0  0  0  0  0  # atno 17321 bound_to 7965
  139.6329  144.0687  152.2491 LP  0  0  0  0  0  0  0  0  0  0  0  0  # atno 17342 bound_to 10162
  140.0167  144.6183  150.7601 LP  0  0  0  0  0  0  0  0  0  0  0  0  # atno 17343 bound_to 10162
  156.0894  130.3665  150.0425 LP  0  0  0  0  0  0  0  0  0  0  0  0  # atno 17370 bound_to 10713
  156.8558  130.9474  151.3622 LP  0  0  0  0  0  0  0  0  0  0  0  0  # atno 17371 bound_to 10713
  140.7465  133.8933  155.8316 LP  0  0  0  0  0  0  0  0  0  0  0  0  # atno 17394 bound_to 11000
  141.0035  134.1118  157.4294 LP  0  0  0  0  0  0  0  0  0  0  0  0  # atno 17395 bound_to 11000

$$$$
