AV-unprocessed.smi:583|AV-procd|sdf|2997|dock10
  -GOLD-   2262023503D 1   1.00000     0.00000
 Structure written by MMmdl.
 35 36  0  0  0  0  0  0  0  0  1 V2000
  151.3994  141.0554  157.5078 O   0  0  0  0  0  0  0  0  0  0  0  0
  150.9583  142.1960  157.3733 C   0  0  0  0  0  0  0  0  0  0  0  0
  151.7043  143.3664  158.0374 C   0  0  0  0  0  0  0  0  0  0  0  0
  152.1966  143.0998  159.4013 N   0  0  0  0  0  0  0  0  0  0  0  0
  153.0984  142.0286  159.5579 C   0  0  0  0  0  0  0  0  0  0  0  0
  153.6327  141.6879  160.7465 C   0  0  0  0  0  0  0  0  0  0  0  0
  154.5647  140.4951  160.8926 C   0  0  0  0  0  0  0  0  0  0  0  0
  155.6572  140.6827  160.1535 F   0  0  0  0  0  0  0  0  0  0  0  0
  154.9429  140.3336  162.1609 F   0  0  0  0  0  0  0  0  0  0  0  0
  153.9754  139.3703  160.4840 F   0  0  0  0  0  0  0  0  0  0  0  0
  153.2042  142.4651  161.8928 C   0  0  0  0  0  0  0  0  0  0  0  0
  152.3395  143.4899  161.7613 C   0  0  0  0  0  0  0  0  0  0  0  0
  151.7896  143.8665  160.4573 C   0  0  0  0  0  0  0  0  0  0  0  0
  151.0159  144.8143  160.3214 O   0  0  0  0  0  0  0  0  0  0  0  0
  149.8479  142.4656  156.6656 N   0  0  0  0  0  0  0  0  0  0  0  0
  149.0238  141.4761  155.9808 C   0  0  2  0  0  0  0  0  0  0  0  0
  149.0616  141.6479  154.4485 C   0  0  0  0  0  0  0  0  0  0  0  0
  147.9075  140.8460  153.8352 C   0  0  0  0  0  0  0  0  0  0  0  0
  146.5654  140.8488  155.0834 S   0  0  0  0  0  0  0  0  0  0  0  0
  145.5206  141.8031  154.6824 O   0  0  0  0  0  0  0  0  0  0  0  0
  146.2303  139.4580  155.4253 O   0  0  0  0  0  0  0  0  0  0  0  0
  147.5615  141.5861  156.4331 C   0  0  0  0  0  0  0  0  0  0  0  0
  152.5297  143.6616  157.3871 H   0  0  0  0  0  0  0  0  0  0  0  0
  151.0359  144.2285  158.0444 H   0  0  0  0  0  0  0  0  0  0  0  0
  153.3321  141.5019  158.6437 H   0  0  0  0  0  0  0  0  0  0  0  0
  153.5862  142.2250  162.8743 H   0  0  0  0  0  0  0  0  0  0  0  0
  152.0444  144.0489  162.6372 H   0  0  0  0  0  0  0  0  0  0  0  0
  149.5512  143.4286  156.6015 H   0  0  0  0  0  0  0  0  0  0  0  0
  149.3770  140.4728  156.2266 H   0  0  0  0  0  0  0  0  0  0  0  0
  148.9231  142.7019  154.2027 H   0  0  0  0  0  0  0  0  0  0  0  0
  150.0217  141.3475  154.0273 H   0  0  0  0  0  0  0  0  0  0  0  0
  147.5499  141.2652  152.8947 H   0  0  0  0  0  0  0  0  0  0  0  0
  148.2049  139.8111  153.6647 H   0  0  0  0  0  0  0  0  0  0  0  0
  147.3642  141.0694  157.3724 H   0  0  0  0  0  0  0  0  0  0  0  0
  147.2556  142.6277  156.5375 H   0  0  0  0  0  0  0  0  0  0  0  0
  1  2  2  0  0  0  0
  2  3  1  0  0  0  0
  2 15  1  0  0  0  0
  3  4  1  0  0  0  0
  3 23  1  0  0  0  0
  3 24  1  0  0  0  0
  4 13  1  0  0  0  0
  4  5  1  0  0  0  0
  5  6  2  0  0  0  0
  5 25  1  0  0  0  0
  6  7  1  0  0  0  0
  6 11  1  0  0  0  0
  7  8  1  0  0  0  0
  7  9  1  0  0  0  0
  7 10  1  0  0  0  0
 11 12  2  0  0  0  0
 11 26  1  0  0  0  0
 12 13  1  0  0  0  0
 12 27  1  0  0  0  0
 13 14  2  0  0  0  0
 15 16  1  0  0  0  0
 15 28  1  0  0  0  0
 16 22  1  0  0  0  0
 16 17  1  0  0  0  0
 16 29  1  0  0  0  0
 17 18  1  0  0  0  0
 17 30  1  0  0  0  0
 17 31  1  0  0  0  0
 18 19  1  0  0  0  0
 18 32  1  0  0  0  0
 18 33  1  0  0  0  0
 19 20  2  0  0  0  0
 19 21  2  0  0  0  0
 19 22  1  0  0  0  0
 22 34  1  0  0  0  0
 22 35  1  0  0  0  0
M  END
> <s_m_source_file>
AV-unprocessed.smi

> <i_m_source_file_index>
583

> <i_lp_mmshare_version>
43012

> <i_f3d_flags>
0

> <s_epik_input>
Tz1TMSg9TylbQ0gyXVtDSDJdW0NASF0oW0NIMl0xKVtOSF1DKD1PKVtDSDJdbjJbY0hdYyhDKEYpKEYpRilbY0hdW2NIXWMyPU8=

> <s_epik_cmdline>
J2VwaWtfcHl0aG9uJywgJy1waCcsICc3LjAnLCAnLXRuJywgJzgnLCAnLW1hJywgJzIwMCcsICctbWV0YWxfYmluZGluZycsICctaW1hZScsICc8aW5maWxlLm1hZT4nLCAnLW9tYWUnLCAnPG91dGZpbGUubWFlPic=

> <r_lp_tautomer_probability>
1

> <r_epik_Ionization_Penalty>
1.22016e-07

> <r_epik_Ionization_Penalty_Charging>
1.48237e-08

> <r_epik_Ionization_Penalty_Neutral>
1.07193e-07

> <r_epik_State_Penalty>
-0

> <r_epik_Charging_Adjusted_Penalty>
1.48237e-08

> <i_epik_Tot_Q>
0

> <i_epik_Tot_abs_Q>
0

> <r_epik_Metal_State_Penalty>
-0

> <b_epik_Metal_Only>
0

> <s_lp_Force_Field>
OPLS_2005

> <r_lp_Energy>
16.6381

> <b_lp_Chiralities_Consistent>
1

> <s_lp_Variant>
AV-unprocessed.smi:583-1

> <Gold.Version>
5.8.1

> <Gold.Id.Protein>
6NUR|6NUR_protein|mol2

> <Gold.PLP.Fitness>
49.1146

> <Gold.PLP.PLP>
-46.8045

> <Gold.PLP.part.hbond>
-1.0000

> <Gold.PLP.part.metal>
0.0000

> <Gold.PLP.part.buried>
-4.4708

> <Gold.PLP.part.nonpolar>
-42.3184

> <Gold.PLP.part.repulsive>
0.4384

> <Gold.PLP.ligand.clash>
0.0000

> <Gold.PLP.ligand.torsion>
0.3017

> <Gold.PLP.Chemscore.Hbond>
0.9600

> <Gold.PLP.Chemscore.CHOScore>
0.0000

> <Gold.PLP.Chemscore.Metal>
0.0000

> <Gold.Chemscore.Hbonds>
donor molecule, donor type, donor heavy atom, donor atom, acceptor molecule, acceptor atom, score
      L1  H    15    28       P1  8028  0.99

> <Gold.PLP.Chemscore.Internal.Correction>
0.0335

> <Gold.Rescore>
     Score         DG    S(hbond)    S(metal)    S(lipo)     H(rot)  DE(clash)    DE(int)     intcor
     13.17     -14.59       0.99        0.00      87.60       1.73       0.02       1.39       ----

> <Gold.Chemscore.Fitness>
13.1721

> <Gold.Chemscore.DG>
-14.5868

> <Gold.Chemscore.ZeroCoef>
-5.4800

> <Gold.Chemscore.Hbond>
0.9850

> <Gold.Chemscore.Metal>
0.0000

> <Gold.Chemscore.Lipo>
87.5991

> <Gold.Chemscore.Internal_Hbond>
0.0000

> <Gold.Chemscore.DEClash>
0.0250

> <Gold.Chemscore.DEInternal>
1.3897

> <Gold.Chemscore.Rot>
1.7314

> <Gold.Chemscore.Internal.Correction>
   9.000000E+99

> <Gold.Chemscore.Hbonds>
donor molecule, donor type, donor heavy atom, donor atom, acceptor molecule, acceptor atom, score
      L1  H    15    28       P1  8028  0.94

> <Gold.Chemscore.Hbond.Weighted>
-3.2901

> <Gold.Chemscore.Metal.Weighted>
-0.0000

> <Gold.Chemscore.Lipo.Weighted>
-10.2491

> <Gold.Chemscore.Internal_Hbond.Weighted>
0.0000

> <Gold.Chemscore.DEClash.Weighted>
0.0250

> <Gold.Chemscore.DEInternal.Weighted>
1.3897

> <Gold.Chemscore.Rot.Weighted>
4.4324

> <Gold.Chemscore.Internal.Correction.Weighted>
   9.000000E+99

> <Gold.Protein.RotatedTorsions>
[ 6907 6896 6895 6894 ] final   15.43 input  -60.11 | X-H torsion
[ 7974 7965 7964 7962 ] final  -18.91 input  175.53 | X-H torsion
[ 8008 7997 7996 7995 ] final  165.21 input   59.86 | X-H torsion
[ 10167 10162 10161 10158 ] final   85.86 input  -65.29 | X-H torsion
[ 10718 10713 10712 10709 ] final  111.47 input   66.30 | X-H torsion
[ 10763 10752 10751 10750 ] final   67.70 input  -60.55 | X-H torsion
[ 11005 11000 10999 10996 ] final -108.25 input  -57.11 | X-H torsion

> <Gold.Protein.ActiveResidues>
 VAL166  LYS551  ARG553  GLY616  TRP617  ASP618  TYR619  PRO620  LYS621  CYS622 
 ASP623  PHE694  ASN695  SER759  ASP760  ASP761  ALA762  ILE779  LEU786  VAL792 
 PHE793  MET794  SER795  GLU796  ALA797  LYS798  CYS799  TRP800  GLU811  SER814 

> <Gold.Protein.RotatedAtoms>
  151.8180  135.0660  160.0421 H   0  0  0  0  0  0  0  0  0  0  0  0  # atno 6907 bound_to 6896
  152.2972  133.5614  159.5603 H   0  0  0  0  0  0  0  0  0  0  0  0  # atno 6908 bound_to 6896
  150.7256  134.0260  159.3759 H   0  0  0  0  0  0  0  0  0  0  0  0  # atno 6909 bound_to 6896
  146.1868  140.3987  142.8473 H   0  0  0  0  0  0  0  0  0  0  0  0  # atno 7974 bound_to 7965
  156.1819  140.1676  156.8258 H   0  0  0  0  0  0  0  0  0  0  0  0  # atno 8008 bound_to 7997
  154.5369  140.0745  156.8477 H   0  0  0  0  0  0  0  0  0  0  0  0  # atno 8009 bound_to 7997
  155.3292  140.3378  155.4242 H   0  0  0  0  0  0  0  0  0  0  0  0  # atno 8010 bound_to 7997
  139.8934  144.6372  150.8714 H   0  0  0  0  0  0  0  0  0  0  0  0  # atno 10167 bound_to 10162
  157.6443  131.0951  150.6753 H   0  0  0  0  0  0  0  0  0  0  0  0  # atno 10718 bound_to 10713
  153.0199  135.5274  154.7021 H   0  0  0  0  0  0  0  0  0  0  0  0  # atno 10763 bound_to 10752
  154.6127  135.2880  155.0417 H   0  0  0  0  0  0  0  0  0  0  0  0  # atno 10764 bound_to 10752
  154.1433  135.6574  153.4999 H   0  0  0  0  0  0  0  0  0  0  0  0  # atno 10765 bound_to 10752
  141.0911  133.9052  157.2072 H   0  0  0  0  0  0  0  0  0  0  0  0  # atno 11005 bound_to 11000
  144.8413  140.6861  143.6228 LP  0  0  0  0  0  0  0  0  0  0  0  0  # atno 17320 bound_to 7965
  145.3913  139.1616  143.4227 LP  0  0  0  0  0  0  0  0  0  0  0  0  # atno 17321 bound_to 7965
  140.7722  143.3492  151.2048 LP  0  0  0  0  0  0  0  0  0  0  0  0  # atno 17342 bound_to 10162
  139.7089  143.9409  152.2939 LP  0  0  0  0  0  0  0  0  0  0  0  0  # atno 17343 bound_to 10162
  156.7073  130.4641  149.5557 LP  0  0  0  0  0  0  0  0  0  0  0  0  # atno 17370 bound_to 10713
  156.1754  130.6464  151.0888 LP  0  0  0  0  0  0  0  0  0  0  0  0  # atno 17371 bound_to 10713
  139.9738  135.0120  156.9579 LP  0  0  0  0  0  0  0  0  0  0  0  0  # atno 17394 bound_to 11000
  140.5249  134.0871  155.7301 LP  0  0  0  0  0  0  0  0  0  0  0  0  # atno 17395 bound_to 11000

$$$$
