AV-unprocessed.smi:732|AV-procd|sdf|3527|dock1
  -GOLD-   22720 0523D 1   1.00000     0.00000
 Structure written by MMmdl.
 34 36  0  0  0  0  0  0  0  0  1 V2000
  146.9336  139.0101  152.8544 C   0  0  0  0  0  0  0  0  0  0  0  0
  147.9841  139.6994  153.6564 C   0  0  0  0  0  0  0  0  0  0  0  0
  148.0061  140.8868  154.3326 C   0  0  0  0  0  0  0  0  0  0  0  0
  149.3214  140.9262  154.8670 C   0  0  0  0  0  0  0  0  0  0  0  0
  149.7557  142.0262  155.6495 N   0  0  0  0  0  0  0  0  0  0  0  0
  150.6694  142.0210  156.6352 C   0  0  0  0  0  0  0  0  0  0  0  0
  151.2791  141.0270  157.0309 O   0  0  0  0  0  0  0  0  0  0  0  0
  150.8443  143.2500  157.1398 N   0  0  0  0  0  0  0  0  0  0  0  0
  151.7569  143.5951  158.1807 C   0  0  2  0  0  0  0  0  0  0  0  0
  151.7532  142.7297  159.4242 C   0  0  1  0  0  0  0  0  0  0  0  0
  152.9920  142.5239  160.2763 C   0  0  0  0  0  0  0  0  0  0  0  0
  152.7868  143.0807  161.6989 C   0  0  0  0  0  0  0  0  0  0  0  0
  152.1848  144.5086  161.7422 C   0  0  0  0  0  0  0  0  0  0  0  0
  151.8882  145.1111  160.3553 C   0  0  0  0  0  0  0  0  0  0  0  0
  151.1602  144.1162  159.4708 C   0  0  1  0  0  0  0  0  0  0  0  0
  150.0370  139.8587  154.5479 N   0  0  0  0  0  0  0  0  0  0  0  0
  149.1839  139.0671  153.7700 O   0  0  0  0  0  0  0  0  0  0  0  0
  145.9485  139.1586  153.2970 H   0  0  0  0  0  0  0  0  0  0  0  0
  147.1210  137.9372  152.8023 H   0  0  0  0  0  0  0  0  0  0  0  0
  146.9096  139.3986  151.8362 H   0  0  0  0  0  0  0  0  0  0  0  0
  147.2089  141.6092  154.4261 H   0  0  0  0  0  0  0  0  0  0  0  0
  149.3347  142.9156  155.4260 H   0  0  0  0  0  0  0  0  0  0  0  0
  150.2967  144.0040  156.7521 H   0  0  0  0  0  0  0  0  0  0  0  0
  152.7172  144.0146  157.8835 H   0  0  0  0  0  0  0  0  0  0  0  0
  151.0335  141.9143  159.4731 H   0  0  0  0  0  0  0  0  0  0  0  0
  153.2412  141.4630  160.3060 H   0  0  0  0  0  0  0  0  0  0  0  0
  153.8364  143.0288  159.8053 H   0  0  0  0  0  0  0  0  0  0  0  0
  152.1250  142.4075  162.2453 H   0  0  0  0  0  0  0  0  0  0  0  0
  153.7355  143.0622  162.2362 H   0  0  0  0  0  0  0  0  0  0  0  0
  151.2579  144.4784  162.3162 H   0  0  0  0  0  0  0  0  0  0  0  0
  152.8503  145.1749  162.2918 H   0  0  0  0  0  0  0  0  0  0  0  0
  151.2949  146.0215  160.4444 H   0  0  0  0  0  0  0  0  0  0  0  0
  152.8248  145.3961  159.8742 H   0  0  0  0  0  0  0  0  0  0  0  0
  150.0751  144.1534  159.5510 H   0  0  0  0  0  0  0  0  0  0  0  0
  1  2  1  0  0  0  0
  1 18  1  0  0  0  0
  1 19  1  0  0  0  0
  1 20  1  0  0  0  0
  2 17  1  0  0  0  0
  2  3  2  0  0  0  0
  3  4  1  0  0  0  0
  3 21  1  0  0  0  0
  4  5  1  0  0  0  0
  4 16  2  0  0  0  0
  5  6  1  0  0  0  0
  5 22  1  0  0  0  0
  6  7  2  0  0  0  0
  6  8  1  0  0  0  0
  8  9  1  0  0  0  0
  8 23  1  0  0  0  0
  9 15  1  0  0  0  0
  9 10  1  0  0  0  0
  9 24  1  0  0  0  0
 10 15  1  0  0  0  0
 10 11  1  0  0  0  0
 10 25  1  0  0  0  0
 11 12  1  0  0  0  0
 11 26  1  0  0  0  0
 11 27  1  0  0  0  0
 12 13  1  0  0  0  0
 12 28  1  0  0  0  0
 12 29  1  0  0  0  0
 13 14  1  0  0  0  0
 13 30  1  0  0  0  0
 13 31  1  0  0  0  0
 14 15  1  0  0  0  0
 14 32  1  0  0  0  0
 14 33  1  0  0  0  0
 15 34  1  0  0  0  0
 16 17  1  0  0  0  0
M  END
> <s_m_source_file>
AV-unprocessed.smi

> <i_m_source_file_index>
732

> <i_lp_mmshare_version>
43012

> <i_f3d_flags>
0

> <s_epik_input>
W0NIM11jMVtjSF1jKG5vMSlbTkhdQyg9TylbTkhdW0NASF0yW0NAQEhdKFtDQEBIXTIzKVtDSDJdW0NIMl1bQ0gyXVtDSDJdMw==

> <s_epik_cmdline>
J2VwaWtfcHl0aG9uJywgJy1waCcsICc3LjAnLCAnLXRuJywgJzgnLCAnLW1hJywgJzIwMCcsICctbWV0YWxfYmluZGluZycsICctaW1hZScsICc8aW5maWxlLm1hZT4nLCAnLW9tYWUnLCAnPG91dGZpbGUubWFlPic=

> <r_lp_tautomer_probability>
1

> <r_epik_Ionization_Penalty>
2.39506e-05

> <r_epik_Ionization_Penalty_Charging>
0

> <r_epik_Ionization_Penalty_Neutral>
2.39506e-05

> <r_epik_State_Penalty>
-0

> <r_epik_Charging_Adjusted_Penalty>
0

> <i_epik_Tot_Q>
0

> <i_epik_Tot_abs_Q>
0

> <r_epik_Metal_State_Penalty>
-0

> <b_epik_Metal_Only>
0

> <s_lp_Force_Field>
OPLS_2005

> <r_lp_Energy>
33.499

> <b_lp_Chiralities_Consistent>
1

> <s_lp_Variant>
AV-unprocessed.smi:732-1

> <Gold.Version>
5.8.1

> <Gold.Id.Protein>
6NUR|6NUR_protein|mol2

> <Gold.PLP.Fitness>
46.5198

> <Gold.PLP.PLP>
-37.9827

> <Gold.PLP.part.hbond>
-3.0000

> <Gold.PLP.part.metal>
0.0000

> <Gold.PLP.part.buried>
-3.3016

> <Gold.PLP.part.nonpolar>
-35.5539

> <Gold.PLP.part.repulsive>
3.5310

> <Gold.PLP.ligand.clash>
0.0000

> <Gold.PLP.ligand.torsion>
0.2483

> <Gold.PLP.Chemscore.Hbond>
3.0000

> <Gold.PLP.Chemscore.CHOScore>
0.0000

> <Gold.PLP.Chemscore.Metal>
0.0000

> <Gold.Chemscore.Hbonds>
donor molecule, donor type, donor heavy atom, donor atom, acceptor molecule, acceptor atom, score
      L1  H     5    22       P1  8028  1.00
      L1  H     8    23       P1  8028  1.00
      P1  H  7989  7998       L1    16  0.61

> <Gold.PLP.Chemscore.Internal.Correction>
0.0337

> <Gold.Rescore>
     Score         DG    S(hbond)    S(metal)    S(lipo)     H(rot)  DE(clash)    DE(int)     intcor
     20.43     -23.82       2.78        0.00      99.29       1.00       2.47       0.92       ----

> <Gold.Chemscore.Fitness>
20.4301

> <Gold.Chemscore.DG>
-23.8175

> <Gold.Chemscore.ZeroCoef>
-5.4800

> <Gold.Chemscore.Hbond>
2.7786

> <Gold.Chemscore.Metal>
0.0000

> <Gold.Chemscore.Lipo>
99.2912

> <Gold.Chemscore.Internal_Hbond>
0.0000

> <Gold.Chemscore.DEClash>
2.4706

> <Gold.Chemscore.DEInternal>
0.9168

> <Gold.Chemscore.Rot>
1.0000

> <Gold.Chemscore.Internal.Correction>
   9.000000E+99

> <Gold.Chemscore.Hbonds>
donor molecule, donor type, donor heavy atom, donor atom, acceptor molecule, acceptor atom, score
      L1  H     5    22       P1  8028  0.99
      L1  H     8    23       P1  8028  0.98
      P1  H  7989  7998       L1    16  0.11

> <Gold.Chemscore.Hbond.Weighted>
-9.2804

> <Gold.Chemscore.Metal.Weighted>
-0.0000

> <Gold.Chemscore.Lipo.Weighted>
-11.6171

> <Gold.Chemscore.Internal_Hbond.Weighted>
0.0000

> <Gold.Chemscore.DEClash.Weighted>
2.4706

> <Gold.Chemscore.DEInternal.Weighted>
0.9168

> <Gold.Chemscore.Rot.Weighted>
2.5600

> <Gold.Chemscore.Internal.Correction.Weighted>
   9.000000E+99

> <Gold.Protein.RotatedTorsions>
[ 6907 6896 6895 6894 ] final  151.60 input  -60.11 | X-H torsion
[ 7974 7965 7964 7962 ] final  158.52 input  175.53 | X-H torsion
[ 8008 7997 7996 7995 ] final  113.92 input   59.86 | X-H torsion
[ 10167 10162 10161 10158 ] final -141.01 input  -65.29 | X-H torsion
[ 10718 10713 10712 10709 ] final   99.98 input   66.30 | X-H torsion
[ 10763 10752 10751 10750 ] final   38.17 input  -60.55 | X-H torsion
[ 11005 11000 10999 10996 ] final  166.41 input  -57.11 | X-H torsion

> <Gold.Protein.ActiveResidues>
 VAL166  LYS551  ARG553  GLY616  TRP617  ASP618  TYR619  PRO620  LYS621  CYS622 
 ASP623  PHE694  ASN695  SER759  ASP760  ASP761  ALA762  ILE779  LEU786  VAL792 
 PHE793  MET794  SER795  GLU796  ALA797  LYS798  CYS799  TRP800  GLU811  SER814 

> <Gold.Protein.RotatedAtoms>
  152.0984  133.4237  159.4575 H   0  0  0  0  0  0  0  0  0  0  0  0  # atno 6907 bound_to 6896
  150.6863  134.2789  159.4628 H   0  0  0  0  0  0  0  0  0  0  0  0  # atno 6908 bound_to 6896
  152.0647  134.9571  160.0625 H   0  0  0  0  0  0  0  0  0  0  0  0  # atno 6909 bound_to 6896
  144.7841  139.7490  143.6248 H   0  0  0  0  0  0  0  0  0  0  0  0  # atno 7974 bound_to 7965
  156.2288  140.2970  156.0136 H   0  0  0  0  0  0  0  0  0  0  0  0  # atno 8008 bound_to 7997
  155.2282  140.0418  157.2975 H   0  0  0  0  0  0  0  0  0  0  0  0  # atno 8009 bound_to 7997
  154.5961  140.2414  155.7863 H   0  0  0  0  0  0  0  0  0  0  0  0  # atno 8010 bound_to 7997
  139.8226  143.7554  152.2666 H   0  0  0  0  0  0  0  0  0  0  0  0  # atno 10167 bound_to 10162
  157.6864  131.0685  150.5031 H   0  0  0  0  0  0  0  0  0  0  0  0  # atno 10718 bound_to 10713
  153.0011  135.6257  154.2261 H   0  0  0  0  0  0  0  0  0  0  0  0  # atno 10763 bound_to 10752
  154.2004  135.2804  155.2994 H   0  0  0  0  0  0  0  0  0  0  0  0  # atno 10764 bound_to 10752
  154.5688  135.5683  153.7135 H   0  0  0  0  0  0  0  0  0  0  0  0  # atno 10765 bound_to 10752
  140.2662  134.7863  157.3634 H   0  0  0  0  0  0  0  0  0  0  0  0  # atno 11005 bound_to 11000
  146.2064  139.5391  142.9710 LP  0  0  0  0  0  0  0  0  0  0  0  0  # atno 17320 bound_to 7965
  145.5970  141.0361  143.2039 LP  0  0  0  0  0  0  0  0  0  0  0  0  # atno 17321 bound_to 7965
  139.7736  144.7468  151.0188 LP  0  0  0  0  0  0  0  0  0  0  0  0  # atno 17342 bound_to 10162
  140.7812  143.4618  151.0268 LP  0  0  0  0  0  0  0  0  0  0  0  0  # atno 17343 bound_to 10162
  156.5352  130.4194  149.6181 LP  0  0  0  0  0  0  0  0  0  0  0  0  # atno 17370 bound_to 10713
  156.3034  130.7189  151.2066 LP  0  0  0  0  0  0  0  0  0  0  0  0  # atno 17371 bound_to 10713
  140.1417  134.4963  155.8026 LP  0  0  0  0  0  0  0  0  0  0  0  0  # atno 17394 bound_to 11000
  141.2184  133.6828  156.7222 LP  0  0  0  0  0  0  0  0  0  0  0  0  # atno 17395 bound_to 11000

$$$$
