#       Name:                AV-unprocessed.smi:2899
#       Creating user name   scv26
#       Creation time:       Fri Mar 27 16:02:15 2020


#       File generated by GOLD software.
#

@<TRIPOS>MOLECULE
AV-unprocessed.smi:2899
    34    36     1
SMALL
NO_CHARGES


@<TRIPOS>ATOM
      1 ****        -3.8973  -1.2026   0.0567 C.3            1 S1                 0.0000
      2 ****        -3.1824   0.1248  -0.0789 C.ar           1 S1                 0.0000
      3 ****        -3.8847   1.3477  -0.0550 C.ar           1 S1                 0.0000
      4 ****        -3.1053   2.5138  -0.1920 C.ar           1 S1                 0.0000
      5 ****        -1.7629   2.4601  -0.3358 N.ar           1 S1                 0.0000
      6 ****        -1.2000   1.2491  -0.3418 C.ar           1 S1                 0.0000
      7 ****         0.1756   1.2346  -0.4833 N.pl3          1 S1                 0.0000
      8 ****         1.0080   0.0434  -0.3685 C.3            1 S1                 0.0000
      9 ****         1.1591  -0.4461   1.0773 C.3            1 S1                 0.0000
     10 ****         2.6829  -0.4467   1.2541 C.3            1 S1                 0.0000
     11 ****         3.3649  -1.5407   0.4214 C.3            1 S1                 0.0000
     12 ****         3.2387  -0.9797  -0.9948 C.3            1 S1                 0.0000
     13 ****         2.4705   0.3263  -0.7505 C.3            1 S1                 0.0000
     14 ****         3.0219   0.7042   0.5010 O.3            1 S1                 0.0000
     15 ****        -1.8395   0.0789  -0.2225 N.ar           1 S1                 0.0000
     16 ****        -4.9779  -1.0646   0.1037 H              1 S1                 0.0000
     17 ****        -3.5785  -1.7134   0.9657 H              1 S1                 0.0000
     18 ****        -3.6730  -1.8440  -0.7962 H              1 S1                 0.0000
     19 ****        -4.9576   1.3933   0.0609 H              1 S1                 0.0000
     20 ****        -3.5597   3.4933  -0.1857 H              1 S1                 0.0000
     21 ****         0.6395   2.1294  -0.5434 H              1 S1                 0.0000
     22 ****         0.5984  -0.7365  -1.0121 H              1 S1                 0.0000
     23 ****         0.6989   0.2434   1.7869 H              1 S1                 0.0000
     24 ****         0.7210  -1.4322   1.2336 H              1 S1                 0.0000
     25 ****         3.0072  -0.4144   2.2946 H              1 S1                 0.0000
     26 ****         4.4143  -1.6438   0.6995 H              1 S1                 0.0000
     27 ****         2.8825  -2.5116   0.5388 H              1 S1                 0.0000
     28 ****         4.2248  -0.7750  -1.4135 H              1 S1                 0.0000
     29 ****         2.7136  -1.6528  -1.6735 H              1 S1                 0.0000
     30 ****         2.5981   1.0617  -1.5457 H              1 S1                 0.0000
     31 ****        -1.2149   3.2908  -0.4335 LP             1 S1                 0.0000
     32 ****         4.0113   0.8391   0.4486 LP             1 S1                 0.0000
     33 ****         2.5917   1.5301   0.8654 LP             1 S1                 0.0000
     34 ****        -1.3454  -0.7903  -0.2390 LP             1 S1                 0.0000
@<TRIPOS>BOND
    1    1    2 1     
    2    1   16 1     
    3    1   17 1     
    4    1   18 1     
    5    2   15 ar    
    6    2    3 ar    
    7    3    4 ar    
    8    3   19 1     
    9    4    5 ar    
   10    4   20 1     
   11    5    6 ar    
   12    6    7 1     
   13    6   15 ar    
   14    7    8 1     
   15    7   21 1     
   16    8   13 1     
   17    8    9 1     
   18    8   22 1     
   19    9   10 1     
   20    9   23 1     
   21    9   24 1     
   22   10   14 1     
   23   10   11 1     
   24   10   25 1     
   25   11   12 1     
   26   11   26 1     
   27   11   27 1     
   28   12   13 1     
   29   12   28 1     
   30   12   29 1     
   31   13   14 1     
   32   13   30 1     
   33    5   31 1     
   34   14   32 1     
   35   14   33 1     
   36   15   34 1     
@<TRIPOS>SUBSTRUCTURE
      1 S1             1
@<TRIPOS>SET
LONE_PAIRS      STATIC     ATOMS    <user>   **** ""
4 31 32 33 34
DONOR_HYDROGENS      STATIC     ATOMS    <user>   **** ""
1 21
ATOM$BLUE        STATIC     ATOMS    COLORGROUP SYSTEM
4 31 32 33 34
ATOM$RED        STATIC     ATOMS    COLORGROUP SYSTEM
1 21
