#       Name:                AV-unprocessed.smi:3009
#       Creating user name   scv26
#       Creation time:       Fri Mar 27 16:38:46 2020


#       File generated by GOLD software.
#

@<TRIPOS>MOLECULE
AV-unprocessed.smi:3009
    49    50     1
SMALL
NO_CHARGES


@<TRIPOS>ATOM
      1 ****        -2.3435   4.5080  -0.3406 C.3            1 S1                 0.0000
      2 ****        -2.7822   3.1053  -0.7919 C.3            1 S1                 0.0000
      3 ****        -4.3064   2.9565  -0.6818 C.3            1 S1                 0.0000
      4 ****        -2.0740   1.9957   0.0151 C.3            1 S1                 0.0000
      5 ****        -0.6150   1.9568  -0.0970 N.3            1 S1                 0.0000
      6 ****        -0.1595   1.5705  -1.4308 C.3            1 S1                 0.0000
      7 ****         1.3753   1.5153  -1.5186 C.3            1 S1                 0.0000
      8 ****         1.8846   0.6287  -0.5283 O.3            1 S1                 0.0000
      9 ****         1.4985   0.9894   0.7954 C.3            1 S1                 0.0000
     10 ****         2.1453   0.0157   1.7993 C.3            1 S1                 0.0000
     11 ****         1.6208  -1.3428   1.6887 N.am           1 S1                 0.0000
     12 ****         2.1239  -2.3031   0.9008 C.2            1 S1                 0.0000
     13 ****         3.1113  -2.1487   0.1819 O.2            1 S1                 0.0000
     14 ****         1.4133  -3.4383   1.0022 N.am           1 S1                 0.0000
     15 ****         1.6463  -4.6630   0.3268 C.2            1 S1                 0.0000
     16 ****         0.8608  -5.8370   0.4854 C.2            1 S1                 0.0000
     17 ****         1.3135  -6.8276  -0.2700 N.2            1 S1                 0.0000
     18 ****         2.3803  -6.2970  -0.9094 N.pl3          1 S1                 0.0000
     19 ****         2.6201  -4.9818  -0.5777 C.2            1 S1                 0.0000
     20 ****        -0.0423   1.0375   0.8800 C.3            1 S1                 0.0000
     21 ****         2.9292  -6.8392  -1.5615 H              1 S1                 0.0000
     22 ****        -2.5695   4.6749   0.7129 H              1 S1                 0.0000
     23 ****        -2.8508   5.2819  -0.9171 H              1 S1                 0.0000
     24 ****        -1.2714   4.6516  -0.4778 H              1 S1                 0.0000
     25 ****        -2.5354   2.9979  -1.8476 H              1 S1                 0.0000
     26 ****        -4.6424   3.0607   0.3505 H              1 S1                 0.0000
     27 ****        -4.6323   1.9799  -1.0408 H              1 S1                 0.0000
     28 ****        -4.8199   3.7121  -1.2770 H              1 S1                 0.0000
     29 ****        -2.3441   2.1261   1.0640 H              1 S1                 0.0000
     30 ****        -2.4805   1.0252  -0.2742 H              1 S1                 0.0000
     31 ****        -0.5717   0.5957  -1.6959 H              1 S1                 0.0000
     32 ****        -0.5208   2.2775  -2.1763 H              1 S1                 0.0000
     33 ****         1.6866   1.1655  -2.5030 H              1 S1                 0.0000
     34 ****         1.8046   2.5088  -1.3810 H              1 S1                 0.0000
     35 ****         1.8933   1.9861   1.0004 H              1 S1                 0.0000
     36 ****         3.2304   0.0212   1.6848 H              1 S1                 0.0000
     37 ****         1.9480   0.3614   2.8142 H              1 S1                 0.0000
     38 ****         0.8083  -1.5625   2.2460 H              1 S1                 0.0000
     39 ****         0.6242  -3.4263   1.6315 H              1 S1                 0.0000
     40 ****        -0.0041  -6.0003   1.1115 H              1 S1                 0.0000
     41 ****         3.4364  -4.4175  -1.0036 H              1 S1                 0.0000
     42 ****        -0.3364   1.3397   1.8859 H              1 S1                 0.0000
     43 ****        -0.4531   0.0390   0.7228 H              1 S1                 0.0000
     44 ****        -0.3009   2.8892   0.0817 LP             1 S1                 0.0000
     45 ****         2.8832   0.6324  -0.5808 LP             1 S1                 0.0000
     46 ****         1.5441  -0.2919  -0.7196 LP             1 S1                 0.0000
     47 ****         3.5845  -1.2679   0.1648 LP             1 S1                 0.0000
     48 ****         3.4402  -2.9041  -0.3849 LP             1 S1                 0.0000
     49 ****         0.9493  -7.7555  -0.3490 LP             1 S1                 0.0000
@<TRIPOS>BOND
    1    1    2 1     
    2    1   22 1     
    3    1   23 1     
    4    1   24 1     
    5    2    3 1     
    6    2    4 1     
    7    2   25 1     
    8    3   26 1     
    9    3   27 1     
   10    3   28 1     
   11    4    5 1     
   12    4   29 1     
   13    4   30 1     
   14    5   20 1     
   15    5    6 1     
   16    6    7 1     
   17    6   31 1     
   18    6   32 1     
   19    7    8 1     
   20    7   33 1     
   21    7   34 1     
   22    8    9 1     
   23    9   10 1     
   24    9   20 1     
   25    9   35 1     
   26   10   11 1     
   27   10   36 1     
   28   10   37 1     
   29   11   12 am    
   30   11   38 1     
   31   12   13 2     
   32   12   14 am    
   33   14   15 1     
   34   14   39 1     
   35   15   19 2     
   36   15   16 1     
   37   16   17 2     
   38   16   40 1     
   39   17   18 1     
   40   18   21 1     
   41   18   19 1     
   42   19   41 1     
   43   20   42 1     
   44   20   43 1     
   45    5   44 1     
   46    8   45 1     
   47    8   46 1     
   48   13   47 1     
   49   13   48 1     
   50   17   49 1     
@<TRIPOS>SUBSTRUCTURE
      1 S1             1
@<TRIPOS>SET
LONE_PAIRS      STATIC     ATOMS    <user>   **** ""
6 44 45 46 47 48 49
DONOR_HYDROGENS      STATIC     ATOMS    <user>   **** ""
3 38 39 21
ATOM$BLUE        STATIC     ATOMS    COLORGROUP SYSTEM
6 44 45 46 47 48 49
ATOM$RED        STATIC     ATOMS    COLORGROUP SYSTEM
3 38 39 21
