#       Name:                AV-unprocessed.smi:1662
#       Creating user name   scv26
#       Creation time:       Fri Mar 27 07:37:14 2020


#       File generated by GOLD software.
#

@<TRIPOS>MOLECULE
AV-unprocessed.smi:1662
    53    54     1
SMALL
NO_CHARGES


@<TRIPOS>ATOM
      1 ****        -4.8731   2.1493   1.4654 C.3            1 S1                 0.0000
      2 ****        -4.2319   0.7955   1.3173 C.2            1 S1                 0.0000
      3 ****        -2.9399   0.7608   1.3300 N.2            1 S1                 0.0000
      4 ****        -2.2504  -0.4292   1.1990 N.am           1 S1                 0.0000
      5 ****        -0.7877  -0.2787   1.2100 C.3            1 S1                 0.0000
      6 ****        -0.1608  -0.2800  -0.1922 C.2            1 S1                 0.0000
      7 ****        -0.8510  -0.0848  -1.1937 O.2            1 S1                 0.0000
      8 ****         1.1655  -0.4805  -0.2360 N.am           1 S1                 0.0000
      9 ****         1.9975  -0.5212  -1.4412 C.3            1 S1                 0.0000
     10 ****         2.8496  -1.8036  -1.4415 C.3            1 S1                 0.0000
     11 ****         3.9440  -1.7646  -0.3649 C.3            1 S1                 0.0000
     12 ****         4.8239  -0.5173  -0.5205 C.3            1 S1                 0.0000
     13 ****         3.9981   0.7858  -0.4959 C.3            1 S1                 0.0000
     14 ****         4.9368   1.9967  -0.6446 C.3            1 S1                 0.0000
     15 ****         2.8815   0.7479  -1.5770 C.3            1 S1                 0.0000
     16 ****         2.0276   2.0316  -1.6121 C.3            1 S1                 0.0000
     17 ****        -2.8351  -1.6541   1.0607 C.2            1 S1                 0.0000
     18 ****        -2.1802  -2.6924   0.9550 O.2            1 S1                 0.0000
     19 ****        -4.2988  -1.6076   1.0479 C.2            1 S1                 0.0000
     20 ****        -4.9513  -2.8688   0.9027 C.1            1 S1                 0.0000
     21 ****        -5.4980  -3.8835   0.7935 N.1            1 S1                 0.0000
     22 ****        -4.9869  -0.4442   1.1650 C.2            1 S1                 0.0000
     23 ****        -6.5061  -0.3427   1.1550 C.3            1 S1                 0.0000
     24 ****        -5.5520   2.1658   2.3181 H              1 S1                 0.0000
     25 ****        -5.4435   2.4063   0.5727 H              1 S1                 0.0000
     26 ****        -4.1325   2.9355   1.6204 H              1 S1                 0.0000
     27 ****        -0.5097   0.6548   1.7026 H              1 S1                 0.0000
     28 ****        -0.3346  -1.0703   1.8101 H              1 S1                 0.0000
     29 ****         1.6444  -0.6226   0.6413 H              1 S1                 0.0000
     30 ****         1.3513  -0.5736  -2.3192 H              1 S1                 0.0000
     31 ****         2.2153  -2.6797  -1.2995 H              1 S1                 0.0000
     32 ****         3.3165  -1.9237  -2.4201 H              1 S1                 0.0000
     33 ****         3.4926  -1.7750   0.6278 H              1 S1                 0.0000
     34 ****         4.5596  -2.6621  -0.4312 H              1 S1                 0.0000
     35 ****         5.5690  -0.5019   0.2755 H              1 S1                 0.0000
     36 ****         5.3787  -0.5826  -1.4578 H              1 S1                 0.0000
     37 ****         3.5248   0.8614   0.4842 H              1 S1                 0.0000
     38 ****         5.3892   2.0288  -1.6362 H              1 S1                 0.0000
     39 ****         5.7447   1.9569   0.0864 H              1 S1                 0.0000
     40 ****         4.4121   2.9381  -0.4837 H              1 S1                 0.0000
     41 ****         3.3758   0.6801  -2.5476 H              1 S1                 0.0000
     42 ****         1.5934   2.2541  -0.6371 H              1 S1                 0.0000
     43 ****         1.2091   1.9354  -2.3262 H              1 S1                 0.0000
     44 ****         2.6139   2.8969  -1.9196 H              1 S1                 0.0000
     45 ****        -6.9825  -1.3018   0.9539 H              1 S1                 0.0000
     46 ****        -6.8410   0.3525   0.3843 H              1 S1                 0.0000
     47 ****        -6.8701   0.0110   2.1202 H              1 S1                 0.0000
     48 ****        -2.4285   1.6135   1.4369 LP             1 S1                 0.0000
     49 ****        -1.8333   0.0774  -1.1001 LP             1 S1                 0.0000
     50 ****        -0.4289  -0.0885  -2.1003 LP             1 S1                 0.0000
     51 ****        -1.1809  -2.6568   0.9688 LP             1 S1                 0.0000
     52 ****        -2.6479  -3.5706   0.8553 LP             1 S1                 0.0000
     53 ****        -5.9702  -4.7599   0.6992 LP             1 S1                 0.0000
@<TRIPOS>BOND
    1    1    2 1     
    2    1   24 1     
    3    1   25 1     
    4    1   26 1     
    5    2   22 1     
    6    2    3 2     
    7    3    4 1     
    8    4    5 1     
    9    4   17 am    
   10    5    6 1     
   11    5   27 1     
   12    5   28 1     
   13    6    7 2     
   14    6    8 am    
   15    8    9 1     
   16    8   29 1     
   17    9   15 1     
   18    9   10 1     
   19    9   30 1     
   20   10   11 1     
   21   10   31 1     
   22   10   32 1     
   23   11   12 1     
   24   11   33 1     
   25   11   34 1     
   26   12   13 1     
   27   12   35 1     
   28   12   36 1     
   29   13   14 1     
   30   13   15 1     
   31   13   37 1     
   32   14   38 1     
   33   14   39 1     
   34   14   40 1     
   35   15   16 1     
   36   15   41 1     
   37   16   42 1     
   38   16   43 1     
   39   16   44 1     
   40   17   18 2     
   41   17   19 1     
   42   19   20 1     
   43   19   22 2     
   44   20   21 3     
   45   22   23 1     
   46   23   45 1     
   47   23   46 1     
   48   23   47 1     
   49    3   48 1     
   50    7   49 1     
   51    7   50 1     
   52   18   51 1     
   53   18   52 1     
   54   21   53 1     
@<TRIPOS>SUBSTRUCTURE
      1 S1             1
@<TRIPOS>SET
LONE_PAIRS      STATIC     ATOMS    <user>   **** ""
6 48 49 50 51 52 53
DONOR_HYDROGENS      STATIC     ATOMS    <user>   **** ""
1 29
ATOM$BLUE        STATIC     ATOMS    COLORGROUP SYSTEM
6 48 49 50 51 52 53
ATOM$RED        STATIC     ATOMS    COLORGROUP SYSTEM
1 29
