#       Name:                AV-unprocessed.smi:1420
#       Creating user name   scv26
#       Creation time:       Fri Mar 27 05:43:44 2020


#       File generated by GOLD software.
#

@<TRIPOS>MOLECULE
AV-unprocessed.smi:1420
    44    45     1
SMALL
NO_CHARGES


@<TRIPOS>ATOM
      1 ****        -0.3351   1.1438   0.8315 C.3            1 S1                 0.0000
      2 ****        -0.1689  -0.3674   0.5437 C.3            1 S1                 0.0000
      3 ****         1.3286  -0.7045   0.2885 C.3            1 S1                 0.0000
      4 ****         1.9201   0.1122  -0.7658 N.am           1 S1                 0.0000
      5 ****         1.7036  -0.0487  -2.0805 C.2            1 S1                 0.0000
      6 ****         1.0261  -0.9628  -2.5498 O.2            1 S1                 0.0000
      7 ****         2.3265   0.9979  -3.0040 C.3            1 S1                 0.0000
      8 ****         1.5889   2.2470  -2.9352 N.pl3          1 S1                 0.0000
      9 ****         0.4678   2.6192  -3.6475 C.2            1 S1                 0.0000
     10 ****         0.1195   3.8723  -3.2313 C.2            1 S1                 0.0000
     11 ****         1.1001   4.1877  -2.2496 C.2            1 S1                 0.0000
     12 ****         1.9767   3.2124  -2.0725 N.2            1 S1                 0.0000
     13 ****        -0.7894  -1.1799   1.6418 N.4            1 S1                 1.0000
     14 ****        -2.2778  -1.1453   1.6097 C.3            1 S1                 0.0000
     15 ****        -2.8787  -1.9205   2.7932 C.3            1 S1                 0.0000
     16 ****        -2.4187  -3.2627   2.7605 O.3            1 S1                 0.0000
     17 ****        -1.0077  -3.3296   2.8992 C.3            1 S1                 0.0000
     18 ****        -0.3284  -2.5935   1.7312 C.3            1 S1                 0.0000
     19 ****         0.0793   1.7586   0.0325 H              1 S1                 0.0000
     20 ****         0.1705   1.4249   1.7558 H              1 S1                 0.0000
     21 ****        -1.3772   1.4445   0.9195 H              1 S1                 0.0000
     22 ****        -0.7114  -0.5997  -0.3743 H              1 S1                 0.0000
     23 ****         1.9089  -0.5480   1.1985 H              1 S1                 0.0000
     24 ****         1.4628  -1.7485   0.0030 H              1 S1                 0.0000
     25 ****         2.4912   0.8930  -0.4744 H              1 S1                 0.0000
     26 ****         3.3686   1.1715  -2.7302 H              1 S1                 0.0000
     27 ****         2.3189   0.6410  -4.0349 H              1 S1                 0.0000
     28 ****         0.0151   1.9670  -4.3799 H              1 S1                 0.0000
     29 ****        -0.7100   4.4722  -3.5757 H              1 S1                 0.0000
     30 ****         1.1990   5.0893  -1.6630 H              1 S1                 0.0000
     31 ****        -2.6503  -0.1236   1.6487 H              1 S1                 0.0000
     32 ****        -2.6328  -1.5756   0.6720 H              1 S1                 0.0000
     33 ****        -2.6168  -1.4513   3.7431 H              1 S1                 0.0000
     34 ****        -3.9669  -1.9202   2.7278 H              1 S1                 0.0000
     35 ****        -0.7039  -2.9038   3.8570 H              1 S1                 0.0000
     36 ****        -0.7045  -4.3768   2.9082 H              1 S1                 0.0000
     37 ****        -0.5362  -3.1073   0.7913 H              1 S1                 0.0000
     38 ****         0.7463  -2.6419   1.9031 H              1 S1                 0.0000
     39 ****        -0.5054  -0.7447   2.5080 H              1 S1                 0.0000
     40 ****         0.6033  -1.6347  -1.9418 LP             1 S1                 0.0000
     41 ****         0.8985  -1.0335  -3.5391 LP             1 S1                 0.0000
     42 ****         2.7524   3.1939  -1.4416 LP             1 S1                 0.0000
     43 ****        -2.6798  -3.6750   1.8877 LP             1 S1                 0.0000
     44 ****        -2.8438  -3.7707   3.5096 LP             1 S1                 0.0000
@<TRIPOS>BOND
    1    1    2 1     
    2    1   19 1     
    3    1   20 1     
    4    1   21 1     
    5    2    3 1     
    6    2   13 1     
    7    2   22 1     
    8    3    4 1     
    9    3   23 1     
   10    3   24 1     
   11    4    5 am    
   12    4   25 1     
   13    5    6 2     
   14    5    7 1     
   15    7    8 1     
   16    7   26 1     
   17    7   27 1     
   18    8   12 1     
   19    8    9 1     
   20    9   10 2     
   21    9   28 1     
   22   10   11 1     
   23   10   29 1     
   24   11   12 2     
   25   11   30 1     
   26   13   18 1     
   27   13   14 1     
   28   13   39 1     
   29   14   15 1     
   30   14   31 1     
   31   14   32 1     
   32   15   16 1     
   33   15   33 1     
   34   15   34 1     
   35   16   17 1     
   36   17   18 1     
   37   17   35 1     
   38   17   36 1     
   39   18   37 1     
   40   18   38 1     
   41    6   40 1     
   42    6   41 1     
   43   12   42 1     
   44   16   43 1     
   45   16   44 1     
@<TRIPOS>SUBSTRUCTURE
      1 S1             1
@<TRIPOS>SET
LONE_PAIRS      STATIC     ATOMS    <user>   **** ""
5 40 41 42 43 44
DONOR_HYDROGENS      STATIC     ATOMS    <user>   **** ""
2 25 39
ATOM$BLUE        STATIC     ATOMS    COLORGROUP SYSTEM
5 40 41 42 43 44
ATOM$RED        STATIC     ATOMS    COLORGROUP SYSTEM
2 25 39
