#       Name:                AV-unprocessed.smi:2986
#       Creating user name   scv26
#       Creation time:       Fri Mar 27 16:30:48 2020


#       File generated by GOLD software.
#

@<TRIPOS>MOLECULE
AV-unprocessed.smi:2986
    50    52     1
SMALL
NO_CHARGES


@<TRIPOS>ATOM
      1 ****        -2.5617   4.6754  -1.4303 C.3            1 S1                 0.0000
      2 ****        -2.4625   3.8676  -0.2709 O.3            1 S1                 0.0000
      3 ****        -1.1242   3.7178   0.1751 C.3            1 S1                 0.0000
      4 ****        -1.0839   2.8159   1.4169 C.3            1 S1                 0.0000
      5 ****        -1.6200   1.4735   1.1479 N.pl3          1 S1                 0.0000
      6 ****        -0.9974   0.3580   0.6751 C.2            1 S1                 0.0000
      7 ****         0.7044   0.2199   0.2355 S.3            1 S1                 0.0000
      8 ****         0.8916  -1.4531  -0.4397 C.3            1 S1                 0.0000
      9 ****         2.3108  -1.7218  -0.9414 C.2            1 S1                 0.0000
     10 ****         2.6740  -1.2167  -2.0047 O.2            1 S1                 0.0000
     11 ****         3.0053  -2.5217  -0.0963 N.pl3          1 S1                -1.0000
     12 ****         4.2737  -2.8504  -0.3829 C.2            1 S1                 0.0000
     13 ****         4.6907  -3.9140  -1.2293 C.2            1 S1                 0.0000
     14 ****         6.0536  -3.8339  -1.1825 C.2            1 S1                 0.0000
     15 ****         7.1388  -4.6229  -1.8309 C.3            1 S1                 0.0000
     16 ****         6.4390  -2.8148  -0.3684 O.3            1 S1                 0.0000
     17 ****         5.2937  -2.1943   0.1448 N.2            1 S1                 0.0000
     18 ****        -1.9278  -0.6329   0.5960 N.pl3          1 S1                 1.0000
     19 ****        -3.1657  -0.1447   1.0165 C.ar           1 S1                 0.0000
     20 ****        -4.4060  -0.7686   1.1094 C.ar           1 S1                 0.0000
     21 ****        -5.4786   0.0211   1.5732 C.ar           1 S1                 0.0000
     22 ****        -5.2959   1.3745   1.9239 C.ar           1 S1                 0.0000
     23 ****        -4.0334   1.9958   1.8283 C.ar           1 S1                 0.0000
     24 ****        -2.9770   1.2085   1.3700 C.ar           1 S1                 0.0000
     25 ****        -3.6066   4.7608  -1.7284 H              1 S1                 0.0000
     26 ****        -2.0088   4.2387  -2.2631 H              1 S1                 0.0000
     27 ****        -2.1808   5.6806  -1.2451 H              1 S1                 0.0000
     28 ****        -0.5130   3.2831  -0.6177 H              1 S1                 0.0000
     29 ****        -0.7003   4.6940   0.4149 H              1 S1                 0.0000
     30 ****        -0.0552   2.6989   1.7587 H              1 S1                 0.0000
     31 ****        -1.6317   3.2639   2.2457 H              1 S1                 0.0000
     32 ****         0.5905  -2.1781   0.3189 H              1 S1                 0.0000
     33 ****         0.2009  -1.5705  -1.2750 H              1 S1                 0.0000
     34 ****         4.0874  -4.6168  -1.7841 H              1 S1                 0.0000
     35 ****         6.7561  -5.5703  -2.2112 H              1 S1                 0.0000
     36 ****         7.9367  -4.8417  -1.1212 H              1 S1                 0.0000
     37 ****         7.5692  -4.0712  -2.6666 H              1 S1                 0.0000
     38 ****        -4.5483  -1.8047   0.8389 H              1 S1                 0.0000
     39 ****        -6.4615  -0.4191   1.6599 H              1 S1                 0.0000
     40 ****        -6.1418   1.9496   2.2723 H              1 S1                 0.0000
     41 ****        -3.9071   3.0351   2.0940 H              1 S1                 0.0000
     42 ****        -1.7263  -1.5711   0.2752 H              1 S1                 0.0000
     43 ****        -2.8346   2.9628  -0.4779 LP             1 S1                 0.0000
     44 ****        -2.9988   4.2892   0.4603 LP             1 S1                 0.0000
     45 ****         2.0439  -0.6409  -2.5257 LP             1 S1                 0.0000
     46 ****         3.5989  -1.3825  -2.3469 LP             1 S1                 0.0000
     47 ****         2.5738  -2.8655   0.7377 LP             1 S1                 0.0000
     48 ****         6.9761  -2.1518  -0.8900 LP             1 S1                 0.0000
     49 ****         6.9922  -3.1747   0.3828 LP             1 S1                 0.0000
     50 ****         5.2550  -1.4197   0.7761 LP             1 S1                 0.0000
@<TRIPOS>BOND
    1    1    2 1     
    2    1   25 1     
    3    1   26 1     
    4    1   27 1     
    5    2    3 1     
    6    3    4 1     
    7    3   28 1     
    8    3   29 1     
    9    4    5 1     
   10    4   30 1     
   11    4   31 1     
   12    5   24 1     
   13    5    6 1     
   14    6    7 1     
   15    6   18 2     
   16    7    8 1     
   17    8    9 1     
   18    8   32 1     
   19    8   33 1     
   20    9   10 2     
   21    9   11 1     
   22   11   12 1     
   23   12   17 2     
   24   12   13 1     
   25   13   14 2     
   26   13   34 1     
   27   14   15 1     
   28   14   16 1     
   29   15   35 1     
   30   15   36 1     
   31   15   37 1     
   32   16   17 1     
   33   18   19 1     
   34   18   42 1     
   35   19   24 ar    
   36   19   20 ar    
   37   20   21 ar    
   38   20   38 1     
   39   21   22 ar    
   40   21   39 1     
   41   22   23 ar    
   42   22   40 1     
   43   23   24 ar    
   44   23   41 1     
   45    2   43 1     
   46    2   44 1     
   47   10   45 1     
   48   10   46 1     
   49   11   47 1     
   50   16   48 1     
   51   16   49 1     
   52   17   50 1     
@<TRIPOS>SUBSTRUCTURE
      1 S1             1
@<TRIPOS>SET
LONE_PAIRS      STATIC     ATOMS    <user>   **** ""
8 43 44 45 46 47 48 49 50
DONOR_HYDROGENS      STATIC     ATOMS    <user>   **** ""
1 42
ATOM$BLUE        STATIC     ATOMS    COLORGROUP SYSTEM
8 43 44 45 46 47 48 49 50
ATOM$RED        STATIC     ATOMS    COLORGROUP SYSTEM
1 42
