AV-unprocessed.smi:2124|AV-procd|sdf|8673|dock7
  -GOLD-   2272011423D 1   1.00000     0.00000
 Structure written by MMmdl.
 46 48  0  0  0  0  0  0  0  0  2 V2000
  149.2338  134.5680  154.6933 C   0  0  0  0  0  0  0  0  0  0  0  0
  149.8103  135.4532  155.7774 C   0  0  0  0  0  0  0  0  0  0  0  0
  149.1198  135.6837  156.8284 N   0  0  0  0  0  0  0  0  0  0  0  0
  149.6504  136.5041  157.8381 C   0  0  0  0  0  0  0  0  0  0  0  0
  148.7636  136.7182  159.0524 C   0  0  0  0  0  0  0  0  0  0  0  0
  150.8886  137.0630  157.7158 C   0  0  0  0  0  0  0  0  0  0  0  0
  151.5075  137.9616  158.7859 C   0  0  0  0  0  0  0  0  0  0  0  0
  151.8120  139.3972  158.3522 C   0  0  0  0  0  0  0  0  0  0  0  0
  152.9662  139.8245  158.3830 O   0  0  0  0  0  0  0  0  0  0  0  0
  150.7606  140.1282  157.9493 N   0  0  0  0  0  0  0  0  0  0  0  0
  150.8013  141.5105  157.4745 C   0  0  1  0  0  0  0  0  0  0  0  0
  149.5592  141.7656  156.6071 C   0  0  0  0  0  0  0  0  0  0  0  0
  150.8912  142.4760  158.6814 C   0  0  1  0  0  0  0  0  0  0  0  0
  152.1797  142.3482  159.5273 C   0  0  0  0  0  0  0  0  0  0  0  0
  152.6570  143.8062  159.6572 C   0  0  1  0  0  0  0  0  0  0  0  0
  153.2524  144.2594  158.3117 C   0  0  0  0  0  0  0  0  0  0  0  0
  152.0031  144.4154  157.4261 C   0  0  0  0  0  0  0  0  0  0  0  0
  150.8582  143.9935  158.3702 C   0  0  2  0  0  0  0  0  0  0  0  0
  151.3415  144.5750  159.6951 C   0  0  0  0  0  0  0  0  0  0  0  0
  151.6505  136.7763  156.4869 C   0  0  0  0  0  0  0  0  0  0  0  0
  152.7676  137.2643  156.3196 O   0  0  0  0  0  0  0  0  0  0  0  0
  151.0707  135.9626  155.5588 N   0  5  0  0  0  0  0  0  0  0  0  0
  148.1672  134.4008  154.8489 H   0  0  0  0  0  0  0  0  0  0  0  0
  149.7368  133.6005  154.6913 H   0  0  0  0  0  0  0  0  0  0  0  0
  149.3648  135.0287  153.7136 H   0  0  0  0  0  0  0  0  0  0  0  0
  149.2376  136.3153  159.9473 H   0  0  0  0  0  0  0  0  0  0  0  0
  147.8015  136.2194  158.9307 H   0  0  0  0  0  0  0  0  0  0  0  0
  148.5716  137.7799  159.2070 H   0  0  0  0  0  0  0  0  0  0  0  0
  150.8299  137.9879  159.6399 H   0  0  0  0  0  0  0  0  0  0  0  0
  152.4255  137.5233  159.1780 H   0  0  0  0  0  0  0  0  0  0  0  0
  149.8535  139.6851  157.9652 H   0  0  0  0  0  0  0  0  0  0  0  0
  151.6775  141.6470  156.8407 H   0  0  0  0  0  0  0  0  0  0  0  0
  149.5763  142.7654  156.1736 H   0  0  0  0  0  0  0  0  0  0  0  0
  148.6415  141.6684  157.1877 H   0  0  0  0  0  0  0  0  0  0  0  0
  149.5076  141.0563  155.7803 H   0  0  0  0  0  0  0  0  0  0  0  0
  150.0421  142.2634  159.3339 H   0  0  0  0  0  0  0  0  0  0  0  0
  151.9546  141.9188  160.5045 H   0  0  0  0  0  0  0  0  0  0  0  0
  152.9395  141.7211  159.0597 H   0  0  0  0  0  0  0  0  0  0  0  0
  153.3180  143.9766  160.5074 H   0  0  0  0  0  0  0  0  0  0  0  0
  153.7709  145.2133  158.4153 H   0  0  0  0  0  0  0  0  0  0  0  0
  153.9610  143.5355  157.9072 H   0  0  0  0  0  0  0  0  0  0  0  0
  151.8821  145.4578  157.1288 H   0  0  0  0  0  0  0  0  0  0  0  0
  152.0549  143.8259  156.5119 H   0  0  0  0  0  0  0  0  0  0  0  0
  149.8786  144.3530  158.0543 H   0  0  0  0  0  0  0  0  0  0  0  0
  150.7090  144.3097  160.5442 H   0  0  0  0  0  0  0  0  0  0  0  0
  151.4729  145.6583  159.6725 H   0  0  0  0  0  0  0  0  0  0  0  0
  1  2  1  0  0  0  0
  1 23  1  0  0  0  0
  1 24  1  0  0  0  0
  1 25  1  0  0  0  0
  2 22  1  0  0  0  0
  2  3  2  0  0  0  0
  3  4  1  0  0  0  0
  4  5  1  0  0  0  0
  4  6  2  0  0  0  0
  5 26  1  0  0  0  0
  5 27  1  0  0  0  0
  5 28  1  0  0  0  0
  6  7  1  0  0  0  0
  6 20  1  0  0  0  0
  7  8  1  0  0  0  0
  7 29  1  0  0  0  0
  7 30  1  0  0  0  0
  8  9  2  0  0  0  0
  8 10  1  0  0  0  0
 10 11  1  0  0  0  0
 10 31  1  0  0  0  0
 11 12  1  0  0  0  0
 11 13  1  0  0  0  0
 11 32  1  0  0  0  0
 12 33  1  0  0  0  0
 12 34  1  0  0  0  0
 12 35  1  0  0  0  0
 13 18  1  0  0  0  0
 13 14  1  0  0  0  0
 13 36  1  0  0  0  0
 14 15  1  0  0  0  0
 14 37  1  0  0  0  0
 14 38  1  0  0  0  0
 15 19  1  0  0  0  0
 15 16  1  0  0  0  0
 15 39  1  0  0  0  0
 16 17  1  0  0  0  0
 16 40  1  0  0  0  0
 16 41  1  0  0  0  0
 17 18  1  0  0  0  0
 17 42  1  0  0  0  0
 17 43  1  0  0  0  0
 18 19  1  0  0  0  0
 18 44  1  0  0  0  0
 19 45  1  0  0  0  0
 19 46  1  0  0  0  0
 20 21  2  0  0  0  0
 20 22  1  0  0  0  0
M  CHG  1  22  -1
M  END
> <s_m_source_file>
AV-unprocessed.smi

> <i_m_source_file_index>
2124

> <i_lp_mmshare_version>
43012

> <i_f3d_flags>
0

> <s_epik_input>
W0NIM11jMW5jKFtDSDNdKWMoYyg9TylbbkhdMSlbQ0gyXUMoPU8pW05IXVtDQEhdKFtDSDNdKVtDQEhdKFtDSDJdW0NASF0yMylbQ0BIXShbQ0gyXTMpW0NIMl1bQ0gyXTI=

> <s_epik_cmdline>
J2VwaWtfcHl0aG9uJywgJy1waCcsICc3LjAnLCAnLXRuJywgJzgnLCAnLW1hJywgJzIwMCcsICctbWV0YWxfYmluZGluZycsICctaW1hZScsICc8aW5maWxlLm1hZT4nLCAnLW9tYWUnLCAnPG91dGZpbGUubWFlPic=

> <r_lp_tautomer_probability>
0.839158

> <r_epik_Ionization_Penalty>
6.63797

> <r_epik_Ionization_Penalty_Charging>
7.48558e-08

> <r_epik_Ionization_Penalty_Neutral>
6.63797

> <r_epik_State_Penalty>
4.49496

> <r_epik_Charging_Adjusted_Penalty>
4.49496

> <i_epik_Tot_Q>
-1

> <i_epik_Tot_abs_Q>
1

> <r_epik_Metal_State_Penalty>
0.841241

> <b_epik_Metal_Only>
1

> <s_lp_Force_Field>
OPLS_2005

> <r_lp_Energy>
55.5119

> <b_lp_Chiralities_Consistent>
1

> <s_lp_Variant>
AV-unprocessed.smi:2124-24

> <Gold.Version>
5.8.1

> <Gold.Id.Protein>
6NUR|6NUR_protein|mol2

> <Gold.PLP.Fitness>
47.9147

> <Gold.PLP.PLP>
-39.5362

> <Gold.PLP.part.hbond>
-3.0000

> <Gold.PLP.part.metal>
0.0000

> <Gold.PLP.part.buried>
-5.5040

> <Gold.PLP.part.nonpolar>
-31.2231

> <Gold.PLP.part.repulsive>
0.1831

> <Gold.PLP.ligand.clash>
0.0000

> <Gold.PLP.ligand.torsion>
0.3207

> <Gold.PLP.Chemscore.Hbond>
3.0000

> <Gold.PLP.Chemscore.CHOScore>
0.0000

> <Gold.PLP.Chemscore.Metal>
0.0000

> <Gold.Chemscore.Hbonds>
donor molecule, donor type, donor heavy atom, donor atom, acceptor molecule, acceptor atom, score
      P1  H  7997  8010       L1     9  0.71
      P1  H 10752 10763       L1    22  0.91

> <Gold.PLP.Chemscore.Internal.Correction>
0.0199

> <Gold.Rescore>
     Score         DG    S(hbond)    S(metal)    S(lipo)     H(rot)  DE(clash)    DE(int)     intcor
     17.81     -19.65       1.64        0.00     109.43       1.61       0.17       1.66       ----

> <Gold.Chemscore.Fitness>
17.8147

> <Gold.Chemscore.DG>
-19.6474

> <Gold.Chemscore.ZeroCoef>
-5.4800

> <Gold.Chemscore.Hbond>
1.6386

> <Gold.Chemscore.Metal>
0.0000

> <Gold.Chemscore.Lipo>
109.4317

> <Gold.Chemscore.Internal_Hbond>
0.0000

> <Gold.Chemscore.DEClash>
0.1721

> <Gold.Chemscore.DEInternal>
1.6606

> <Gold.Chemscore.Rot>
1.6051

> <Gold.Chemscore.Internal.Correction>
   9.000000E+99

> <Gold.Chemscore.Hbonds>
donor molecule, donor type, donor heavy atom, donor atom, acceptor molecule, acceptor atom, score
      P1  H  7997  8010       L1     9  0.69
      P1  H 10752 10763       L1    22  0.05

> <Gold.Chemscore.Hbond.Weighted>
-5.4729

> <Gold.Chemscore.Metal.Weighted>
-0.0000

> <Gold.Chemscore.Lipo.Weighted>
-12.8035

> <Gold.Chemscore.Internal_Hbond.Weighted>
0.0000

> <Gold.Chemscore.DEClash.Weighted>
0.1721

> <Gold.Chemscore.DEInternal.Weighted>
1.6606

> <Gold.Chemscore.Rot.Weighted>
4.1090

> <Gold.Chemscore.Internal.Correction.Weighted>
   9.000000E+99

> <Gold.Protein.RotatedTorsions>
[ 6907 6896 6895 6894 ] final    9.33 input  -60.11 | X-H torsion
[ 7974 7965 7964 7962 ] final -104.47 input  175.53 | X-H torsion
[ 8008 7997 7996 7995 ] final   45.25 input   59.86 | X-H torsion
[ 10167 10162 10161 10158 ] final   -6.53 input  -65.29 | X-H torsion
[ 10718 10713 10712 10709 ] final  155.07 input   66.30 | X-H torsion
[ 10763 10752 10751 10750 ] final   51.64 input  -60.55 | X-H torsion
[ 11005 11000 10999 10996 ] final  162.55 input  -57.11 | X-H torsion

> <Gold.Protein.ActiveResidues>
 VAL166  LYS551  ARG553  GLY616  TRP617  ASP618  TYR619  PRO620  LYS621  CYS622 
 ASP623  PHE694  ASN695  SER759  ASP760  ASP761  ALA762  ILE779  LEU786  VAL792 
 PHE793  MET794  SER795  GLU796  ALA797  LYS798  CYS799  TRP800  GLU811  SER814 

> <Gold.Protein.RotatedAtoms>
  151.7205  135.0895  160.0282 H   0  0  0  0  0  0  0  0  0  0  0  0  # atno 6907 bound_to 6896
  152.3605  133.6286  159.6020 H   0  0  0  0  0  0  0  0  0  0  0  0  # atno 6908 bound_to 6896
  150.7601  133.9347  159.3479 H   0  0  0  0  0  0  0  0  0  0  0  0  # atno 6909 bound_to 6896
  145.2427  140.9211  143.3141 H   0  0  0  0  0  0  0  0  0  0  0  0  # atno 7974 bound_to 7965
  155.3328  140.3403  155.4239 H   0  0  0  0  0  0  0  0  0  0  0  0  # atno 8008 bound_to 7997
  156.1853  140.1678  156.8234 H   0  0  0  0  0  0  0  0  0  0  0  0  # atno 8009 bound_to 7997
  154.5379  140.0731  156.8442 H   0  0  0  0  0  0  0  0  0  0  0  0  # atno 8010 bound_to 7997
  140.7000  143.6184  150.8636 H   0  0  0  0  0  0  0  0  0  0  0  0  # atno 10167 bound_to 10162
  157.2233  131.0723  151.1899 H   0  0  0  0  0  0  0  0  0  0  0  0  # atno 10718 bound_to 10713
  152.9786  135.5839  154.4449 H   0  0  0  0  0  0  0  0  0  0  0  0  # atno 10763 bound_to 10752
  154.4045  135.2769  155.2078 H   0  0  0  0  0  0  0  0  0  0  0  0  # atno 10764 bound_to 10752
  154.3894  135.6128  153.5889 H   0  0  0  0  0  0  0  0  0  0  0  0  # atno 10765 bound_to 10752
  140.2269  134.8154  157.3277 H   0  0  0  0  0  0  0  0  0  0  0  0  # atno 11005 bound_to 11000
  144.9574  139.4016  143.6372 LP  0  0  0  0  0  0  0  0  0  0  0  0  # atno 17320 bound_to 7965
  146.3324  139.8611  142.8856 LP  0  0  0  0  0  0  0  0  0  0  0  0  # atno 17321 bound_to 7965
  139.9905  143.5852  152.2912 LP  0  0  0  0  0  0  0  0  0  0  0  0  # atno 17342 bound_to 10162
  139.6505  144.7660  151.2157 LP  0  0  0  0  0  0  0  0  0  0  0  0  # atno 17343 bound_to 10162
  157.3554  130.7103  149.6467 LP  0  0  0  0  0  0  0  0  0  0  0  0  # atno 17370 bound_to 10713
  155.9680  130.4240  150.4591 LP  0  0  0  0  0  0  0  0  0  0  0  0  # atno 17371 bound_to 10713
  140.1791  134.4512  155.7783 LP  0  0  0  0  0  0  0  0  0  0  0  0  # atno 17394 bound_to 11000
  141.2220  133.6976  156.7838 LP  0  0  0  0  0  0  0  0  0  0  0  0  # atno 17395 bound_to 11000

$$$$
