AV-unprocessed.smi:670|AV-procd|sdf|3265|dock6
  -GOLD-   22720 0213D 1   1.00000     0.00000
 Structure written by MMmdl.
 44 45  0  0  0  0  0  0  0  0  2 V2000
  153.1337  141.4370  160.8309 C   0  0  0  0  0  0  0  0  0  0  0  0
  152.5854  142.5527  159.9262 C   0  0  2  0  0  0  0  0  0  0  0  0
  152.2868  143.8220  160.7492 C   0  0  0  0  0  0  0  0  0  0  0  0
  151.7336  144.9541  159.8707 C   0  0  0  0  0  0  0  0  0  0  0  0
  150.4813  144.4985  159.1092 C   0  0  0  0  0  0  0  0  0  0  0  0
  150.7697  143.2400  158.2778 C   0  0  0  0  0  0  0  0  0  0  0  0
  151.3289  142.0958  159.1504 C   0  0  1  0  0  0  0  0  0  0  0  0
  151.7037  141.0072  158.3157 O   0  0  0  0  0  0  0  0  0  0  0  0
  151.4042  139.7248  158.8475 C   0  0  0  0  0  0  0  0  0  0  0  0
  151.1875  138.7465  157.6884 C   0  0  0  0  0  0  0  0  0  0  0  0
  149.9436  138.0115  157.8683 N   0  0  0  0  0  0  0  0  0  0  0  0
  149.6862  137.1884  158.8941 C   0  0  0  0  0  0  0  0  0  0  0  0
  150.4932  136.9732  159.8001 O   0  0  0  0  0  0  0  0  0  0  0  0
  148.3087  136.5066  158.8682 C   0  0  0  0  0  0  0  0  0  0  0  0
  147.8431  136.0324  160.1799 N   0  0  0  0  0  0  0  0  0  0  0  0
  147.6423  137.1003  161.1554 N   0  5  0  0  0  0  0  0  0  0  0  0
  147.2082  136.7841  162.4042 C   0  0  0  0  0  0  0  0  0  0  0  0
  147.0078  137.6291  163.2739 O   0  0  0  0  0  0  0  0  0  0  0  0
  146.9785  135.3827  162.7142 C   0  0  0  0  0  0  0  0  0  0  0  0
  147.1913  134.4156  161.8001 C   0  0  0  0  0  0  0  0  0  0  0  0
  147.6580  134.7083  160.4503 C   0  0  0  0  0  0  0  0  0  0  0  0
  147.8687  133.8288  159.6147 O   0  0  0  0  0  0  0  0  0  0  0  0
  152.4003  141.1387  161.5809 H   0  0  0  0  0  0  0  0  0  0  0  0
  154.0318  141.7639  161.3553 H   0  0  0  0  0  0  0  0  0  0  0  0
  153.3986  140.5508  160.2537 H   0  0  0  0  0  0  0  0  0  0  0  0
  153.3607  142.8004  159.1993 H   0  0  0  0  0  0  0  0  0  0  0  0
  151.5669  143.5902  161.5355 H   0  0  0  0  0  0  0  0  0  0  0  0
  153.1926  144.1624  161.2521 H   0  0  0  0  0  0  0  0  0  0  0  0
  151.4987  145.8224  160.4870 H   0  0  0  0  0  0  0  0  0  0  0  0
  152.4981  145.2747  159.1621 H   0  0  0  0  0  0  0  0  0  0  0  0
  149.6754  144.2943  159.8156 H   0  0  0  0  0  0  0  0  0  0  0  0
  150.1290  145.3005  158.4601 H   0  0  0  0  0  0  0  0  0  0  0  0
  149.8561  142.9276  157.7726 H   0  0  0  0  0  0  0  0  0  0  0  0
  151.4869  143.4826  157.4926 H   0  0  0  0  0  0  0  0  0  0  0  0
  150.5729  141.7784  159.8716 H   0  0  0  0  0  0  0  0  0  0  0  0
  152.2366  139.3838  159.4647 H   0  0  0  0  0  0  0  0  0  0  0  0
  150.5183  139.7540  159.4823 H   0  0  0  0  0  0  0  0  0  0  0  0
  151.1670  139.2838  156.7391 H   0  0  0  0  0  0  0  0  0  0  0  0
  152.0180  138.0404  157.6428 H   0  0  0  0  0  0  0  0  0  0  0  0
  149.2350  138.1262  157.1582 H   0  0  0  0  0  0  0  0  0  0  0  0
  147.5758  137.2012  158.4543 H   0  0  0  0  0  0  0  0  0  0  0  0
  148.3575  135.6780  158.1594 H   0  0  0  0  0  0  0  0  0  0  0  0
  146.6318  135.1110  163.7004 H   0  0  0  0  0  0  0  0  0  0  0  0
  147.0095  133.3872  162.0747 H   0  0  0  0  0  0  0  0  0  0  0  0
  1  2  1  0  0  0  0
  1 23  1  0  0  0  0
  1 24  1  0  0  0  0
  1 25  1  0  0  0  0
  2  7  1  0  0  0  0
  2  3  1  0  0  0  0
  2 26  1  0  0  0  0
  3  4  1  0  0  0  0
  3 27  1  0  0  0  0
  3 28  1  0  0  0  0
  4  5  1  0  0  0  0
  4 29  1  0  0  0  0
  4 30  1  0  0  0  0
  5  6  1  0  0  0  0
  5 31  1  0  0  0  0
  5 32  1  0  0  0  0
  6  7  1  0  0  0  0
  6 33  1  0  0  0  0
  6 34  1  0  0  0  0
  7  8  1  0  0  0  0
  7 35  1  0  0  0  0
  8  9  1  0  0  0  0
  9 10  1  0  0  0  0
  9 36  1  0  0  0  0
  9 37  1  0  0  0  0
 10 11  1  0  0  0  0
 10 38  1  0  0  0  0
 10 39  1  0  0  0  0
 11 12  1  0  0  0  0
 11 40  1  0  0  0  0
 12 13  2  0  0  0  0
 12 14  1  0  0  0  0
 14 41  1  0  0  0  0
 14 42  1  0  0  0  0
 14 15  1  0  0  0  0
 15 16  1  0  0  0  0
 15 21  1  0  0  0  0
 16 17  1  0  0  0  0
 17 18  2  0  0  0  0
 17 19  1  0  0  0  0
 19 43  1  0  0  0  0
 19 20  2  0  0  0  0
 20 44  1  0  0  0  0
 20 21  1  0  0  0  0
 21 22  2  0  0  0  0
M  CHG  1  16  -1
M  END
> <s_m_source_file>
AV-unprocessed.smi

> <i_m_source_file_index>
670

> <i_lp_mmshare_version>
43012

> <i_f3d_flags>
0

> <s_epik_input>
W0NIM11bQ0BASF0xW0NIMl1bQ0gyXVtDSDJdW0NIMl1bQ0BIXTFPW0NIMl1bQ0gyXVtOSF1DKD1PKVtDSDJdbjJbbkhdYyg9TylbY0hdW2NIXWMyPU8=

> <s_epik_cmdline>
J2VwaWtfcHl0aG9uJywgJy1waCcsICc3LjAnLCAnLXRuJywgJzgnLCAnLW1hJywgJzIwMCcsICctbWV0YWxfYmluZGluZycsICctaW1hZScsICc8aW5maWxlLm1hZT4nLCAnLW9tYWUnLCAnPG91dGZpbGUubWFlPic=

> <r_lp_tautomer_probability>
1

> <r_epik_Ionization_Penalty>
0.0975638

> <r_epik_Ionization_Penalty_Charging>
0.0975637

> <r_epik_Ionization_Penalty_Neutral>
2.78599e-08

> <r_epik_State_Penalty>
0.0343507

> <r_epik_Charging_Adjusted_Penalty>
0.131914

> <i_epik_Tot_Q>
-1

> <i_epik_Tot_abs_Q>
1

> <r_epik_Metal_State_Penalty>
0.0343507

> <b_epik_Metal_Only>
0

> <s_lp_Force_Field>
OPLS_2005

> <r_lp_Energy>
26.6339

> <b_lp_Chiralities_Consistent>
1

> <s_lp_Variant>
AV-unprocessed.smi:670-1

> <Gold.Version>
5.8.1

> <Gold.Id.Protein>
6NUR|6NUR_protein|mol2

> <Gold.PLP.Fitness>
55.7599

> <Gold.PLP.PLP>
-46.6562

> <Gold.PLP.part.hbond>
-4.4442

> <Gold.PLP.part.metal>
0.0000

> <Gold.PLP.part.buried>
-4.6670

> <Gold.PLP.part.nonpolar>
-39.4822

> <Gold.PLP.part.repulsive>
0.1261

> <Gold.PLP.ligand.clash>
0.0000

> <Gold.PLP.ligand.torsion>
1.3842

> <Gold.PLP.Chemscore.Hbond>
3.9400

> <Gold.PLP.Chemscore.CHOScore>
0.0000

> <Gold.PLP.Chemscore.Metal>
0.0000

> <Gold.Chemscore.Hbonds>
donor molecule, donor type, donor heavy atom, donor atom, acceptor molecule, acceptor atom, score
      P1  H  6896  6907       L1    13  1.00
      P1  H  6931  6943       L1    16  1.06
      P1  H  6934  6947       L1    16  1.79

> <Gold.PLP.Chemscore.Internal.Correction>
0.0521

> <Gold.Rescore>
     Score         DG    S(hbond)    S(metal)    S(lipo)     H(rot)  DE(clash)    DE(int)     intcor
     15.24     -16.76       1.72        0.00     100.92       2.45       0.05       1.47       ----

> <Gold.Chemscore.Fitness>
15.2361

> <Gold.Chemscore.DG>
-16.7558

> <Gold.Chemscore.ZeroCoef>
-5.4800

> <Gold.Chemscore.Hbond>
1.7179

> <Gold.Chemscore.Metal>
0.0000

> <Gold.Chemscore.Lipo>
100.9164

> <Gold.Chemscore.Internal_Hbond>
0.0000

> <Gold.Chemscore.DEClash>
0.0488

> <Gold.Chemscore.DEInternal>
1.4708

> <Gold.Chemscore.Rot>
2.4490

> <Gold.Chemscore.Internal.Correction>
   9.000000E+99

> <Gold.Chemscore.Hbonds>
donor molecule, donor type, donor heavy atom, donor atom, acceptor molecule, acceptor atom, score
      P1  H  6896  6907       L1    13  0.69
      P1  H  6931  6943       L1    16  0.03
      P1  H  6934  6947       L1    16  0.43

> <Gold.Chemscore.Hbond.Weighted>
-5.7379

> <Gold.Chemscore.Metal.Weighted>
-0.0000

> <Gold.Chemscore.Lipo.Weighted>
-11.8072

> <Gold.Chemscore.Internal_Hbond.Weighted>
0.0000

> <Gold.Chemscore.DEClash.Weighted>
0.0488

> <Gold.Chemscore.DEInternal.Weighted>
1.4708

> <Gold.Chemscore.Rot.Weighted>
6.2694

> <Gold.Chemscore.Internal.Correction.Weighted>
   9.000000E+99

> <Gold.Protein.RotatedTorsions>
[ 6907 6896 6895 6894 ] final  -36.71 input  -60.11 | X-H torsion
[ 7974 7965 7964 7962 ] final -120.99 input  175.53 | X-H torsion
[ 8008 7997 7996 7995 ] final -107.32 input   59.86 | X-H torsion
[ 10167 10162 10161 10158 ] final   76.87 input  -65.29 | X-H torsion
[ 10718 10713 10712 10709 ] final   -4.50 input   66.30 | X-H torsion
[ 10763 10752 10751 10750 ] final   35.77 input  -60.55 | X-H torsion
[ 11005 11000 10999 10996 ] final  118.26 input  -57.11 | X-H torsion

> <Gold.Protein.ActiveResidues>
 VAL166  LYS551  ARG553  GLY616  TRP617  ASP618  TYR619  PRO620  LYS621  CYS622 
 ASP623  PHE694  ASN695  SER759  ASP760  ASP761  ALA762  ILE779  LEU786  VAL792 
 PHE793  MET794  SER795  GLU796  ALA797  LYS798  CYS799  TRP800  GLU811  SER814 

> <Gold.Protein.RotatedAtoms>
  151.0238  134.9489  159.8073 H   0  0  0  0  0  0  0  0  0  0  0  0  # atno 6907 bound_to 6896
  152.5331  134.2869  159.9038 H   0  0  0  0  0  0  0  0  0  0  0  0  # atno 6908 bound_to 6896
  151.2877  133.4138  159.2665 H   0  0  0  0  0  0  0  0  0  0  0  0  # atno 6909 bound_to 6896
  145.0452  140.8176  143.4242 H   0  0  0  0  0  0  0  0  0  0  0  0  # atno 7974 bound_to 7965
  154.9276  140.0406  157.2031 H   0  0  0  0  0  0  0  0  0  0  0  0  # atno 8008 bound_to 7997
  154.8193  140.2881  155.5777 H   0  0  0  0  0  0  0  0  0  0  0  0  # atno 8009 bound_to 7997
  156.2978  140.2522  156.3097 H   0  0  0  0  0  0  0  0  0  0  0  0  # atno 8010 bound_to 7997
  139.9876  144.5781  150.7846 H   0  0  0  0  0  0  0  0  0  0  0  0  # atno 10167 bound_to 10162
  156.7603  130.5267  149.5786 H   0  0  0  0  0  0  0  0  0  0  0  0  # atno 10718 bound_to 10713
  153.0105  135.6324  154.1880 H   0  0  0  0  0  0  0  0  0  0  0  0  # atno 10763 bound_to 10752
  154.1622  135.2823  155.3107 H   0  0  0  0  0  0  0  0  0  0  0  0  # atno 10764 bound_to 10752
  154.5973  135.5599  153.7398 H   0  0  0  0  0  0  0  0  0  0  0  0  # atno 10765 bound_to 10752
  139.9103  134.9618  156.7476 H   0  0  0  0  0  0  0  0  0  0  0  0  # atno 11005 bound_to 11000
  145.1596  139.2466  143.5398 LP  0  0  0  0  0  0  0  0  0  0  0  0  # atno 17320 bound_to 7965
  146.3513  140.1320  142.8597 LP  0  0  0  0  0  0  0  0  0  0  0  0  # atno 17321 bound_to 7965
  140.7466  143.2894  151.3373 LP  0  0  0  0  0  0  0  0  0  0  0  0  # atno 17342 bound_to 10162
  139.6363  144.0623  152.2519 LP  0  0  0  0  0  0  0  0  0  0  0  0  # atno 17343 bound_to 10162
  156.1343  130.6200  151.0378 LP  0  0  0  0  0  0  0  0  0  0  0  0  # atno 17370 bound_to 10713
  157.6737  131.0855  150.7548 LP  0  0  0  0  0  0  0  0  0  0  0  0  # atno 17371 bound_to 10713
  140.6799  133.9484  155.7904 LP  0  0  0  0  0  0  0  0  0  0  0  0  # atno 17394 bound_to 11000
  141.0517  134.0475  157.3774 LP  0  0  0  0  0  0  0  0  0  0  0  0  # atno 17395 bound_to 11000

$$$$
