#       Name:                AV-unprocessed.smi:1583
#       Creating user name   scv26
#       Creation time:       Fri Mar 27 06:58:58 2020


#       File generated by GOLD software.
#

@<TRIPOS>MOLECULE
AV-unprocessed.smi:1583
    41    42     1
SMALL
NO_CHARGES


@<TRIPOS>ATOM
      1 ****        -5.4499   2.0161  -1.9592 C.3            1 S1                 0.0000
      2 ****        -4.0178   1.8440  -1.7690 N.am           1 S1                 0.0000
      3 ****        -3.3415   2.2743  -0.6941 C.2            1 S1                 0.0000
      4 ****        -3.8716   2.8651   0.2467 O.2            1 S1                 0.0000
      5 ****        -1.8411   1.9943  -0.6717 C.3            1 S1                 0.0000
      6 ****        -1.3949   0.7580   0.5833 S.3            1 S1                 0.0000
      7 ****         0.3567   0.6679   0.3393 C.2            1 S1                 0.0000
      8 ****         1.0004   1.3452  -0.6145 N.2            1 S1                 0.0000
      9 ****         2.3138   0.9589  -0.4393 C.ar           1 S1                 0.0000
     10 ****         3.4822   1.3255  -1.1449 C.ar           1 S1                 0.0000
     11 ****         4.7338   0.7872  -0.7807 C.ar           1 S1                 0.0000
     12 ****         4.8348  -0.1224   0.2919 C.ar           1 S1                 0.0000
     13 ****         3.6827  -0.4993   1.0087 C.ar           1 S1                 0.0000
     14 ****         2.4361   0.0413   0.6404 C.ar           1 S1                 0.0000
     15 ****         1.1408  -0.1177   1.1208 N.pl3          1 S1                 0.0000
     16 ****         0.7441  -0.9721   2.2309 C.3            1 S1                 0.0000
     17 ****         0.5492  -2.4300   1.7920 C.3            1 S1                 0.0000
     18 ****        -0.4376  -2.4989   0.7758 O.3            1 S1                 0.0000
     19 ****        -0.6476  -3.8197   0.3101 C.3            1 S1                 0.0000
     20 ****        -5.7475   1.6117  -2.9265 H              1 S1                 0.0000
     21 ****        -5.7232   3.0719  -1.9322 H              1 S1                 0.0000
     22 ****        -6.0089   1.4911  -1.1833 H              1 S1                 0.0000
     23 ****        -3.5082   1.3650  -2.4972 H              1 S1                 0.0000
     24 ****        -1.5123   1.6498  -1.6533 H              1 S1                 0.0000
     25 ****        -1.3151   2.9262  -0.4617 H              1 S1                 0.0000
     26 ****         3.4148   2.0205  -1.9688 H              1 S1                 0.0000
     27 ****         5.6204   1.0726  -1.3275 H              1 S1                 0.0000
     28 ****         5.7971  -0.5313   0.5634 H              1 S1                 0.0000
     29 ****         3.7559  -1.1966   1.8300 H              1 S1                 0.0000
     30 ****         1.5142  -0.9160   3.0008 H              1 S1                 0.0000
     31 ****        -0.1667  -0.5858   2.6873 H              1 S1                 0.0000
     32 ****         1.4928  -2.8353   1.4232 H              1 S1                 0.0000
     33 ****         0.2474  -3.0357   2.6476 H              1 S1                 0.0000
     34 ****        -1.4171  -3.8174  -0.4617 H              1 S1                 0.0000
     35 ****        -0.9808  -4.4744   1.1164 H              1 S1                 0.0000
     36 ****         0.2633  -4.2336  -0.1245 H              1 S1                 0.0000
     37 ****        -4.8550   3.0458   0.2333 LP             1 S1                 0.0000
     38 ****        -3.3188   3.1643   1.0245 LP             1 S1                 0.0000
     39 ****         0.6230   1.9779  -1.2907 LP             1 S1                 0.0000
     40 ****        -0.1455  -1.9306   0.0066 LP             1 S1                 0.0000
     41 ****        -1.2993  -2.1474   1.1417 LP             1 S1                 0.0000
@<TRIPOS>BOND
    1    1    2 1     
    2    1   20 1     
    3    1   21 1     
    4    1   22 1     
    5    2    3 am    
    6    2   23 1     
    7    3    4 2     
    8    3    5 1     
    9    5    6 1     
   10    5   24 1     
   11    5   25 1     
   12    6    7 1     
   13    7   15 1     
   14    7    8 2     
   15    8    9 1     
   16    9   14 ar    
   17    9   10 ar    
   18   10   11 ar    
   19   10   26 1     
   20   11   12 ar    
   21   11   27 1     
   22   12   13 ar    
   23   12   28 1     
   24   13   14 ar    
   25   13   29 1     
   26   14   15 1     
   27   15   16 1     
   28   16   17 1     
   29   16   30 1     
   30   16   31 1     
   31   17   18 1     
   32   17   32 1     
   33   17   33 1     
   34   18   19 1     
   35   19   34 1     
   36   19   35 1     
   37   19   36 1     
   38    4   37 1     
   39    4   38 1     
   40    8   39 1     
   41   18   40 1     
   42   18   41 1     
@<TRIPOS>SUBSTRUCTURE
      1 S1             1
@<TRIPOS>SET
LONE_PAIRS      STATIC     ATOMS    <user>   **** ""
5 37 38 39 40 41
DONOR_HYDROGENS      STATIC     ATOMS    <user>   **** ""
1 23
ATOM$BLUE        STATIC     ATOMS    COLORGROUP SYSTEM
5 37 38 39 40 41
ATOM$RED        STATIC     ATOMS    COLORGROUP SYSTEM
1 23
