AV-unprocessed.smi:2761|AV-procd|sdf|10633|dock7
  -GOLD-   2272015 83D 1   1.00000     0.00000
 Structure written by MMmdl.
 27 28  0  0  0  0  0  0  0  0  1 V2000
  153.5787  140.7608  159.3302 O   0  0  0  0  0  0  0  0  0  0  0  0
  152.8682  141.6075  158.7836 C   0  0  0  0  0  0  0  0  0  0  0  0
  152.1824  141.4190  157.6350 N   0  0  0  0  0  0  0  0  0  0  0  0
  152.1390  140.2776  156.8269 C   0  0  0  0  0  0  0  0  0  0  0  0
  151.0313  140.3227  155.9028 C   0  0  0  0  0  0  0  0  0  0  0  0
  150.8742  139.2785  155.0606 C   0  0  0  0  0  0  0  0  0  0  0  0
  151.7975  138.1444  155.0840 C   0  0  0  0  0  0  0  0  0  0  0  0
  151.7177  137.1638  154.3484 O   0  0  0  0  0  0  0  0  0  0  0  0
  152.7800  138.2704  156.0149 N   0  0  0  0  0  0  0  0  0  0  0  0
  153.0033  139.3081  156.9121 N   0  0  0  0  0  0  0  0  0  0  0  0
  152.6960  142.9922  159.4258 C   0  0  1  0  0  0  0  0  0  0  0  0
  152.0958  144.0410  158.4604 C   0  0  0  0  0  0  0  0  0  0  0  0
  151.9343  145.2746  159.1485 O   0  0  0  0  0  0  0  0  0  0  0  0
  151.0676  145.1344  160.2653 C   0  0  0  0  0  0  0  0  0  0  0  0
  151.6672  144.1029  161.2343 C   0  0  0  0  0  0  0  0  0  0  0  0
  151.8305  142.8668  160.5520 O   0  0  0  0  0  0  0  0  0  0  0  0
  151.6380  142.2122  157.3283 H   0  0  0  0  0  0  0  0  0  0  0  0
  150.3307  141.1441  155.8568 H   0  0  0  0  0  0  0  0  0  0  0  0
  150.0547  139.2788  154.3570 H   0  0  0  0  0  0  0  0  0  0  0  0
  153.4578  137.5254  156.0910 H   0  0  0  0  0  0  0  0  0  0  0  0
  153.6797  143.3242  159.7629 H   0  0  0  0  0  0  0  0  0  0  0  0
  152.7587  144.2079  157.6107 H   0  0  0  0  0  0  0  0  0  0  0  0
  151.1359  143.7091  158.0604 H   0  0  0  0  0  0  0  0  0  0  0  0
  150.9615  146.1009  160.7579 H   0  0  0  0  0  0  0  0  0  0  0  0
  150.0731  144.8290  159.9362 H   0  0  0  0  0  0  0  0  0  0  0  0
  152.6253  144.4470  161.6268 H   0  0  0  0  0  0  0  0  0  0  0  0
  151.0047  143.9538  162.0870 H   0  0  0  0  0  0  0  0  0  0  0  0
  1  2  2  0  0  0  0
  2  3  1  0  0  0  0
  2 11  1  0  0  0  0
  3 17  1  0  0  0  0
  3  4  1  0  0  0  0
  4  5  1  0  0  0  0
  4 10  2  0  0  0  0
  5  6  2  0  0  0  0
  5 18  1  0  0  0  0
  6  7  1  0  0  0  0
  6 19  1  0  0  0  0
  7  8  2  0  0  0  0
  7  9  1  0  0  0  0
  9 10  1  0  0  0  0
  9 20  1  0  0  0  0
 11 16  1  0  0  0  0
 11 12  1  0  0  0  0
 11 21  1  0  0  0  0
 12 13  1  0  0  0  0
 12 22  1  0  0  0  0
 12 23  1  0  0  0  0
 13 14  1  0  0  0  0
 14 15  1  0  0  0  0
 14 24  1  0  0  0  0
 14 25  1  0  0  0  0
 15 16  1  0  0  0  0
 15 26  1  0  0  0  0
 15 27  1  0  0  0  0
M  END
> <s_m_source_file>
AV-unprocessed.smi

> <i_m_source_file_index>
2761

> <i_lp_mmshare_version>
43012

> <i_f3d_flags>
0

> <s_epik_input>
TzFbQ0gyXVtDSDJdT1tDSDJdW0NASF0xQyg9TylbTkhdYzJbY0hdW2NIXWMoW09IXSlubjI=

> <s_epik_cmdline>
J2VwaWtfcHl0aG9uJywgJy1waCcsICc3LjAnLCAnLXRuJywgJzgnLCAnLW1hJywgJzIwMCcsICctbWV0YWxfYmluZGluZycsICctaW1hZScsICc8aW5maWxlLm1hZT4nLCAnLW9tYWUnLCAnPG91dGZpbGUubWFlPic=

> <r_lp_tautomer_probability>
1

> <r_epik_Ionization_Penalty>
0.000593199

> <r_epik_Ionization_Penalty_Charging>
0.000590119

> <r_epik_Ionization_Penalty_Neutral>
3.08036e-06

> <r_epik_State_Penalty>
-0

> <r_epik_Charging_Adjusted_Penalty>
0.000590119

> <i_epik_Tot_Q>
0

> <i_epik_Tot_abs_Q>
0

> <r_epik_Metal_State_Penalty>
0.240077

> <b_epik_Metal_Only>
0

> <s_lp_Force_Field>
OPLS_2005

> <r_lp_Energy>
26.3126

> <b_lp_Chiralities_Consistent>
1

> <s_lp_Variant>
AV-unprocessed.smi:2761-2

> <Gold.Version>
5.8.1

> <Gold.Id.Protein>
6NUR|6NUR_protein|mol2

> <Gold.PLP.Fitness>
36.2709

> <Gold.PLP.PLP>
-31.1587

> <Gold.PLP.part.hbond>
-2.6575

> <Gold.PLP.part.metal>
0.0000

> <Gold.PLP.part.buried>
-2.8631

> <Gold.PLP.part.nonpolar>
-25.5372

> <Gold.PLP.part.repulsive>
0.5460

> <Gold.PLP.ligand.clash>
0.0000

> <Gold.PLP.ligand.torsion>
0.4445

> <Gold.PLP.Chemscore.Hbond>
2.0000

> <Gold.PLP.Chemscore.CHOScore>
0.0000

> <Gold.PLP.Chemscore.Metal>
0.0000

> <Gold.Chemscore.Hbonds>
donor molecule, donor type, donor heavy atom, donor atom, acceptor molecule, acceptor atom, score
      P1  H  7997  8009       L1    10  0.93
      P1  H 10752 10764       L1     8  1.00

> <Gold.PLP.Chemscore.Internal.Correction>
0.0012

> <Gold.Rescore>
     Score         DG    S(hbond)    S(metal)    S(lipo)     H(rot)  DE(clash)    DE(int)     intcor
     14.00     -15.35       1.71        0.00      57.41       1.00       0.01       1.35       ----

> <Gold.Chemscore.Fitness>
13.9971

> <Gold.Chemscore.DG>
-15.3547

> <Gold.Chemscore.ZeroCoef>
-5.4800

> <Gold.Chemscore.Hbond>
1.7119

> <Gold.Chemscore.Metal>
0.0000

> <Gold.Chemscore.Lipo>
57.4089

> <Gold.Chemscore.Internal_Hbond>
0.0000

> <Gold.Chemscore.DEClash>
0.0063

> <Gold.Chemscore.DEInternal>
1.3513

> <Gold.Chemscore.Rot>
1.0000

> <Gold.Chemscore.Internal.Correction>
   9.000000E+99

> <Gold.Chemscore.Hbonds>
donor molecule, donor type, donor heavy atom, donor atom, acceptor molecule, acceptor atom, score
      P1  H  7997  8009       L1    10  0.53
      P1  H 10752 10764       L1     8  0.97

> <Gold.Chemscore.Hbond.Weighted>
-5.7178

> <Gold.Chemscore.Metal.Weighted>
-0.0000

> <Gold.Chemscore.Lipo.Weighted>
-6.7168

> <Gold.Chemscore.Internal_Hbond.Weighted>
0.0000

> <Gold.Chemscore.DEClash.Weighted>
0.0063

> <Gold.Chemscore.DEInternal.Weighted>
1.3513

> <Gold.Chemscore.Rot.Weighted>
2.5600

> <Gold.Chemscore.Internal.Correction.Weighted>
   9.000000E+99

> <Gold.Protein.RotatedTorsions>
[ 6907 6896 6895 6894 ] final  117.32 input  -60.11 | X-H torsion
[ 7974 7965 7964 7962 ] final  163.35 input  175.53 | X-H torsion
[ 8008 7997 7996 7995 ] final  157.90 input   59.86 | X-H torsion
[ 10167 10162 10161 10158 ] final   99.50 input  -65.29 | X-H torsion
[ 10718 10713 10712 10709 ] final   67.79 input   66.30 | X-H torsion
[ 10763 10752 10751 10750 ] final  -84.86 input  -60.55 | X-H torsion
[ 11005 11000 10999 10996 ] final -125.36 input  -57.11 | X-H torsion

> <Gold.Protein.ActiveResidues>
 VAL166  LYS551  ARG553  GLY616  TRP617  ASP618  TYR619  PRO620  LYS621  CYS622 
 ASP623  PHE694  ASN695  SER759  ASP760  ASP761  ALA762  ILE779  LEU786  VAL792 
 PHE793  MET794  SER795  GLU796  ALA797  LYS798  CYS799  TRP800  GLU811  SER814 

> <Gold.Protein.RotatedAtoms>
  152.4619  133.7841  159.6866 H   0  0  0  0  0  0  0  0  0  0  0  0  # atno 6907 bound_to 6896
  150.8567  133.7695  159.3013 H   0  0  0  0  0  0  0  0  0  0  0  0  # atno 6908 bound_to 6896
  151.5273  135.1071  159.9945 H   0  0  0  0  0  0  0  0  0  0  0  0  # atno 6909 bound_to 6896
  144.7594  139.8169  143.6338 H   0  0  0  0  0  0  0  0  0  0  0  0  # atno 7974 bound_to 7965
  156.2336  140.1873  156.7179 H   0  0  0  0  0  0  0  0  0  0  0  0  # atno 8008 bound_to 7997
  154.6066  140.0628  156.9466 H   0  0  0  0  0  0  0  0  0  0  0  0  # atno 8009 bound_to 7997
  155.2086  140.3298  155.4335 H   0  0  0  0  0  0  0  0  0  0  0  0  # atno 8010 bound_to 7997
  139.7611  144.6954  151.0290 H   0  0  0  0  0  0  0  0  0  0  0  0  # atno 10167 bound_to 10162
  157.6251  130.9339  150.0290 H   0  0  0  0  0  0  0  0  0  0  0  0  # atno 10718 bound_to 10713
  154.6044  135.5505  153.7408 H   0  0  0  0  0  0  0  0  0  0  0  0  # atno 10763 bound_to 10752
  153.0168  135.6374  154.1668 H   0  0  0  0  0  0  0  0  0  0  0  0  # atno 10764 bound_to 10752
  154.1607  135.2897  155.3089 H   0  0  0  0  0  0  0  0  0  0  0  0  # atno 10765 bound_to 10752
  140.9768  134.0728  157.3809 H   0  0  0  0  0  0  0  0  0  0  0  0  # atno 11005 bound_to 11000
  146.1641  139.4765  142.9970 LP  0  0  0  0  0  0  0  0  0  0  0  0  # atno 17320 bound_to 7965
  145.6670  141.0226  143.1678 LP  0  0  0  0  0  0  0  0  0  0  0  0  # atno 17321 bound_to 7965
  140.7807  143.4695  151.0165 LP  0  0  0  0  0  0  0  0  0  0  0  0  # atno 17342 bound_to 10162
  139.8381  143.7600  152.3180 LP  0  0  0  0  0  0  0  0  0  0  0  0  # atno 17343 bound_to 10162
  156.1419  130.3642  149.9569 LP  0  0  0  0  0  0  0  0  0  0  0  0  # atno 17370 bound_to 10713
  156.7608  130.9150  151.3641 LP  0  0  0  0  0  0  0  0  0  0  0  0  # atno 17371 bound_to 10713
  139.8934  135.0130  156.6896 LP  0  0  0  0  0  0  0  0  0  0  0  0  # atno 17394 bound_to 11000
  140.7246  133.9111  155.8170 LP  0  0  0  0  0  0  0  0  0  0  0  0  # atno 17395 bound_to 11000

$$$$
