AV-unprocessed.smi:3250|AV-procd|sdf|12427|dock9
  -GOLD-   2272018313D 1   1.00000     0.00000
 Structure written by MMmdl.
 39 40  0  0  0  0  0  0  0  0  2 V2000
  147.1033  138.9927  152.8562 C   0  0  0  0  0  0  0  0  0  0  0  0
  147.2083  138.3135  154.2286 C   0  0  0  0  0  0  0  0  0  0  0  0
  148.4777  137.5554  154.3855 N   0  3  1  0  0  0  0  0  0  0  0  0
  149.6960  138.3988  154.4857 C   0  0  0  0  0  0  0  0  0  0  0  0
  149.8506  139.0044  155.8940 C   0  0  0  0  0  0  0  0  0  0  0  0
  149.8240  137.9689  156.8692 O   0  0  0  0  0  0  0  0  0  0  0  0
  148.5980  137.2458  156.8639 C   0  0  2  0  0  0  0  0  0  0  0  0
  148.6487  136.2357  158.0231 C   0  0  0  0  0  0  0  0  0  0  0  0
  148.6073  136.8781  159.3308 N   0  0  0  0  0  0  0  0  0  0  0  0
  148.0429  136.3231  160.4652 C   0  0  0  0  0  0  0  0  0  0  0  0
  147.6217  137.1963  161.3822 N   0  0  0  0  0  0  0  0  0  0  0  0
  147.0592  136.6883  162.5007 C   0  0  0  0  0  0  0  0  0  0  0  0
  146.9224  135.2998  162.6981 C   0  0  0  0  0  0  0  0  0  0  0  0
  147.4030  134.4677  161.6671 C   0  0  0  0  0  0  0  0  0  0  0  0
  147.3000  133.0982  161.7951 O   0  0  0  0  0  0  0  0  0  0  0  0
  147.8522  132.2849  160.7657 C   0  0  0  0  0  0  0  0  0  0  0  0
  147.9670  134.9903  160.5496 N   0  0  0  0  0  0  0  0  0  0  0  0
  148.4431  136.5628  155.4870 C   0  0  0  0  0  0  0  0  0  0  0  0
  146.1288  139.4664  152.7373 H   0  0  0  0  0  0  0  0  0  0  0  0
  147.2174  138.2686  152.0489 H   0  0  0  0  0  0  0  0  0  0  0  0
  147.8573  139.7679  152.7227 H   0  0  0  0  0  0  0  0  0  0  0  0
  147.0895  139.0459  155.0271 H   0  0  0  0  0  0  0  0  0  0  0  0
  146.3677  137.6246  154.3199 H   0  0  0  0  0  0  0  0  0  0  0  0
  150.5608  137.7690  154.2732 H   0  0  0  0  0  0  0  0  0  0  0  0
  149.6988  139.1818  153.7284 H   0  0  0  0  0  0  0  0  0  0  0  0
  150.8023  139.5305  155.9693 H   0  0  0  0  0  0  0  0  0  0  0  0
  149.0708  139.7381  156.1021 H   0  0  0  0  0  0  0  0  0  0  0  0
  147.7787  137.9459  157.0344 H   0  0  0  0  0  0  0  0  0  0  0  0
  147.8127  135.5399  157.9503 H   0  0  0  0  0  0  0  0  0  0  0  0
  149.5549  135.6326  157.9528 H   0  0  0  0  0  0  0  0  0  0  0  0
  149.0411  137.7845  159.4309 H   0  0  0  0  0  0  0  0  0  0  0  0
  146.7164  137.3938  163.2429 H   0  0  0  0  0  0  0  0  0  0  0  0
  146.4708  134.8954  163.5921 H   0  0  0  0  0  0  0  0  0  0  0  0
  147.6808  131.2350  161.0036 H   0  0  0  0  0  0  0  0  0  0  0  0
  148.9295  132.4331  160.6765 H   0  0  0  0  0  0  0  0  0  0  0  0
  147.3828  132.4863  159.8017 H   0  0  0  0  0  0  0  0  0  0  0  0
  147.5240  135.9775  155.4378 H   0  0  0  0  0  0  0  0  0  0  0  0
  149.2616  135.8572  155.3374 H   0  0  0  0  0  0  0  0  0  0  0  0
  148.5682  137.0185  153.5346 H   0  0  0  0  0  0  0  0  0  0  0  0
  1  2  1  0  0  0  0
  1 19  1  0  0  0  0
  1 20  1  0  0  0  0
  1 21  1  0  0  0  0
  2  3  1  0  0  0  0
  2 22  1  0  0  0  0
  2 23  1  0  0  0  0
  3 18  1  0  0  0  0
  3  4  1  0  0  0  0
  3 39  1  0  0  0  0
  4  5  1  0  0  0  0
  4 24  1  0  0  0  0
  4 25  1  0  0  0  0
  5  6  1  0  0  0  0
  5 26  1  0  0  0  0
  5 27  1  0  0  0  0
  6  7  1  0  0  0  0
  7  8  1  0  0  0  0
  7 18  1  0  0  0  0
  7 28  1  0  0  0  0
  8  9  1  0  0  0  0
  8 29  1  0  0  0  0
  8 30  1  0  0  0  0
  9 10  1  0  0  0  0
  9 31  1  0  0  0  0
 10 17  1  0  0  0  0
 10 11  2  0  0  0  0
 11 12  1  0  0  0  0
 12 13  2  0  0  0  0
 12 32  1  0  0  0  0
 13 14  1  0  0  0  0
 13 33  1  0  0  0  0
 14 15  1  0  0  0  0
 14 17  2  0  0  0  0
 15 16  1  0  0  0  0
 16 34  1  0  0  0  0
 16 35  1  0  0  0  0
 16 36  1  0  0  0  0
 18 37  1  0  0  0  0
 18 38  1  0  0  0  0
M  CHG  1   3   1
M  END
> <s_m_source_file>
AV-unprocessed.smi

> <i_m_source_file_index>
3250

> <i_lp_mmshare_version>
43012

> <i_f3d_flags>
0

> <s_epik_input>
W0NIM11bQ0gyXU4xW0NIMl1bQ0gyXU9bQ0BIXShbQ0gyXTEpW0NIMl1bTkhdYzJuW2NIXVtjSF1jKG4yKU9bQ0gzXQ==

> <s_epik_cmdline>
J2VwaWtfcHl0aG9uJywgJy1waCcsICc3LjAnLCAnLXRuJywgJzgnLCAnLW1hJywgJzIwMCcsICctbWV0YWxfYmluZGluZycsICctaW1hZScsICc8aW5maWxlLm1hZT4nLCAnLW9tYWUnLCAnPG91dGZpbGUubWFlPic=

> <r_lp_tautomer_probability>
1

> <r_epik_Ionization_Penalty>
0.19684

> <r_epik_Ionization_Penalty_Charging>
0.178504

> <r_epik_Ionization_Penalty_Neutral>
0.0183356

> <r_epik_State_Penalty>
0.162939

> <r_epik_Charging_Adjusted_Penalty>
0.341443

> <i_epik_Tot_Q>
1

> <i_epik_Tot_abs_Q>
1

> <r_epik_Metal_State_Penalty>
0.1608

> <b_epik_Metal_Only>
0

> <s_lp_Force_Field>
OPLS_2005

> <r_lp_Energy>
9.61167

> <b_lp_Chiralities_Consistent>
1

> <s_lp_Variant>
AV-unprocessed.smi:3250-3

> <Gold.Version>
5.8.1

> <Gold.Id.Protein>
6NUR|6NUR_protein|mol2

> <Gold.PLP.Fitness>
37.0937

> <Gold.PLP.PLP>
-26.5719

> <Gold.PLP.part.hbond>
-3.0000

> <Gold.PLP.part.metal>
0.0000

> <Gold.PLP.part.buried>
-3.6942

> <Gold.PLP.part.nonpolar>
-19.5429

> <Gold.PLP.part.repulsive>
0.1935

> <Gold.PLP.ligand.clash>
0.0000

> <Gold.PLP.ligand.torsion>
0.4692

> <Gold.PLP.Chemscore.Hbond>
3.8080

> <Gold.PLP.Chemscore.CHOScore>
0.0000

> <Gold.PLP.Chemscore.Metal>
0.0000

> <Gold.Chemscore.Hbonds>
donor molecule, donor type, donor heavy atom, donor atom, acceptor molecule, acceptor atom, score
      L1  H     3    39       P1  7948  2.00
      P1  H  6931  6943       L1    11  0.96
      P1  H  6934  6947       L1    11  0.83

> <Gold.PLP.Chemscore.Internal.Correction>
0.0362

> <Gold.Rescore>
     Score         DG    S(hbond)    S(metal)    S(lipo)     H(rot)  DE(clash)    DE(int)     intcor
     14.03     -14.46       2.29        0.00      48.72       1.71       0.01       0.42       ----

> <Gold.Chemscore.Fitness>
14.0304

> <Gold.Chemscore.DG>
-14.4607

> <Gold.Chemscore.ZeroCoef>
-5.4800

> <Gold.Chemscore.Hbond>
2.2949

> <Gold.Chemscore.Metal>
0.0000

> <Gold.Chemscore.Lipo>
48.7197

> <Gold.Chemscore.Internal_Hbond>
0.0000

> <Gold.Chemscore.DEClash>
0.0106

> <Gold.Chemscore.DEInternal>
0.4197

> <Gold.Chemscore.Rot>
1.7127

> <Gold.Chemscore.Internal.Correction>
   9.000000E+99

> <Gold.Chemscore.Hbonds>
donor molecule, donor type, donor heavy atom, donor atom, acceptor molecule, acceptor atom, score
      L1  H     3    39       P1  7948  1.00
      P1  H  6931  6943       L1    11  0.41
      P1  H  6934  6947       L1    11  0.77

> <Gold.Chemscore.Hbond.Weighted>
-7.6651

> <Gold.Chemscore.Metal.Weighted>
-0.0000

> <Gold.Chemscore.Lipo.Weighted>
-5.7002

> <Gold.Chemscore.Internal_Hbond.Weighted>
0.0000

> <Gold.Chemscore.DEClash.Weighted>
0.0106

> <Gold.Chemscore.DEInternal.Weighted>
0.4197

> <Gold.Chemscore.Rot.Weighted>
4.3846

> <Gold.Chemscore.Internal.Correction.Weighted>
   9.000000E+99

> <Gold.Protein.RotatedTorsions>
[ 6907 6896 6895 6894 ] final  -19.85 input  -60.11 | X-H torsion
[ 7974 7965 7964 7962 ] final -154.80 input  175.53 | X-H torsion
[ 8008 7997 7996 7995 ] final -107.19 input   59.86 | X-H torsion
[ 10167 10162 10161 10158 ] final  114.63 input  -65.29 | X-H torsion
[ 10718 10713 10712 10709 ] final -120.40 input   66.30 | X-H torsion
[ 10763 10752 10751 10750 ] final  -29.74 input  -60.55 | X-H torsion
[ 11005 11000 10999 10996 ] final   39.37 input  -57.11 | X-H torsion

> <Gold.Protein.ActiveResidues>
 VAL166  LYS551  ARG553  GLY616  TRP617  ASP618  TYR619  PRO620  LYS621  CYS622 
 ASP623  PHE694  ASN695  SER759  ASP760  ASP761  ALA762  ILE779  LEU786  VAL792 
 PHE793  MET794  SER795  GLU796  ALA797  LYS798  CYS799  TRP800  GLU811  SER814 

> <Gold.Protein.RotatedAtoms>
  151.2569  135.0641  159.9083 H   0  0  0  0  0  0  0  0  0  0  0  0  # atno 6907 bound_to 6896
  152.5372  134.0272  159.8019 H   0  0  0  0  0  0  0  0  0  0  0  0  # atno 6908 bound_to 6896
  151.0489  133.5591  159.2675 H   0  0  0  0  0  0  0  0  0  0  0  0  # atno 6909 bound_to 6896
  144.7671  140.4338  143.5934 H   0  0  0  0  0  0  0  0  0  0  0  0  # atno 7974 bound_to 7965
  154.9256  140.0406  157.2021 H   0  0  0  0  0  0  0  0  0  0  0  0  # atno 8008 bound_to 7997
  154.8210  140.2883  155.5765 H   0  0  0  0  0  0  0  0  0  0  0  0  # atno 8009 bound_to 7997
  156.2980  140.2519  156.3118 H   0  0  0  0  0  0  0  0  0  0  0  0  # atno 8010 bound_to 7997
  139.6374  144.7121  151.2306 H   0  0  0  0  0  0  0  0  0  0  0  0  # atno 10167 bound_to 10162
  156.1255  130.6356  150.9535 H   0  0  0  0  0  0  0  0  0  0  0  0  # atno 10718 bound_to 10713
  153.7695  135.6913  153.4909 H   0  0  0  0  0  0  0  0  0  0  0  0  # atno 10763 bound_to 10752
  153.1884  135.4480  155.0116 H   0  0  0  0  0  0  0  0  0  0  0  0  # atno 10764 bound_to 10752
  154.8123  135.3383  154.7206 H   0  0  0  0  0  0  0  0  0  0  0  0  # atno 10765 bound_to 10752
  140.2034  134.3842  155.8084 H   0  0  0  0  0  0  0  0  0  0  0  0  # atno 11005 bound_to 11000
  145.6436  139.1553  143.2902 LP  0  0  0  0  0  0  0  0  0  0  0  0  # atno 17320 bound_to 7965
  146.1788  140.6530  142.9199 LP  0  0  0  0  0  0  0  0  0  0  0  0  # atno 17321 bound_to 7965
  140.7473  143.6371  150.8369 LP  0  0  0  0  0  0  0  0  0  0  0  0  # atno 17342 bound_to 10162
  140.0004  143.5750  152.2877 LP  0  0  0  0  0  0  0  0  0  0  0  0  # atno 17343 bound_to 10162
  157.6437  131.0907  150.8199 LP  0  0  0  0  0  0  0  0  0  0  0  0  # atno 17370 bound_to 10713
  156.8290  130.5009  149.5334 LP  0  0  0  0  0  0  0  0  0  0  0  0  # atno 17371 bound_to 10713
  141.2227  133.7106  156.8297 LP  0  0  0  0  0  0  0  0  0  0  0  0  # atno 17394 bound_to 11000
  140.2029  134.8884  157.3189 LP  0  0  0  0  0  0  0  0  0  0  0  0  # atno 17395 bound_to 11000

$$$$
