AV-unprocessed.smi:2106|AV-procd|sdf|8593|dock2
  -GOLD-   2272011323D 1   1.00000     0.00000
 Structure written by MMmdl.
 47 48  0  0  0  0  0  0  0  0  1 V2000
  147.2797  130.4925  152.8005 C   0  0  0  0  0  0  0  0  0  0  0  0
  146.4558  131.4021  151.9377 C   0  0  0  0  0  0  0  0  0  0  0  0
  145.5283  131.0481  150.9187 C   0  0  0  0  0  0  0  0  0  0  0  0
  145.0647  132.2459  150.4523 C   0  0  0  0  0  0  0  0  0  0  0  0
  144.0698  132.5400  149.3781 C   0  0  0  0  0  0  0  0  0  0  0  0
  145.7044  133.2344  151.1797 N   0  0  0  0  0  0  0  0  0  0  0  0
  145.5784  134.6796  151.0744 C   0  0  0  0  0  0  0  0  0  0  0  0
  145.2634  135.3060  152.4337 C   0  0  0  0  0  0  0  0  0  0  0  0
  144.1954  135.0595  152.9933 O   0  0  0  0  0  0  0  0  0  0  0  0
  146.2006  136.1163  152.9488 N   0  0  0  0  0  0  0  0  0  0  0  0
  146.0930  136.8258  154.2169 C   0  0  0  0  0  0  0  0  0  0  0  0
  147.4574  136.9068  154.9259 C   0  0  0  0  0  0  0  0  0  0  0  0
  148.3347  137.9787  154.4580 N   0  0  0  0  0  0  0  0  0  0  0  0
  147.9446  139.2887  154.9744 C   0  0  0  0  0  0  0  0  0  0  0  0
  148.8956  140.4048  154.5004 C   0  0  1  0  0  0  0  0  0  0  0  0
  148.5413  141.7647  155.1111 C   0  0  0  0  0  0  0  0  0  0  0  0
  150.2287  140.0769  154.8812 O   0  0  0  0  0  0  0  0  0  0  0  0
  150.6720  138.8293  154.3551 C   0  0  1  0  0  0  0  0  0  0  0  0
  152.1140  138.5983  154.8190 C   0  0  0  0  0  0  0  0  0  0  0  0
  149.7198  137.7168  154.8340 C   0  0  0  0  0  0  0  0  0  0  0  0
  146.5561  132.7124  152.0902 N   0  0  0  0  0  0  0  0  0  0  0  0
  147.0684  129.4456  152.5820 H   0  0  0  0  0  0  0  0  0  0  0  0
  147.0722  130.6586  153.8578 H   0  0  0  0  0  0  0  0  0  0  0  0
  148.3452  130.6564  152.6384 H   0  0  0  0  0  0  0  0  0  0  0  0
  145.2468  130.0621  150.5799 H   0  0  0  0  0  0  0  0  0  0  0  0
  143.6951  131.6185  148.9317 H   0  0  0  0  0  0  0  0  0  0  0  0
  144.5179  133.1376  148.5843 H   0  0  0  0  0  0  0  0  0  0  0  0
  143.2170  133.0890  149.7774 H   0  0  0  0  0  0  0  0  0  0  0  0
  146.5060  135.0943  150.6790 H   0  0  0  0  0  0  0  0  0  0  0  0
  144.7938  134.9239  150.3563 H   0  0  0  0  0  0  0  0  0  0  0  0
  147.0438  136.2640  152.4131 H   0  0  0  0  0  0  0  0  0  0  0  0
  145.6833  137.8248  154.0583 H   0  0  0  0  0  0  0  0  0  0  0  0
  145.3708  136.2841  154.8265 H   0  0  0  0  0  0  0  0  0  0  0  0
  147.3040  137.0008  156.0020 H   0  0  0  0  0  0  0  0  0  0  0  0
  147.9661  135.9529  154.7798 H   0  0  0  0  0  0  0  0  0  0  0  0
  146.9340  139.5359  154.6512 H   0  0  0  0  0  0  0  0  0  0  0  0
  147.9274  139.2638  156.0653 H   0  0  0  0  0  0  0  0  0  0  0  0
  148.8489  140.4865  153.4130 H   0  0  0  0  0  0  0  0  0  0  0  0
  147.5308  142.0671  154.8352 H   0  0  0  0  0  0  0  0  0  0  0  0
  149.2264  142.5384  154.7634 H   0  0  0  0  0  0  0  0  0  0  0  0
  148.5972  141.7351  156.1995 H   0  0  0  0  0  0  0  0  0  0  0  0
  150.6582  138.8796  153.2650 H   0  0  0  0  0  0  0  0  0  0  0  0
  152.5059  137.6591  154.4281 H   0  0  0  0  0  0  0  0  0  0  0  0
  152.1775  138.5616  155.9070 H   0  0  0  0  0  0  0  0  0  0  0  0
  152.7673  139.4001  154.4742 H   0  0  0  0  0  0  0  0  0  0  0  0
  149.7943  137.6184  155.9182 H   0  0  0  0  0  0  0  0  0  0  0  0
  150.0408  136.7634  154.4127 H   0  0  0  0  0  0  0  0  0  0  0  0
  1  2  1  0  0  0  0
  1 22  1  0  0  0  0
  1 23  1  0  0  0  0
  1 24  1  0  0  0  0
  2 21  2  0  0  0  0
  2  3  1  0  0  0  0
  3  4  2  0  0  0  0
  3 25  1  0  0  0  0
  4  5  1  0  0  0  0
  4  6  1  0  0  0  0
  5 26  1  0  0  0  0
  5 27  1  0  0  0  0
  5 28  1  0  0  0  0
  6  7  1  0  0  0  0
  6 21  1  0  0  0  0
  7  8  1  0  0  0  0
  7 29  1  0  0  0  0
  7 30  1  0  0  0  0
  8  9  2  0  0  0  0
  8 10  1  0  0  0  0
 10 11  1  0  0  0  0
 10 31  1  0  0  0  0
 11 12  1  0  0  0  0
 11 32  1  0  0  0  0
 11 33  1  0  0  0  0
 12 13  1  0  0  0  0
 12 34  1  0  0  0  0
 12 35  1  0  0  0  0
 13 20  1  0  0  0  0
 13 14  1  0  0  0  0
 14 15  1  0  0  0  0
 14 36  1  0  0  0  0
 14 37  1  0  0  0  0
 15 16  1  0  0  0  0
 15 17  1  0  0  0  0
 15 38  1  0  0  0  0
 16 39  1  0  0  0  0
 16 40  1  0  0  0  0
 16 41  1  0  0  0  0
 17 18  1  0  0  0  0
 18 19  1  0  0  0  0
 18 20  1  0  0  0  0
 18 42  1  0  0  0  0
 19 43  1  0  0  0  0
 19 44  1  0  0  0  0
 19 45  1  0  0  0  0
 20 46  1  0  0  0  0
 20 47  1  0  0  0  0
M  END
> <s_m_source_file>
AV-unprocessed.smi

> <i_m_source_file_index>
2106

> <i_lp_mmshare_version>
43012

> <i_f3d_flags>
0

> <s_epik_input>
W0NIM11jMVtjSF1jKFtDSDNdKW4objEpW0NIMl1DKD1PKVtOSF1bQ0gyXVtDSDJdTjJbQ0gyXVtDQEBIXShbQ0gzXSlPW0NAQEhdKFtDSDNdKVtDSDJdMg==

> <s_epik_cmdline>
J2VwaWtfcHl0aG9uJywgJy1waCcsICc3LjAnLCAnLXRuJywgJzgnLCAnLW1hJywgJzIwMCcsICctbWV0YWxfYmluZGluZycsICctaW1hZScsICc8aW5maWxlLm1hZT4nLCAnLW9tYWUnLCAnPG91dGZpbGUubWFlPic=

> <r_lp_tautomer_probability>
1

> <r_epik_Ionization_Penalty>
0.197284

> <r_epik_Ionization_Penalty_Charging>
0

> <r_epik_Ionization_Penalty_Neutral>
0.197284

> <r_epik_State_Penalty>
0.186684

> <r_epik_Charging_Adjusted_Penalty>
0.186684

> <i_epik_Tot_Q>
0

> <i_epik_Tot_abs_Q>
0

> <r_epik_Metal_State_Penalty>
0.186634

> <b_epik_Metal_Only>
0

> <s_lp_Force_Field>
OPLS_2005

> <r_lp_Energy>
17.5566

> <b_lp_Chiralities_Consistent>
1

> <s_lp_Variant>
AV-unprocessed.smi:2106-1

> <Gold.Version>
5.8.1

> <Gold.Id.Protein>
6NUR|6NUR_protein|mol2

> <Gold.PLP.Fitness>
39.5113

> <Gold.PLP.PLP>
-34.5177

> <Gold.PLP.part.hbond>
-2.0000

> <Gold.PLP.part.metal>
0.0000

> <Gold.PLP.part.buried>
-2.9797

> <Gold.PLP.part.nonpolar>
-30.9918

> <Gold.PLP.part.repulsive>
1.4465

> <Gold.PLP.ligand.clash>
0.0000

> <Gold.PLP.ligand.torsion>
0.5108

> <Gold.PLP.Chemscore.Hbond>
2.0000

> <Gold.PLP.Chemscore.CHOScore>
0.0000

> <Gold.PLP.Chemscore.Metal>
0.0000

> <Gold.Chemscore.Hbonds>
donor molecule, donor type, donor heavy atom, donor atom, acceptor molecule, acceptor atom, score
      L1  H    10    31       P1  7948  1.00
      P1  H  7989  7998       L1    17  0.12

> <Gold.PLP.Chemscore.Internal.Correction>
0.0151

> <Gold.Rescore>
     Score         DG    S(hbond)    S(metal)    S(lipo)     H(rot)  DE(clash)    DE(int)     intcor
     14.42     -15.17       1.00        0.00      90.79       1.67       0.10       0.64       ----

> <Gold.Chemscore.Fitness>
14.4222

> <Gold.Chemscore.DG>
-15.1651

> <Gold.Chemscore.ZeroCoef>
-5.4800

> <Gold.Chemscore.Hbond>
0.9960

> <Gold.Chemscore.Metal>
0.0000

> <Gold.Chemscore.Lipo>
90.7918

> <Gold.Chemscore.Internal_Hbond>
0.0000

> <Gold.Chemscore.DEClash>
0.1003

> <Gold.Chemscore.DEInternal>
0.6426

> <Gold.Chemscore.Rot>
1.6657

> <Gold.Chemscore.Internal.Correction>
   9.000000E+99

> <Gold.Chemscore.Hbonds>
donor molecule, donor type, donor heavy atom, donor atom, acceptor molecule, acceptor atom, score
      L1  H    10    31       P1  7948  0.98

> <Gold.Chemscore.Hbond.Weighted>
-3.3266

> <Gold.Chemscore.Metal.Weighted>
-0.0000

> <Gold.Chemscore.Lipo.Weighted>
-10.6226

> <Gold.Chemscore.Internal_Hbond.Weighted>
0.0000

> <Gold.Chemscore.DEClash.Weighted>
0.1003

> <Gold.Chemscore.DEInternal.Weighted>
0.6426

> <Gold.Chemscore.Rot.Weighted>
4.2641

> <Gold.Chemscore.Internal.Correction.Weighted>
   9.000000E+99

> <Gold.Protein.RotatedTorsions>
[ 6907 6896 6895 6894 ] final  115.81 input  -60.11 | X-H torsion
[ 7974 7965 7964 7962 ] final  -73.16 input  175.53 | X-H torsion
[ 8008 7997 7996 7995 ] final  171.43 input   59.86 | X-H torsion
[ 10167 10162 10161 10158 ] final  153.20 input  -65.29 | X-H torsion
[ 10718 10713 10712 10709 ] final -118.96 input   66.30 | X-H torsion
[ 10763 10752 10751 10750 ] final  115.61 input  -60.55 | X-H torsion
[ 11005 11000 10999 10996 ] final -161.66 input  -57.11 | X-H torsion

> <Gold.Protein.ActiveResidues>
 VAL166  LYS551  ARG553  GLY616  TRP617  ASP618  TYR619  PRO620  LYS621  CYS622 
 ASP623  PHE694  ASN695  SER759  ASP760  ASP761  ALA762  ILE779  LEU786  VAL792 
 PHE793  MET794  SER795  GLU796  ALA797  LYS798  CYS799  TRP800  GLU811  SER814 

> <Gold.Protein.RotatedAtoms>
  152.4718  133.8047  159.6971 H   0  0  0  0  0  0  0  0  0  0  0  0  # atno 6907 bound_to 6896
  150.8712  133.7494  159.2967 H   0  0  0  0  0  0  0  0  0  0  0  0  # atno 6908 bound_to 6896
  151.5028  135.1065  159.9885 H   0  0  0  0  0  0  0  0  0  0  0  0  # atno 6909 bound_to 6896
  145.6557  140.9268  143.0961 H   0  0  0  0  0  0  0  0  0  0  0  0  # atno 7974 bound_to 7965
  156.1272  140.1512  156.9119 H   0  0  0  0  0  0  0  0  0  0  0  0  # atno 8008 bound_to 7997
  154.4880  140.0859  156.7572 H   0  0  0  0  0  0  0  0  0  0  0  0  # atno 8009 bound_to 7997
  155.4322  140.3427  155.4283 H   0  0  0  0  0  0  0  0  0  0  0  0  # atno 8010 bound_to 7997
  139.4828  144.5293  151.7749 H   0  0  0  0  0  0  0  0  0  0  0  0  # atno 10167 bound_to 10162
  156.1145  130.6275  150.9356 H   0  0  0  0  0  0  0  0  0  0  0  0  # atno 10718 bound_to 10713
  153.5248  135.3590  155.2649 H   0  0  0  0  0  0  0  0  0  0  0  0  # atno 10763 bound_to 10752
  154.8732  135.4054  154.3218 H   0  0  0  0  0  0  0  0  0  0  0  0  # atno 10764 bound_to 10752
  153.3895  135.7071  153.6572 H   0  0  0  0  0  0  0  0  0  0  0  0  # atno 10765 bound_to 10752
  140.6180  134.4780  157.5221 H   0  0  0  0  0  0  0  0  0  0  0  0  # atno 11005 bound_to 11000
  144.7107  139.8384  143.7415 LP  0  0  0  0  0  0  0  0  0  0  0  0  # atno 17320 bound_to 7965
  146.1167  139.4179  143.0254 LP  0  0  0  0  0  0  0  0  0  0  0  0  # atno 17321 bound_to 7965
  140.4817  144.1440  150.5934 LP  0  0  0  0  0  0  0  0  0  0  0  0  # atno 17342 bound_to 10162
  140.4270  143.2585  151.9644 LP  0  0  0  0  0  0  0  0  0  0  0  0  # atno 17343 bound_to 10162
  157.6328  131.0919  150.8408 LP  0  0  0  0  0  0  0  0  0  0  0  0  # atno 17370 bound_to 10713
  156.8514  130.5082  149.5311 LP  0  0  0  0  0  0  0  0  0  0  0  0  # atno 17371 bound_to 10713
  139.9165  134.8236  156.1350 LP  0  0  0  0  0  0  0  0  0  0  0  0  # atno 17394 bound_to 11000
  141.0762  133.6774  156.2242 LP  0  0  0  0  0  0  0  0  0  0  0  0  # atno 17395 bound_to 11000

$$$$
