AV-unprocessed.smi:1047|AV-procd|sdf|4575|dock4
  -GOLD-   22720 3 33D 1   1.00000     0.00000
 Structure written by MMmdl.
 56 58  0  0  0  0  0  0  0  0  2 V2000
  145.5583  133.1301  162.4982 C   0  0  0  0  0  0  0  0  0  0  0  0
  147.0627  132.9792  162.2323 C   0  0  0  0  0  0  0  0  0  0  0  0
  147.7501  134.2869  162.0910 N   0  3  2  0  0  0  0  0  0  0  0  0
  147.2476  135.2951  163.0545 C   0  0  0  0  0  0  0  0  0  0  0  0
  148.0361  136.6084  162.9208 C   0  0  0  0  0  0  0  0  0  0  0  0
  147.9441  137.0916  161.5867 O   0  0  0  0  0  0  0  0  0  0  0  0
  148.4781  136.1714  160.6401 C   0  0  2  0  0  0  0  0  0  0  0  0
  148.4591  136.8236  159.2475 C   0  0  0  0  0  0  0  0  0  0  0  0
  149.8070  137.1006  158.7602 N   0  0  0  0  0  0  0  0  0  0  0  0
  150.0156  136.7219  157.3648 C   0  0  0  0  0  0  0  0  0  0  0  0
  151.5112  136.6244  157.0127 C   0  0  2  0  0  0  0  0  0  0  0  0
  152.0386  135.4288  157.5550 O   0  0  0  0  0  0  0  0  0  0  0  0
  152.3408  137.8542  157.4378 C   0  0  0  0  0  0  0  0  0  0  0  0
  151.8108  139.0906  156.8924 N   0  0  0  0  0  0  0  0  0  0  0  0
  151.1587  139.2488  155.7248 C   0  0  0  0  0  0  0  0  0  0  0  0
  150.7632  140.4791  155.4106 N   0  0  0  0  0  0  0  0  0  0  0  0
  151.2092  141.2035  156.5029 C   0  0  0  0  0  0  0  0  0  0  0  0
  151.1117  142.5824  156.7914 C   0  0  0  0  0  0  0  0  0  0  0  0
  151.6505  143.1133  157.9851 C   0  0  0  0  0  0  0  0  0  0  0  0
  151.5264  144.6029  158.2533 C   0  0  0  0  0  0  0  0  0  0  0  0
  152.2983  142.2592  158.9137 C   0  0  0  0  0  0  0  0  0  0  0  0
  152.8827  142.8062  160.2039 C   0  0  0  0  0  0  0  0  0  0  0  0
  152.4059  140.8797  158.6403 C   0  0  0  0  0  0  0  0  0  0  0  0
  151.8667  140.3638  157.4487 C   0  0  0  0  0  0  0  0  0  0  0  0
  147.7147  134.8313  160.7112 C   0  0  0  0  0  0  0  0  0  0  0  0
  145.0707  132.1549  162.5002 H   0  0  0  0  0  0  0  0  0  0  0  0
  145.0798  133.7358  161.7279 H   0  0  0  0  0  0  0  0  0  0  0  0
  145.3580  133.5919  163.4646 H   0  0  0  0  0  0  0  0  0  0  0  0
  147.5353  132.3889  163.0188 H   0  0  0  0  0  0  0  0  0  0  0  0
  147.1824  132.4134  161.3072 H   0  0  0  0  0  0  0  0  0  0  0  0
  146.1862  135.4756  162.8761 H   0  0  0  0  0  0  0  0  0  0  0  0
  147.3424  134.9158  164.0726 H   0  0  0  0  0  0  0  0  0  0  0  0
  147.6292  137.3610  163.5962 H   0  0  0  0  0  0  0  0  0  0  0  0
  149.0817  136.4651  163.1979 H   0  0  0  0  0  0  0  0  0  0  0  0
  149.5232  135.9900  160.8976 H   0  0  0  0  0  0  0  0  0  0  0  0
  147.9406  136.1641  158.5504 H   0  0  0  0  0  0  0  0  0  0  0  0
  147.8822  137.7483  159.2869 H   0  0  0  0  0  0  0  0  0  0  0  0
  150.4852  136.6174  159.3419 H   0  0  0  0  0  0  0  0  0  0  0  0
  149.5318  135.7664  157.1578 H   0  0  0  0  0  0  0  0  0  0  0  0
  149.5397  137.4553  156.7129 H   0  0  0  0  0  0  0  0  0  0  0  0
  151.5858  136.5249  155.9291 H   0  0  0  0  0  0  0  0  0  0  0  0
  151.6286  135.2736  158.3924 H   0  0  0  0  0  0  0  0  0  0  0  0
  152.3581  137.9374  158.5252 H   0  0  0  0  0  0  0  0  0  0  0  0
  153.3785  137.7568  157.1173 H   0  0  0  0  0  0  0  0  0  0  0  0
  150.9670  138.4139  155.0667 H   0  0  0  0  0  0  0  0  0  0  0  0
  150.6184  143.2325  156.0837 H   0  0  0  0  0  0  0  0  0  0  0  0
  150.9604  144.7806  159.1679 H   0  0  0  0  0  0  0  0  0  0  0  0
  151.0131  145.1132  157.4380 H   0  0  0  0  0  0  0  0  0  0  0  0
  152.5123  145.0552  158.3619 H   0  0  0  0  0  0  0  0  0  0  0  0
  153.3297  142.0143  160.8057 H   0  0  0  0  0  0  0  0  0  0  0  0
  152.1065  143.2829  160.8029 H   0  0  0  0  0  0  0  0  0  0  0  0
  153.6579  143.5423  159.9905 H   0  0  0  0  0  0  0  0  0  0  0  0
  152.9007  140.2186  159.3363 H   0  0  0  0  0  0  0  0  0  0  0  0
  148.1636  134.1254  160.0131 H   0  0  0  0  0  0  0  0  0  0  0  0
  146.6753  134.9639  160.4072 H   0  0  0  0  0  0  0  0  0  0  0  0
  148.7206  134.1308  162.3241 H   0  0  0  0  0  0  0  0  0  0  0  0
  1  2  1  0  0  0  0
  1 26  1  0  0  0  0
  1 27  1  0  0  0  0
  1 28  1  0  0  0  0
  2  3  1  0  0  0  0
  2 29  1  0  0  0  0
  2 30  1  0  0  0  0
  3 25  1  0  0  0  0
  3  4  1  0  0  0  0
  3 56  1  0  0  0  0
  4  5  1  0  0  0  0
  4 31  1  0  0  0  0
  4 32  1  0  0  0  0
  5  6  1  0  0  0  0
  5 33  1  0  0  0  0
  5 34  1  0  0  0  0
  6  7  1  0  0  0  0
  7  8  1  0  0  0  0
  7 25  1  0  0  0  0
  7 35  1  0  0  0  0
  8  9  1  0  0  0  0
  8 36  1  0  0  0  0
  8 37  1  0  0  0  0
  9 10  1  0  0  0  0
  9 38  1  0  0  0  0
 10 11  1  0  0  0  0
 10 39  1  0  0  0  0
 10 40  1  0  0  0  0
 11 12  1  0  0  0  0
 11 13  1  0  0  0  0
 11 41  1  0  0  0  0
 12 42  1  0  0  0  0
 13 14  1  0  0  0  0
 13 43  1  0  0  0  0
 13 44  1  0  0  0  0
 14 24  1  0  0  0  0
 14 15  1  0  0  0  0
 15 16  2  0  0  0  0
 15 45  1  0  0  0  0
 16 17  1  0  0  0  0
 17 24  2  0  0  0  0
 17 18  1  0  0  0  0
 18 19  2  0  0  0  0
 18 46  1  0  0  0  0
 19 20  1  0  0  0  0
 19 21  1  0  0  0  0
 20 47  1  0  0  0  0
 20 48  1  0  0  0  0
 20 49  1  0  0  0  0
 21 22  1  0  0  0  0
 21 23  2  0  0  0  0
 22 50  1  0  0  0  0
 22 51  1  0  0  0  0
 22 52  1  0  0  0  0
 23 24  1  0  0  0  0
 23 53  1  0  0  0  0
 25 54  1  0  0  0  0
 25 55  1  0  0  0  0
M  CHG  1   3   1
M  END
> <s_m_source_file>
AV-unprocessed.smi

> <i_m_source_file_index>
1047

> <i_lp_mmshare_version>
43012

> <i_f3d_flags>
0

> <s_epik_input>
W0NIM11bQ0gyXU4xW0NIMl1bQ0gyXU9bQ0BIXShbQ0gyXTEpW0NIMl1bTkhdW0NIMl1bQ0BIXShbT0hdKVtDSDJdbihbY0hdbjIpYyhjMjMpW2NIXWMoW0NIM10pYyhbY0hdMylbQ0gzXQ==

> <s_epik_cmdline>
J2VwaWtfcHl0aG9uJywgJy1waCcsICc3LjAnLCAnLXRuJywgJzgnLCAnLW1hJywgJzIwMCcsICctbWV0YWxfYmluZGluZycsICctaW1hZScsICc8aW5maWxlLm1hZT4nLCAnLW9tYWUnLCAnPG91dGZpbGUubWFlPic=

> <r_epik_Ionization_Penalty>
1.19246

> <r_epik_Ionization_Penalty_Charging>
0.210041

> <r_epik_Ionization_Penalty_Neutral>
0.982415

> <r_epik_State_Penalty>
1.57595

> <r_epik_Charging_Adjusted_Penalty>
1.78599

> <i_epik_Tot_Q>
1

> <i_epik_Tot_abs_Q>
1

> <r_epik_Metal_State_Penalty>
1.46172

> <b_epik_Metal_Only>
0

> <s_lp_Force_Field>
OPLS_2005

> <r_lp_Energy>
33.3518

> <b_lp_Chiralities_Consistent>
1

> <s_lp_Variant>
AV-unprocessed.smi:1047-16

> <Gold.Version>
5.8.1

> <Gold.Id.Protein>
6NUR|6NUR_protein|mol2

> <Gold.PLP.Fitness>
53.3027

> <Gold.PLP.PLP>
-50.3960

> <Gold.PLP.part.hbond>
-4.0000

> <Gold.PLP.part.metal>
0.0000

> <Gold.PLP.part.buried>
-6.9692

> <Gold.PLP.part.nonpolar>
-39.4173

> <Gold.PLP.part.repulsive>
0.1271

> <Gold.PLP.ligand.clash>
0.0000

> <Gold.PLP.ligand.torsion>
1.8287

> <Gold.PLP.Chemscore.Hbond>
2.1007

> <Gold.PLP.Chemscore.CHOScore>
0.0000

> <Gold.PLP.Chemscore.Metal>
0.0000

> <Gold.Chemscore.Hbonds>
donor molecule, donor type, donor heavy atom, donor atom, acceptor molecule, acceptor atom, score
      P1  H  6931  6943       L1     6  0.55
      P1  H  6934  6947       L1     6  0.44
      P1  H  7989  7998       L1    16  0.73

> <Gold.PLP.Chemscore.Internal.Correction>
0.2620

> <Gold.Rescore>
     Score         DG    S(hbond)    S(metal)    S(lipo)     H(rot)  DE(clash)    DE(int)     intcor
     17.85     -19.92       1.68        0.00     132.76       2.62       0.48       1.58       ----

> <Gold.Chemscore.Fitness>
17.8549

> <Gold.Chemscore.DG>
-19.9168

> <Gold.Chemscore.ZeroCoef>
-5.4800

> <Gold.Chemscore.Hbond>
1.6808

> <Gold.Chemscore.Metal>
0.0000

> <Gold.Chemscore.Lipo>
132.7576

> <Gold.Chemscore.Internal_Hbond>
0.0000

> <Gold.Chemscore.DEClash>
0.4849

> <Gold.Chemscore.DEInternal>
1.5770

> <Gold.Chemscore.Rot>
2.6209

> <Gold.Chemscore.Internal.Correction>
   9.000000E+99

> <Gold.Chemscore.Hbonds>
donor molecule, donor type, donor heavy atom, donor atom, acceptor molecule, acceptor atom, score
      P1  H  6931  6943       L1     6  0.02
      P1  H  6934  6947       L1     6  0.42
      P1  H  7989  7998       L1    16  0.37

> <Gold.Chemscore.Hbond.Weighted>
-5.6137

> <Gold.Chemscore.Metal.Weighted>
-0.0000

> <Gold.Chemscore.Lipo.Weighted>
-15.5326

> <Gold.Chemscore.Internal_Hbond.Weighted>
0.0000

> <Gold.Chemscore.DEClash.Weighted>
0.4849

> <Gold.Chemscore.DEInternal.Weighted>
1.5770

> <Gold.Chemscore.Rot.Weighted>
6.7096

> <Gold.Chemscore.Internal.Correction.Weighted>
   9.000000E+99

> <Gold.Protein.RotatedTorsions>
[ 6907 6896 6895 6894 ] final  -20.04 input  -60.11 | X-H torsion
[ 7974 7965 7964 7962 ] final  -34.49 input  175.53 | X-H torsion
[ 8008 7997 7996 7995 ] final -139.85 input   59.86 | X-H torsion
[ 10167 10162 10161 10158 ] final -138.95 input  -65.29 | X-H torsion
[ 10718 10713 10712 10709 ] final  -79.41 input   66.30 | X-H torsion
[ 10763 10752 10751 10750 ] final  129.41 input  -60.55 | X-H torsion
[ 11005 11000 10999 10996 ] final  -47.02 input  -57.11 | X-H torsion

> <Gold.Protein.ActiveResidues>
 VAL166  LYS551  ARG553  GLY616  TRP617  ASP618  TYR619  PRO620  LYS621  CYS622 
 ASP623  PHE694  ASN695  SER759  ASP760  ASP761  ALA762  ILE779  LEU786  VAL792 
 PHE793  MET794  SER795  GLU796  ALA797  LYS798  CYS799  TRP800  GLU811  SER814 

> <Gold.Protein.RotatedAtoms>
  151.2541  135.0632  159.9073 H   0  0  0  0  0  0  0  0  0  0  0  0  # atno 6907 bound_to 6896
  152.5376  134.0300  159.8031 H   0  0  0  0  0  0  0  0  0  0  0  0  # atno 6908 bound_to 6896
  151.0513  133.5572  159.2673 H   0  0  0  0  0  0  0  0  0  0  0  0  # atno 6909 bound_to 6896
  146.0825  140.6044  142.8901 H   0  0  0  0  0  0  0  0  0  0  0  0  # atno 7974 bound_to 7965
  155.4516  140.0539  157.3000 H   0  0  0  0  0  0  0  0  0  0  0  0  # atno 8008 bound_to 7997
  154.4775  140.2067  155.9799 H   0  0  0  0  0  0  0  0  0  0  0  0  # atno 8009 bound_to 7997
  156.1154  140.3197  155.8137 H   0  0  0  0  0  0  0  0  0  0  0  0  # atno 8010 bound_to 7997
  139.8428  143.7300  152.2662 H   0  0  0  0  0  0  0  0  0  0  0  0  # atno 10167 bound_to 10162
  156.0093  130.4545  150.3645 H   0  0  0  0  0  0  0  0  0  0  0  0  # atno 10718 bound_to 10713
  153.7413  135.3224  155.3304 H   0  0  0  0  0  0  0  0  0  0  0  0  # atno 10763 bound_to 10752
  154.8294  135.4545  154.1024 H   0  0  0  0  0  0  0  0  0  0  0  0  # atno 10764 bound_to 10752
  153.2199  135.6947  153.8094 H   0  0  0  0  0  0  0  0  0  0  0  0  # atno 10765 bound_to 10752
  141.0615  133.6707  156.3237 H   0  0  0  0  0  0  0  0  0  0  0  0  # atno 11005 bound_to 11000
  144.7303  140.4651  143.6943 LP  0  0  0  0  0  0  0  0  0  0  0  0  # atno 17320 bound_to 7965
  145.6191  139.1522  143.3033 LP  0  0  0  0  0  0  0  0  0  0  0  0  # atno 17321 bound_to 7965
  139.7542  144.7525  151.0460 LP  0  0  0  0  0  0  0  0  0  0  0  0  # atno 17342 bound_to 10162
  140.7796  143.4825  151.0000 LP  0  0  0  0  0  0  0  0  0  0  0  0  # atno 17343 bound_to 10162
  157.1732  131.0374  151.2785 LP  0  0  0  0  0  0  0  0  0  0  0  0  # atno 17370 bound_to 10713
  157.4211  130.7438  149.6914 LP  0  0  0  0  0  0  0  0  0  0  0  0  # atno 17371 bound_to 10713
  140.5860  134.5699  157.5489 LP  0  0  0  0  0  0  0  0  0  0  0  0  # atno 17394 bound_to 11000
  139.9437  134.7741  156.0615 LP  0  0  0  0  0  0  0  0  0  0  0  0  # atno 17395 bound_to 11000

$$$$
