AV-unprocessed.smi:2714|AV-procd|sdf|10481|dock5
  -GOLD-   2272014523D 1   1.00000     0.00000
 Structure written by MMmdl.
 46 47  0  0  0  0  0  0  0  0  1 V2000
  144.9805  132.0734  150.7849 C   0  0  0  0  0  0  0  0  0  0  0  0
  145.2089  133.5826  150.6488 C   0  0  0  0  0  0  0  0  0  0  0  0
  145.7838  134.2086  151.9328 C   0  0  0  0  0  0  0  0  0  0  0  0
  145.5128  135.7226  152.0784 C   0  0  1  0  0  0  0  0  0  0  0  0
  144.0319  136.0445  151.8139 C   0  0  0  0  0  0  0  0  0  0  0  0
  145.9237  136.2514  153.4603 C   0  0  0  0  0  0  0  0  0  0  0  0
  145.3013  135.9049  154.4645 O   0  0  0  0  0  0  0  0  0  0  0  0
  146.9700  137.0915  153.4904 N   0  0  0  0  0  0  0  0  0  0  0  0
  147.4935  137.7639  154.6749 C   0  0  0  0  0  0  0  0  0  0  0  0
  147.6673  139.2603  154.4515 C   0  0  0  0  0  0  0  0  0  0  0  0
  146.5771  140.0202  153.9759 C   0  0  0  0  0  0  0  0  0  0  0  0
  146.7316  141.4064  153.7943 C   0  0  0  0  0  0  0  0  0  0  0  0
  147.9776  141.9834  154.0998 C   0  0  0  0  0  0  0  0  0  0  0  0
  149.0292  141.2716  154.5546 N   0  0  0  0  0  0  0  0  0  0  0  0
  148.8852  139.9352  154.7307 C   0  0  0  0  0  0  0  0  0  0  0  0
  150.0073  139.2195  155.1814 N   0  0  0  0  0  0  0  0  0  0  0  0
  151.1063  140.0201  155.7085 C   0  0  0  0  0  0  0  0  0  0  0  0
  152.1788  139.0991  156.3142 C   0  0  0  0  0  0  0  0  0  0  0  0
  152.6152  138.1663  155.3291 O   0  0  0  0  0  0  0  0  0  0  0  0
  151.5519  137.3361  154.8696 C   0  0  0  0  0  0  0  0  0  0  0  0
  150.4505  138.2037  154.2357 C   0  0  0  0  0  0  0  0  0  0  0  0
  144.5768  131.6566  149.8619 H   0  0  0  0  0  0  0  0  0  0  0  0
  144.2752  131.8518  151.5863 H   0  0  0  0  0  0  0  0  0  0  0  0
  145.9129  131.5527  151.0047 H   0  0  0  0  0  0  0  0  0  0  0  0
  145.8801  133.7618  149.8084 H   0  0  0  0  0  0  0  0  0  0  0  0
  144.2642  134.0663  150.3979 H   0  0  0  0  0  0  0  0  0  0  0  0
  145.3516  133.6931  152.7915 H   0  0  0  0  0  0  0  0  0  0  0  0
  146.8571  134.0169  151.9821 H   0  0  0  0  0  0  0  0  0  0  0  0
  146.1004  136.2447  151.3213 H   0  0  0  0  0  0  0  0  0  0  0  0
  143.8279  137.1092  151.9358 H   0  0  0  0  0  0  0  0  0  0  0  0
  143.3750  135.4996  152.4931 H   0  0  0  0  0  0  0  0  0  0  0  0
  143.7502  135.7741  150.7960 H   0  0  0  0  0  0  0  0  0  0  0  0
  147.4193  137.3107  152.6132 H   0  0  0  0  0  0  0  0  0  0  0  0
  146.8667  137.5961  155.5515 H   0  0  0  0  0  0  0  0  0  0  0  0
  148.4586  137.3161  154.9136 H   0  0  0  0  0  0  0  0  0  0  0  0
  145.6297  139.5498  153.7565 H   0  0  0  0  0  0  0  0  0  0  0  0
  145.9143  142.0128  153.4331 H   0  0  0  0  0  0  0  0  0  0  0  0
  148.1348  143.0446  153.9752 H   0  0  0  0  0  0  0  0  0  0  0  0
  151.5464  140.6212  154.9114 H   0  0  0  0  0  0  0  0  0  0  0  0
  150.7302  140.7083  156.4666 H   0  0  0  0  0  0  0  0  0  0  0  0
  153.0325  139.6867  156.6514 H   0  0  0  0  0  0  0  0  0  0  0  0
  151.7919  138.5694  157.1858 H   0  0  0  0  0  0  0  0  0  0  0  0
  151.9434  136.6319  154.1355 H   0  0  0  0  0  0  0  0  0  0  0  0
  151.1554  136.7452  155.6964 H   0  0  0  0  0  0  0  0  0  0  0  0
  149.6104  137.5779  153.9329 H   0  0  0  0  0  0  0  0  0  0  0  0
  150.8301  138.6898  153.3359 H   0  0  0  0  0  0  0  0  0  0  0  0
  1  2  1  0  0  0  0
  1 22  1  0  0  0  0
  1 23  1  0  0  0  0
  1 24  1  0  0  0  0
  2  3  1  0  0  0  0
  2 25  1  0  0  0  0
  2 26  1  0  0  0  0
  3  4  1  0  0  0  0
  3 27  1  0  0  0  0
  3 28  1  0  0  0  0
  4  5  1  0  0  0  0
  4  6  1  0  0  0  0
  4 29  1  0  0  0  0
  5 30  1  0  0  0  0
  5 31  1  0  0  0  0
  5 32  1  0  0  0  0
  6  7  2  0  0  0  0
  6  8  1  0  0  0  0
  8  9  1  0  0  0  0
  8 33  1  0  0  0  0
  9 10  1  0  0  0  0
  9 34  1  0  0  0  0
  9 35  1  0  0  0  0
 10 15  1  0  0  0  0
 10 11  2  0  0  0  0
 11 12  1  0  0  0  0
 11 36  1  0  0  0  0
 12 13  2  0  0  0  0
 12 37  1  0  0  0  0
 13 14  1  0  0  0  0
 13 38  1  0  0  0  0
 14 15  2  0  0  0  0
 15 16  1  0  0  0  0
 16 21  1  0  0  0  0
 16 17  1  0  0  0  0
 17 18  1  0  0  0  0
 17 39  1  0  0  0  0
 17 40  1  0  0  0  0
 18 19  1  0  0  0  0
 18 41  1  0  0  0  0
 18 42  1  0  0  0  0
 19 20  1  0  0  0  0
 20 21  1  0  0  0  0
 20 43  1  0  0  0  0
 20 44  1  0  0  0  0
 21 45  1  0  0  0  0
 21 46  1  0  0  0  0
M  END
> <s_m_source_file>
AV-unprocessed.smi

> <i_m_source_file_index>
2714

> <i_lp_mmshare_version>
43012

> <i_f3d_flags>
0

> <s_epik_input>
W0NIM11bQ0gyXVtDSDJdW0NASF0oW0NIM10pQyg9TylbTkhdW0NIMl1jMVtjSF1bY0hdW2NIXW5jMU4yW0NIMl1bQ0gyXU9bQ0gyXVtDSDJdMg==

> <s_epik_cmdline>
J2VwaWtfcHl0aG9uJywgJy1waCcsICc3LjAnLCAnLXRuJywgJzgnLCAnLW1hJywgJzIwMCcsICctbWV0YWxfYmluZGluZycsICctaW1hZScsICc8aW5maWxlLm1hZT4nLCAnLW9tYWUnLCAnPG91dGZpbGUubWFlPic=

> <r_lp_tautomer_probability>
1

> <r_epik_Ionization_Penalty>
0.00517355

> <r_epik_Ionization_Penalty_Charging>
0

> <r_epik_Ionization_Penalty_Neutral>
0.00517355

> <r_epik_State_Penalty>
0.00376978

> <r_epik_Charging_Adjusted_Penalty>
0.00376978

> <i_epik_Tot_Q>
0

> <i_epik_Tot_abs_Q>
0

> <r_epik_Metal_State_Penalty>
-0

> <b_epik_Metal_Only>
0

> <s_lp_Force_Field>
OPLS_2005

> <r_lp_Energy>
17.5243

> <b_lp_Chiralities_Consistent>
1

> <s_lp_Variant>
AV-unprocessed.smi:2714-2

> <Gold.Version>
5.8.1

> <Gold.Id.Protein>
6NUR|6NUR_protein|mol2

> <Gold.PLP.Fitness>
35.9984

> <Gold.PLP.PLP>
-32.6162

> <Gold.PLP.part.hbond>
-1.0363

> <Gold.PLP.part.metal>
0.0000

> <Gold.PLP.part.buried>
-3.2782

> <Gold.PLP.part.nonpolar>
-28.8272

> <Gold.PLP.part.repulsive>
0.2819

> <Gold.PLP.ligand.clash>
0.0000

> <Gold.PLP.ligand.torsion>
0.5085

> <Gold.PLP.Chemscore.Hbond>
0.4000

> <Gold.PLP.Chemscore.CHOScore>
1.0000

> <Gold.PLP.Chemscore.Metal>
0.0000

> <Gold.Chemscore.Hbonds>
donor molecule, donor type, donor heavy atom, donor atom, acceptor molecule, acceptor atom, score
      L1  H     8    33       P1  7948  0.48
      L1  C    13    38       P1  8028  1.00

> <Gold.PLP.Chemscore.Internal.Correction>
0.1992

> <Gold.Rescore>
     Score         DG    S(hbond)    S(metal)    S(lipo)     H(rot)  DE(clash)    DE(int)     intcor
     12.58     -13.28       0.72        0.00      83.75       1.72       0.01       0.69       ----

> <Gold.Chemscore.Fitness>
12.5789

> <Gold.Chemscore.DG>
-13.2791

> <Gold.Chemscore.ZeroCoef>
-5.4800

> <Gold.Chemscore.Hbond>
0.7191

> <Gold.Chemscore.Metal>
0.0000

> <Gold.Chemscore.Lipo>
83.7472

> <Gold.Chemscore.Internal_Hbond>
0.0000

> <Gold.Chemscore.DEClash>
0.0108

> <Gold.Chemscore.DEInternal>
0.6894

> <Gold.Chemscore.Rot>
1.7192

> <Gold.Chemscore.Internal.Correction>
   9.000000E+99

> <Gold.Chemscore.Hbonds>
donor molecule, donor type, donor heavy atom, donor atom, acceptor molecule, acceptor atom, score
      L1  H     8    33       P1  7948  0.46

> <Gold.Chemscore.Hbond.Weighted>
-2.4017

> <Gold.Chemscore.Metal.Weighted>
-0.0000

> <Gold.Chemscore.Lipo.Weighted>
-9.7984

> <Gold.Chemscore.Internal_Hbond.Weighted>
0.0000

> <Gold.Chemscore.DEClash.Weighted>
0.0108

> <Gold.Chemscore.DEInternal.Weighted>
0.6894

> <Gold.Chemscore.Rot.Weighted>
4.4011

> <Gold.Chemscore.Internal.Correction.Weighted>
   9.000000E+99

> <Gold.Protein.RotatedTorsions>
[ 6907 6896 6895 6894 ] final -169.21 input  -60.11 | X-H torsion
[ 7974 7965 7964 7962 ] final   22.46 input  175.53 | X-H torsion
[ 8008 7997 7996 7995 ] final  -77.52 input   59.86 | X-H torsion
[ 10167 10162 10161 10158 ] final  -69.31 input  -65.29 | X-H torsion
[ 10718 10713 10712 10709 ] final   71.96 input   66.30 | X-H torsion
[ 10763 10752 10751 10750 ] final  178.00 input  -60.55 | X-H torsion
[ 11005 11000 10999 10996 ] final -164.06 input  -57.11 | X-H torsion

> <Gold.Protein.ActiveResidues>
 VAL166  LYS551  ARG553  GLY616  TRP617  ASP618  TYR619  PRO620  LYS621  CYS622 
 ASP623  PHE694  ASN695  SER759  ASP760  ASP761  ALA762  ILE779  LEU786  VAL792 
 PHE793  MET794  SER795  GLU796  ALA797  LYS798  CYS799  TRP800  GLU811  SER814 

> <Gold.Protein.RotatedAtoms>
  151.4880  133.3531  159.2848 H   0  0  0  0  0  0  0  0  0  0  0  0  # atno 6907 bound_to 6896
  150.8853  134.8252  159.7265 H   0  0  0  0  0  0  0  0  0  0  0  0  # atno 6908 bound_to 6896
  152.4789  134.4783  159.9709 H   0  0  0  0  0  0  0  0  0  0  0  0  # atno 6909 bound_to 6896
  146.2028  139.7882  142.8749 H   0  0  0  0  0  0  0  0  0  0  0  0  # atno 7974 bound_to 7965
  154.5604  140.0709  156.8810 H   0  0  0  0  0  0  0  0  0  0  0  0  # atno 8008 bound_to 7997
  155.2822  140.3372  155.4239 H   0  0  0  0  0  0  0  0  0  0  0  0  # atno 8009 bound_to 7997
  156.2037  140.1732  156.7830 H   0  0  0  0  0  0  0  0  0  0  0  0  # atno 8010 bound_to 7997
  140.5440  143.2314  151.7036 H   0  0  0  0  0  0  0  0  0  0  0  0  # atno 10167 bound_to 10162
  157.6478  130.9555  150.0862 H   0  0  0  0  0  0  0  0  0  0  0  0  # atno 10718 bound_to 10713
  154.5019  135.2784  155.1414 H   0  0  0  0  0  0  0  0  0  0  0  0  # atno 10763 bound_to 10752
  154.3044  135.6241  153.5442 H   0  0  0  0  0  0  0  0  0  0  0  0  # atno 10764 bound_to 10752
  152.9904  135.5704  154.5463 H   0  0  0  0  0  0  0  0  0  0  0  0  # atno 10765 bound_to 10752
  140.5911  134.5043  157.5193 H   0  0  0  0  0  0  0  0  0  0  0  0  # atno 11005 bound_to 11000
  145.3426  141.0291  143.3384 LP  0  0  0  0  0  0  0  0  0  0  0  0  # atno 17320 bound_to 7965
  144.8721  139.5023  143.6762 LP  0  0  0  0  0  0  0  0  0  0  0  0  # atno 17321 bound_to 7965
  139.5000  144.3924  152.0266 LP  0  0  0  0  0  0  0  0  0  0  0  0  # atno 17342 bound_to 10162
  140.3035  144.3619  150.6053 LP  0  0  0  0  0  0  0  0  0  0  0  0  # atno 17343 bound_to 10162
  156.1824  130.3650  149.9017 LP  0  0  0  0  0  0  0  0  0  0  0  0  # atno 17370 bound_to 10713
  156.6966  130.8916  151.3594 LP  0  0  0  0  0  0  0  0  0  0  0  0  # atno 17371 bound_to 10713
  139.9273  134.8030  156.1030 LP  0  0  0  0  0  0  0  0  0  0  0  0  # atno 17394 bound_to 11000
  141.0934  133.6705  156.2591 LP  0  0  0  0  0  0  0  0  0  0  0  0  # atno 17395 bound_to 11000

$$$$
