AV-unprocessed.smi:813|AV-procd|sdf|3820|dock2
  -GOLD-   22720 1263D 1   1.00000     0.00000
 Structure written by MMmdl.
 35 36  0  0  0  0  0  0  0  0  2 V2000
  148.3777  140.0244  155.4719 C   0  0  0  0  0  0  0  0  0  0  0  0
  148.8101  141.4938  155.6082 C   0  0  1  0  0  0  0  0  0  0  0  0
  147.7354  142.2227  156.2811 N   0  0  0  0  0  0  0  0  0  0  0  0
  147.3142  142.0209  157.5391 C   0  0  0  0  0  0  0  0  0  0  0  0
  147.8518  141.1573  158.2366 O   0  0  0  0  0  0  0  0  0  0  0  0
  146.2963  142.8305  157.9099 N   0  5  0  0  0  0  0  0  0  0  0  0
  146.1978  143.2443  159.1840 C   0  0  0  0  0  0  0  0  0  0  0  0
  146.7646  142.5763  160.2017 N   0  0  0  0  0  0  0  0  0  0  0  0
  146.5470  143.1742  161.4358 N   0  0  0  0  0  0  0  0  0  0  0  0
  145.8264  144.2889  161.3148 C   0  0  0  0  0  0  0  0  0  0  0  0
  145.3486  144.7099  159.6838 S   0  0  0  0  0  0  0  0  0  0  0  0
  150.0981  141.5448  156.4451 C   0  0  0  0  0  0  0  0  0  0  0  0
  150.7441  140.5196  156.6683 O   0  0  0  0  0  0  0  0  0  0  0  0
  150.4620  142.7551  156.8947 N   0  0  0  0  0  0  0  0  0  0  0  0
  151.6338  143.0280  157.7217 C   0  0  0  0  0  0  0  0  0  0  0  0
  151.3527  142.7345  159.2091 C   0  0  0  0  0  0  0  0  0  0  0  0
  151.2425  144.0977  159.8912 C   0  0  0  0  0  0  0  0  0  0  0  0
  152.1866  144.9897  159.0917 C   0  0  0  0  0  0  0  0  0  0  0  0
  152.0228  144.5173  157.6457 C   0  0  0  0  0  0  0  0  0  0  0  0
  149.1449  139.4307  154.9735 H   0  0  0  0  0  0  0  0  0  0  0  0
  147.4670  139.9421  154.8775 H   0  0  0  0  0  0  0  0  0  0  0  0
  148.1787  139.5662  156.4420 H   0  0  0  0  0  0  0  0  0  0  0  0
  148.9818  141.9153  154.6157 H   0  0  0  0  0  0  0  0  0  0  0  0
  147.2621  142.9337  155.7433 H   0  0  0  0  0  0  0  0  0  0  0  0
  145.5767  144.8681  162.1911 H   0  0  0  0  0  0  0  0  0  0  0  0
  149.8703  143.5407  156.6662 H   0  0  0  0  0  0  0  0  0  0  0  0
  152.4710  142.4155  157.3814 H   0  0  0  0  0  0  0  0  0  0  0  0
  150.4648  142.1222  159.3740 H   0  0  0  0  0  0  0  0  0  0  0  0
  152.1981  142.1895  159.6312 H   0  0  0  0  0  0  0  0  0  0  0  0
  150.2211  144.4709  159.8044 H   0  0  0  0  0  0  0  0  0  0  0  0
  151.4958  144.0585  160.9510 H   0  0  0  0  0  0  0  0  0  0  0  0
  151.9675  146.0507  159.2144 H   0  0  0  0  0  0  0  0  0  0  0  0
  153.2133  144.8213  159.4195 H   0  0  0  0  0  0  0  0  0  0  0  0
  152.9309  144.6751  157.0631 H   0  0  0  0  0  0  0  0  0  0  0  0
  151.2316  145.0989  157.1697 H   0  0  0  0  0  0  0  0  0  0  0  0
  1  2  1  0  0  0  0
  1 20  1  0  0  0  0
  1 21  1  0  0  0  0
  1 22  1  0  0  0  0
  2  3  1  0  0  0  0
  2 12  1  0  0  0  0
  2 23  1  0  0  0  0
  3  4  1  0  0  0  0
  3 24  1  0  0  0  0
  4  5  2  0  0  0  0
  4  6  1  0  0  0  0
  6  7  1  0  0  0  0
  7 11  1  0  0  0  0
  7  8  2  0  0  0  0
  8  9  1  0  0  0  0
  9 10  2  0  0  0  0
 10 11  1  0  0  0  0
 10 25  1  0  0  0  0
 12 13  2  0  0  0  0
 12 14  1  0  0  0  0
 14 15  1  0  0  0  0
 14 26  1  0  0  0  0
 15 19  1  0  0  0  0
 15 16  1  0  0  0  0
 15 27  1  0  0  0  0
 16 17  1  0  0  0  0
 16 28  1  0  0  0  0
 16 29  1  0  0  0  0
 17 18  1  0  0  0  0
 17 30  1  0  0  0  0
 17 31  1  0  0  0  0
 18 19  1  0  0  0  0
 18 32  1  0  0  0  0
 18 33  1  0  0  0  0
 19 34  1  0  0  0  0
 19 35  1  0  0  0  0
M  CHG  1   6  -1
M  END
> <s_m_source_file>
AV-unprocessed.smi

> <i_m_source_file_index>
813

> <i_lp_mmshare_version>
43012

> <i_f3d_flags>
0

> <s_epik_input>
W0NIMl0xW0NIMl1bQ0gyXVtDSDJdW0NIXTFbTkhdQyg9TylbQ0BIXShbQ0gzXSlbTkhdQyg9TylbTkhdYzJubltjSF1zMg==

> <s_epik_cmdline>
J2VwaWtfcHl0aG9uJywgJy1waCcsICc3LjAnLCAnLXRuJywgJzgnLCAnLW1hJywgJzIwMCcsICctbWV0YWxfYmluZGluZycsICctaW1hZScsICc8aW5maWxlLm1hZT4nLCAnLW9tYWUnLCAnPG91dGZpbGUubWFlPic=

> <r_lp_tautomer_probability>
1

> <r_epik_Ionization_Penalty>
3.13682

> <r_epik_Ionization_Penalty_Charging>
3.09647

> <r_epik_Ionization_Penalty_Neutral>
0.0403479

> <r_epik_State_Penalty>
3.09328

> <r_epik_Charging_Adjusted_Penalty>
6.18976

> <i_epik_Tot_Q>
-1

> <i_epik_Tot_abs_Q>
1

> <r_epik_Metal_State_Penalty>
0.461392

> <b_epik_Metal_Only>
1

> <s_lp_Force_Field>
OPLS_2005

> <r_lp_Energy>
15.2454

> <b_lp_Chiralities_Consistent>
1

> <s_lp_Variant>
AV-unprocessed.smi:813-4

> <Gold.Version>
5.8.1

> <Gold.Id.Protein>
6NUR|6NUR_protein|mol2

> <Gold.PLP.Fitness>
37.8730

> <Gold.PLP.PLP>
-33.6443

> <Gold.PLP.part.hbond>
-6.2585

> <Gold.PLP.part.metal>
0.0000

> <Gold.PLP.part.buried>
-6.1786

> <Gold.PLP.part.nonpolar>
-22.2389

> <Gold.PLP.part.repulsive>
0.2800

> <Gold.PLP.ligand.clash>
0.0000

> <Gold.PLP.ligand.torsion>
0.9444

> <Gold.PLP.Chemscore.Hbond>
2.0094

> <Gold.PLP.Chemscore.CHOScore>
0.0000

> <Gold.PLP.Chemscore.Metal>
0.0000

> <Gold.Chemscore.Hbonds>
donor molecule, donor type, donor heavy atom, donor atom, acceptor molecule, acceptor atom, score
      L1  H     3    24       P1  8028  0.01
      L1  H    14    26       P1  8028  1.00
      P1  H  6934  6946       L1     8  1.00

> <Gold.PLP.Chemscore.Internal.Correction>
0.0893

> <Gold.Rescore>
     Score         DG    S(hbond)    S(metal)    S(lipo)     H(rot)  DE(clash)    DE(int)     intcor
     11.85     -15.74       1.78        0.00      74.60       1.72       0.00       3.89       ----

> <Gold.Chemscore.Fitness>
11.8523

> <Gold.Chemscore.DG>
-15.7442

> <Gold.Chemscore.ZeroCoef>
-5.4800

> <Gold.Chemscore.Hbond>
1.7778

> <Gold.Chemscore.Metal>
0.0000

> <Gold.Chemscore.Lipo>
74.5976

> <Gold.Chemscore.Internal_Hbond>
0.0000

> <Gold.Chemscore.DEClash>
0.0004

> <Gold.Chemscore.DEInternal>
3.8915

> <Gold.Chemscore.Rot>
1.7194

> <Gold.Chemscore.Internal.Correction>
   9.000000E+99

> <Gold.Chemscore.Hbonds>
donor molecule, donor type, donor heavy atom, donor atom, acceptor molecule, acceptor atom, score
      L1  H    14    26       P1  8028  1.00
      P1  H  6934  6946       L1     8  0.24

> <Gold.Chemscore.Hbond.Weighted>
-5.9379

> <Gold.Chemscore.Metal.Weighted>
-0.0000

> <Gold.Chemscore.Lipo.Weighted>
-8.7279

> <Gold.Chemscore.Internal_Hbond.Weighted>
0.0000

> <Gold.Chemscore.DEClash.Weighted>
0.0004

> <Gold.Chemscore.DEInternal.Weighted>
3.8915

> <Gold.Chemscore.Rot.Weighted>
4.4016

> <Gold.Chemscore.Internal.Correction.Weighted>
   9.000000E+99

> <Gold.Protein.RotatedTorsions>
[ 6907 6896 6895 6894 ] final  120.49 input  -60.11 | X-H torsion
[ 7974 7965 7964 7962 ] final   -5.61 input  175.53 | X-H torsion
[ 8008 7997 7996 7995 ] final   79.71 input   59.86 | X-H torsion
[ 10167 10162 10161 10158 ] final   97.95 input  -65.29 | X-H torsion
[ 10718 10713 10712 10709 ] final  -63.03 input   66.30 | X-H torsion
[ 10763 10752 10751 10750 ] final  108.57 input  -60.55 | X-H torsion
[ 11005 11000 10999 10996 ] final  146.67 input  -57.11 | X-H torsion

> <Gold.Protein.ActiveResidues>
 VAL166  LYS551  ARG553  GLY616  TRP617  ASP618  TYR619  PRO620  LYS621  CYS622 
 ASP623  PHE694  ASN695  SER759  ASP760  ASP761  ALA762  ILE779  LEU786  VAL792 
 PHE793  MET794  SER795  GLU796  ALA797  LYS798  CYS799  TRP800  GLU811  SER814 

> <Gold.Protein.RotatedAtoms>
  152.4394  133.7420  159.6645 H   0  0  0  0  0  0  0  0  0  0  0  0  # atno 6907 bound_to 6896
  150.8282  133.8125  159.3115 H   0  0  0  0  0  0  0  0  0  0  0  0  # atno 6908 bound_to 6896
  151.5786  135.1062  160.0064 H   0  0  0  0  0  0  0  0  0  0  0  0  # atno 6909 bound_to 6896
  146.2349  140.2046  142.8334 H   0  0  0  0  0  0  0  0  0  0  0  0  # atno 7974 bound_to 7965
  155.8734  140.3448  155.5837 H   0  0  0  0  0  0  0  0  0  0  0  0  # atno 8008 bound_to 7997
  155.7801  140.0857  157.2082 H   0  0  0  0  0  0  0  0  0  0  0  0  # atno 8009 bound_to 7997
  154.4019  140.1502  156.3030 H   0  0  0  0  0  0  0  0  0  0  0  0  # atno 8010 bound_to 7997
  139.7754  144.6907  151.0097 H   0  0  0  0  0  0  0  0  0  0  0  0  # atno 10167 bound_to 10162
  156.0817  130.4216  150.1219 H   0  0  0  0  0  0  0  0  0  0  0  0  # atno 10718 bound_to 10713
  153.4225  135.3808  155.2120 H   0  0  0  0  0  0  0  0  0  0  0  0  # atno 10763 bound_to 10752
  154.8745  135.3820  154.4367 H   0  0  0  0  0  0  0  0  0  0  0  0  # atno 10764 bound_to 10752
  153.4889  135.7088  153.5958 H   0  0  0  0  0  0  0  0  0  0  0  0  # atno 10765 bound_to 10752
  140.0812  134.9096  157.1504 H   0  0  0  0  0  0  0  0  0  0  0  0  # atno 11005 bound_to 11000
  144.9755  140.8409  143.5429 LP  0  0  0  0  0  0  0  0  0  0  0  0  # atno 17320 bound_to 7965
  145.2033  139.2241  143.5181 LP  0  0  0  0  0  0  0  0  0  0  0  0  # atno 17321 bound_to 7965
  140.7816  143.4542  151.0369 LP  0  0  0  0  0  0  0  0  0  0  0  0  # atno 17342 bound_to 10162
  139.8224  143.7802  152.3177 LP  0  0  0  0  0  0  0  0  0  0  0  0  # atno 17343 bound_to 10162
  156.9249  130.9695  151.3542 LP  0  0  0  0  0  0  0  0  0  0  0  0  # atno 17370 bound_to 10713
  157.5936  130.8461  149.8696 LP  0  0  0  0  0  0  0  0  0  0  0  0  # atno 17371 bound_to 10713
  140.3485  134.2625  155.7202 LP  0  0  0  0  0  0  0  0  0  0  0  0  # atno 17394 bound_to 11000
  141.2047  133.7879  157.0271 LP  0  0  0  0  0  0  0  0  0  0  0  0  # atno 17395 bound_to 11000

$$$$
