AV-unprocessed.smi:387|AV-procd|sdf|2474|dock2
  -GOLD-   2262022413D 1   1.00000     0.00000
 Structure written by MMmdl.
 39 40  0  0  0  0  0  0  0  0  1 V2000
  146.8252  139.9124  156.0485 C   0  0  0  0  0  0  0  0  0  0  0  0
  147.5596  141.2630  155.9759 C   0  0  0  0  0  0  0  0  0  0  0  0
  147.3198  141.8900  154.5863 C   0  0  0  0  0  0  0  0  0  0  0  0
  147.0212  142.1866  157.0891 C   0  0  0  0  0  0  0  0  0  0  0  0
  148.9862  140.9829  156.1778 N   0  0  0  0  0  0  0  0  0  0  0  0
  149.5921  140.4627  157.2595 C   0  0  0  0  0  0  0  0  0  0  0  0
  148.9956  140.1293  158.2844 O   0  0  0  0  0  0  0  0  0  0  0  0
  151.1163  140.3035  157.1473 C   0  0  0  0  0  0  0  0  0  0  0  0
  151.8723  141.1545  158.0923 N   0  0  0  0  0  0  0  0  0  0  0  0
  152.6729  140.5267  159.0804 C   0  0  0  0  0  0  0  0  0  0  0  0
  152.7643  139.2991  159.1379 O   0  0  0  0  0  0  0  0  0  0  0  0
  153.3486  141.4296  160.0092 C   0  0  0  0  0  0  0  0  0  0  0  0
  154.1364  140.8351  161.0377 C   0  0  0  0  0  0  0  0  0  0  0  0
  154.7965  140.3628  161.8627 N   0  0  0  0  0  0  0  0  0  0  0  0
  153.2211  142.7675  159.8947 C   0  0  0  0  0  0  0  0  0  0  0  0
  152.4693  143.3586  158.9028 N   0  0  0  0  0  0  0  0  0  0  0  0
  152.2192  144.7723  158.8953 C   0  0  0  0  0  0  0  0  0  0  0  0
  151.7622  145.4762  160.1582 C   0  0  0  0  0  0  0  0  0  0  0  0
  150.7942  145.2660  159.0194 C   0  0  0  0  0  0  0  0  0  0  0  0
  151.7290  142.5606  158.0033 C   0  0  0  0  0  0  0  0  0  0  0  0
  150.9714  143.0693  157.1731 O   0  0  0  0  0  0  0  0  0  0  0  0
  145.7512  140.0360  155.9048 H   0  0  0  0  0  0  0  0  0  0  0  0
  146.9726  139.4309  157.0160 H   0  0  0  0  0  0  0  0  0  0  0  0
  147.1809  139.2235  155.2811 H   0  0  0  0  0  0  0  0  0  0  0  0
  147.7248  141.2620  153.7919 H   0  0  0  0  0  0  0  0  0  0  0  0
  147.7790  142.8742  154.4945 H   0  0  0  0  0  0  0  0  0  0  0  0
  146.2543  142.0162  154.3918 H   0  0  0  0  0  0  0  0  0  0  0  0
  145.9427  142.3213  156.9993 H   0  0  0  0  0  0  0  0  0  0  0  0
  147.4695  143.1794  157.0529 H   0  0  0  0  0  0  0  0  0  0  0  0
  147.2176  141.7719  158.0786 H   0  0  0  0  0  0  0  0  0  0  0  0
  149.5851  141.2157  155.3989 H   0  0  0  0  0  0  0  0  0  0  0  0
  151.3655  139.2502  157.2858 H   0  0  0  0  0  0  0  0  0  0  0  0
  151.4099  140.5100  156.1167 H   0  0  0  0  0  0  0  0  0  0  0  0
  153.7307  143.4034  160.6044 H   0  0  0  0  0  0  0  0  0  0  0  0
  152.8648  145.3528  158.2384 H   0  0  0  0  0  0  0  0  0  0  0  0
  151.6098  144.8790  161.0554 H   0  0  0  0  0  0  0  0  0  0  0  0
  152.1282  146.4865  160.3284 H   0  0  0  0  0  0  0  0  0  0  0  0
  150.5126  146.1375  158.4319 H   0  0  0  0  0  0  0  0  0  0  0  0
  150.0064  144.5293  159.1661 H   0  0  0  0  0  0  0  0  0  0  0  0
  1  2  1  0  0  0  0
  1 22  1  0  0  0  0
  1 23  1  0  0  0  0
  1 24  1  0  0  0  0
  2  3  1  0  0  0  0
  2  4  1  0  0  0  0
  2  5  1  0  0  0  0
  3 25  1  0  0  0  0
  3 26  1  0  0  0  0
  3 27  1  0  0  0  0
  4 28  1  0  0  0  0
  4 29  1  0  0  0  0
  4 30  1  0  0  0  0
  5  6  1  0  0  0  0
  5 31  1  0  0  0  0
  6  7  2  0  0  0  0
  6  8  1  0  0  0  0
  8  9  1  0  0  0  0
  8 32  1  0  0  0  0
  8 33  1  0  0  0  0
  9 20  1  0  0  0  0
  9 10  1  0  0  0  0
 10 11  2  0  0  0  0
 10 12  1  0  0  0  0
 12 13  1  0  0  0  0
 12 15  2  0  0  0  0
 13 14  3  0  0  0  0
 15 16  1  0  0  0  0
 15 34  1  0  0  0  0
 16 17  1  0  0  0  0
 16 20  1  0  0  0  0
 17 19  1  0  0  0  0
 17 18  1  0  0  0  0
 17 35  1  0  0  0  0
 18 19  1  0  0  0  0
 18 36  1  0  0  0  0
 18 37  1  0  0  0  0
 19 38  1  0  0  0  0
 19 39  1  0  0  0  0
 20 21  2  0  0  0  0
M  END
> <s_m_source_file>
AV-unprocessed.smi

> <i_m_source_file_index>
387

> <i_lp_mmshare_version>
43012

> <i_f3d_flags>
0

> <s_epik_input>
W0NIM11DKFtDSDNdKShbQ0gzXSlbTkhdQyg9TylbQ0gyXW4xYyg9TyljKEMjTilbY0hdbihjMT1PKVtDSF0yW0NIMl1bQ0gyXTI=

> <s_epik_cmdline>
J2VwaWtfcHl0aG9uJywgJy1waCcsICc3LjAnLCAnLXRuJywgJzgnLCAnLW1hJywgJzIwMCcsICctbWV0YWxfYmluZGluZycsICctaW1hZScsICc8aW5maWxlLm1hZT4nLCAnLW9tYWUnLCAnPG91dGZpbGUubWFlPic=

> <r_lp_tautomer_probability>
1

> <r_epik_Ionization_Penalty>
2.47136e-08

> <r_epik_Ionization_Penalty_Charging>
8.30431e-11

> <r_epik_Ionization_Penalty_Neutral>
2.46306e-08

> <r_epik_State_Penalty>
-0

> <r_epik_Charging_Adjusted_Penalty>
8.30431e-11

> <i_epik_Tot_Q>
0

> <i_epik_Tot_abs_Q>
0

> <r_epik_Metal_State_Penalty>
-0

> <b_epik_Metal_Only>
0

> <s_lp_Force_Field>
OPLS_2005

> <r_lp_Energy>
29.2267

> <b_lp_Chiralities_Consistent>
1

> <s_lp_Variant>
AV-unprocessed.smi:387-1

> <Gold.Version>
5.8.1

> <Gold.Id.Protein>
6NUR|6NUR_protein|mol2

> <Gold.PLP.Fitness>
42.2377

> <Gold.PLP.PLP>
-42.3260

> <Gold.PLP.part.hbond>
-0.4808

> <Gold.PLP.part.metal>
0.0000

> <Gold.PLP.part.buried>
-6.1907

> <Gold.PLP.part.nonpolar>
-36.4549

> <Gold.PLP.part.repulsive>
0.5645

> <Gold.PLP.ligand.clash>
0.0000

> <Gold.PLP.ligand.torsion>
0.1516

> <Gold.PLP.Chemscore.Hbond>
0.0000

> <Gold.PLP.Chemscore.CHOScore>
0.0000

> <Gold.PLP.Chemscore.Metal>
0.0000

> <Gold.PLP.Chemscore.Internal.Correction>
0.2148

> <Gold.Rescore>
     Score         DG    S(hbond)    S(metal)    S(lipo)     H(rot)  DE(clash)    DE(int)     intcor
      8.19      -9.72       0.00        0.00      75.08       1.78       0.03       1.49       ----

> <Gold.Chemscore.Fitness>
8.1925

> <Gold.Chemscore.DG>
-9.7183

> <Gold.Chemscore.ZeroCoef>
-5.4800

> <Gold.Chemscore.Hbond>
0.0000

> <Gold.Chemscore.Metal>
0.0000

> <Gold.Chemscore.Lipo>
75.0786

> <Gold.Chemscore.Internal_Hbond>
0.0000

> <Gold.Chemscore.DEClash>
0.0331

> <Gold.Chemscore.DEInternal>
1.4927

> <Gold.Chemscore.Rot>
1.7757

> <Gold.Chemscore.Internal.Correction>
   9.000000E+99

> <Gold.Chemscore.Hbond.Weighted>
-0.0000

> <Gold.Chemscore.Metal.Weighted>
-0.0000

> <Gold.Chemscore.Lipo.Weighted>
-8.7842

> <Gold.Chemscore.Internal_Hbond.Weighted>
0.0000

> <Gold.Chemscore.DEClash.Weighted>
0.0331

> <Gold.Chemscore.DEInternal.Weighted>
1.4927

> <Gold.Chemscore.Rot.Weighted>
4.5459

> <Gold.Chemscore.Internal.Correction.Weighted>
   9.000000E+99

> <Gold.Protein.RotatedTorsions>
[ 6907 6896 6895 6894 ] final  148.49 input  -60.11 | X-H torsion
[ 7974 7965 7964 7962 ] final   71.57 input  175.53 | X-H torsion
[ 8008 7997 7996 7995 ] final   17.63 input   59.86 | X-H torsion
[ 10167 10162 10161 10158 ] final -124.40 input  -65.29 | X-H torsion
[ 10718 10713 10712 10709 ] final  -70.79 input   66.30 | X-H torsion
[ 10763 10752 10751 10750 ] final -152.94 input  -60.55 | X-H torsion
[ 11005 11000 10999 10996 ] final  -44.23 input  -57.11 | X-H torsion

> <Gold.Protein.ActiveResidues>
 VAL166  LYS551  ARG553  GLY616  TRP617  ASP618  TYR619  PRO620  LYS621  CYS622 
 ASP623  PHE694  ASN695  SER759  ASP760  ASP761  ALA762  ILE779  LEU786  VAL792 
 PHE793  MET794  SER795  GLU796  ALA797  LYS798  CYS799  TRP800  GLU811  SER814 

> <Gold.Protein.RotatedAtoms>
  152.1408  133.4462  159.4765 H   0  0  0  0  0  0  0  0  0  0  0  0  # atno 6907 bound_to 6896
  150.6886  134.2308  159.4443 H   0  0  0  0  0  0  0  0  0  0  0  0  # atno 6908 bound_to 6896
  152.0198  134.9828  160.0621 H   0  0  0  0  0  0  0  0  0  0  0  0  # atno 6909 bound_to 6896
  145.7641  139.2814  143.1359 H   0  0  0  0  0  0  0  0  0  0  0  0  # atno 7974 bound_to 7965
  154.8942  140.2991  155.5353 H   0  0  0  0  0  0  0  0  0  0  0  0  # atno 8008 bound_to 7997
  156.3020  140.2419  156.3896 H   0  0  0  0  0  0  0  0  0  0  0  0  # atno 8009 bound_to 7997
  154.8587  140.0406  157.1640 H   0  0  0  0  0  0  0  0  0  0  0  0  # atno 8010 bound_to 7997
  139.9932  143.5619  152.2333 H   0  0  0  0  0  0  0  0  0  0  0  0  # atno 10167 bound_to 10162
  156.0392  130.4338  150.2348 H   0  0  0  0  0  0  0  0  0  0  0  0  # atno 10718 bound_to 10713
  154.7961  135.3224  154.7663 H   0  0  0  0  0  0  0  0  0  0  0  0  # atno 10763 bound_to 10752
  153.8341  135.6877  153.4815 H   0  0  0  0  0  0  0  0  0  0  0  0  # atno 10764 bound_to 10752
  153.1653  135.4644  154.9771 H   0  0  0  0  0  0  0  0  0  0  0  0  # atno 10765 bound_to 10752
  141.0436  133.6770  156.2843 H   0  0  0  0  0  0  0  0  0  0  0  0  # atno 11005 bound_to 11000
  146.0235  140.8326  142.9911 LP  0  0  0  0  0  0  0  0  0  0  0  0  # atno 17320 bound_to 7965
  144.6825  140.2663  143.7312 LP  0  0  0  0  0  0  0  0  0  0  0  0  # atno 17321 bound_to 7965
  139.6325  144.7646  151.2507 LP  0  0  0  0  0  0  0  0  0  0  0  0  # atno 17342 bound_to 10162
  140.7447  143.6455  150.8296 LP  0  0  0  0  0  0  0  0  0  0  0  0  # atno 17343 bound_to 10162
  157.0445  131.0045  151.3273 LP  0  0  0  0  0  0  0  0  0  0  0  0  # atno 17370 bound_to 10713
  157.5185  130.7983  149.7783 LP  0  0  0  0  0  0  0  0  0  0  0  0  # atno 17371 bound_to 10713
  140.6188  134.5383  157.5544 LP  0  0  0  0  0  0  0  0  0  0  0  0  # atno 17394 bound_to 11000
  139.9295  134.7992  156.0972 LP  0  0  0  0  0  0  0  0  0  0  0  0  # atno 17395 bound_to 11000

$$$$
