AV-unprocessed.smi:2057|AV-procd|sdf|8340|dock7
  -GOLD-   2272011 03D 1   1.00000     0.00000
 Structure written by MMmdl.
 44 46  0  0  0  0  0  0  0  0  1 V2000
  150.5773  134.0129  156.0666 C   0  0  0  0  0  0  0  0  0  0  0  0
  149.4670  133.5857  156.8422 O   0  0  0  0  0  0  0  0  0  0  0  0
  149.0538  134.3912  157.8813 C   0  0  0  0  0  0  0  0  0  0  0  0
  148.4277  133.9159  159.0574 C   0  0  0  0  0  0  0  0  0  0  0  0
  148.0483  134.8104  160.0751 C   0  0  0  0  0  0  0  0  0  0  0  0
  148.2796  136.2020  159.9422 C   0  0  0  0  0  0  0  0  0  0  0  0
  147.9456  137.1235  160.9146 O   0  0  0  0  0  0  0  0  0  0  0  0
  147.2554  136.6700  162.0693 C   0  0  0  0  0  0  0  0  0  0  0  0
  148.8914  136.6828  158.7591 C   0  0  0  0  0  0  0  0  0  0  0  0
  149.1602  138.1756  158.5917 C   0  0  2  0  0  0  0  0  0  0  0  0
  147.9898  138.9216  158.3130 O   0  0  0  0  0  0  0  0  0  0  0  0
  150.2153  138.4252  157.4955 C   0  0  0  0  0  0  0  0  0  0  0  0
  150.4812  139.8404  157.2778 N   0  0  0  0  0  0  0  0  0  0  0  0
  150.1487  140.5942  156.1999 C   0  0  0  0  0  0  0  0  0  0  0  0
  149.4108  140.0032  155.0312 C   0  0  0  0  0  0  0  0  0  0  0  0
  150.1819  139.9121  153.8503 O   0  0  0  0  0  0  0  0  0  0  0  0
  150.5112  141.8778  156.2613 N   0  0  0  0  0  0  0  0  0  0  0  0
  151.1365  141.9617  157.4896 C   0  0  0  0  0  0  0  0  0  0  0  0
  151.7408  143.0617  158.1396 C   0  0  0  0  0  0  0  0  0  0  0  0
  152.3261  142.9050  159.4132 C   0  0  0  0  0  0  0  0  0  0  0  0
  152.3153  141.6491  160.0539 C   0  0  0  0  0  0  0  0  0  0  0  0
  151.7169  140.5407  159.4244 C   0  0  0  0  0  0  0  0  0  0  0  0
  151.1345  140.7025  158.1530 C   0  0  0  0  0  0  0  0  0  0  0  0
  149.2795  135.7742  157.7485 C   0  0  0  0  0  0  0  0  0  0  0  0
  150.7763  133.2776  155.2872 H   0  0  0  0  0  0  0  0  0  0  0  0
  151.4783  134.1000  156.6754 H   0  0  0  0  0  0  0  0  0  0  0  0
  150.3781  134.9668  155.5763 H   0  0  0  0  0  0  0  0  0  0  0  0
  148.2310  132.8651  159.2072 H   0  0  0  0  0  0  0  0  0  0  0  0
  147.5809  134.3976  160.9560 H   0  0  0  0  0  0  0  0  0  0  0  0
  147.0844  137.5134  162.7380 H   0  0  0  0  0  0  0  0  0  0  0  0
  147.8385  135.9285  162.6173 H   0  0  0  0  0  0  0  0  0  0  0  0
  146.2821  136.2494  161.8139 H   0  0  0  0  0  0  0  0  0  0  0  0
  149.5290  138.5650  159.5405 H   0  0  0  0  0  0  0  0  0  0  0  0
  147.8422  139.5242  159.0258 H   0  0  0  0  0  0  0  0  0  0  0  0
  151.1530  137.9324  157.7537 H   0  0  0  0  0  0  0  0  0  0  0  0
  149.8939  137.9804  156.5528 H   0  0  0  0  0  0  0  0  0  0  0  0
  149.0654  139.0025  155.2884 H   0  0  0  0  0  0  0  0  0  0  0  0
  148.5295  140.6106  154.8241 H   0  0  0  0  0  0  0  0  0  0  0  0
  149.5957  139.8768  153.1102 H   0  0  0  0  0  0  0  0  0  0  0  0
  151.7537  144.0277  157.6570 H   0  0  0  0  0  0  0  0  0  0  0  0
  152.7860  143.7521  159.9005 H   0  0  0  0  0  0  0  0  0  0  0  0
  152.7674  141.5365  161.0283 H   0  0  0  0  0  0  0  0  0  0  0  0
  151.7086  139.5766  159.9109 H   0  0  0  0  0  0  0  0  0  0  0  0
  149.7654  136.1349  156.8538 H   0  0  0  0  0  0  0  0  0  0  0  0
  1  2  1  0  0  0  0
  1 25  1  0  0  0  0
  1 26  1  0  0  0  0
  1 27  1  0  0  0  0
  2  3  1  0  0  0  0
  3 24  1  0  0  0  0
  3  4  2  0  0  0  0
  4  5  1  0  0  0  0
  4 28  1  0  0  0  0
  5  6  2  0  0  0  0
  5 29  1  0  0  0  0
  6  7  1  0  0  0  0
  6  9  1  0  0  0  0
  7  8  1  0  0  0  0
  8 30  1  0  0  0  0
  8 31  1  0  0  0  0
  8 32  1  0  0  0  0
  9 10  1  0  0  0  0
  9 24  2  0  0  0  0
 10 11  1  0  0  0  0
 10 12  1  0  0  0  0
 10 33  1  0  0  0  0
 11 34  1  0  0  0  0
 12 13  1  0  0  0  0
 12 35  1  0  0  0  0
 12 36  1  0  0  0  0
 13 23  1  0  0  0  0
 13 14  1  0  0  0  0
 14 15  1  0  0  0  0
 14 17  2  0  0  0  0
 15 16  1  0  0  0  0
 15 37  1  0  0  0  0
 15 38  1  0  0  0  0
 16 39  1  0  0  0  0
 17 18  1  0  0  0  0
 18 23  2  0  0  0  0
 18 19  1  0  0  0  0
 19 20  2  0  0  0  0
 19 40  1  0  0  0  0
 20 21  1  0  0  0  0
 20 41  1  0  0  0  0
 21 22  2  0  0  0  0
 21 42  1  0  0  0  0
 22 23  1  0  0  0  0
 22 43  1  0  0  0  0
 24 44  1  0  0  0  0
M  END
> <s_m_source_file>
AV-unprocessed.smi

> <i_m_source_file_index>
2057

> <i_lp_mmshare_version>
43012

> <i_f3d_flags>
0

> <s_epik_input>
W0NIM11PYzFbY0hdW2NIXWMoT1tDSDNdKWMoW2NIXTEpW0NASF0oW09IXSlbQ0gyXW4oYyhuMilbQ0gyXVtPSF0pYyhjMjMpW2NIXVtjSF1bY0hdW2NIXTM=

> <s_epik_cmdline>
J2VwaWtfcHl0aG9uJywgJy1waCcsICc3LjAnLCAnLXRuJywgJzgnLCAnLW1hJywgJzIwMCcsICctbWV0YWxfYmluZGluZycsICctaW1hZScsICc8aW5maWxlLm1hZT4nLCAnLW9tYWUnLCAnPG91dGZpbGUubWFlPic=

> <r_lp_tautomer_probability>
1

> <r_epik_Ionization_Penalty>
0.0634722

> <r_epik_Ionization_Penalty_Charging>
0

> <r_epik_Ionization_Penalty_Neutral>
0.0634722

> <r_epik_State_Penalty>
0.0551572

> <r_epik_Charging_Adjusted_Penalty>
0.0551572

> <i_epik_Tot_Q>
0

> <i_epik_Tot_abs_Q>
0

> <r_epik_Metal_State_Penalty>
5.78034e-05

> <b_epik_Metal_Only>
0

> <s_lp_Force_Field>
OPLS_2005

> <r_lp_Energy>
18.6198

> <b_lp_Chiralities_Consistent>
1

> <s_lp_Variant>
AV-unprocessed.smi:2057-1

> <Gold.Version>
5.8.1

> <Gold.Id.Protein>
6NUR|6NUR_protein|mol2

> <Gold.PLP.Fitness>
43.4877

> <Gold.PLP.PLP>
-36.5299

> <Gold.PLP.part.hbond>
-5.0000

> <Gold.PLP.part.metal>
0.0000

> <Gold.PLP.part.buried>
-4.8223

> <Gold.PLP.part.nonpolar>
-28.2015

> <Gold.PLP.part.repulsive>
0.0895

> <Gold.PLP.ligand.clash>
0.0000

> <Gold.PLP.ligand.torsion>
0.9878

> <Gold.PLP.Chemscore.Hbond>
2.9648

> <Gold.PLP.Chemscore.CHOScore>
0.0000

> <Gold.PLP.Chemscore.Metal>
0.0000

> <Gold.Chemscore.Hbonds>
donor molecule, donor type, donor heavy atom, donor atom, acceptor molecule, acceptor atom, score
      L1  H    16    39       P1  7957  0.80
      P1  H  6931  6943       L1     7  0.60
      P1  H  6934  6947       L1     7  0.65
      P1  H  7989  7998       L1    16  0.91

> <Gold.PLP.Chemscore.Internal.Correction>
0.0390

> <Gold.Rescore>
     Score         DG    S(hbond)    S(metal)    S(lipo)     H(rot)  DE(clash)    DE(int)     intcor
     13.54     -14.27       1.84        0.00      91.97       3.17       0.04       0.70       ----

> <Gold.Chemscore.Fitness>
13.5386

> <Gold.Chemscore.DG>
-14.2725

> <Gold.Chemscore.ZeroCoef>
-5.4800

> <Gold.Chemscore.Hbond>
1.8379

> <Gold.Chemscore.Metal>
0.0000

> <Gold.Chemscore.Lipo>
91.9679

> <Gold.Chemscore.Internal_Hbond>
0.0000

> <Gold.Chemscore.DEClash>
0.0381

> <Gold.Chemscore.DEInternal>
0.6958

> <Gold.Chemscore.Rot>
3.1665

> <Gold.Chemscore.Internal.Correction>
   9.000000E+99

> <Gold.Chemscore.Hbonds>
donor molecule, donor type, donor heavy atom, donor atom, acceptor molecule, acceptor atom, score
      L1  H    16    39       P1  7957  0.78
      P1  H  6931  6943       L1     7  0.05
      P1  H  6934  6947       L1     7  0.10
      P1  H  7989  7998       L1    16  0.70

> <Gold.Chemscore.Hbond.Weighted>
-6.1384

> <Gold.Chemscore.Metal.Weighted>
-0.0000

> <Gold.Chemscore.Lipo.Weighted>
-10.7602

> <Gold.Chemscore.Internal_Hbond.Weighted>
0.0000

> <Gold.Chemscore.DEClash.Weighted>
0.0381

> <Gold.Chemscore.DEInternal.Weighted>
0.6958

> <Gold.Chemscore.Rot.Weighted>
8.1062

> <Gold.Chemscore.Internal.Correction.Weighted>
   9.000000E+99

> <Gold.Protein.RotatedTorsions>
[ 6907 6896 6895 6894 ] final   91.15 input  -60.11 | X-H torsion
[ 7974 7965 7964 7962 ] final   -5.56 input  175.53 | X-H torsion
[ 8008 7997 7996 7995 ] final  179.50 input   59.86 | X-H torsion
[ 10167 10162 10161 10158 ] final  166.75 input  -65.29 | X-H torsion
[ 10718 10713 10712 10709 ] final   44.15 input   66.30 | X-H torsion
[ 10763 10752 10751 10750 ] final   91.61 input  -60.55 | X-H torsion
[ 11005 11000 10999 10996 ] final  -62.08 input  -57.11 | X-H torsion

> <Gold.Protein.ActiveResidues>
 VAL166  LYS551  ARG553  GLY616  TRP617  ASP618  TYR619  PRO620  LYS621  CYS622 
 ASP623  PHE694  ASN695  SER759  ASP760  ASP761  ALA762  ILE779  LEU786  VAL792 
 PHE793  MET794  SER795  GLU796  ALA797  LYS798  CYS799  TRP800  GLU811  SER814 

> <Gold.Protein.RotatedAtoms>
  152.5448  134.1701  159.8593 H   0  0  0  0  0  0  0  0  0  0  0  0  # atno 6907 bound_to 6896
  151.1712  133.4776  159.2601 H   0  0  0  0  0  0  0  0  0  0  0  0  # atno 6908 bound_to 6896
  151.1273  135.0123  159.8621 H   0  0  0  0  0  0  0  0  0  0  0  0  # atno 6909 bound_to 6896
  146.2350  140.2039  142.8334 H   0  0  0  0  0  0  0  0  0  0  0  0  # atno 7974 bound_to 7965
  156.0427  140.1307  157.0138 H   0  0  0  0  0  0  0  0  0  0  0  0  # atno 8008 bound_to 7997
  154.4398  140.1027  156.6331 H   0  0  0  0  0  0  0  0  0  0  0  0  # atno 8009 bound_to 7997
  155.5643  140.3465  155.4501 H   0  0  0  0  0  0  0  0  0  0  0  0  # atno 8010 bound_to 7997
  139.4931  144.3994  151.9427 H   0  0  0  0  0  0  0  0  0  0  0  0  # atno 10167 bound_to 10162
  157.4237  130.7984  149.7539 H   0  0  0  0  0  0  0  0  0  0  0  0  # atno 10718 bound_to 10713
  153.2102  135.4391  155.0370 H   0  0  0  0  0  0  0  0  0  0  0  0  # atno 10763 bound_to 10752
  154.8196  135.3331  154.7081 H   0  0  0  0  0  0  0  0  0  0  0  0  # atno 10764 bound_to 10752
  153.7519  135.6997  153.4999 H   0  0  0  0  0  0  0  0  0  0  0  0  # atno 10765 bound_to 10752
  141.1347  133.6636  156.5473 H   0  0  0  0  0  0  0  0  0  0  0  0  # atno 11005 bound_to 11000
  144.9760  140.8414  143.5426 LP  0  0  0  0  0  0  0  0  0  0  0  0  # atno 17320 bound_to 7965
  145.2026  139.2244  143.5185 LP  0  0  0  0  0  0  0  0  0  0  0  0  # atno 17321 bound_to 7965
  140.3433  144.3177  150.5963 LP  0  0  0  0  0  0  0  0  0  0  0  0  # atno 17342 bound_to 10162
  140.5547  143.2201  151.7867 LP  0  0  0  0  0  0  0  0  0  0  0  0  # atno 17343 bound_to 10162
  155.9889  130.3955  150.3096 LP  0  0  0  0  0  0  0  0  0  0  0  0  # atno 17370 bound_to 10713
  157.1246  131.0256  151.2995 LP  0  0  0  0  0  0  0  0  0  0  0  0  # atno 17371 bound_to 10713
  140.4092  134.7287  157.4826 LP  0  0  0  0  0  0  0  0  0  0  0  0  # atno 17394 bound_to 11000
  140.0439  134.6227  155.8945 LP  0  0  0  0  0  0  0  0  0  0  0  0  # atno 17395 bound_to 11000

$$$$
