AV-unprocessed.smi:2008|AV-procd|sdf|8142|dock3
  -GOLD-   2272010383D 1   1.00000     0.00000
 Structure written by MMmdl.
 46 47  0  0  0  0  0  0  0  0  2 V2000
  152.0118  142.7747  158.9039 C   0  0  0  0  0  0  0  0  0  0  0  0
  152.6506  141.7147  158.2005 O   0  0  0  0  0  0  0  0  0  0  0  0
  151.9469  141.0755  157.2003 C   0  0  0  0  0  0  0  0  0  0  0  0
  150.7526  141.6608  156.7356 C   0  0  0  0  0  0  0  0  0  0  0  0
  150.0313  141.0115  155.7162 C   0  0  0  0  0  0  0  0  0  0  0  0
  150.5159  139.7937  155.1974 C   0  0  0  0  0  0  0  0  0  0  0  0
  149.7717  139.1679  154.1605 N   0  0  0  0  0  0  0  0  0  0  0  0
  148.6064  139.5563  153.6144 C   0  0  0  0  0  0  0  0  0  0  0  0
  147.9602  140.5518  153.9407 O   0  0  0  0  0  0  0  0  0  0  0  0
  148.2251  138.7220  152.6364 N   0  0  0  0  0  0  0  0  0  0  0  0
  147.0224  138.8838  151.8273 C   0  0  0  0  0  0  0  0  0  0  0  0
  145.8632  138.0199  152.3623 C   0  0  0  0  0  0  0  0  0  0  0  0
  146.1148  136.5570  152.2514 N   0  3  1  0  0  0  0  0  0  0  0  0
  145.8213  135.8454  153.5250 C   0  0  0  0  0  0  0  0  0  0  0  0
  146.2830  134.3806  153.4711 C   0  0  0  0  0  0  0  0  0  0  0  0
  145.6497  133.6485  152.2838 C   0  0  0  0  0  0  0  0  0  0  0  0
  145.9535  134.4077  150.9853 C   0  0  0  0  0  0  0  0  0  0  0  0
  145.5131  135.8858  151.0549 C   0  0  1  0  0  0  0  0  0  0  0  0
  143.9797  136.0412  150.9609 C   0  0  0  0  0  0  0  0  0  0  0  0
  151.7329  139.2935  155.7219 C   0  0  0  0  0  0  0  0  0  0  0  0
  152.4304  139.9126  156.6981 N   0  0  0  0  0  0  0  0  0  0  0  0
  152.6887  143.1634  159.6645 H   0  0  0  0  0  0  0  0  0  0  0  0
  151.1088  142.4310  159.4108 H   0  0  0  0  0  0  0  0  0  0  0  0
  151.7560  143.5984  158.2358 H   0  0  0  0  0  0  0  0  0  0  0  0
  150.3970  142.5912  157.1530 H   0  0  0  0  0  0  0  0  0  0  0  0
  149.1143  141.4435  155.3428 H   0  0  0  0  0  0  0  0  0  0  0  0
  150.2145  138.3655  153.7370 H   0  0  0  0  0  0  0  0  0  0  0  0
  148.8151  137.9293  152.4278 H   0  0  0  0  0  0  0  0  0  0  0  0
  146.7592  139.9414  151.8049 H   0  0  0  0  0  0  0  0  0  0  0  0
  147.2591  138.5977  150.8022 H   0  0  0  0  0  0  0  0  0  0  0  0
  145.7248  138.2661  153.4162 H   0  0  0  0  0  0  0  0  0  0  0  0
  144.9229  138.2770  151.8742 H   0  0  0  0  0  0  0  0  0  0  0  0
  146.3348  136.3427  154.3488 H   0  0  0  0  0  0  0  0  0  0  0  0
  144.7552  135.9006  153.7474 H   0  0  0  0  0  0  0  0  0  0  0  0
  147.3699  134.3420  153.3875 H   0  0  0  0  0  0  0  0  0  0  0  0
  146.0263  133.8738  154.4018 H   0  0  0  0  0  0  0  0  0  0  0  0
  146.0341  132.6300  152.2224 H   0  0  0  0  0  0  0  0  0  0  0  0
  144.5721  133.5648  152.4290 H   0  0  0  0  0  0  0  0  0  0  0  0
  147.0266  134.3634  150.7933 H   0  0  0  0  0  0  0  0  0  0  0  0
  145.4764  133.9092  150.1409 H   0  0  0  0  0  0  0  0  0  0  0  0
  145.9315  136.3547  150.1652 H   0  0  0  0  0  0  0  0  0  0  0  0
  143.5935  135.5117  150.0897 H   0  0  0  0  0  0  0  0  0  0  0  0
  143.6836  137.0837  150.8464 H   0  0  0  0  0  0  0  0  0  0  0  0
  143.4667  135.6417  151.8353 H   0  0  0  0  0  0  0  0  0  0  0  0
  152.1873  138.3878  155.3522 H   0  0  0  0  0  0  0  0  0  0  0  0
  147.1136  136.4683  152.1301 H   0  0  0  0  0  0  0  0  0  0  0  0
  1  2  1  0  0  0  0
  1 22  1  0  0  0  0
  1 23  1  0  0  0  0
  1 24  1  0  0  0  0
  2  3  1  0  0  0  0
  3 21  1  0  0  0  0
  3  4  2  0  0  0  0
  4  5  1  0  0  0  0
  4 25  1  0  0  0  0
  5  6  2  0  0  0  0
  5 26  1  0  0  0  0
  6  7  1  0  0  0  0
  6 20  1  0  0  0  0
  7  8  1  0  0  0  0
  7 27  1  0  0  0  0
  8  9  2  0  0  0  0
  8 10  1  0  0  0  0
 10 11  1  0  0  0  0
 10 28  1  0  0  0  0
 11 12  1  0  0  0  0
 11 29  1  0  0  0  0
 11 30  1  0  0  0  0
 12 13  1  0  0  0  0
 12 31  1  0  0  0  0
 12 32  1  0  0  0  0
 13 18  1  0  0  0  0
 13 14  1  0  0  0  0
 13 46  1  0  0  0  0
 14 15  1  0  0  0  0
 14 33  1  0  0  0  0
 14 34  1  0  0  0  0
 15 16  1  0  0  0  0
 15 35  1  0  0  0  0
 15 36  1  0  0  0  0
 16 17  1  0  0  0  0
 16 37  1  0  0  0  0
 16 38  1  0  0  0  0
 17 18  1  0  0  0  0
 17 39  1  0  0  0  0
 17 40  1  0  0  0  0
 18 19  1  0  0  0  0
 18 41  1  0  0  0  0
 19 42  1  0  0  0  0
 19 43  1  0  0  0  0
 19 44  1  0  0  0  0
 20 21  2  0  0  0  0
 20 45  1  0  0  0  0
M  CHG  1  13   1
M  END
> <s_m_source_file>
AV-unprocessed.smi

> <i_m_source_file_index>
2008

> <i_lp_mmshare_version>
43012

> <i_f3d_flags>
0

> <s_epik_input>
W0NIM11PYzFbY0hdW2NIXWMoW2NIXW4xKVtOSF1DKD1PKVtOSF1bQ0gyXVtDSDJdTjJbQ0gyXVtDSDJdW0NIMl1bQ0gyXVtDQEhdMltDSDNd

> <s_epik_cmdline>
J2VwaWtfcHl0aG9uJywgJy1waCcsICc3LjAnLCAnLXRuJywgJzgnLCAnLW1hJywgJzIwMCcsICctbWV0YWxfYmluZGluZycsICctaW1hZScsICc8aW5maWxlLm1hZT4nLCAnLW9tYWUnLCAnPG91dGZpbGUubWFlPic=

> <r_lp_tautomer_probability>
1

> <r_epik_Ionization_Penalty>
0.00219526

> <r_epik_Ionization_Penalty_Charging>
0.00211816

> <r_epik_Ionization_Penalty_Neutral>
7.71003e-05

> <r_epik_State_Penalty>
0.00145254

> <r_epik_Charging_Adjusted_Penalty>
0.0035707

> <i_epik_Tot_Q>
1

> <i_epik_Tot_abs_Q>
1

> <r_epik_Metal_State_Penalty>
-0

> <b_epik_Metal_Only>
0

> <s_lp_Force_Field>
OPLS_2005

> <r_lp_Energy>
23.0137

> <b_lp_Chiralities_Consistent>
1

> <s_lp_Variant>
AV-unprocessed.smi:2008-2

> <Gold.Version>
5.8.1

> <Gold.Id.Protein>
6NUR|6NUR_protein|mol2

> <Gold.PLP.Fitness>
45.1826

> <Gold.PLP.PLP>
-35.3458

> <Gold.PLP.part.hbond>
-4.3511

> <Gold.PLP.part.metal>
0.0000

> <Gold.PLP.part.buried>
-1.6708

> <Gold.PLP.part.nonpolar>
-28.1121

> <Gold.PLP.part.repulsive>
0.2772

> <Gold.PLP.ligand.clash>
0.2307

> <Gold.PLP.ligand.torsion>
0.9098

> <Gold.PLP.Chemscore.Hbond>
3.9440

> <Gold.PLP.Chemscore.CHOScore>
0.0000

> <Gold.PLP.Chemscore.Metal>
0.0000

> <Gold.Chemscore.Hbonds>
donor molecule, donor type, donor heavy atom, donor atom, acceptor molecule, acceptor atom, score
      L1  H    10    28       P1  7948  0.99
      L1  H    13    46       P1  7948  2.00
      P1  H  7997  8010       L1    21  1.00

> <Gold.PLP.Chemscore.Internal.Correction>
0.0551

> <Gold.Rescore>
     Score         DG    S(hbond)    S(metal)    S(lipo)     H(rot)  DE(clash)    DE(int)     intcor
     17.03     -19.30       2.79        0.00      75.99       1.71       0.12       2.14       ----

> <Gold.Chemscore.Fitness>
17.0348

> <Gold.Chemscore.DG>
-19.2957

> <Gold.Chemscore.ZeroCoef>
-5.4800

> <Gold.Chemscore.Hbond>
2.7856

> <Gold.Chemscore.Metal>
0.0000

> <Gold.Chemscore.Lipo>
75.9937

> <Gold.Chemscore.Internal_Hbond>
0.0000

> <Gold.Chemscore.DEClash>
0.1248

> <Gold.Chemscore.DEInternal>
2.1362

> <Gold.Chemscore.Rot>
1.7107

> <Gold.Chemscore.Internal.Correction>
   9.000000E+99

> <Gold.Chemscore.Hbonds>
donor molecule, donor type, donor heavy atom, donor atom, acceptor molecule, acceptor atom, score
      L1  H    10    28       P1  7948  0.94
      L1  H    13    46       P1  7948  1.00
      P1  H  7997  8010       L1    21  0.63

> <Gold.Chemscore.Hbond.Weighted>
-9.3039

> <Gold.Chemscore.Metal.Weighted>
-0.0000

> <Gold.Chemscore.Lipo.Weighted>
-8.8913

> <Gold.Chemscore.Internal_Hbond.Weighted>
0.0000

> <Gold.Chemscore.DEClash.Weighted>
0.1248

> <Gold.Chemscore.DEInternal.Weighted>
2.1362

> <Gold.Chemscore.Rot.Weighted>
4.3794

> <Gold.Chemscore.Internal.Correction.Weighted>
   9.000000E+99

> <Gold.Protein.RotatedTorsions>
[ 6907 6896 6895 6894 ] final -122.80 input  -60.11 | X-H torsion
[ 7974 7965 7964 7962 ] final  124.51 input  175.53 | X-H torsion
[ 8008 7997 7996 7995 ] final   68.34 input   59.86 | X-H torsion
[ 10167 10162 10161 10158 ] final  -25.22 input  -65.29 | X-H torsion
[ 10718 10713 10712 10709 ] final   26.11 input   66.30 | X-H torsion
[ 10763 10752 10751 10750 ] final   43.14 input  -60.55 | X-H torsion
[ 11005 11000 10999 10996 ] final  -22.40 input  -57.11 | X-H torsion

> <Gold.Protein.ActiveResidues>
 VAL166  LYS551  ARG553  GLY616  TRP617  ASP618  TYR619  PRO620  LYS621  CYS622 
 ASP623  PHE694  ASN695  SER759  ASP760  ASP761  ALA762  ILE779  LEU786  VAL792 
 PHE793  MET794  SER795  GLU796  ALA797  LYS798  CYS799  TRP800  GLU811  SER814 

> <Gold.Protein.RotatedAtoms>
  150.8610  133.7644  159.2992 H   0  0  0  0  0  0  0  0  0  0  0  0  # atno 6907 bound_to 6896
  151.5286  135.1066  159.9906 H   0  0  0  0  0  0  0  0  0  0  0  0  # atno 6908 bound_to 6896
  152.4626  133.7810  159.6906 H   0  0  0  0  0  0  0  0  0  0  0  0  # atno 6909 bound_to 6896
  145.0835  139.3639  143.4897 H   0  0  0  0  0  0  0  0  0  0  0  0  # atno 7974 bound_to 7965
  155.7068  140.3495  155.4957 H   0  0  0  0  0  0  0  0  0  0  0  0  # atno 8008 bound_to 7997
  155.9391  140.1098  157.1092 H   0  0  0  0  0  0  0  0  0  0  0  0  # atno 8009 bound_to 7997
  154.4099  140.1216  156.4890 H   0  0  0  0  0  0  0  0  0  0  0  0  # atno 8010 bound_to 7997
  140.7287  143.4284  151.0840 H   0  0  0  0  0  0  0  0  0  0  0  0  # atno 10167 bound_to 10162
  157.2024  130.6896  149.6194 H   0  0  0  0  0  0  0  0  0  0  0  0  # atno 10718 bound_to 10713
  152.9867  135.6110  154.3064 H   0  0  0  0  0  0  0  0  0  0  0  0  # atno 10763 bound_to 10752
  154.2782  135.2778  155.2711 H   0  0  0  0  0  0  0  0  0  0  0  0  # atno 10764 bound_to 10752
  154.5062  135.5853  153.6626 H   0  0  0  0  0  0  0  0  0  0  0  0  # atno 10765 bound_to 10752
  140.8654  133.7758  156.0123 H   0  0  0  0  0  0  0  0  0  0  0  0  # atno 11005 bound_to 11000
  146.3531  140.0637  142.8627 LP  0  0  0  0  0  0  0  0  0  0  0  0  # atno 17320 bound_to 7965
  145.1150  140.9428  143.4634 LP  0  0  0  0  0  0  0  0  0  0  0  0  # atno 17321 bound_to 7965
  139.7938  143.8180  152.3155 LP  0  0  0  0  0  0  0  0  0  0  0  0  # atno 17342 bound_to 10162
  139.8173  144.7310  150.9618 LP  0  0  0  0  0  0  0  0  0  0  0  0  # atno 17343 bound_to 10162
  155.9699  130.4578  150.5976 LP  0  0  0  0  0  0  0  0  0  0  0  0  # atno 17370 bound_to 10713
  157.3754  131.0772  151.1522 LP  0  0  0  0  0  0  0  0  0  0  0  0  # atno 17371 bound_to 10713
  140.8635  134.2812  157.5223 LP  0  0  0  0  0  0  0  0  0  0  0  0  # atno 17394 bound_to 11000
  139.8709  134.9530  156.4133 LP  0  0  0  0  0  0  0  0  0  0  0  0  # atno 17395 bound_to 11000

$$$$
