AV-unprocessed.smi:55|AV-procd|sdf|571|dock5
  -GOLD-   2262016473D 1   1.00000     0.00000
 Structure written by MMmdl.
 30 31  0  0  0  0  0  0  0  0  2 V2000
  150.5189  142.8973  158.8054 C   0  0  0  0  0  0  0  0  0  0  0  0
  150.8424  141.8990  157.7076 C   0  0  0  0  0  0  0  0  0  0  0  0
  150.0608  141.7499  156.6149 C   0  0  0  0  0  0  0  0  0  0  0  0
  150.3623  140.8403  155.6169 N   0  0  0  0  0  0  0  0  0  0  0  0
  149.4815  140.7153  154.3970 C   0  0  2  0  0  0  0  0  0  0  0  0
  148.2882  141.6582  154.4844 C   0  0  0  0  0  0  0  0  0  0  0  0
  147.2278  140.9064  153.6887 C   0  0  2  0  0  0  0  0  0  0  0  0
  145.9884  140.9509  154.3714 O   0  0  0  0  0  0  0  0  0  0  0  0
  147.8045  139.4819  153.4948 C   0  0  2  0  0  0  0  0  0  0  0  0
  146.8600  138.3124  153.8308 C   0  0  0  0  0  0  0  0  0  0  0  0
  147.5713  137.0927  153.8150 O   0  0  0  0  0  0  0  0  0  0  0  0
  148.9418  139.4370  154.3484 O   0  0  0  0  0  0  0  0  0  0  0  0
  151.5410  140.0565  155.7120 C   0  0  0  0  0  0  0  0  0  0  0  0
  151.8039  139.2893  154.7854 O   0  0  0  0  0  0  0  0  0  0  0  0
  152.3307  140.1927  156.8155 N   0  5  0  0  0  0  0  0  0  0  0  0
  152.0467  141.0670  157.8236 C   0  0  0  0  0  0  0  0  0  0  0  0
  152.7673  141.1780  158.8151 O   0  0  0  0  0  0  0  0  0  0  0  0
  150.1080  140.8706  153.5166 H   0  0  0  0  0  0  0  0  0  0  0  0
  147.0911  141.3751  152.7134 H   0  0  0  0  0  0  0  0  0  0  0  0
  148.1508  139.3974  152.4629 H   0  0  0  0  0  0  0  0  0  0  0  0
  149.6021  143.4450  158.5858 H   0  0  0  0  0  0  0  0  0  0  0  0
  151.3278  143.6207  158.9118 H   0  0  0  0  0  0  0  0  0  0  0  0
  150.3862  142.3853  159.7589 H   0  0  0  0  0  0  0  0  0  0  0  0
  149.1796  142.3669  156.5186 H   0  0  0  0  0  0  0  0  0  0  0  0
  147.9954  141.7684  155.5304 H   0  0  0  0  0  0  0  0  0  0  0  0
  148.5347  142.6398  154.0786 H   0  0  0  0  0  0  0  0  0  0  0  0
  145.2963  140.7953  153.7473 H   0  0  0  0  0  0  0  0  0  0  0  0
  146.3770  138.4586  154.7976 H   0  0  0  0  0  0  0  0  0  0  0  0
  146.0739  138.2267  153.0802 H   0  0  0  0  0  0  0  0  0  0  0  0
  148.0693  137.0460  153.0134 H   0  0  0  0  0  0  0  0  0  0  0  0
  1  2  1  0  0  0  0
  1 21  1  0  0  0  0
  1 22  1  0  0  0  0
  1 23  1  0  0  0  0
  2 16  1  0  0  0  0
  2  3  2  0  0  0  0
  3  4  1  0  0  0  0
  3 24  1  0  0  0  0
  4  5  1  0  0  0  0
  4 13  1  0  0  0  0
  5 18  1  0  0  0  0
  5 12  1  0  0  0  0
  5  6  1  0  0  0  0
  6  7  1  0  0  0  0
  6 25  1  0  0  0  0
  6 26  1  0  0  0  0
  7 19  1  0  0  0  0
  7  8  1  0  0  0  0
  7  9  1  0  0  0  0
  8 27  1  0  0  0  0
  9 20  1  0  0  0  0
  9 10  1  0  0  0  0
  9 12  1  0  0  0  0
 10 11  1  0  0  0  0
 10 28  1  0  0  0  0
 10 29  1  0  0  0  0
 11 30  1  0  0  0  0
 13 14  2  0  0  0  0
 13 15  1  0  0  0  0
 15 16  1  0  0  0  0
 16 17  2  0  0  0  0
M  CHG  1  15  -1
M  END
> <s_m_source_file>
AV-unprocessed.smi

> <i_m_source_file_index>
55

> <i_lp_mmshare_version>
43012

> <i_f3d_flags>
0

> <s_epik_input>
Tz1jMVtuSF1jKD1PKW4oW2NIXWMxW0NIM10pW0NAQEhdMltDSDJdW0NAQEhdKFtPSF0pW0NAQEhdKE8yKVtDSDJdW09IXQ==

> <s_epik_cmdline>
J2VwaWtfcHl0aG9uJywgJy1waCcsICc3LjAnLCAnLXRuJywgJzgnLCAnLW1hJywgJzIwMCcsICctbWV0YWxfYmluZGluZycsICctaW1hZScsICc8aW5maWxlLm1hZT4nLCAnLW9tYWUnLCAnPG91dGZpbGUubWFlPic=

> <r_lp_tautomer_probability>
0.999537

> <r_epik_Ionization_Penalty>
3.66603

> <r_epik_Ionization_Penalty_Charging>
1.09773e-07

> <r_epik_Ionization_Penalty_Neutral>
3.66603

> <r_epik_State_Penalty>
3.66562

> <r_epik_Charging_Adjusted_Penalty>
3.66562

> <i_epik_Tot_Q>
-1

> <i_epik_Tot_abs_Q>
1

> <r_epik_Metal_State_Penalty>
0.234536

> <b_epik_Metal_Only>
1

> <s_epik_Chemistry_Notes>
This compound contains an acetal/aminal-like group ( X-CH(R)-Y where X, Y are N, S, or O) that may be acid/base labile, releasing an aldehyde.

> <s_lp_Force_Field>
OPLS_2005

> <r_lp_Energy>
40.7454

> <b_lp_Chiralities_Consistent>
1

> <s_lp_Variant>
AV-unprocessed.smi:55-11

> <Gold.Version>
5.8.1

> <Gold.Id.Protein>
6NUR|6NUR_protein|mol2

> <Gold.PLP.Fitness>
43.9998

> <Gold.PLP.PLP>
-27.8519

> <Gold.PLP.part.hbond>
-3.9345

> <Gold.PLP.part.metal>
0.0000

> <Gold.PLP.part.buried>
-0.8051

> <Gold.PLP.part.nonpolar>
-23.0350

> <Gold.PLP.part.repulsive>
0.1988

> <Gold.PLP.ligand.clash>
0.0000

> <Gold.PLP.ligand.torsion>
0.0531

> <Gold.PLP.Chemscore.Hbond>
4.4100

> <Gold.PLP.Chemscore.CHOScore>
1.0000

> <Gold.PLP.Chemscore.Metal>
0.0000

> <Gold.Chemscore.Hbonds>
donor molecule, donor type, donor heavy atom, donor atom, acceptor molecule, acceptor atom, score
      L1  H     8    27       P1 10175  0.89
      L1  H    11    30       P1  7948  1.00
      P1  H  7989  7998       L1    14  0.45
      P1  H  7997  8008       L1    15  1.95
      L1  C     3    24       P1  8028  1.00

> <Gold.PLP.Chemscore.Internal.Correction>
0.0242

> <Gold.Rescore>
     Score         DG    S(hbond)    S(metal)    S(lipo)     H(rot)  DE(clash)    DE(int)     intcor
     11.09     -12.51       2.65        0.00      43.11       2.69       0.14       1.27       ----

> <Gold.Chemscore.Fitness>
11.0910

> <Gold.Chemscore.DG>
-12.5050

> <Gold.Chemscore.ZeroCoef>
-5.4800

> <Gold.Chemscore.Hbond>
2.6529

> <Gold.Chemscore.Metal>
0.0000

> <Gold.Chemscore.Lipo>
43.1064

> <Gold.Chemscore.Internal_Hbond>
0.0000

> <Gold.Chemscore.DEClash>
0.1418

> <Gold.Chemscore.DEInternal>
1.2722

> <Gold.Chemscore.Rot>
2.6871

> <Gold.Chemscore.Internal.Correction>
   9.000000E+99

> <Gold.Chemscore.Hbonds>
donor molecule, donor type, donor heavy atom, donor atom, acceptor molecule, acceptor atom, score
      L1  H     8    27       P1 10175  0.81
      L1  H    11    30       P1  7948  0.97
      P1  H  7989  7998       L1    14  0.01
      P1  H  7997  8008       L1    15  0.61

> <Gold.Chemscore.Hbond.Weighted>
-8.8607

> <Gold.Chemscore.Metal.Weighted>
-0.0000

> <Gold.Chemscore.Lipo.Weighted>
-5.0434

> <Gold.Chemscore.Internal_Hbond.Weighted>
0.0000

> <Gold.Chemscore.DEClash.Weighted>
0.1418

> <Gold.Chemscore.DEInternal.Weighted>
1.2722

> <Gold.Chemscore.Rot.Weighted>
6.8791

> <Gold.Chemscore.Internal.Correction.Weighted>
   9.000000E+99

> <Gold.Protein.RotatedTorsions>
[ 6907 6896 6895 6894 ] final -119.31 input  -60.11 | X-H torsion
[ 7974 7965 7964 7962 ] final  127.98 input  175.53 | X-H torsion
[ 8008 7997 7996 7995 ] final  -47.02 input   59.86 | X-H torsion
[ 10167 10162 10161 10158 ] final   72.90 input  -65.29 | X-H torsion
[ 10718 10713 10712 10709 ] final   38.97 input   66.30 | X-H torsion
[ 10763 10752 10751 10750 ] final  113.16 input  -60.55 | X-H torsion
[ 11005 11000 10999 10996 ] final   42.26 input  -57.11 | X-H torsion

> <Gold.Protein.ActiveResidues>
 VAL166  LYS551  ARG553  GLY616  TRP617  ASP618  TYR619  PRO620  LYS621  CYS622 
 ASP623  PHE694  ASN695  SER759  ASP760  ASP761  ALA762  ILE779  LEU786  VAL792 
 PHE793  MET794  SER795  GLU796  ALA797  LYS798  CYS799  TRP800  GLU811  SER814 

> <Gold.Protein.RotatedAtoms>
  150.8295  133.8116  159.3104 H   0  0  0  0  0  0  0  0  0  0  0  0  # atno 6907 bound_to 6896
  151.5850  135.1055  160.0035 H   0  0  0  0  0  0  0  0  0  0  0  0  # atno 6908 bound_to 6896
  152.4376  133.7347  159.6663 H   0  0  0  0  0  0  0  0  0  0  0  0  # atno 6909 bound_to 6896
  145.0446  139.3934  143.5084 H   0  0  0  0  0  0  0  0  0  0  0  0  # atno 7974 bound_to 7965
  154.4012  140.1357  156.4107 H   0  0  0  0  0  0  0  0  0  0  0  0  # atno 8008 bound_to 7997
  155.7736  140.3483  155.5240 H   0  0  0  0  0  0  0  0  0  0  0  0  # atno 8009 bound_to 7997
  155.8742  140.0977  157.1520 H   0  0  0  0  0  0  0  0  0  0  0  0  # atno 8010 bound_to 7997
  140.0303  144.5471  150.7512 H   0  0  0  0  0  0  0  0  0  0  0  0  # atno 10167 bound_to 10162
  157.3651  130.7671  149.7077 H   0  0  0  0  0  0  0  0  0  0  0  0  # atno 10718 bound_to 10713
  153.4885  135.3664  155.2479 H   0  0  0  0  0  0  0  0  0  0  0  0  # atno 10763 bound_to 10752
  154.8753  135.3971  154.3617 H   0  0  0  0  0  0  0  0  0  0  0  0  # atno 10764 bound_to 10752
  153.4233  135.7081  153.6345 H   0  0  0  0  0  0  0  0  0  0  0  0  # atno 10765 bound_to 10752
  140.1756  134.4167  155.8230 H   0  0  0  0  0  0  0  0  0  0  0  0  # atno 11005 bound_to 11000
  146.3512  140.0065  142.8671 LP  0  0  0  0  0  0  0  0  0  0  0  0  # atno 17320 bound_to 7965
  145.1604  140.9670  143.4380 LP  0  0  0  0  0  0  0  0  0  0  0  0  # atno 17321 bound_to 7965
  140.7305  143.2684  151.3970 LP  0  0  0  0  0  0  0  0  0  0  0  0  # atno 17342 bound_to 10162
  139.6080  144.1156  152.2269 LP  0  0  0  0  0  0  0  0  0  0  0  0  # atno 17343 bound_to 10162
  155.9744  130.4103  150.3922 LP  0  0  0  0  0  0  0  0  0  0  0  0  # atno 17370 bound_to 10713
  157.2005  131.0437  151.2653 LP  0  0  0  0  0  0  0  0  0  0  0  0  # atno 17371 bound_to 10713
  141.2220  133.6976  156.7841 LP  0  0  0  0  0  0  0  0  0  0  0  0  # atno 17394 bound_to 11000
  140.2326  134.8674  157.3492 LP  0  0  0  0  0  0  0  0  0  0  0  0  # atno 17395 bound_to 11000

$$$$
