#       Name:                AV-unprocessed.smi:922
#       Creating user name   scv26
#       Creation time:       Fri Mar 27 02:08:15 2020


#       File generated by GOLD software.
#

@<TRIPOS>MOLECULE
AV-unprocessed.smi:922
    38    39     1
SMALL
NO_CHARGES


@<TRIPOS>ATOM
      1 ****        -3.0368   0.1200   1.7742 C.3            1 S1                 0.0000
      2 ****        -1.6026   0.0121   1.2470 C.3            1 S1                 0.0000
      3 ****        -1.5228   0.3104  -0.2618 C.3            1 S1                 0.0000
      4 ****        -0.1696   0.0862  -0.7535 N.pl3          1 S1                 0.0000
      5 ****         0.5902   1.0117  -1.4707 C.2            1 S1                 0.0000
      6 ****         1.2260   0.6112  -2.7218 C.2            1 S1                 0.0000
      7 ****         1.9402   1.4084  -3.4392 N.2            1 S1                 0.0000
      8 ****         2.1093   2.6984  -3.0056 N.am           1 S1                 0.0000
      9 ****         1.6022   3.2415  -1.8750 C.2            1 S1                 0.0000
     10 ****         1.8204   4.4143  -1.5769 O.2            1 S1                 0.0000
     11 ****         0.7959   2.3056  -1.0769 C.2            1 S1                 0.0000
     12 ****         0.1699   2.9205   0.4166 Cl             1 S1                 0.0000
     13 ****         0.2561  -1.2845  -0.4927 C.3            1 S1                 0.0000
     14 ****         0.1782  -1.6136   1.0160 C.3            1 S1                 0.0000
     15 ****         0.3596  -3.1246   1.2275 C.3            1 S1                 0.0000
     16 ****         1.2481  -0.8551   1.8304 C.3            1 S1                 0.0000
     17 ****        -1.1400  -1.3167   1.4924 O.3            1 S1                 0.0000
     18 ****         2.6763   3.2693  -3.6159 H              1 S1                 0.0000
     19 ****        -3.4351   1.1237   1.6236 H              1 S1                 0.0000
     20 ****        -3.0762  -0.0961   2.8421 H              1 S1                 0.0000
     21 ****        -3.6982  -0.5830   1.2670 H              1 S1                 0.0000
     22 ****        -0.9885   0.7191   1.8032 H              1 S1                 0.0000
     23 ****        -2.2015  -0.3461  -0.8077 H              1 S1                 0.0000
     24 ****        -1.8490   1.3284  -0.4741 H              1 S1                 0.0000
     25 ****         1.0564  -0.4215  -3.0270 H              1 S1                 0.0000
     26 ****        -0.3872  -1.9575  -1.0611 H              1 S1                 0.0000
     27 ****         1.2731  -1.4481  -0.8507 H              1 S1                 0.0000
     28 ****         1.3363  -3.4604   0.8774 H              1 S1                 0.0000
     29 ****        -0.3987  -3.6930   0.6878 H              1 S1                 0.0000
     30 ****         0.2767  -3.3883   2.2824 H              1 S1                 0.0000
     31 ****         2.2515  -1.1675   1.5400 H              1 S1                 0.0000
     32 ****         1.1387  -1.0481   2.8979 H              1 S1                 0.0000
     33 ****         1.1995   0.2232   1.6835 H              1 S1                 0.0000
     34 ****         2.3606   1.0944  -4.2905 LP             1 S1                 0.0000
     35 ****         2.3822   4.9860  -2.1748 LP             1 S1                 0.0000
     36 ****         1.4361   4.7964  -0.7364 LP             1 S1                 0.0000
     37 ****        -1.7759  -1.9498   1.0512 LP             1 S1                 0.0000
     38 ****        -1.1508  -1.4682   2.4809 LP             1 S1                 0.0000
@<TRIPOS>BOND
    1    1    2 1     
    2    1   19 1     
    3    1   20 1     
    4    1   21 1     
    5    2   17 1     
    6    2    3 1     
    7    2   22 1     
    8    3    4 1     
    9    3   23 1     
   10    3   24 1     
   11    4    5 1     
   12    4   13 1     
   13    5   11 2     
   14    5    6 1     
   15    6    7 2     
   16    6   25 1     
   17    7    8 1     
   18    8   18 1     
   19    8    9 am    
   20    9   10 2     
   21    9   11 1     
   22   11   12 1     
   23   13   14 1     
   24   13   26 1     
   25   13   27 1     
   26   14   15 1     
   27   14   16 1     
   28   14   17 1     
   29   15   28 1     
   30   15   29 1     
   31   15   30 1     
   32   16   31 1     
   33   16   32 1     
   34   16   33 1     
   35    7   34 1     
   36   10   35 1     
   37   10   36 1     
   38   17   37 1     
   39   17   38 1     
@<TRIPOS>SUBSTRUCTURE
      1 S1             1
@<TRIPOS>SET
LONE_PAIRS      STATIC     ATOMS    <user>   **** ""
5 34 35 36 37 38
DONOR_HYDROGENS      STATIC     ATOMS    <user>   **** ""
1 18
ATOM$BLUE        STATIC     ATOMS    COLORGROUP SYSTEM
5 34 35 36 37 38
ATOM$RED        STATIC     ATOMS    COLORGROUP SYSTEM
1 18
