#       Name:                AV-unprocessed.smi:481
#       Creating user name   scv26
#       Creation time:       Thu Mar 26 23:10:29 2020


#       File generated by GOLD software.
#

@<TRIPOS>MOLECULE
AV-unprocessed.smi:481
    51    53     1
SMALL
NO_CHARGES


@<TRIPOS>ATOM
      1 ****        -4.7275   2.2655  -1.7787 C.3            1 S1                 0.0000
      2 ****        -4.1359   0.9784  -1.7498 O.3            1 S1                 0.0000
      3 ****        -2.7197   1.0323  -1.7616 C.3            1 S1                 0.0000
      4 ****        -2.1686  -0.3975  -1.7094 C.3            1 S1                 0.0000
      5 ****        -0.7101  -0.4106  -1.6930 N.pl3          1 S1                 0.0000
      6 ****         0.1093  -0.4263  -0.6111 C.2            1 S1                 0.0000
      7 ****        -0.4362  -0.4226   0.6722 N.pl3          1 S1                 0.0000
      8 ****        -1.7453  -0.4040   0.8508 N.2            1 S1                 0.0000
      9 ****        -2.1492  -0.4073   2.0704 C.2            1 S1                 0.0000
     10 ****        -3.5760  -0.3902   2.4273 C.ar           1 S1                 0.0000
     11 ****        -4.5931  -0.3727   1.4430 C.ar           1 S1                 0.0000
     12 ****        -5.9498  -0.3566   1.8212 C.ar           1 S1                 0.0000
     13 ****        -6.3028  -0.3579   3.1837 C.ar           1 S1                 0.0000
     14 ****        -5.2976  -0.3752   4.1687 C.ar           1 S1                 0.0000
     15 ****        -3.9403  -0.3914   3.7918 C.ar           1 S1                 0.0000
     16 ****         1.4163  -0.4384  -0.9003 N.2            1 S1                 0.0000
     17 ****         1.4245  -0.4206  -2.2875 C.2            1 S1                 0.0000
     18 ****         0.1610  -0.3954  -2.7813 C.2            1 S1                 0.0000
     19 ****        -0.1226  -0.3544  -4.2204 C.2            1 S1                 0.0000
     20 ****        -1.2596  -0.3113  -4.6856 O.2            1 S1                 0.0000
     21 ****         0.9992  -0.3641  -4.9813 N.am           1 S1                 0.0000
     22 ****         2.2981  -0.3970  -4.5504 C.2            1 S1                 0.0000
     23 ****         3.2129  -0.4051  -5.3736 O.2            1 S1                 0.0000
     24 ****         2.5195  -0.4191  -3.1952 N.am           1 S1                 0.0000
     25 ****         3.8700  -0.4444  -2.6298 C.3            1 S1                 0.0000
     26 ****         0.8612  -0.3418  -5.9812 H              1 S1                 0.0000
     27 ****        -5.8133   2.1703  -1.7696 H              1 S1                 0.0000
     28 ****        -4.4451   2.8102  -2.6805 H              1 S1                 0.0000
     29 ****        -4.4345   2.8536  -0.9081 H              1 S1                 0.0000
     30 ****        -2.3718   1.5385  -2.6635 H              1 S1                 0.0000
     31 ****        -2.3610   1.6028  -0.9029 H              1 S1                 0.0000
     32 ****        -2.5446  -0.9127  -0.8250 H              1 S1                 0.0000
     33 ****        -2.5234  -0.9782  -2.5600 H              1 S1                 0.0000
     34 ****         0.1921  -0.4432   1.4626 H              1 S1                 0.0000
     35 ****        -1.4244  -0.4232   2.8872 H              1 S1                 0.0000
     36 ****        -4.3464  -0.3714   0.3910 H              1 S1                 0.0000
     37 ****        -6.7201  -0.3429   1.0642 H              1 S1                 0.0000
     38 ****        -7.3435  -0.3453   3.4730 H              1 S1                 0.0000
     39 ****        -5.5670  -0.3756   5.2146 H              1 S1                 0.0000
     40 ****        -3.1810  -0.4045   4.5608 H              1 S1                 0.0000
     41 ****         4.6646  -0.4554  -3.3764 H              1 S1                 0.0000
     42 ****         3.9955  -1.3304  -2.0066 H              1 S1                 0.0000
     43 ****         4.0252   0.4323  -2.0002 H              1 S1                 0.0000
     44 ****        -4.4441   0.4656  -2.5511 LP             1 S1                 0.0000
     45 ****        -4.4321   0.5077  -0.9187 LP             1 S1                 0.0000
     46 ****        -2.3842  -0.3882   0.0817 LP             1 S1                 0.0000
     47 ****         2.1941  -0.4560  -0.2720 LP             1 S1                 0.0000
     48 ****        -2.0503  -0.3028  -4.0734 LP             1 S1                 0.0000
     49 ****        -1.3939  -0.2849  -5.6762 LP             1 S1                 0.0000
     50 ****         3.0055  -0.3877  -6.3517 LP             1 S1                 0.0000
     51 ****         4.1636  -0.4291  -5.0644 LP             1 S1                 0.0000
@<TRIPOS>BOND
    1    1    2 1     
    2    1   27 1     
    3    1   28 1     
    4    1   29 1     
    5    2    3 1     
    6    3    4 1     
    7    3   30 1     
    8    3   31 1     
    9    4    5 1     
   10    4   32 1     
   11    4   33 1     
   12    5   18 1     
   13    5    6 1     
   14    6    7 1     
   15    6   16 2     
   16    7    8 1     
   17    7   34 1     
   18    8    9 2     
   19    9   10 1     
   20    9   35 1     
   21   10   15 ar    
   22   10   11 ar    
   23   11   12 ar    
   24   11   36 1     
   25   12   13 ar    
   26   12   37 1     
   27   13   14 ar    
   28   13   38 1     
   29   14   15 ar    
   30   14   39 1     
   31   15   40 1     
   32   16   17 1     
   33   17   24 1     
   34   17   18 2     
   35   18   19 1     
   36   19   20 2     
   37   19   21 1     
   38   21   26 1     
   39   21   22 1     
   40   22   23 2     
   41   22   24 1     
   42   24   25 1     
   43   25   41 1     
   44   25   42 1     
   45   25   43 1     
   46    2   44 1     
   47    2   45 1     
   48    8   46 1     
   49   16   47 1     
   50   20   48 1     
   51   20   49 1     
   52   23   50 1     
   53   23   51 1     
@<TRIPOS>SUBSTRUCTURE
      1 S1             1
@<TRIPOS>SET
LONE_PAIRS      STATIC     ATOMS    <user>   **** ""
8 44 45 46 47 48 49 50 51
DONOR_HYDROGENS      STATIC     ATOMS    <user>   **** ""
2 34 26
ATOM$BLUE        STATIC     ATOMS    COLORGROUP SYSTEM
8 44 45 46 47 48 49 50 51
ATOM$RED        STATIC     ATOMS    COLORGROUP SYSTEM
2 34 26
