AV-unprocessed.smi:2881|AV-procd|sdf|11056|dock1
  -GOLD-   2272015523D 1   1.00000     0.00000
 Structure written by MMmdl.
 40 42  0  0  0  0  0  0  0  0  1 V2000
  151.9713  146.0241  160.2416 C   0  0  0  0  0  0  0  0  0  0  0  0
  151.9752  144.6385  159.6917 C   0  0  0  0  0  0  0  0  0  0  0  0
  151.6863  143.4350  160.2704 C   0  0  0  0  0  0  0  0  0  0  0  0
  151.8635  142.4860  159.2204 C   0  0  0  0  0  0  0  0  0  0  0  0
  151.6551  140.9945  159.2736 C   0  0  0  0  0  0  0  0  0  0  0  0
  152.0575  140.3590  157.9413 C   0  0  0  0  0  0  0  0  0  0  0  0
  153.1616  139.8300  157.8155 O   0  0  0  0  0  0  0  0  0  0  0  0
  151.1451  140.4100  156.9592 N   0  0  0  0  0  0  0  0  0  0  0  0
  151.2804  139.7979  155.6393 C   0  0  1  0  0  0  0  0  0  0  0  0
  151.2815  138.2463  155.6814 C   0  0  1  0  0  0  0  0  0  0  0  0
  150.1017  137.7067  156.5188 C   0  0  0  0  0  0  0  0  0  0  0  0
  148.8858  138.0436  155.6381 C   0  0  0  0  0  0  0  0  0  0  0  0
  149.5291  138.6879  154.3913 C   0  0  2  0  0  0  0  0  0  0  0  0
  150.8200  137.8869  154.2731 C   0  0  0  0  0  0  0  0  0  0  0  0
  150.0840  140.1004  154.6902 C   0  0  1  0  0  0  0  0  0  0  0  0
  149.0259  141.1282  155.1535 C   0  0  0  0  0  0  0  0  0  0  0  0
  148.9303  142.1902  154.2271 O   0  0  0  0  0  0  0  0  0  0  0  0
  152.2414  143.0566  158.0840 N   0  0  0  0  0  0  0  0  0  0  0  0
  152.3030  144.3671  158.3836 N   0  0  0  0  0  0  0  0  0  0  0  0
  152.5683  145.0565  157.6947 H   0  0  0  0  0  0  0  0  0  0  0  0
  151.8602  146.0127  161.3260 H   0  0  0  0  0  0  0  0  0  0  0  0
  151.1470  146.6027  159.8245 H   0  0  0  0  0  0  0  0  0  0  0  0
  152.9020  146.5397  160.0045 H   0  0  0  0  0  0  0  0  0  0  0  0
  151.3822  143.2569  161.2913 H   0  0  0  0  0  0  0  0  0  0  0  0
  152.2411  140.5428  160.0753 H   0  0  0  0  0  0  0  0  0  0  0  0
  150.6097  140.7667  159.4851 H   0  0  0  0  0  0  0  0  0  0  0  0
  150.2711  140.8763  157.1546 H   0  0  0  0  0  0  0  0  0  0  0  0
  152.2003  140.1593  155.1760 H   0  0  0  0  0  0  0  0  0  0  0  0
  152.2435  137.8198  155.9668 H   0  0  0  0  0  0  0  0  0  0  0  0
  150.1888  136.6266  156.6443 H   0  0  0  0  0  0  0  0  0  0  0  0
  150.0319  138.1398  157.5165 H   0  0  0  0  0  0  0  0  0  0  0  0
  148.3538  137.1310  155.3667 H   0  0  0  0  0  0  0  0  0  0  0  0
  148.1727  138.6959  156.1406 H   0  0  0  0  0  0  0  0  0  0  0  0
  148.8927  138.6520  153.5067 H   0  0  0  0  0  0  0  0  0  0  0  0
  151.4898  138.2514  153.4922 H   0  0  0  0  0  0  0  0  0  0  0  0
  150.6564  136.8173  154.1291 H   0  0  0  0  0  0  0  0  0  0  0  0
  150.4960  140.4770  153.7518 H   0  0  0  0  0  0  0  0  0  0  0  0
  148.0484  140.6501  155.2198 H   0  0  0  0  0  0  0  0  0  0  0  0
  149.2478  141.5348  156.1401 H   0  0  0  0  0  0  0  0  0  0  0  0
  148.8827  143.0039  154.7056 H   0  0  0  0  0  0  0  0  0  0  0  0
  1  2  1  0  0  0  0
  1 21  1  0  0  0  0
  1 22  1  0  0  0  0
  1 23  1  0  0  0  0
  2 19  1  0  0  0  0
  2  3  2  0  0  0  0
  3  4  1  0  0  0  0
  3 24  1  0  0  0  0
  4  5  1  0  0  0  0
  4 18  2  0  0  0  0
  5  6  1  0  0  0  0
  5 25  1  0  0  0  0
  5 26  1  0  0  0  0
  6  7  2  0  0  0  0
  6  8  1  0  0  0  0
  8  9  1  0  0  0  0
  8 27  1  0  0  0  0
  9 15  1  0  0  0  0
  9 10  1  0  0  0  0
  9 28  1  0  0  0  0
 10 14  1  0  0  0  0
 10 11  1  0  0  0  0
 10 29  1  0  0  0  0
 11 12  1  0  0  0  0
 11 30  1  0  0  0  0
 11 31  1  0  0  0  0
 12 13  1  0  0  0  0
 12 32  1  0  0  0  0
 12 33  1  0  0  0  0
 13 14  1  0  0  0  0
 13 15  1  0  0  0  0
 13 34  1  0  0  0  0
 14 35  1  0  0  0  0
 14 36  1  0  0  0  0
 15 16  1  0  0  0  0
 15 37  1  0  0  0  0
 16 17  1  0  0  0  0
 16 38  1  0  0  0  0
 16 39  1  0  0  0  0
 17 40  1  0  0  0  0
 18 19  1  0  0  0  0
 19 20  1  0  0  0  0
M  END
> <s_m_source_file>
AV-unprocessed.smi

> <i_m_source_file_index>
2881

> <i_lp_mmshare_version>
43012

> <i_f3d_flags>
0

> <s_epik_input>
W0NIM11jMVtjSF1jKG5bbkhdMSlbQ0gyXUMoPU8pW05IXVtDQEhdKFtDQEBIXTIzKVtDQEhdKFtDSDJdW09IXSlbQ0BASF0oW0NIMl0zKVtDSDJdW0NIMl0y

> <s_epik_cmdline>
J2VwaWtfcHl0aG9uJywgJy1waCcsICc3LjAnLCAnLXRuJywgJzgnLCAnLW1hJywgJzIwMCcsICctbWV0YWxfYmluZGluZycsICctaW1hZScsICc8aW5maWxlLm1hZT4nLCAnLW9tYWUnLCAnPG91dGZpbGUubWFlPic=

> <r_lp_tautomer_probability>
0.5

> <r_epik_Ionization_Penalty>
9.4349e-05

> <r_epik_Ionization_Penalty_Charging>
0

> <r_epik_Ionization_Penalty_Neutral>
9.4349e-05

> <r_epik_State_Penalty>
0.41068

> <r_epik_Charging_Adjusted_Penalty>
0.41068

> <i_epik_Tot_Q>
0

> <i_epik_Tot_abs_Q>
0

> <r_epik_Metal_State_Penalty>
0.4107

> <b_epik_Metal_Only>
0

> <s_lp_Force_Field>
OPLS_2005

> <r_lp_Energy>
48.3908

> <b_lp_Chiralities_Consistent>
1

> <s_lp_Variant>
AV-unprocessed.smi:2881-2

> <Gold.Version>
5.8.1

> <Gold.Id.Protein>
6NUR|6NUR_protein|mol2

> <Gold.PLP.Fitness>
38.2413

> <Gold.PLP.PLP>
-33.4249

> <Gold.PLP.part.hbond>
-3.0000

> <Gold.PLP.part.metal>
0.0000

> <Gold.PLP.part.buried>
-1.0173

> <Gold.PLP.part.nonpolar>
-29.5732

> <Gold.PLP.part.repulsive>
0.1464

> <Gold.PLP.ligand.clash>
0.0000

> <Gold.PLP.ligand.torsion>
1.1040

> <Gold.PLP.Chemscore.Hbond>
2.3360

> <Gold.PLP.Chemscore.CHOScore>
0.0000

> <Gold.PLP.Chemscore.Metal>
0.0000

> <Gold.Chemscore.Hbonds>
donor molecule, donor type, donor heavy atom, donor atom, acceptor molecule, acceptor atom, score
      L1  H    17    40       P1  8028  1.00
      P1  H  7997  8010       L1     7  1.00
      P1  H  8011  8017       L1    17  0.25

> <Gold.PLP.Chemscore.Internal.Correction>
0.0164

> <Gold.Rescore>
     Score         DG    S(hbond)    S(metal)    S(lipo)     H(rot)  DE(clash)    DE(int)     intcor
     16.74     -18.01       2.20        0.00      94.10       2.28       0.18       1.09       ----

> <Gold.Chemscore.Fitness>
16.7364

> <Gold.Chemscore.DG>
-18.0101

> <Gold.Chemscore.ZeroCoef>
-5.4800

> <Gold.Chemscore.Hbond>
2.1994

> <Gold.Chemscore.Metal>
0.0000

> <Gold.Chemscore.Lipo>
94.0966

> <Gold.Chemscore.Internal_Hbond>
0.0000

> <Gold.Chemscore.DEClash>
0.1847

> <Gold.Chemscore.DEInternal>
1.0890

> <Gold.Chemscore.Rot>
2.2755

> <Gold.Chemscore.Internal.Correction>
   9.000000E+99

> <Gold.Chemscore.Hbonds>
donor molecule, donor type, donor heavy atom, donor atom, acceptor molecule, acceptor atom, score
      L1  H    17    40       P1  8028  0.99
      P1  H  7997  8010       L1     7  0.99
      P1  H  8011  8017       L1    17  0.21

> <Gold.Chemscore.Hbond.Weighted>
-7.3461

> <Gold.Chemscore.Metal.Weighted>
-0.0000

> <Gold.Chemscore.Lipo.Weighted>
-11.0093

> <Gold.Chemscore.Internal_Hbond.Weighted>
0.0000

> <Gold.Chemscore.DEClash.Weighted>
0.1847

> <Gold.Chemscore.DEInternal.Weighted>
1.0890

> <Gold.Chemscore.Rot.Weighted>
5.8252

> <Gold.Chemscore.Internal.Correction.Weighted>
   9.000000E+99

> <Gold.Protein.RotatedTorsions>
[ 6907 6896 6895 6894 ] final   40.24 input  -60.11 | X-H torsion
[ 7974 7965 7964 7962 ] final -152.33 input  175.53 | X-H torsion
[ 8008 7997 7996 7995 ] final   36.90 input   59.86 | X-H torsion
[ 10167 10162 10161 10158 ] final  -25.76 input  -65.29 | X-H torsion
[ 10718 10713 10712 10709 ] final   22.56 input   66.30 | X-H torsion
[ 10763 10752 10751 10750 ] final   37.17 input  -60.55 | X-H torsion
[ 11005 11000 10999 10996 ] final  -70.31 input  -57.11 | X-H torsion

> <Gold.Protein.ActiveResidues>
 VAL166  LYS551  ARG553  GLY616  TRP617  ASP618  TYR619  PRO620  LYS621  CYS622 
 ASP623  PHE694  ASN695  SER759  ASP760  ASP761  ALA762  ILE779  LEU786  VAL792 
 PHE793  MET794  SER795  GLU796  ALA797  LYS798  CYS799  TRP800  GLU811  SER814 

> <Gold.Protein.RotatedAtoms>
  152.1800  134.8762  160.0526 H   0  0  0  0  0  0  0  0  0  0  0  0  # atno 6907 bound_to 6896
  151.9690  133.3715  159.4072 H   0  0  0  0  0  0  0  0  0  0  0  0  # atno 6908 bound_to 6896
  150.6916  134.4083  159.5194 H   0  0  0  0  0  0  0  0  0  0  0  0  # atno 6909 bound_to 6896
  144.7800  140.4677  143.5846 H   0  0  0  0  0  0  0  0  0  0  0  0  # atno 7974 bound_to 7965
  155.1950  140.3311  155.4352 H   0  0  0  0  0  0  0  0  0  0  0  0  # atno 8008 bound_to 7997
  156.2428  140.1903  156.6990 H   0  0  0  0  0  0  0  0  0  0  0  0  # atno 8009 bound_to 7997
  154.6180  140.0599  156.9565 H   0  0  0  0  0  0  0  0  0  0  0  0  # atno 8010 bound_to 7997
  140.7285  143.4236  151.0911 H   0  0  0  0  0  0  0  0  0  0  0  0  # atno 10167 bound_to 10162
  157.1540  130.6687  149.6021 H   0  0  0  0  0  0  0  0  0  0  0  0  # atno 10718 bound_to 10713
  153.0048  135.6285  154.2103 H   0  0  0  0  0  0  0  0  0  0  0  0  # atno 10763 bound_to 10752
  154.1846  135.2811  155.3043 H   0  0  0  0  0  0  0  0  0  0  0  0  # atno 10764 bound_to 10752
  154.5808  135.5648  153.7243 H   0  0  0  0  0  0  0  0  0  0  0  0  # atno 10765 bound_to 10752
  141.1571  133.6787  156.6733 H   0  0  0  0  0  0  0  0  0  0  0  0  # atno 11005 bound_to 11000
  145.6077  139.1510  143.3093 LP  0  0  0  0  0  0  0  0  0  0  0  0  # atno 17320 bound_to 7965
  146.2003  140.6195  142.9105 LP  0  0  0  0  0  0  0  0  0  0  0  0  # atno 17321 bound_to 7965
  139.7885  143.8252  152.3148 LP  0  0  0  0  0  0  0  0  0  0  0  0  # atno 17342 bound_to 10162
  139.8228  144.7288  150.9550 LP  0  0  0  0  0  0  0  0  0  0  0  0  # atno 17343 bound_to 10162
  155.9765  130.4734  150.6534 LP  0  0  0  0  0  0  0  0  0  0  0  0  # atno 17370 bound_to 10713
  157.4194  131.0834  151.1145 LP  0  0  0  0  0  0  0  0  0  0  0  0  # atno 17371 bound_to 10713
  140.3158  134.8048  157.4213 LP  0  0  0  0  0  0  0  0  0  0  0  0  # atno 17394 bound_to 11000
  140.1139  134.5309  155.8242 LP  0  0  0  0  0  0  0  0  0  0  0  0  # atno 17395 bound_to 11000

$$$$
