AV-unprocessed.smi:1357|AV-procd|sdf|5548|dock5
  -GOLD-   22720 5143D 1   1.00000     0.00000
 Structure written by MMmdl.
 43 44  0  0  0  0  0  0  0  0  1 V2000
  151.2631  139.3825  155.6832 C   0  0  0  0  0  0  0  0  0  0  0  0
  152.1648  138.1778  155.3419 C   0  0  0  0  0  0  0  0  0  0  0  0
  151.3198  137.1046  154.6258 C   0  0  0  0  0  0  0  0  0  0  0  0
  153.2904  138.6500  154.3915 C   0  0  0  0  0  0  0  0  0  0  0  0
  152.7120  137.5798  156.6611 C   0  0  0  0  0  0  0  0  0  0  0  0
  152.5383  136.3846  156.9043 O   0  0  0  0  0  0  0  0  0  0  0  0
  153.3625  138.3945  157.5095 N   0  0  0  0  0  0  0  0  0  0  0  0
  153.8911  138.0073  158.8115 C   0  0  0  0  0  0  0  0  0  0  0  0
  153.8140  139.1393  159.8184 C   0  0  0  0  0  0  0  0  0  0  0  0
  154.3655  138.9969  161.1075 C   0  0  0  0  0  0  0  0  0  0  0  0
  154.2455  140.0708  162.0102 C   0  0  0  0  0  0  0  0  0  0  0  0
  153.6287  141.2316  161.7026 N   0  0  0  0  0  0  0  0  0  0  0  0
  153.0975  141.3677  160.4637 C   0  0  0  0  0  0  0  0  0  0  0  0
  152.4655  142.5761  160.1370 N   0  0  0  0  0  0  0  0  0  0  0  0
  152.9543  143.1540  158.8915 C   0  0  0  0  0  0  0  0  0  0  0  0
  152.1292  144.4011  158.5291 C   0  0  0  0  0  0  0  0  0  0  0  0
  152.1635  145.3292  159.6097 O   0  0  0  0  0  0  0  0  0  0  0  0
  151.6154  144.7797  160.8047 C   0  0  0  0  0  0  0  0  0  0  0  0
  152.4314  143.5453  161.2258 C   0  0  0  0  0  0  0  0  0  0  0  0
  153.1666  140.3482  159.4909 C   0  0  0  0  0  0  0  0  0  0  0  0
  150.8515  139.8356  154.7806 H   0  0  0  0  0  0  0  0  0  0  0  0
  151.8174  140.1584  156.2131 H   0  0  0  0  0  0  0  0  0  0  0  0
  150.4185  139.0944  156.3109 H   0  0  0  0  0  0  0  0  0  0  0  0
  150.4892  136.7610  155.2440 H   0  0  0  0  0  0  0  0  0  0  0  0
  151.9203  136.2318  154.3663 H   0  0  0  0  0  0  0  0  0  0  0  0
  150.8927  137.4926  153.7002 H   0  0  0  0  0  0  0  0  0  0  0  0
  152.8769  139.0699  153.4740 H   0  0  0  0  0  0  0  0  0  0  0  0
  153.9453  137.8282  154.0982 H   0  0  0  0  0  0  0  0  0  0  0  0
  153.9073  139.4255  154.8482 H   0  0  0  0  0  0  0  0  0  0  0  0
  153.4704  139.3628  157.2446 H   0  0  0  0  0  0  0  0  0  0  0  0
  153.3707  137.1290  159.1971 H   0  0  0  0  0  0  0  0  0  0  0  0
  154.9329  137.7117  158.6843 H   0  0  0  0  0  0  0  0  0  0  0  0
  154.8630  138.0845  161.4022 H   0  0  0  0  0  0  0  0  0  0  0  0
  154.6543  139.9947  163.0067 H   0  0  0  0  0  0  0  0  0  0  0  0
  154.0058  143.4243  158.9999 H   0  0  0  0  0  0  0  0  0  0  0  0
  152.8910  142.4168  158.0902 H   0  0  0  0  0  0  0  0  0  0  0  0
  152.5396  144.8770  157.6386 H   0  0  0  0  0  0  0  0  0  0  0  0
  151.0968  144.1321  158.3000 H   0  0  0  0  0  0  0  0  0  0  0  0
  151.6445  145.5356  161.5896 H   0  0  0  0  0  0  0  0  0  0  0  0
  150.5667  144.5201  160.6504 H   0  0  0  0  0  0  0  0  0  0  0  0
  151.9902  143.0884  162.1125 H   0  0  0  0  0  0  0  0  0  0  0  0
  153.4466  143.8471  161.4876 H   0  0  0  0  0  0  0  0  0  0  0  0
  152.7293  140.4902  158.5132 H   0  0  0  0  0  0  0  0  0  0  0  0
  1  2  1  0  0  0  0
  1 21  1  0  0  0  0
  1 22  1  0  0  0  0
  1 23  1  0  0  0  0
  2  3  1  0  0  0  0
  2  4  1  0  0  0  0
  2  5  1  0  0  0  0
  3 24  1  0  0  0  0
  3 25  1  0  0  0  0
  3 26  1  0  0  0  0
  4 27  1  0  0  0  0
  4 28  1  0  0  0  0
  4 29  1  0  0  0  0
  5  6  2  0  0  0  0
  5  7  1  0  0  0  0
  7  8  1  0  0  0  0
  7 30  1  0  0  0  0
  8  9  1  0  0  0  0
  8 31  1  0  0  0  0
  8 32  1  0  0  0  0
  9 20  1  0  0  0  0
  9 10  2  0  0  0  0
 10 11  1  0  0  0  0
 10 33  1  0  0  0  0
 11 12  2  0  0  0  0
 11 34  1  0  0  0  0
 12 13  1  0  0  0  0
 13 14  1  0  0  0  0
 13 20  2  0  0  0  0
 14 19  1  0  0  0  0
 14 15  1  0  0  0  0
 15 16  1  0  0  0  0
 15 35  1  0  0  0  0
 15 36  1  0  0  0  0
 16 17  1  0  0  0  0
 16 37  1  0  0  0  0
 16 38  1  0  0  0  0
 17 18  1  0  0  0  0
 18 19  1  0  0  0  0
 18 39  1  0  0  0  0
 18 40  1  0  0  0  0
 19 41  1  0  0  0  0
 19 42  1  0  0  0  0
 20 43  1  0  0  0  0
M  END
> <s_m_source_file>
AV-unprocessed.smi

> <i_m_source_file_index>
1357

> <i_lp_mmshare_version>
43012

> <i_f3d_flags>
0

> <s_epik_input>
W0NIM11DKFtDSDNdKShbQ0gzXSlDKD1PKVtOSF1bQ0gyXWMxW2NIXVtjSF1uYyhbY0hdMSlOMltDSDJdW0NIMl1PW0NIMl1bQ0gyXTI=

> <s_epik_cmdline>
J2VwaWtfcHl0aG9uJywgJy1waCcsICc3LjAnLCAnLXRuJywgJzgnLCAnLW1hJywgJzIwMCcsICctbWV0YWxfYmluZGluZycsICctaW1hZScsICc8aW5maWxlLm1hZT4nLCAnLW9tYWUnLCAnPG91dGZpbGUubWFlPic=

> <r_lp_tautomer_probability>
1

> <r_epik_Ionization_Penalty>
0.00576178

> <r_epik_Ionization_Penalty_Charging>
0

> <r_epik_Ionization_Penalty_Neutral>
0.00576178

> <r_epik_State_Penalty>
0.00422935

> <r_epik_Charging_Adjusted_Penalty>
0.00422935

> <i_epik_Tot_Q>
0

> <i_epik_Tot_abs_Q>
0

> <r_epik_Metal_State_Penalty>
-0

> <b_epik_Metal_Only>
0

> <s_lp_Force_Field>
OPLS_2005

> <r_lp_Energy>
22.6538

> <b_lp_Chiralities_Consistent>
1

> <s_lp_Variant>
AV-unprocessed.smi:1357-1

> <Gold.Version>
5.8.1

> <Gold.Id.Protein>
6NUR|6NUR_protein|mol2

> <Gold.PLP.Fitness>
40.2980

> <Gold.PLP.PLP>
-38.0438

> <Gold.PLP.part.hbond>
-1.0000

> <Gold.PLP.part.metal>
0.0000

> <Gold.PLP.part.buried>
-5.5454

> <Gold.PLP.part.nonpolar>
-32.9743

> <Gold.PLP.part.repulsive>
1.4223

> <Gold.PLP.ligand.clash>
0.0000

> <Gold.PLP.ligand.torsion>
0.3898

> <Gold.PLP.Chemscore.Hbond>
0.9750

> <Gold.PLP.Chemscore.CHOScore>
0.0000

> <Gold.PLP.Chemscore.Metal>
0.0000

> <Gold.Chemscore.Hbonds>
donor molecule, donor type, donor heavy atom, donor atom, acceptor molecule, acceptor atom, score
      P1  H 10752 10765       L1     6  0.86

> <Gold.PLP.Chemscore.Internal.Correction>
0.1088

> <Gold.Rescore>
     Score         DG    S(hbond)    S(metal)    S(lipo)     H(rot)  DE(clash)    DE(int)     intcor
     16.79     -17.03       0.94        0.00     105.04       1.52       0.01       0.23       ----

> <Gold.Chemscore.Fitness>
16.7945

> <Gold.Chemscore.DG>
-17.0349

> <Gold.Chemscore.ZeroCoef>
-5.4800

> <Gold.Chemscore.Hbond>
0.9431

> <Gold.Chemscore.Metal>
0.0000

> <Gold.Chemscore.Lipo>
105.0371

> <Gold.Chemscore.Internal_Hbond>
0.0000

> <Gold.Chemscore.DEClash>
0.0067

> <Gold.Chemscore.DEInternal>
0.2337

> <Gold.Chemscore.Rot>
1.5173

> <Gold.Chemscore.Internal.Correction>
   9.000000E+99

> <Gold.Chemscore.Hbonds>
donor molecule, donor type, donor heavy atom, donor atom, acceptor molecule, acceptor atom, score
      P1  H 10752 10765       L1     6  0.33

> <Gold.Chemscore.Hbond.Weighted>
-3.1498

> <Gold.Chemscore.Metal.Weighted>
-0.0000

> <Gold.Chemscore.Lipo.Weighted>
-12.2893

> <Gold.Chemscore.Internal_Hbond.Weighted>
0.0000

> <Gold.Chemscore.DEClash.Weighted>
0.0067

> <Gold.Chemscore.DEInternal.Weighted>
0.2337

> <Gold.Chemscore.Rot.Weighted>
3.8843

> <Gold.Chemscore.Internal.Correction.Weighted>
   9.000000E+99

> <Gold.Protein.RotatedTorsions>
[ 6907 6896 6895 6894 ] final  -97.34 input  -60.11 | X-H torsion
[ 7974 7965 7964 7962 ] final  169.97 input  175.53 | X-H torsion
[ 8008 7997 7996 7995 ] final  -27.82 input   59.86 | X-H torsion
[ 10167 10162 10161 10158 ] final   37.26 input  -65.29 | X-H torsion
[ 10718 10713 10712 10709 ] final  -84.21 input   66.30 | X-H torsion
[ 10763 10752 10751 10750 ] final -132.43 input  -60.55 | X-H torsion
[ 11005 11000 10999 10996 ] final -150.93 input  -57.11 | X-H torsion

> <Gold.Protein.ActiveResidues>
 VAL166  LYS551  ARG553  GLY616  TRP617  ASP618  TYR619  PRO620  LYS621  CYS622 
 ASP623  PHE694  ASN695  SER759  ASP760  ASP761  ALA762  ILE779  LEU786  VAL792 
 PHE793  MET794  SER795  GLU796  ALA797  LYS798  CYS799  TRP800  GLU811  SER814 

> <Gold.Protein.RotatedAtoms>
  150.7013  134.1364  159.4088 H   0  0  0  0  0  0  0  0  0  0  0  0  # atno 6907 bound_to 6896
  151.9349  135.0237  160.0541 H   0  0  0  0  0  0  0  0  0  0  0  0  # atno 6908 bound_to 6896
  152.2144  133.4900  159.5164 H   0  0  0  0  0  0  0  0  0  0  0  0  # atno 6909 bound_to 6896
  144.7338  139.9133  143.6416 H   0  0  0  0  0  0  0  0  0  0  0  0  # atno 7974 bound_to 7965
  154.4359  140.1862  156.0993 H   0  0  0  0  0  0  0  0  0  0  0  0  # atno 8008 bound_to 7997
  156.0305  140.3331  155.7108 H   0  0  0  0  0  0  0  0  0  0  0  0  # atno 8009 bound_to 7997
  155.5846  140.0625  157.2765 H   0  0  0  0  0  0  0  0  0  0  0  0  # atno 8010 bound_to 7997
  140.4050  144.1672  150.6135 H   0  0  0  0  0  0  0  0  0  0  0  0  # atno 10167 bound_to 10162
  156.0009  130.4690  150.4375 H   0  0  0  0  0  0  0  0  0  0  0  0  # atno 10718 bound_to 10713
  154.8743  135.3798  154.4408 H   0  0  0  0  0  0  0  0  0  0  0  0  # atno 10763 bound_to 10752
  153.5093  135.7030  153.5794 H   0  0  0  0  0  0  0  0  0  0  0  0  # atno 10764 bound_to 10752
  153.4091  135.3929  155.2004 H   0  0  0  0  0  0  0  0  0  0  0  0  # atno 10765 bound_to 10752
  140.7349  134.3579  157.5159 H   0  0  0  0  0  0  0  0  0  0  0  0  # atno 11005 bound_to 11000
  146.0984  139.3978  143.0362 LP  0  0  0  0  0  0  0  0  0  0  0  0  # atno 17320 bound_to 7965
  145.7613  140.9934  143.1198 LP  0  0  0  0  0  0  0  0  0  0  0  0  # atno 17321 bound_to 7965
  140.4699  143.2417  151.9103 LP  0  0  0  0  0  0  0  0  0  0  0  0  # atno 17342 bound_to 10162
  139.4783  144.5380  151.8570 LP  0  0  0  0  0  0  0  0  0  0  0  0  # atno 17343 bound_to 10162
  157.2419  131.0527  151.2431 LP  0  0  0  0  0  0  0  0  0  0  0  0  # atno 17370 bound_to 10713
  157.3612  130.7132  149.6503 LP  0  0  0  0  0  0  0  0  0  0  0  0  # atno 17371 bound_to 10713
  139.8818  134.9043  156.2874 LP  0  0  0  0  0  0  0  0  0  0  0  0  # atno 17394 bound_to 11000
  140.9888  133.7221  156.0782 LP  0  0  0  0  0  0  0  0  0  0  0  0  # atno 17395 bound_to 11000

$$$$
