AV-unprocessed.smi:1550|AV-procd|sdf|6227|dock7
  -GOLD-   22720 6403D 1   1.00000     0.00000
 Structure written by MMmdl.
 43 44  0  0  0  0  0  0  0  0  1 V2000
  152.8071  137.9858  156.9407 C   0  0  0  0  0  0  0  0  0  0  0  0
  152.0421  138.6363  158.1028 C   0  0  1  0  0  0  0  0  0  0  0  0
  151.2193  139.6610  157.5521 O   0  0  0  0  0  0  0  0  0  0  0  0
  150.6207  140.5392  158.4986 C   0  0  0  0  0  0  0  0  0  0  0  0
  151.4919  141.7954  158.6212 C   0  0  1  0  0  0  0  0  0  0  0  0
  151.1571  142.8354  157.5342 C   0  0  0  0  0  0  0  0  0  0  0  0
  151.9875  144.1086  157.7339 C   0  0  0  0  0  0  0  0  0  0  0  0
  151.8133  144.6211  159.1674 C   0  0  0  0  0  0  0  0  0  0  0  0
  152.0959  143.4959  160.1754 C   0  0  0  0  0  0  0  0  0  0  0  0
  151.2569  142.3779  159.9017 O   0  0  0  0  0  0  0  0  0  0  0  0
  151.1779  137.6071  158.8492 C   0  0  0  0  0  0  0  0  0  0  0  0
  151.5688  137.1544  159.9253 O   0  0  0  0  0  0  0  0  0  0  0  0
  150.0214  137.2713  158.2443 N   0  0  0  0  0  0  0  0  0  0  0  0
  149.0653  136.3193  158.6342 C   0  0  0  0  0  0  0  0  0  0  0  0
  148.6377  136.1346  159.9106 C   0  0  0  0  0  0  0  0  0  0  0  0
  147.6578  135.1165  160.2545 C   0  0  0  0  0  0  0  0  0  0  0  0
  147.1649  134.9041  161.6772 C   0  0  0  0  0  0  0  0  0  0  0  0
  145.8339  134.9563  161.7155 F   0  0  0  0  0  0  0  0  0  0  0  0
  147.5416  133.7045  162.1200 F   0  0  0  0  0  0  0  0  0  0  0  0
  147.6454  135.8279  162.5097 F   0  0  0  0  0  0  0  0  0  0  0  0
  147.2023  134.3558  159.2430 C   0  0  0  0  0  0  0  0  0  0  0  0
  147.6454  134.5324  157.9302 N   0  0  0  0  0  0  0  0  0  0  0  0
  148.5523  135.4616  157.5533 C   0  0  0  0  0  0  0  0  0  0  0  0
  148.8967  135.5517  156.3754 O   0  0  0  0  0  0  0  0  0  0  0  0
  147.2573  133.9187  157.2281 H   0  0  0  0  0  0  0  0  0  0  0  0
  153.4530  137.1809  157.2932 H   0  0  0  0  0  0  0  0  0  0  0  0
  153.4389  138.7181  156.4373 H   0  0  0  0  0  0  0  0  0  0  0  0
  152.1288  137.5702  156.1945 H   0  0  0  0  0  0  0  0  0  0  0  0
  152.7690  139.0818  158.7851 H   0  0  0  0  0  0  0  0  0  0  0  0
  149.6227  140.8264  158.1652 H   0  0  0  0  0  0  0  0  0  0  0  0
  150.5135  140.0498  159.4679 H   0  0  0  0  0  0  0  0  0  0  0  0
  152.5412  141.5067  158.5343 H   0  0  0  0  0  0  0  0  0  0  0  0
  151.3440  142.4218  156.5426 H   0  0  0  0  0  0  0  0  0  0  0  0
  150.0953  143.0821  157.5752 H   0  0  0  0  0  0  0  0  0  0  0  0
  153.0400  143.8922  157.5465 H   0  0  0  0  0  0  0  0  0  0  0  0
  151.6911  144.8739  157.0164 H   0  0  0  0  0  0  0  0  0  0  0  0
  152.4767  145.4671  159.3493 H   0  0  0  0  0  0  0  0  0  0  0  0
  150.7947  144.9859  159.3054 H   0  0  0  0  0  0  0  0  0  0  0  0
  153.1439  143.1947  160.1399 H   0  0  0  0  0  0  0  0  0  0  0  0
  151.8995  143.8436  161.1897 H   0  0  0  0  0  0  0  0  0  0  0  0
  149.7836  137.7922  157.4122 H   0  0  0  0  0  0  0  0  0  0  0  0
  149.0378  136.7319  160.7135 H   0  0  0  0  0  0  0  0  0  0  0  0
  146.4758  133.5653  159.3611 H   0  0  0  0  0  0  0  0  0  0  0  0
  1  2  1  0  0  0  0
  1 26  1  0  0  0  0
  1 27  1  0  0  0  0
  1 28  1  0  0  0  0
  2  3  1  0  0  0  0
  2 11  1  0  0  0  0
  2 29  1  0  0  0  0
  3  4  1  0  0  0  0
  4  5  1  0  0  0  0
  4 30  1  0  0  0  0
  4 31  1  0  0  0  0
  5 10  1  0  0  0  0
  5  6  1  0  0  0  0
  5 32  1  0  0  0  0
  6  7  1  0  0  0  0
  6 33  1  0  0  0  0
  6 34  1  0  0  0  0
  7  8  1  0  0  0  0
  7 35  1  0  0  0  0
  7 36  1  0  0  0  0
  8  9  1  0  0  0  0
  8 37  1  0  0  0  0
  8 38  1  0  0  0  0
  9 10  1  0  0  0  0
  9 39  1  0  0  0  0
  9 40  1  0  0  0  0
 11 12  2  0  0  0  0
 11 13  1  0  0  0  0
 13 14  1  0  0  0  0
 13 41  1  0  0  0  0
 14 23  1  0  0  0  0
 14 15  2  0  0  0  0
 15 16  1  0  0  0  0
 15 42  1  0  0  0  0
 16 17  1  0  0  0  0
 16 21  2  0  0  0  0
 17 18  1  0  0  0  0
 17 19  1  0  0  0  0
 17 20  1  0  0  0  0
 21 22  1  0  0  0  0
 21 43  1  0  0  0  0
 22 25  1  0  0  0  0
 22 23  1  0  0  0  0
 23 24  2  0  0  0  0
M  END
> <s_m_source_file>
AV-unprocessed.smi

> <i_m_source_file_index>
1550

> <i_lp_mmshare_version>
43012

> <i_f3d_flags>
0

> <s_epik_input>
TzFbQ0gyXVtDSDJdW0NIMl1bQ0gyXVtDQEhdMVtDSDJdT1tDQEBIXShbQ0gzXSlDKD1PKVtOSF1jMltjSF1jKEMoRikoRilGKVtjSF1bbkhdYzI9Tw==

> <s_epik_cmdline>
J2VwaWtfcHl0aG9uJywgJy1waCcsICc3LjAnLCAnLXRuJywgJzgnLCAnLW1hJywgJzIwMCcsICctbWV0YWxfYmluZGluZycsICctaW1hZScsICc8aW5maWxlLm1hZT4nLCAnLW9tYWUnLCAnPG91dGZpbGUubWFlPic=

> <r_lp_tautomer_probability>
0.999

> <r_epik_Ionization_Penalty>
0.00891333

> <r_epik_Ionization_Penalty_Charging>
0.00891323

> <r_epik_Ionization_Penalty_Neutral>
1.00146e-07

> <r_epik_State_Penalty>
0.00674197

> <r_epik_Charging_Adjusted_Penalty>
0.0156552

> <i_epik_Tot_Q>
0

> <i_epik_Tot_abs_Q>
0

> <r_epik_Metal_State_Penalty>
0.321024

> <b_epik_Metal_Only>
0

> <s_lp_Force_Field>
OPLS_2005

> <r_lp_Energy>
24.886

> <b_lp_Chiralities_Consistent>
1

> <s_lp_Variant>
AV-unprocessed.smi:1550-4

> <Gold.Version>
5.8.1

> <Gold.Id.Protein>
6NUR|6NUR_protein|mol2

> <Gold.PLP.Fitness>
45.4520

> <Gold.PLP.PLP>
-45.4447

> <Gold.PLP.part.hbond>
-1.8305

> <Gold.PLP.part.metal>
0.0000

> <Gold.PLP.part.buried>
-6.7683

> <Gold.PLP.part.nonpolar>
-37.9130

> <Gold.PLP.part.repulsive>
0.1496

> <Gold.PLP.ligand.clash>
0.0000

> <Gold.PLP.ligand.torsion>
1.5230

> <Gold.PLP.Chemscore.Hbond>
0.9913

> <Gold.PLP.Chemscore.CHOScore>
0.0000

> <Gold.PLP.Chemscore.Metal>
0.0000

> <Gold.Chemscore.Hbonds>
donor molecule, donor type, donor heavy atom, donor atom, acceptor molecule, acceptor atom, score
      P1  H  6896  6909       L1    12  1.00

> <Gold.PLP.Chemscore.Internal.Correction>
0.0795

> <Gold.Rescore>
     Score         DG    S(hbond)    S(metal)    S(lipo)     H(rot)  DE(clash)    DE(int)     intcor
     14.31     -15.56       1.08        0.00      95.93       1.86       0.03       1.22       ----

> <Gold.Chemscore.Fitness>
14.3062

> <Gold.Chemscore.DG>
-15.5573

> <Gold.Chemscore.ZeroCoef>
-5.4800

> <Gold.Chemscore.Hbond>
1.0801

> <Gold.Chemscore.Metal>
0.0000

> <Gold.Chemscore.Lipo>
95.9295

> <Gold.Chemscore.Internal_Hbond>
0.0000

> <Gold.Chemscore.DEClash>
0.0317

> <Gold.Chemscore.DEInternal>
1.2194

> <Gold.Chemscore.Rot>
1.8571

> <Gold.Chemscore.Internal.Correction>
   9.000000E+99

> <Gold.Chemscore.Hbonds>
donor molecule, donor type, donor heavy atom, donor atom, acceptor molecule, acceptor atom, score
      P1  H  6896  6909       L1    12  0.80

> <Gold.Chemscore.Hbond.Weighted>
-3.6077

> <Gold.Chemscore.Metal.Weighted>
-0.0000

> <Gold.Chemscore.Lipo.Weighted>
-11.2238

> <Gold.Chemscore.Internal_Hbond.Weighted>
0.0000

> <Gold.Chemscore.DEClash.Weighted>
0.0317

> <Gold.Chemscore.DEInternal.Weighted>
1.2194

> <Gold.Chemscore.Rot.Weighted>
4.7541

> <Gold.Chemscore.Internal.Correction.Weighted>
   9.000000E+99

> <Gold.Protein.RotatedTorsions>
[ 6907 6896 6895 6894 ] final  113.07 input  -60.11 | X-H torsion
[ 7974 7965 7964 7962 ] final   31.80 input  175.53 | X-H torsion
[ 8008 7997 7996 7995 ] final -118.12 input   59.86 | X-H torsion
[ 10167 10162 10161 10158 ] final  -49.41 input  -65.29 | X-H torsion
[ 10718 10713 10712 10709 ] final   22.02 input   66.30 | X-H torsion
[ 10763 10752 10751 10750 ] final  -37.97 input  -60.55 | X-H torsion
[ 11005 11000 10999 10996 ] final -137.42 input  -57.11 | X-H torsion

> <Gold.Protein.ActiveResidues>
 VAL166  LYS551  ARG553  GLY616  TRP617  ASP618  TYR619  PRO620  LYS621  CYS622 
 ASP623  PHE694  ASN695  SER759  ASP760  ASP761  ALA762  ILE779  LEU786  VAL792 
 PHE793  MET794  SER795  GLU796  ALA797  LYS798  CYS799  TRP800  GLU811  SER814 

> <Gold.Protein.RotatedAtoms>
  152.4881  133.8427  159.7160 H   0  0  0  0  0  0  0  0  0  0  0  0  # atno 6907 bound_to 6896
  150.8986  133.7139  159.2891 H   0  0  0  0  0  0  0  0  0  0  0  0  # atno 6908 bound_to 6896
  151.4588  135.1040  159.9771 H   0  0  0  0  0  0  0  0  0  0  0  0  # atno 6909 bound_to 6896
  146.1527  139.6609  142.9088 H   0  0  0  0  0  0  0  0  0  0  0  0  # atno 7974 bound_to 7965
  155.0946  140.0395  157.2679 H   0  0  0  0  0  0  0  0  0  0  0  0  # atno 8008 bound_to 7997
  154.6805  140.2632  155.6888 H   0  0  0  0  0  0  0  0  0  0  0  0  # atno 8009 bound_to 7997
  156.2693  140.2779  156.1348 H   0  0  0  0  0  0  0  0  0  0  0  0  # atno 8010 bound_to 7997
  140.6686  143.2699  151.4212 H   0  0  0  0  0  0  0  0  0  0  0  0  # atno 10167 bound_to 10162
  157.1466  130.6656  149.5998 H   0  0  0  0  0  0  0  0  0  0  0  0  # atno 10718 bound_to 10713
  153.9052  135.6798  153.4753 H   0  0  0  0  0  0  0  0  0  0  0  0  # atno 10763 bound_to 10752
  153.1108  135.4784  154.9029 H   0  0  0  0  0  0  0  0  0  0  0  0  # atno 10764 bound_to 10752
  154.7555  135.3196  154.8432 H   0  0  0  0  0  0  0  0  0  0  0  0  # atno 10765 bound_to 10752
  140.8713  134.2048  157.4649 H   0  0  0  0  0  0  0  0  0  0  0  0  # atno 11005 bound_to 11000
  145.4784  141.0437  143.2659 LP  0  0  0  0  0  0  0  0  0  0  0  0  # atno 17320 bound_to 7965
  144.7924  139.6302  143.7107 LP  0  0  0  0  0  0  0  0  0  0  0  0  # atno 17321 bound_to 7965
  139.5945  144.1428  152.2127 LP  0  0  0  0  0  0  0  0  0  0  0  0  # atno 17342 bound_to 10162
  140.0793  144.5714  150.7134 LP  0  0  0  0  0  0  0  0  0  0  0  0  # atno 17343 bound_to 10162
  155.9778  130.4759  150.6618 LP  0  0  0  0  0  0  0  0  0  0  0  0  # atno 17370 bound_to 10713
  157.4259  131.0843  151.1086 LP  0  0  0  0  0  0  0  0  0  0  0  0  # atno 17371 bound_to 10713
  139.8712  134.9775  156.4962 LP  0  0  0  0  0  0  0  0  0  0  0  0  # atno 17394 bound_to 11000
  140.8570  133.8088  155.9226 LP  0  0  0  0  0  0  0  0  0  0  0  0  # atno 17395 bound_to 11000

$$$$
