AV-unprocessed.smi:1336|AV-procd|sdf|5497|dock4
  -GOLD-   22720 5 73D 1   1.00000     0.00000
 Structure written by MMmdl.
 43 43  0  0  0  0  0  0  0  0  1 V2000
  144.6682  141.7749  156.0988 C   0  0  0  0  0  0  0  0  0  0  0  0
  145.0534  143.1178  155.4692 C   0  0  0  0  0  0  0  0  0  0  0  0
  146.0893  142.9625  154.3440 C   0  0  0  0  0  0  0  0  0  0  0  0
  147.3548  142.4411  154.8463 N   0  0  0  0  0  0  0  0  0  0  0  0
  147.6923  141.1432  154.8891 C   0  0  0  0  0  0  0  0  0  0  0  0
  146.9450  140.2387  154.5118 O   0  0  0  0  0  0  0  0  0  0  0  0
  149.0819  140.8220  155.4639 C   0  0  1  0  0  0  0  0  0  0  0  0
  149.9032  140.1224  154.3682 C   0  0  0  0  0  0  0  0  0  0  0  0
  149.7830  142.0484  155.8418 N   0  0  0  0  0  0  0  0  0  0  0  0
  150.5368  142.2023  156.9427 C   0  0  0  0  0  0  0  0  0  0  0  0
  150.7262  141.3019  157.7614 O   0  0  0  0  0  0  0  0  0  0  0  0
  151.1666  143.5819  157.1531 C   0  0  0  0  0  0  0  0  0  0  0  0
  151.6420  143.7347  158.5689 C   0  0  0  0  0  0  0  0  0  0  0  0
  151.4625  144.8229  159.3869 C   0  0  0  0  0  0  0  0  0  0  0  0
  152.1796  144.5820  160.9564 S   0  0  0  0  0  0  0  0  0  0  0  0
  152.7011  142.9817  160.4407 C   0  0  0  0  0  0  0  0  0  0  0  0
  153.4694  142.0454  161.3196 C   0  0  0  0  0  0  0  0  0  0  0  0
  153.8101  142.6778  162.6769 C   0  0  0  0  0  0  0  0  0  0  0  0
  154.6951  141.4576  160.6056 C   0  0  0  0  0  0  0  0  0  0  0  0
  152.3423  142.6934  159.1862 N   0  0  0  0  0  0  0  0  0  0  0  0
  143.9307  141.9137  156.8895 H   0  0  0  0  0  0  0  0  0  0  0  0
  145.5369  141.2824  156.5367 H   0  0  0  0  0  0  0  0  0  0  0  0
  144.2386  141.1009  155.3573 H   0  0  0  0  0  0  0  0  0  0  0  0
  144.1573  143.6016  155.0788 H   0  0  0  0  0  0  0  0  0  0  0  0
  145.4448  143.7751  156.2464 H   0  0  0  0  0  0  0  0  0  0  0  0
  145.7041  142.3148  153.5547 H   0  0  0  0  0  0  0  0  0  0  0  0
  146.2839  143.9309  153.8823 H   0  0  0  0  0  0  0  0  0  0  0  0
  148.0277  143.1173  155.1775 H   0  0  0  0  0  0  0  0  0  0  0  0
  148.9914  140.1634  156.3302 H   0  0  0  0  0  0  0  0  0  0  0  0
  149.4314  139.1905  154.0539 H   0  0  0  0  0  0  0  0  0  0  0  0
  150.9016  139.8735  154.7293 H   0  0  0  0  0  0  0  0  0  0  0  0
  150.0203  140.7505  153.4836 H   0  0  0  0  0  0  0  0  0  0  0  0
  149.6717  142.8424  155.2283 H   0  0  0  0  0  0  0  0  0  0  0  0
  151.9946  143.7277  156.4579 H   0  0  0  0  0  0  0  0  0  0  0  0
  150.4239  144.3423  156.9086 H   0  0  0  0  0  0  0  0  0  0  0  0
  150.9572  145.7500  159.1607 H   0  0  0  0  0  0  0  0  0  0  0  0
  152.8046  141.2066  161.5296 H   0  0  0  0  0  0  0  0  0  0  0  0
  152.9084  143.0103  163.1920 H   0  0  0  0  0  0  0  0  0  0  0  0
  154.4640  143.5424  162.5581 H   0  0  0  0  0  0  0  0  0  0  0  0
  154.3175  141.9643  163.3264 H   0  0  0  0  0  0  0  0  0  0  0  0
  154.4058  140.9420  159.6894 H   0  0  0  0  0  0  0  0  0  0  0  0
  155.2119  140.7376  161.2407 H   0  0  0  0  0  0  0  0  0  0  0  0
  155.4098  142.2367  160.3386 H   0  0  0  0  0  0  0  0  0  0  0  0
  1  2  1  0  0  0  0
  1 21  1  0  0  0  0
  1 22  1  0  0  0  0
  1 23  1  0  0  0  0
  2  3  1  0  0  0  0
  2 24  1  0  0  0  0
  2 25  1  0  0  0  0
  3  4  1  0  0  0  0
  3 26  1  0  0  0  0
  3 27  1  0  0  0  0
  4  5  1  0  0  0  0
  4 28  1  0  0  0  0
  5  6  2  0  0  0  0
  5  7  1  0  0  0  0
  7  8  1  0  0  0  0
  7  9  1  0  0  0  0
  7 29  1  0  0  0  0
  8 30  1  0  0  0  0
  8 31  1  0  0  0  0
  8 32  1  0  0  0  0
  9 10  1  0  0  0  0
  9 33  1  0  0  0  0
 10 11  2  0  0  0  0
 10 12  1  0  0  0  0
 12 13  1  0  0  0  0
 12 34  1  0  0  0  0
 12 35  1  0  0  0  0
 13 20  1  0  0  0  0
 13 14  2  0  0  0  0
 14 15  1  0  0  0  0
 14 36  1  0  0  0  0
 15 16  1  0  0  0  0
 16 17  1  0  0  0  0
 16 20  2  0  0  0  0
 17 18  1  0  0  0  0
 17 19  1  0  0  0  0
 17 37  1  0  0  0  0
 18 38  1  0  0  0  0
 18 39  1  0  0  0  0
 18 40  1  0  0  0  0
 19 41  1  0  0  0  0
 19 42  1  0  0  0  0
 19 43  1  0  0  0  0
M  END
> <s_m_source_file>
AV-unprocessed.smi

> <i_m_source_file_index>
1336

> <i_lp_mmshare_version>
43012

> <i_f3d_flags>
0

> <s_epik_input>
W0NIM11bQ0gyXVtDSDJdW05IXUMoPU8pW0NASF0oW0NIM10pW05IXUMoPU8pW0NIMl1jMVtjSF1zYyhuMSlbQ0hdKFtDSDNdKVtDSDNd

> <s_epik_cmdline>
J2VwaWtfcHl0aG9uJywgJy1waCcsICc3LjAnLCAnLXRuJywgJzgnLCAnLW1hJywgJzIwMCcsICctbWV0YWxfYmluZGluZycsICctaW1hZScsICc8aW5maWxlLm1hZT4nLCAnLW9tYWUnLCAnPG91dGZpbGUubWFlPic=

> <r_lp_tautomer_probability>
1

> <r_epik_Ionization_Penalty>
3.10785e-05

> <r_epik_Ionization_Penalty_Charging>
0

> <r_epik_Ionization_Penalty_Neutral>
3.10785e-05

> <r_epik_State_Penalty>
-0

> <r_epik_Charging_Adjusted_Penalty>
0

> <i_epik_Tot_Q>
0

> <i_epik_Tot_abs_Q>
0

> <r_epik_Metal_State_Penalty>
-0

> <b_epik_Metal_Only>
0

> <s_lp_Force_Field>
OPLS_2005

> <r_lp_Energy>
-5.85781

> <b_lp_Chiralities_Consistent>
1

> <s_lp_Variant>
AV-unprocessed.smi:1336-2

> <Gold.Version>
5.8.1

> <Gold.Id.Protein>
6NUR|6NUR_protein|mol2

> <Gold.PLP.Fitness>
48.4880

> <Gold.PLP.PLP>
-46.4646

> <Gold.PLP.part.hbond>
-2.0000

> <Gold.PLP.part.metal>
0.0000

> <Gold.PLP.part.buried>
-3.2127

> <Gold.PLP.part.nonpolar>
-41.3535

> <Gold.PLP.part.repulsive>
0.4461

> <Gold.PLP.ligand.clash>
0.0000

> <Gold.PLP.ligand.torsion>
0.9937

> <Gold.PLP.Chemscore.Hbond>
1.2636

> <Gold.PLP.Chemscore.CHOScore>
0.0000

> <Gold.PLP.Chemscore.Metal>
0.0000

> <Gold.Chemscore.Hbonds>
donor molecule, donor type, donor heavy atom, donor atom, acceptor molecule, acceptor atom, score
      L1  H     4    28       P1  8028  1.00
      L1  H     9    33       P1  8028  0.53

> <Gold.PLP.Chemscore.Internal.Correction>
0.2199

> <Gold.Rescore>
     Score         DG    S(hbond)    S(metal)    S(lipo)     H(rot)  DE(clash)    DE(int)     intcor
     15.24     -18.57       1.36        0.00     117.55       2.04       0.94       2.39       ----

> <Gold.Chemscore.Fitness>
15.2436

> <Gold.Chemscore.DG>
-18.5739

> <Gold.Chemscore.ZeroCoef>
-5.4800

> <Gold.Chemscore.Hbond>
1.3626

> <Gold.Chemscore.Metal>
0.0000

> <Gold.Chemscore.Lipo>
117.5483

> <Gold.Chemscore.Internal_Hbond>
0.0000

> <Gold.Chemscore.DEClash>
0.9396

> <Gold.Chemscore.DEInternal>
2.3908

> <Gold.Chemscore.Rot>
2.0353

> <Gold.Chemscore.Internal.Correction>
   9.000000E+99

> <Gold.Chemscore.Hbonds>
donor molecule, donor type, donor heavy atom, donor atom, acceptor molecule, acceptor atom, score
      L1  H     4    28       P1  8028  0.88
      L1  H     9    33       P1  8028  0.51

> <Gold.Chemscore.Hbond.Weighted>
-4.5511

> <Gold.Chemscore.Metal.Weighted>
-0.0000

> <Gold.Chemscore.Lipo.Weighted>
-13.7532

> <Gold.Chemscore.Internal_Hbond.Weighted>
0.0000

> <Gold.Chemscore.DEClash.Weighted>
0.9396

> <Gold.Chemscore.DEInternal.Weighted>
2.3908

> <Gold.Chemscore.Rot.Weighted>
5.2104

> <Gold.Chemscore.Internal.Correction.Weighted>
   9.000000E+99

> <Gold.Protein.RotatedTorsions>
[ 6907 6896 6895 6894 ] final  136.58 input  -60.11 | X-H torsion
[ 7974 7965 7964 7962 ] final  -33.04 input  175.53 | X-H torsion
[ 8008 7997 7996 7995 ] final  -77.92 input   59.86 | X-H torsion
[ 10167 10162 10161 10158 ] final -178.78 input  -65.29 | X-H torsion
[ 10718 10713 10712 10709 ] final    4.71 input   66.30 | X-H torsion
[ 10763 10752 10751 10750 ] final  131.62 input  -60.55 | X-H torsion
[ 11005 11000 10999 10996 ] final  -45.32 input  -57.11 | X-H torsion

> <Gold.Protein.ActiveResidues>
 VAL166  LYS551  ARG553  GLY616  TRP617  ASP618  TYR619  PRO620  LYS621  CYS622 
 ASP623  PHE694  ASN695  SER759  ASP760  ASP761  ALA762  ILE779  LEU786  VAL792 
 PHE793  MET794  SER795  GLU796  ALA797  LYS798  CYS799  TRP800  GLU811  SER814 

> <Gold.Protein.RotatedAtoms>
  152.2878  133.5531  159.5537 H   0  0  0  0  0  0  0  0  0  0  0  0  # atno 6907 bound_to 6896
  150.7222  134.0472  159.3795 H   0  0  0  0  0  0  0  0  0  0  0  0  # atno 6908 bound_to 6896
  151.8380  135.0600  160.0495 H   0  0  0  0  0  0  0  0  0  0  0  0  # atno 6909 bound_to 6896
  146.0942  140.5867  142.8850 H   0  0  0  0  0  0  0  0  0  0  0  0  # atno 7974 bound_to 7965
  154.5640  140.0702  156.8864 H   0  0  0  0  0  0  0  0  0  0  0  0  # atno 8008 bound_to 7997
  155.2757  140.3368  155.4243 H   0  0  0  0  0  0  0  0  0  0  0  0  # atno 8009 bound_to 7997
  156.2066  140.1742  156.7772 H   0  0  0  0  0  0  0  0  0  0  0  0  # atno 8010 bound_to 7997
  139.5416  144.2347  152.0907 H   0  0  0  0  0  0  0  0  0  0  0  0  # atno 10167 bound_to 10162
  156.8966  130.5706  149.5648 H   0  0  0  0  0  0  0  0  0  0  0  0  # atno 10718 bound_to 10713
  153.7773  135.3173  155.3361 H   0  0  0  0  0  0  0  0  0  0  0  0  # atno 10763 bound_to 10752
  154.8174  135.4626  154.0685 H   0  0  0  0  0  0  0  0  0  0  0  0  # atno 10764 bound_to 10752
  153.1963  135.6916  153.8372 H   0  0  0  0  0  0  0  0  0  0  0  0  # atno 10765 bound_to 10752
  141.0508  133.6744  156.2996 H   0  0  0  0  0  0  0  0  0  0  0  0  # atno 11005 bound_to 11000
  144.7383  140.4871  143.6888 LP  0  0  0  0  0  0  0  0  0  0  0  0  # atno 17320 bound_to 7965
  145.5980  139.1501  143.3145 LP  0  0  0  0  0  0  0  0  0  0  0  0  # atno 17321 bound_to 7965
  140.1826  144.4829  150.6520 LP  0  0  0  0  0  0  0  0  0  0  0  0  # atno 17342 bound_to 10162
  140.6648  143.2264  151.5768 LP  0  0  0  0  0  0  0  0  0  0  0  0  # atno 17343 bound_to 10162
  156.0602  130.5656  150.9177 LP  0  0  0  0  0  0  0  0  0  0  0  0  # atno 17370 bound_to 10713
  157.6051  131.0939  150.8892 LP  0  0  0  0  0  0  0  0  0  0  0  0  # atno 17371 bound_to 10713
  140.6060  134.5507  157.5525 LP  0  0  0  0  0  0  0  0  0  0  0  0  # atno 17394 bound_to 11000
  139.9348  134.7895  156.0831 LP  0  0  0  0  0  0  0  0  0  0  0  0  # atno 17395 bound_to 11000

$$$$
