AV-unprocessed.smi:697|AV-procd|sdf|3389|dock2
  -GOLD-   22720 0373D 1   1.00000     0.00000
 Structure written by MMmdl.
 44 45  0  0  0  0  0  0  0  0  1 V2000
  151.9439  140.3246  156.3138 C   0  0  0  0  0  0  0  0  0  0  0  0
  151.1373  140.2452  155.1459 O   0  0  0  0  0  0  0  0  0  0  0  0
  149.7617  139.9166  155.3477 C   0  0  1  0  0  0  0  0  0  0  0  0
  149.0675  141.0316  156.1457 C   0  0  0  0  0  0  0  0  0  0  0  0
  149.0824  139.4256  154.0560 C   0  0  0  0  0  0  0  0  0  0  0  0
  148.4437  138.3347  154.9127 C   0  0  1  0  0  0  0  0  0  0  0  0
  148.3247  137.0626  154.2085 N   0  0  0  0  0  0  0  0  0  0  0  0
  147.7972  135.9515  154.7389 C   0  0  0  0  0  0  0  0  0  0  0  0
  147.3511  135.8989  155.8848 O   0  0  0  0  0  0  0  0  0  0  0  0
  147.8143  134.9411  153.8505 N   0  0  0  0  0  0  0  0  0  0  0  0
  147.3760  133.6144  154.0012 C   0  0  0  0  0  0  0  0  0  0  0  0
  148.1779  132.5186  153.9488 C   0  0  0  0  0  0  0  0  0  0  0  0
  147.6546  131.1713  154.1030 C   0  0  0  0  0  0  0  0  0  0  0  0
  148.5703  129.9572  154.1188 C   0  0  0  0  0  0  0  0  0  0  0  0
  149.8519  130.3169  154.0370 F   0  0  0  0  0  0  0  0  0  0  0  0
  148.4018  129.2787  155.2529 F   0  0  0  0  0  0  0  0  0  0  0  0
  148.2994  129.1393  153.1017 F   0  0  0  0  0  0  0  0  0  0  0  0
  146.3300  131.0623  154.3138 C   0  0  0  0  0  0  0  0  0  0  0  0
  145.4959  132.1818  154.3484 N   0  0  0  0  0  0  0  0  0  0  0  0
  145.9259  133.4549  154.2011 C   0  0  0  0  0  0  0  0  0  0  0  0
  145.1254  134.3888  154.2389 O   0  0  0  0  0  0  0  0  0  0  0  0
  149.6635  138.4436  155.8631 C   0  0  0  0  0  0  0  0  0  0  0  0
  150.8690  137.5328  155.5533 C   0  0  0  0  0  0  0  0  0  0  0  0
  149.3669  138.2510  157.3536 C   0  0  0  0  0  0  0  0  0  0  0  0
  144.5105  132.0152  154.4931 H   0  0  0  0  0  0  0  0  0  0  0  0
  152.9404  140.6665  156.0346 H   0  0  0  0  0  0  0  0  0  0  0  0
  152.0586  139.3545  156.7963 H   0  0  0  0  0  0  0  0  0  0  0  0
  151.5442  141.0332  157.0394 H   0  0  0  0  0  0  0  0  0  0  0  0
  148.0549  140.7526  156.4364 H   0  0  0  0  0  0  0  0  0  0  0  0
  148.9764  141.9503  155.5672 H   0  0  0  0  0  0  0  0  0  0  0  0
  149.6158  141.2666  157.0582 H   0  0  0  0  0  0  0  0  0  0  0  0
  148.3733  140.1279  153.6169 H   0  0  0  0  0  0  0  0  0  0  0  0
  149.7812  139.0448  153.3087 H   0  0  0  0  0  0  0  0  0  0  0  0
  147.5121  138.6740  155.3713 H   0  0  0  0  0  0  0  0  0  0  0  0
  148.6657  137.0286  153.2589 H   0  0  0  0  0  0  0  0  0  0  0  0
  148.1560  135.1647  152.9270 H   0  0  0  0  0  0  0  0  0  0  0  0
  149.2361  132.6129  153.7690 H   0  0  0  0  0  0  0  0  0  0  0  0
  145.8145  130.1267  154.4733 H   0  0  0  0  0  0  0  0  0  0  0  0
  150.6505  136.4867  155.7705 H   0  0  0  0  0  0  0  0  0  0  0  0
  151.7403  137.8091  156.1482 H   0  0  0  0  0  0  0  0  0  0  0  0
  151.1694  137.5845  154.5069 H   0  0  0  0  0  0  0  0  0  0  0  0
  149.2317  137.1979  157.6022 H   0  0  0  0  0  0  0  0  0  0  0  0
  148.4540  138.7619  157.6583 H   0  0  0  0  0  0  0  0  0  0  0  0
  150.1777  138.6342  157.9738 H   0  0  0  0  0  0  0  0  0  0  0  0
  1  2  1  0  0  0  0
  1 26  1  0  0  0  0
  1 27  1  0  0  0  0
  1 28  1  0  0  0  0
  2  3  1  0  0  0  0
  3 22  1  0  0  0  0
  3  4  1  0  0  0  0
  3  5  1  0  0  0  0
  4 29  1  0  0  0  0
  4 30  1  0  0  0  0
  4 31  1  0  0  0  0
  5  6  1  0  0  0  0
  5 32  1  0  0  0  0
  5 33  1  0  0  0  0
  6  7  1  0  0  0  0
  6 22  1  0  0  0  0
  6 34  1  0  0  0  0
  7  8  1  0  0  0  0
  7 35  1  0  0  0  0
  8  9  2  0  0  0  0
  8 10  1  0  0  0  0
 10 11  1  0  0  0  0
 10 36  1  0  0  0  0
 11 20  1  0  0  0  0
 11 12  2  0  0  0  0
 12 13  1  0  0  0  0
 12 37  1  0  0  0  0
 13 14  1  0  0  0  0
 13 18  2  0  0  0  0
 14 15  1  0  0  0  0
 14 16  1  0  0  0  0
 14 17  1  0  0  0  0
 18 19  1  0  0  0  0
 18 38  1  0  0  0  0
 19 25  1  0  0  0  0
 19 20  1  0  0  0  0
 20 21  2  0  0  0  0
 22 23  1  0  0  0  0
 22 24  1  0  0  0  0
 23 39  1  0  0  0  0
 23 40  1  0  0  0  0
 23 41  1  0  0  0  0
 24 42  1  0  0  0  0
 24 43  1  0  0  0  0
 24 44  1  0  0  0  0
M  END
> <s_m_source_file>
AV-unprocessed.smi

> <i_m_source_file_index>
697

> <i_lp_mmshare_version>
43012

> <i_f3d_flags>
0

> <s_epik_input>
W0NIM11PW0NAQF0xKFtDSDNdKVtDSDJdW0NASF0oQzEoW0NIM10pW0NIM10pW05IXUMoPU8pW05IXWMyW2NIXWMoQyhGKShGKUYpW2NIXVtuSF1jMj1P

> <s_epik_cmdline>
J2VwaWtfcHl0aG9uJywgJy1waCcsICc3LjAnLCAnLXRuJywgJzgnLCAnLW1hJywgJzIwMCcsICctbWV0YWxfYmluZGluZycsICctaW1hZScsICc8aW5maWxlLm1hZT4nLCAnLW9tYWUnLCAnPG91dGZpbGUubWFlPic=

> <r_lp_tautomer_probability>
1

> <r_epik_Ionization_Penalty>
0.0036482

> <r_epik_Ionization_Penalty_Charging>
0.00362828

> <r_epik_Ionization_Penalty_Neutral>
1.99208e-05

> <r_epik_State_Penalty>
-0

> <r_epik_Charging_Adjusted_Penalty>
0.00362828

> <i_epik_Tot_Q>
0

> <i_epik_Tot_abs_Q>
0

> <r_epik_Metal_State_Penalty>
0.369362

> <b_epik_Metal_Only>
0

> <s_lp_Force_Field>
OPLS_2005

> <r_lp_Energy>
34.4926

> <b_lp_Chiralities_Consistent>
1

> <s_lp_Variant>
AV-unprocessed.smi:697-1

> <Gold.Version>
5.8.1

> <Gold.Id.Protein>
6NUR|6NUR_protein|mol2

> <Gold.PLP.Fitness>
36.1450

> <Gold.PLP.PLP>
-22.7815

> <Gold.PLP.part.hbond>
-4.0000

> <Gold.PLP.part.metal>
0.0000

> <Gold.PLP.part.buried>
-1.9268

> <Gold.PLP.part.nonpolar>
-18.3245

> <Gold.PLP.part.repulsive>
0.1473

> <Gold.PLP.ligand.clash>
0.0000

> <Gold.PLP.ligand.torsion>
0.9339

> <Gold.PLP.Chemscore.Hbond>
4.0000

> <Gold.PLP.Chemscore.CHOScore>
0.9429

> <Gold.PLP.Chemscore.Metal>
0.0000

> <Gold.Chemscore.Hbonds>
donor molecule, donor type, donor heavy atom, donor atom, acceptor molecule, acceptor atom, score
      L1  H     7    35       P1  7948  1.00
      L1  H    10    36       P1  7948  1.00
      L1  H    19    25       P1 10957  0.95
      P1  H  7989  7998       L1     2  1.00
      L1  C    18    38       P1 10956  0.79

> <Gold.PLP.Chemscore.Internal.Correction>
0.4025

> <Gold.Rescore>
     Score         DG    S(hbond)    S(metal)    S(lipo)     H(rot)  DE(clash)    DE(int)     intcor
     19.63     -20.62       3.73        0.00      51.45       1.31       0.05       0.94       ----

> <Gold.Chemscore.Fitness>
19.6341

> <Gold.Chemscore.DG>
-20.6243

> <Gold.Chemscore.ZeroCoef>
-5.4800

> <Gold.Chemscore.Hbond>
3.7331

> <Gold.Chemscore.Metal>
0.0000

> <Gold.Chemscore.Lipo>
51.4497

> <Gold.Chemscore.Internal_Hbond>
0.0000

> <Gold.Chemscore.DEClash>
0.0532

> <Gold.Chemscore.DEInternal>
0.9370

> <Gold.Chemscore.Rot>
1.3062

> <Gold.Chemscore.Internal.Correction>
   9.000000E+99

> <Gold.Chemscore.Hbonds>
donor molecule, donor type, donor heavy atom, donor atom, acceptor molecule, acceptor atom, score
      L1  H     7    35       P1  7948  0.96
      L1  H    10    36       P1  7948  0.93
      L1  H    19    25       P1 10957  0.22
      P1  H  7989  7998       L1     2  0.93

> <Gold.Chemscore.Hbond.Weighted>
-12.4687

> <Gold.Chemscore.Metal.Weighted>
-0.0000

> <Gold.Chemscore.Lipo.Weighted>
-6.0196

> <Gold.Chemscore.Internal_Hbond.Weighted>
0.0000

> <Gold.Chemscore.DEClash.Weighted>
0.0532

> <Gold.Chemscore.DEInternal.Weighted>
0.9370

> <Gold.Chemscore.Rot.Weighted>
3.3440

> <Gold.Chemscore.Internal.Correction.Weighted>
   9.000000E+99

> <Gold.Protein.RotatedTorsions>
[ 6907 6896 6895 6894 ] final   12.42 input  -60.11 | X-H torsion
[ 7974 7965 7964 7962 ] final  -65.76 input  175.53 | X-H torsion
[ 8008 7997 7996 7995 ] final   19.13 input   59.86 | X-H torsion
[ 10167 10162 10161 10158 ] final  -19.91 input  -65.29 | X-H torsion
[ 10718 10713 10712 10709 ] final   54.21 input   66.30 | X-H torsion
[ 10763 10752 10751 10750 ] final -174.10 input  -60.55 | X-H torsion
[ 11005 11000 10999 10996 ] final -100.93 input  -57.11 | X-H torsion

> <Gold.Protein.ActiveResidues>
 VAL166  LYS551  ARG553  GLY616  TRP617  ASP618  TYR619  PRO620  LYS621  CYS622 
 ASP623  PHE694  ASN695  SER759  ASP760  ASP761  ALA762  ILE779  LEU786  VAL792 
 PHE793  MET794  SER795  GLU796  ALA797  LYS798  CYS799  TRP800  GLU811  SER814 

> <Gold.Protein.RotatedAtoms>
  151.7701  135.0788  160.0358 H   0  0  0  0  0  0  0  0  0  0  0  0  # atno 6907 bound_to 6896
  152.3294  133.5937  159.5808 H   0  0  0  0  0  0  0  0  0  0  0  0  # atno 6908 bound_to 6896
  150.7414  133.9807  159.3617 H   0  0  0  0  0  0  0  0  0  0  0  0  # atno 6909 bound_to 6896
  145.7502  140.8912  143.0484 H   0  0  0  0  0  0  0  0  0  0  0  0  # atno 7974 bound_to 7965
  154.9163  140.3021  155.5240 H   0  0  0  0  0  0  0  0  0  0  0  0  # atno 8008 bound_to 7997
  156.3012  140.2380  156.4143 H   0  0  0  0  0  0  0  0  0  0  0  0  # atno 8009 bound_to 7997
  154.8375  140.0415  157.1508 H   0  0  0  0  0  0  0  0  0  0  0  0  # atno 8010 bound_to 7997
  140.7272  143.4773  151.0165 H   0  0  0  0  0  0  0  0  0  0  0  0  # atno 10167 bound_to 10162
  157.5236  130.8582  149.8592 H   0  0  0  0  0  0  0  0  0  0  0  0  # atno 10718 bound_to 10713
  154.6001  135.2853  155.0544 H   0  0  0  0  0  0  0  0  0  0  0  0  # atno 10763 bound_to 10752
  154.1812  135.6456  153.5038 H   0  0  0  0  0  0  0  0  0  0  0  0  # atno 10764 bound_to 10752
  153.0153  135.5424  154.6717 H   0  0  0  0  0  0  0  0  0  0  0  0  # atno 10765 bound_to 10752
  141.1251  133.8438  157.1166 H   0  0  0  0  0  0  0  0  0  0  0  0  # atno 11005 bound_to 11000
  144.6851  139.9581  143.7479 LP  0  0  0  0  0  0  0  0  0  0  0  0  # atno 17320 bound_to 7965
  146.0364  139.3381  143.0724 LP  0  0  0  0  0  0  0  0  0  0  0  0  # atno 17321 bound_to 7965
  139.8469  143.7490  152.3179 LP  0  0  0  0  0  0  0  0  0  0  0  0  # atno 17342 bound_to 10162
  139.7658  144.7492  151.0297 LP  0  0  0  0  0  0  0  0  0  0  0  0  # atno 17343 bound_to 10162
  156.0371  130.3748  150.1532 LP  0  0  0  0  0  0  0  0  0  0  0  0  # atno 17370 bound_to 10713
  156.9719  130.9837  151.3457 LP  0  0  0  0  0  0  0  0  0  0  0  0  # atno 17371 bound_to 10713
  140.0242  134.9931  157.0653 LP  0  0  0  0  0  0  0  0  0  0  0  0  # atno 17394 bound_to 11000
  140.4390  134.1701  155.7172 LP  0  0  0  0  0  0  0  0  0  0  0  0  # atno 17395 bound_to 11000

$$$$
