#       Name:                AV-unprocessed.smi:77
#       Creating user name   scv26
#       Creation time:       Thu Mar 26 17:12:00 2020


#       File generated by GOLD software.
#

@<TRIPOS>MOLECULE
AV-unprocessed.smi:77
    67    71     1
SMALL
NO_CHARGES


@<TRIPOS>ATOM
      1 ****        -3.2898   0.8432   0.9776 O.2            1 S1                 0.0000
      2 ****        -3.2683   0.0666   0.0222 C.2            1 S1                 0.0000
      3 ****        -3.3603   0.6015  -1.4118 C.3            1 S1                 0.0000
      4 ****        -2.5327   1.7944  -1.6203 N.3            1 S1                 0.0000
      5 ****        -1.2156   1.5217  -1.7617 C.ar           1 S1                 0.0000
      6 ****        -0.7538   1.0024  -2.9297 N.ar           1 S1                 0.0000
      7 ****         0.5404   0.6919  -3.0538 C.ar           1 S1                 0.0000
      8 ****         1.5174   0.8066  -2.1509 N.ar           1 S1                 0.0000
      9 ****         1.0525   1.3325  -0.9813 C.ar           1 S1                 0.0000
     10 ****        -0.2858   1.7280  -0.7099 C.ar           1 S1                 0.0000
     11 ****        -0.3836   2.2354   0.5791 N.2            1 S1                 0.0000
     12 ****         0.8269   2.1257   1.0537 C.2            1 S1                 0.0000
     13 ****         1.7446   1.5631   0.1944 N.pl3          1 S1                 0.0000
     14 ****         3.1441   1.2990   0.4713 C.3            1 S1                 0.0000
     15 ****         3.5327  -0.2068   0.4691 C.3            1 S1                 0.0000
     16 ****         5.0591  -0.3338   0.6947 C.3            1 S1                 0.0000
     17 ****         5.7877   0.2809  -0.3479 O.3            1 S1                 0.0000
     18 ****         2.7264  -1.0548   1.5008 C.3            1 S1                 0.0000
     19 ****         3.2193  -2.4827   1.6897 C.3            1 S1                 0.0000
     20 ****         2.0191  -3.1611   2.3314 C.3            1 S1                 0.0000
     21 ****         0.9082  -2.6065   1.6489 O.3            1 S1                 0.0000
     22 ****         1.2495  -1.3177   1.1481 C.3            1 S1                 0.0000
     23 ****        -3.0302   2.7705  -2.5803 C.3            1 S1                 0.0000
     24 ****        -2.5518   4.2014  -2.4883 C.3            1 S1                 0.0000
     25 ****        -3.9656   3.8470  -2.0864 C.3            1 S1                 0.0000
     26 ****        -3.1869  -1.2655   0.1533 N.am           1 S1                 0.0000
     27 ****        -3.0866  -1.9724   1.3889 C.3            1 S1                 0.0000
     28 ****        -2.2564  -3.2373   1.4090 C.3            1 S1                 0.0000
     29 ****        -3.7556  -3.3270   1.4789 C.3            1 S1                 0.0000
     30 ****        -3.0953  -0.1794  -2.1276 H              1 S1                 0.0000
     31 ****        -4.4051   0.8489  -1.6046 H              1 S1                 0.0000
     32 ****         0.8336   0.2836  -4.0098 H              1 S1                 0.0000
     33 ****         1.0788   2.4324   2.0583 H              1 S1                 0.0000
     34 ****         3.7219   1.8461  -0.2742 H              1 S1                 0.0000
     35 ****         3.3936   1.7435   1.4357 H              1 S1                 0.0000
     36 ****         3.3251  -0.6151  -0.5208 H              1 S1                 0.0000
     37 ****         5.3484   0.1096   1.6480 H              1 S1                 0.0000
     38 ****         5.3761  -1.3755   0.7160 H              1 S1                 0.0000
     39 ****         6.7103   0.1669  -0.1779 H              1 S1                 0.0000
     40 ****         2.7672  -0.5618   2.4736 H              1 S1                 0.0000
     41 ****         3.4355  -2.9449   0.7253 H              1 S1                 0.0000
     42 ****         4.1106  -2.5526   2.3139 H              1 S1                 0.0000
     43 ****         2.0458  -4.2471   2.2397 H              1 S1                 0.0000
     44 ****         1.9533  -2.9060   3.3901 H              1 S1                 0.0000
     45 ****         0.5854  -0.5707   1.5811 H              1 S1                 0.0000
     46 ****         1.0900  -1.3276   0.0696 H              1 S1                 0.0000
     47 ****        -3.2252   2.3941  -3.5833 H              1 S1                 0.0000
     48 ****        -1.8543   4.4561  -1.6924 H              1 S1                 0.0000
     49 ****        -2.4142   4.7450  -3.4207 H              1 S1                 0.0000
     50 ****        -4.7703   4.1563  -2.7504 H              1 S1                 0.0000
     51 ****        -4.2043   3.8621  -1.0246 H              1 S1                 0.0000
     52 ****        -3.1865  -1.8228  -0.6889 H              1 S1                 0.0000
     53 ****        -3.0764  -1.3818   2.3040 H              1 S1                 0.0000
     54 ****        -1.7754  -3.5450   0.4823 H              1 S1                 0.0000
     55 ****        -1.6979  -3.4552   2.3172 H              1 S1                 0.0000
     56 ****        -4.1976  -3.6056   2.4334 H              1 S1                 0.0000
     57 ****        -4.2770  -3.6981   0.5984 H              1 S1                 0.0000
     58 ****        -3.3676   1.8276   0.8201 LP             1 S1                 0.0000
     59 ****        -3.2295   0.4894   1.9110 LP             1 S1                 0.0000
     60 ****        -2.6281   2.2774  -0.7499 LP             1 S1                 0.0000
     61 ****        -1.3807   0.8529  -3.6944 LP             1 S1                 0.0000
     62 ****         2.4680   0.5410  -2.3115 LP             1 S1                 0.0000
     63 ****        -1.1940   2.6003   1.0374 LP             1 S1                 0.0000
     64 ****         5.5692   1.2561  -0.3823 LP             1 S1                 0.0000
     65 ****         5.5507  -0.1448  -1.2212 LP             1 S1                 0.0000
     66 ****         0.1369  -2.5247   2.2801 LP             1 S1                 0.0000
     67 ****         0.6539  -3.2028   0.8874 LP             1 S1                 0.0000
@<TRIPOS>BOND
    1    1    2 2     
    2    2    3 1     
    3    2   26 am    
    4    3    4 1     
    5    3   30 1     
    6    3   31 1     
    7    4    5 1     
    8    4   23 1     
    9    5   10 ar    
   10    5    6 ar    
   11    6    7 ar    
   12    7    8 ar    
   13    7   32 1     
   14    8    9 ar    
   15    9   13 1     
   16    9   10 ar    
   17   10   11 1     
   18   11   12 2     
   19   12   13 1     
   20   12   33 1     
   21   13   14 1     
   22   14   15 1     
   23   14   34 1     
   24   14   35 1     
   25   15   16 1     
   26   15   18 1     
   27   15   36 1     
   28   16   17 1     
   29   16   37 1     
   30   16   38 1     
   31   17   39 1     
   32   18   22 1     
   33   18   19 1     
   34   18   40 1     
   35   19   20 1     
   36   19   41 1     
   37   19   42 1     
   38   20   21 1     
   39   20   43 1     
   40   20   44 1     
   41   21   22 1     
   42   22   45 1     
   43   22   46 1     
   44   23   25 1     
   45   23   24 1     
   46   23   47 1     
   47   24   25 1     
   48   24   48 1     
   49   24   49 1     
   50   25   50 1     
   51   25   51 1     
   52   26   27 1     
   53   26   52 1     
   54   27   29 1     
   55   27   28 1     
   56   27   53 1     
   57   28   29 1     
   58   28   54 1     
   59   28   55 1     
   60   29   56 1     
   61   29   57 1     
   62    1   58 1     
   63    1   59 1     
   64    4   60 1     
   65    6   61 1     
   66    8   62 1     
   67   11   63 1     
   68   17   64 1     
   69   17   65 1     
   70   21   66 1     
   71   21   67 1     
@<TRIPOS>SUBSTRUCTURE
      1 S1             1
@<TRIPOS>SET
LONE_PAIRS      STATIC     ATOMS    <user>   **** ""
10 58 59 60 61 62 63 64 65 66 67
DONOR_HYDROGENS      STATIC     ATOMS    <user>   **** ""
2 39 52
ATOM$BLUE        STATIC     ATOMS    COLORGROUP SYSTEM
10 58 59 60 61 62 63 64 65 66 67
ATOM$RED        STATIC     ATOMS    COLORGROUP SYSTEM
2 39 52
