AV-unprocessed.smi:1278|AV-procd|sdf|5349|dock2
  -GOLD-   22720 4483D 1   1.00000     0.00000
 Structure written by MMmdl.
 39 40  0  0  0  0  0  0  0  0  2 V2000
  146.4511  138.4528  152.2185 C   0  0  0  0  0  0  0  0  0  0  0  0
  146.6189  138.9981  153.6478 C   0  0  2  0  0  0  0  0  0  0  0  0
  147.2514  140.4017  153.6818 C   0  0  0  0  0  0  0  0  0  0  0  0
  148.7537  140.3429  153.3719 C   0  0  0  0  0  0  0  0  0  0  0  0
  149.4684  139.3410  154.2926 C   0  0  0  0  0  0  0  0  0  0  0  0
  148.8519  137.9923  154.1997 N   0  3  1  0  0  0  0  0  0  0  0  0
  149.6168  136.9716  154.9594 C   0  0  0  0  0  0  0  0  0  0  0  0
  149.9008  137.4097  156.4093 C   0  0  0  0  0  0  0  0  0  0  0  0
  149.0907  136.6613  157.3636 N   0  0  0  0  0  0  0  0  0  0  0  0
  149.0519  136.8936  158.6838 C   0  0  0  0  0  0  0  0  0  0  0  0
  149.7007  137.7856  159.2314 O   0  0  0  0  0  0  0  0  0  0  0  0
  148.2219  136.0386  159.3067 N   0  0  0  0  0  0  0  0  0  0  0  0
  147.9152  135.9649  160.6910 C   0  0  0  0  0  0  0  0  0  0  0  0
  147.8514  137.0234  161.5073 N   0  0  0  0  0  0  0  0  0  0  0  0
  147.5317  136.6566  162.8172 C   0  0  0  0  0  0  0  0  0  0  0  0
  147.3522  135.3057  162.9807 C   0  0  0  0  0  0  0  0  0  0  0  0
  147.5800  134.4346  161.4877 S   0  0  0  0  0  0  0  0  0  0  0  0
  147.4063  138.0272  154.5524 C   0  0  0  0  0  0  0  0  0  0  0  0
  147.4103  138.3057  151.7221 H   0  0  0  0  0  0  0  0  0  0  0  0
  145.8622  139.1355  151.6055 H   0  0  0  0  0  0  0  0  0  0  0  0
  145.9344  137.4928  152.2258 H   0  0  0  0  0  0  0  0  0  0  0  0
  145.6133  139.0866  154.0614 H   0  0  0  0  0  0  0  0  0  0  0  0
  146.7455  141.0688  152.9827 H   0  0  0  0  0  0  0  0  0  0  0  0
  147.1099  140.8350  154.6731 H   0  0  0  0  0  0  0  0  0  0  0  0
  148.9098  140.0621  152.3298 H   0  0  0  0  0  0  0  0  0  0  0  0
  149.1944  141.3333  153.4890 H   0  0  0  0  0  0  0  0  0  0  0  0
  150.5204  139.2886  154.0095 H   0  0  0  0  0  0  0  0  0  0  0  0
  149.4346  139.6872  155.3268 H   0  0  0  0  0  0  0  0  0  0  0  0
  149.0388  136.0469  154.9888 H   0  0  0  0  0  0  0  0  0  0  0  0
  150.5444  136.7367  154.4351 H   0  0  0  0  0  0  0  0  0  0  0  0
  150.9445  137.2398  156.6705 H   0  0  0  0  0  0  0  0  0  0  0  0
  149.7213  138.4800  156.5275 H   0  0  0  0  0  0  0  0  0  0  0  0
  148.5280  135.9082  156.9951 H   0  0  0  0  0  0  0  0  0  0  0  0
  147.7552  135.3588  158.7245 H   0  0  0  0  0  0  0  0  0  0  0  0
  147.4523  137.4242  163.5730 H   0  0  0  0  0  0  0  0  0  0  0  0
  147.1009  134.7724  163.8855 H   0  0  0  0  0  0  0  0  0  0  0  0
  147.3030  138.3308  155.5955 H   0  0  0  0  0  0  0  0  0  0  0  0
  146.9673  137.0331  154.4767 H   0  0  0  0  0  0  0  0  0  0  0  0
  148.9120  137.7252  153.2273 H   0  0  0  0  0  0  0  0  0  0  0  0
  1  2  1  0  0  0  0
  1 19  1  0  0  0  0
  1 20  1  0  0  0  0
  1 21  1  0  0  0  0
  2 18  1  0  0  0  0
  2  3  1  0  0  0  0
  2 22  1  0  0  0  0
  3  4  1  0  0  0  0
  3 23  1  0  0  0  0
  3 24  1  0  0  0  0
  4  5  1  0  0  0  0
  4 25  1  0  0  0  0
  4 26  1  0  0  0  0
  5  6  1  0  0  0  0
  5 27  1  0  0  0  0
  5 28  1  0  0  0  0
  6  7  1  0  0  0  0
  6 18  1  0  0  0  0
  6 39  1  0  0  0  0
  7  8  1  0  0  0  0
  7 29  1  0  0  0  0
  7 30  1  0  0  0  0
  8  9  1  0  0  0  0
  8 31  1  0  0  0  0
  8 32  1  0  0  0  0
  9 10  1  0  0  0  0
  9 33  1  0  0  0  0
 10 11  2  0  0  0  0
 10 12  1  0  0  0  0
 12 13  1  0  0  0  0
 12 34  1  0  0  0  0
 13 17  1  0  0  0  0
 13 14  2  0  0  0  0
 14 15  1  0  0  0  0
 15 16  2  0  0  0  0
 15 35  1  0  0  0  0
 16 17  1  0  0  0  0
 16 36  1  0  0  0  0
 18 37  1  0  0  0  0
 18 38  1  0  0  0  0
M  CHG  1   6   1
M  END
> <s_m_source_file>
AV-unprocessed.smi

> <i_m_source_file_index>
1278

> <i_lp_mmshare_version>
43012

> <i_f3d_flags>
0

> <s_epik_input>
W0NIM11bQ0BASF0xW0NIMl1bQ0gyXVtDSDJdTihbQ0gyXTEpW0NIMl1bQ0gyXVtOSF1DKD1PKVtOSF1jMm5bY0hdW2NIXXMy

> <s_epik_cmdline>
J2VwaWtfcHl0aG9uJywgJy1waCcsICc3LjAnLCAnLXRuJywgJzgnLCAnLW1hJywgJzIwMCcsICctbWV0YWxfYmluZGluZycsICctaW1hZScsICc8aW5maWxlLm1hZT4nLCAnLW9tYWUnLCAnPG91dGZpbGUubWFlPic=

> <r_lp_tautomer_probability>
0.999

> <r_epik_Ionization_Penalty>
0.00222194

> <r_epik_Ionization_Penalty_Charging>
0.00208169

> <r_epik_Ionization_Penalty_Neutral>
0.000140251

> <r_epik_State_Penalty>
0.00142585

> <r_epik_Charging_Adjusted_Penalty>
0.00350754

> <i_epik_Tot_Q>
1

> <i_epik_Tot_abs_Q>
1

> <r_epik_Metal_State_Penalty>
0.0570424

> <b_epik_Metal_Only>
0

> <s_lp_Force_Field>
OPLS_2005

> <r_lp_Energy>
16.5942

> <b_lp_Chiralities_Consistent>
1

> <s_lp_Variant>
AV-unprocessed.smi:1278-3

> <Gold.Version>
5.8.1

> <Gold.Id.Protein>
6NUR|6NUR_protein|mol2

> <Gold.PLP.Fitness>
39.0345

> <Gold.PLP.PLP>
-29.3880

> <Gold.PLP.part.hbond>
-4.0000

> <Gold.PLP.part.metal>
0.0000

> <Gold.PLP.part.buried>
1.6967

> <Gold.PLP.part.nonpolar>
-28.0221

> <Gold.PLP.part.repulsive>
0.1585

> <Gold.PLP.ligand.clash>
0.0000

> <Gold.PLP.ligand.torsion>
0.6651

> <Gold.PLP.Chemscore.Hbond>
3.6520

> <Gold.PLP.Chemscore.CHOScore>
0.0000

> <Gold.PLP.Chemscore.Metal>
0.0000

> <Gold.Chemscore.Hbonds>
donor molecule, donor type, donor heavy atom, donor atom, acceptor molecule, acceptor atom, score
      L1  H     6    39       P1  7948  1.95
      P1  H  6931  6943       L1    14  0.85
      P1  H  6934  6947       L1    14  0.47

> <Gold.PLP.Chemscore.Internal.Correction>
0.0207

> <Gold.Rescore>
     Score         DG    S(hbond)    S(metal)    S(lipo)     H(rot)  DE(clash)    DE(int)     intcor
     13.10     -16.90       2.11        0.00      72.32       1.60       2.15       1.65       ----

> <Gold.Chemscore.Fitness>
13.1040

> <Gold.Chemscore.DG>
-16.8993

> <Gold.Chemscore.ZeroCoef>
-5.4800

> <Gold.Chemscore.Hbond>
2.1121

> <Gold.Chemscore.Metal>
0.0000

> <Gold.Chemscore.Lipo>
72.3181

> <Gold.Chemscore.Internal_Hbond>
0.0000

> <Gold.Chemscore.DEClash>
2.1462

> <Gold.Chemscore.DEInternal>
1.6492

> <Gold.Chemscore.Rot>
1.6001

> <Gold.Chemscore.Internal.Correction>
   9.000000E+99

> <Gold.Chemscore.Hbonds>
donor molecule, donor type, donor heavy atom, donor atom, acceptor molecule, acceptor atom, score
      L1  H     6    39       P1  7948  0.90
      P1  H  6931  6943       L1    14  0.14
      P1  H  6934  6947       L1    14  0.41

> <Gold.Chemscore.Hbond.Weighted>
-7.0544

> <Gold.Chemscore.Metal.Weighted>
-0.0000

> <Gold.Chemscore.Lipo.Weighted>
-8.4612

> <Gold.Chemscore.Internal_Hbond.Weighted>
0.0000

> <Gold.Chemscore.DEClash.Weighted>
2.1462

> <Gold.Chemscore.DEInternal.Weighted>
1.6492

> <Gold.Chemscore.Rot.Weighted>
4.0963

> <Gold.Chemscore.Internal.Correction.Weighted>
   9.000000E+99

> <Gold.Protein.RotatedTorsions>
[ 6907 6896 6895 6894 ] final   92.62 input  -60.11 | X-H torsion
[ 7974 7965 7964 7962 ] final  -98.08 input  175.53 | X-H torsion
[ 8008 7997 7996 7995 ] final  114.93 input   59.86 | X-H torsion
[ 10167 10162 10161 10158 ] final  -32.48 input  -65.29 | X-H torsion
[ 10718 10713 10712 10709 ] final  128.89 input   66.30 | X-H torsion
[ 10763 10752 10751 10750 ] final -115.34 input  -60.55 | X-H torsion
[ 11005 11000 10999 10996 ] final   -2.82 input  -57.11 | X-H torsion

> <Gold.Protein.ActiveResidues>
 VAL166  LYS551  ARG553  GLY616  TRP617  ASP618  TYR619  PRO620  LYS621  CYS622 
 ASP623  PHE694  ASN695  SER759  ASP760  ASP761  ALA762  ILE779  LEU786  VAL792 
 PHE793  MET794  SER795  GLU796  ALA797  LYS798  CYS799  TRP800  GLU811  SER814 

> <Gold.Protein.RotatedAtoms>
  152.5453  134.1474  159.8503 H   0  0  0  0  0  0  0  0  0  0  0  0  # atno 6907 bound_to 6896
  151.1504  133.4904  159.2603 H   0  0  0  0  0  0  0  0  0  0  0  0  # atno 6908 bound_to 6896
  151.1478  135.0223  159.8709 H   0  0  0  0  0  0  0  0  0  0  0  0  # atno 6909 bound_to 6896
  145.3253  140.9430  143.2692 H   0  0  0  0  0  0  0  0  0  0  0  0  # atno 7974 bound_to 7965
  156.2351  140.2949  156.0291 H   0  0  0  0  0  0  0  0  0  0  0  0  # atno 8008 bound_to 7997
  155.2115  140.0412  157.2951 H   0  0  0  0  0  0  0  0  0  0  0  0  # atno 8009 bound_to 7997
  154.6064  140.2440  155.7732 H   0  0  0  0  0  0  0  0  0  0  0  0  # atno 8010 bound_to 7997
  140.7220  143.3691  151.1813 H   0  0  0  0  0  0  0  0  0  0  0  0  # atno 10167 bound_to 10162
  157.5204  131.1098  150.9163 H   0  0  0  0  0  0  0  0  0  0  0  0  # atno 10718 bound_to 10713
  154.8477  135.4385  154.1647 H   0  0  0  0  0  0  0  0  0  0  0  0  # atno 10763 bound_to 10752
  153.2775  135.6950  153.7424 H   0  0  0  0  0  0  0  0  0  0  0  0  # atno 10764 bound_to 10752
  153.6641  135.3430  155.3110 H   0  0  0  0  0  0  0  0  0  0  0  0  # atno 10765 bound_to 10752
  140.6625  133.9307  155.8445 H   0  0  0  0  0  0  0  0  0  0  0  0  # atno 11005 bound_to 11000
  144.8907  139.4779  143.6679 LP  0  0  0  0  0  0  0  0  0  0  0  0  # atno 17320 bound_to 7965
  146.3066  139.7603  142.9051 LP  0  0  0  0  0  0  0  0  0  0  0  0  # atno 17321 bound_to 7965
  139.7259  143.9150  152.3002 LP  0  0  0  0  0  0  0  0  0  0  0  0  # atno 17342 bound_to 10162
  139.8922  144.6959  150.8758 LP  0  0  0  0  0  0  0  0  0  0  0  0  # atno 17343 bound_to 10162
  156.9775  130.5514  149.5294 LP  0  0  0  0  0  0  0  0  0  0  0  0  # atno 17370 bound_to 10713
  156.0349  130.5437  150.8628 LP  0  0  0  0  0  0  0  0  0  0  0  0  # atno 17371 bound_to 10713
  141.0454  134.0561  157.3850 LP  0  0  0  0  0  0  0  0  0  0  0  0  # atno 17394 bound_to 11000
  139.9008  135.0164  156.7259 LP  0  0  0  0  0  0  0  0  0  0  0  0  # atno 17395 bound_to 11000

$$$$
