AV-unprocessed.smi:2774|AV-procd|sdf|10686|dock3
  -GOLD-   2272015133D 1   1.00000     0.00000
 Structure written by MMmdl.
 34 35  0  0  0  0  0  0  0  0  1 V2000
  148.8420  140.3525  153.7692 O   0  0  0  0  0  0  0  0  0  0  0  0
  148.8570  141.5268  154.5539 C   0  0  2  0  0  0  0  0  0  0  0  0
  149.6704  141.2389  155.8286 C   0  0  0  0  0  0  0  0  0  0  0  0
  149.8480  142.4469  156.6369 N   0  0  0  0  0  0  0  0  0  0  0  0
  151.1079  142.5348  157.3806 C   0  0  1  0  0  0  0  0  0  0  0  0
  151.3060  143.9873  157.8564 C   0  0  0  0  0  0  0  0  0  0  0  0
  152.6584  144.2113  158.5504 C   0  0  0  0  0  0  0  0  0  0  0  0
  152.8096  143.3572  159.8156 C   0  0  0  0  0  0  0  0  0  0  0  0
  152.7535  141.5903  159.4177 S   0  0  0  0  0  0  0  0  0  0  0  0
  151.1509  141.5463  158.5673 C   0  0  0  0  0  0  0  0  0  0  0  0
  147.4509  142.0223  154.8613 C   0  0  0  0  0  0  0  0  0  0  0  0
  146.6437  142.5720  153.8431 C   0  0  0  0  0  0  0  0  0  0  0  0
  145.3522  143.0253  154.1780 C   0  0  0  0  0  0  0  0  0  0  0  0
  144.8429  142.9591  155.4268 N   0  0  0  0  0  0  0  0  0  0  0  0
  145.6196  142.4320  156.3973 C   0  0  0  0  0  0  0  0  0  0  0  0
  146.9243  141.9516  156.1693 C   0  0  0  0  0  0  0  0  0  0  0  0
  149.3249  140.5194  152.9741 H   0  0  0  0  0  0  0  0  0  0  0  0
  149.3749  142.2872  153.9675 H   0  0  0  0  0  0  0  0  0  0  0  0
  149.1714  140.4588  156.4028 H   0  0  0  0  0  0  0  0  0  0  0  0
  150.6477  140.8442  155.5473 H   0  0  0  0  0  0  0  0  0  0  0  0
  149.7479  143.2659  156.0456 H   0  0  0  0  0  0  0  0  0  0  0  0
  151.9275  142.2927  156.7024 H   0  0  0  0  0  0  0  0  0  0  0  0
  151.2378  144.6620  157.0019 H   0  0  0  0  0  0  0  0  0  0  0  0
  150.4975  144.2708  158.5322 H   0  0  0  0  0  0  0  0  0  0  0  0
  153.4715  143.9932  157.8570 H   0  0  0  0  0  0  0  0  0  0  0  0
  152.7562  145.2649  158.8144 H   0  0  0  0  0  0  0  0  0  0  0  0
  153.7576  143.5748  160.3080 H   0  0  0  0  0  0  0  0  0  0  0  0
  152.0174  143.5875  160.5286 H   0  0  0  0  0  0  0  0  0  0  0  0
  150.3619  141.7739  159.2849 H   0  0  0  0  0  0  0  0  0  0  0  0
  150.9968  140.5194  158.2389 H   0  0  0  0  0  0  0  0  0  0  0  0
  147.0043  142.6514  152.8282 H   0  0  0  0  0  0  0  0  0  0  0  0
  144.7110  143.4534  153.4217 H   0  0  0  0  0  0  0  0  0  0  0  0
  145.1885  142.3930  157.3867 H   0  0  0  0  0  0  0  0  0  0  0  0
  147.5063  141.5418  156.9818 H   0  0  0  0  0  0  0  0  0  0  0  0
  1  2  1  0  0  0  0
  1 17  1  0  0  0  0
  2  3  1  0  0  0  0
  2 11  1  0  0  0  0
  2 18  1  0  0  0  0
  3  4  1  0  0  0  0
  3 19  1  0  0  0  0
  3 20  1  0  0  0  0
  4  5  1  0  0  0  0
  4 21  1  0  0  0  0
  5 10  1  0  0  0  0
  5  6  1  0  0  0  0
  5 22  1  0  0  0  0
  6  7  1  0  0  0  0
  6 23  1  0  0  0  0
  6 24  1  0  0  0  0
  7  8  1  0  0  0  0
  7 25  1  0  0  0  0
  7 26  1  0  0  0  0
  8  9  1  0  0  0  0
  8 27  1  0  0  0  0
  8 28  1  0  0  0  0
  9 10  1  0  0  0  0
 10 29  1  0  0  0  0
 10 30  1  0  0  0  0
 11 16  1  0  0  0  0
 11 12  2  0  0  0  0
 12 13  1  0  0  0  0
 12 31  1  0  0  0  0
 13 14  2  0  0  0  0
 13 32  1  0  0  0  0
 14 15  1  0  0  0  0
 15 16  2  0  0  0  0
 15 33  1  0  0  0  0
 16 34  1  0  0  0  0
M  END
> <s_m_source_file>
AV-unprocessed.smi

> <i_m_source_file_index>
2774

> <i_lp_mmshare_version>
43012

> <i_f3d_flags>
0

> <s_epik_input>
W2NIXTFbY0hdbltjSF1bY0hdYzFbQ0BIXShbT0hdKVtDSDJdW05IXVtDQEBIXTJbQ0gyXVtDSDJdW0NIMl1TW0NIMl0y

> <s_epik_cmdline>
J2VwaWtfcHl0aG9uJywgJy1waCcsICc3LjAnLCAnLXRuJywgJzgnLCAnLW1hJywgJzIwMCcsICctbWV0YWxfYmluZGluZycsICctaW1hZScsICc8aW5maWxlLm1hZT4nLCAnLW9tYWUnLCAnPG91dGZpbGUubWFlPic=

> <r_epik_Ionization_Penalty>
2.08116

> <r_epik_Ionization_Penalty_Charging>
0

> <r_epik_Ionization_Penalty_Neutral>
2.08116

> <r_epik_State_Penalty>
2.1944

> <r_epik_Charging_Adjusted_Penalty>
2.1944

> <i_epik_Tot_Q>
0

> <i_epik_Tot_abs_Q>
0

> <r_epik_Metal_State_Penalty>
2.1769

> <b_epik_Metal_Only>
0

> <s_lp_Force_Field>
OPLS_2005

> <r_lp_Energy>
10.4748

> <b_lp_Chiralities_Consistent>
1

> <s_lp_Variant>
AV-unprocessed.smi:2774-7

> <Gold.Version>
5.8.1

> <Gold.Id.Protein>
6NUR|6NUR_protein|mol2

> <Gold.PLP.Fitness>
44.9915

> <Gold.PLP.PLP>
-38.1362

> <Gold.PLP.part.hbond>
-2.0000

> <Gold.PLP.part.metal>
0.0000

> <Gold.PLP.part.buried>
-4.3253

> <Gold.PLP.part.nonpolar>
-33.8098

> <Gold.PLP.part.repulsive>
0.1387

> <Gold.PLP.ligand.clash>
0.0000

> <Gold.PLP.ligand.torsion>
0.5275

> <Gold.PLP.Chemscore.Hbond>
2.0000

> <Gold.PLP.Chemscore.CHOScore>
0.6284

> <Gold.PLP.Chemscore.Metal>
0.0000

> <Gold.Chemscore.Hbonds>
donor molecule, donor type, donor heavy atom, donor atom, acceptor molecule, acceptor atom, score
      L1  H     1    17       P1  7957  0.94
      L1  H     4    21       P1  8028  0.98
      L1  C    13    32       P1 10174  0.47

> <Gold.PLP.Chemscore.Internal.Correction>
0.0250

> <Gold.Rescore>
     Score         DG    S(hbond)    S(metal)    S(lipo)     H(rot)  DE(clash)    DE(int)     intcor
     17.68     -19.28       1.92        0.00     104.51       1.89       0.07       1.53       ----

> <Gold.Chemscore.Fitness>
17.6769

> <Gold.Chemscore.DG>
-19.2757

> <Gold.Chemscore.ZeroCoef>
-5.4800

> <Gold.Chemscore.Hbond>
1.9202

> <Gold.Chemscore.Metal>
0.0000

> <Gold.Chemscore.Lipo>
104.5102

> <Gold.Chemscore.Internal_Hbond>
0.0000

> <Gold.Chemscore.DEClash>
0.0710

> <Gold.Chemscore.DEInternal>
1.5278

> <Gold.Chemscore.Rot>
1.8928

> <Gold.Chemscore.Internal.Correction>
   9.000000E+99

> <Gold.Chemscore.Hbonds>
donor molecule, donor type, donor heavy atom, donor atom, acceptor molecule, acceptor atom, score
      L1  H     1    17       P1  7957  0.91
      L1  H     4    21       P1  8028  0.93

> <Gold.Chemscore.Hbond.Weighted>
-6.4135

> <Gold.Chemscore.Metal.Weighted>
-0.0000

> <Gold.Chemscore.Lipo.Weighted>
-12.2277

> <Gold.Chemscore.Internal_Hbond.Weighted>
0.0000

> <Gold.Chemscore.DEClash.Weighted>
0.0710

> <Gold.Chemscore.DEInternal.Weighted>
1.5278

> <Gold.Chemscore.Rot.Weighted>
4.8455

> <Gold.Chemscore.Internal.Correction.Weighted>
   9.000000E+99

> <Gold.Protein.RotatedTorsions>
[ 6907 6896 6895 6894 ] final  161.40 input  -60.11 | X-H torsion
[ 7974 7965 7964 7962 ] final -162.39 input  175.53 | X-H torsion
[ 8008 7997 7996 7995 ] final -153.33 input   59.86 | X-H torsion
[ 10167 10162 10161 10158 ] final  -19.96 input  -65.29 | X-H torsion
[ 10718 10713 10712 10709 ] final   21.66 input   66.30 | X-H torsion
[ 10763 10752 10751 10750 ] final  103.15 input  -60.55 | X-H torsion
[ 11005 11000 10999 10996 ] final  116.34 input  -57.11 | X-H torsion

> <Gold.Protein.ActiveResidues>
 VAL166  LYS551  ARG553  GLY616  TRP617  ASP618  TYR619  PRO620  LYS621  CYS622 
 ASP623  PHE694  ASN695  SER759  ASP760  ASP761  ALA762  ILE779  LEU786  VAL792 
 PHE793  MET794  SER795  GLU796  ALA797  LYS798  CYS799  TRP800  GLU811  SER814 

> <Gold.Protein.RotatedAtoms>
  151.9561  133.3681  159.4017 H   0  0  0  0  0  0  0  0  0  0  0  0  # atno 6907 bound_to 6896
  150.6972  134.4289  159.5249 H   0  0  0  0  0  0  0  0  0  0  0  0  # atno 6908 bound_to 6896
  152.1971  134.8621  160.0562 H   0  0  0  0  0  0  0  0  0  0  0  0  # atno 6909 bound_to 6896
  144.7359  140.3260  143.6162 H   0  0  0  0  0  0  0  0  0  0  0  0  # atno 7974 bound_to 7965
  155.6692  140.0731  157.2526 H   0  0  0  0  0  0  0  0  0  0  0  0  # atno 8008 bound_to 7997
  154.4127  140.1702  156.1911 H   0  0  0  0  0  0  0  0  0  0  0  0  # atno 8009 bound_to 7997
  155.9631  140.3368  155.6511 H   0  0  0  0  0  0  0  0  0  0  0  0  # atno 8010 bound_to 7997
  140.7272  143.4768  151.0171 H   0  0  0  0  0  0  0  0  0  0  0  0  # atno 10167 bound_to 10162
  157.1415  130.6634  149.5982 H   0  0  0  0  0  0  0  0  0  0  0  0  # atno 10718 bound_to 10713
  153.3489  135.3986  155.1630 H   0  0  0  0  0  0  0  0  0  0  0  0  # atno 10763 bound_to 10752
  154.8658  135.3651  154.5248 H   0  0  0  0  0  0  0  0  0  0  0  0  # atno 10764 bound_to 10752
  153.5698  135.7079  153.5569 H   0  0  0  0  0  0  0  0  0  0  0  0  # atno 10765 bound_to 10752
  139.9038  134.9596  156.7183 H   0  0  0  0  0  0  0  0  0  0  0  0  # atno 11005 bound_to 11000
  145.7520  139.1797  143.2316 LP  0  0  0  0  0  0  0  0  0  0  0  0  # atno 17320 bound_to 7965
  146.1053  140.7494  142.9529 LP  0  0  0  0  0  0  0  0  0  0  0  0  # atno 17321 bound_to 7965
  139.8464  143.7496  152.3179 LP  0  0  0  0  0  0  0  0  0  0  0  0  # atno 17342 bound_to 10162
  139.7663  144.7491  151.0290 LP  0  0  0  0  0  0  0  0  0  0  0  0  # atno 17343 bound_to 10162
  155.9788  130.4776  150.6675 LP  0  0  0  0  0  0  0  0  0  0  0  0  # atno 17370 bound_to 10713
  157.4303  131.0848  151.1045 LP  0  0  0  0  0  0  0  0  0  0  0  0  # atno 17371 bound_to 10713
  140.7021  133.9297  155.8031 LP  0  0  0  0  0  0  0  0  0  0  0  0  # atno 17394 bound_to 11000
  141.0364  134.0684  157.3954 LP  0  0  0  0  0  0  0  0  0  0  0  0  # atno 17395 bound_to 11000

$$$$
