AV-unprocessed.smi:1215|AV-procd|sdf|5095|dock4
  -GOLD-   22720 4143D 1   1.00000     0.00000
 Structure written by MMmdl.
 46 47  0  0  0  0  0  0  0  0  2 V2000
  152.4619  143.5275  161.5420 C   0  0  0  0  0  0  0  0  0  0  0  0
  153.2437  142.5908  160.6135 C   0  0  0  0  0  0  0  0  0  0  0  0
  152.4240  142.1198  159.5144 N   0  0  0  0  0  0  0  0  0  0  0  0
  151.8343  142.8618  158.5101 C   0  0  0  0  0  0  0  0  0  0  0  0
  151.1823  141.9589  157.7184 C   0  0  0  0  0  0  0  0  0  0  0  0
  150.4209  142.1774  156.5426 N   0  0  0  0  0  0  0  0  0  0  0  0
  149.7995  141.2546  155.7905 C   0  0  0  0  0  0  0  0  0  0  0  0
  149.8141  140.0412  155.9999 O   0  0  0  0  0  0  0  0  0  0  0  0
  149.1546  141.8180  154.7589 N   0  0  0  0  0  0  0  0  0  0  0  0
  148.3905  141.0854  153.7557 C   0  0  0  0  0  0  0  0  0  0  0  0
  146.8734  141.2366  153.9854 C   0  0  0  0  0  0  0  0  0  0  0  0
  146.1100  139.9797  153.7594 N   0  3  1  0  0  0  0  0  0  0  0  0
  146.7708  139.1050  152.7529 C   0  0  0  0  0  0  0  0  0  0  0  0
  145.8761  137.9176  152.3646 C   0  0  0  0  0  0  0  0  0  0  0  0
  145.4702  137.1091  153.6009 C   0  0  0  0  0  0  0  0  0  0  0  0
  144.8073  138.0329  154.6315 C   0  0  0  0  0  0  0  0  0  0  0  0
  145.6979  139.2403  154.9952 C   0  0  1  0  0  0  0  0  0  0  0  0
  146.8813  138.8404  155.9029 C   0  0  0  0  0  0  0  0  0  0  0  0
  151.4203  140.6880  158.3035 C   0  0  0  0  0  0  0  0  0  0  0  0
  152.1712  140.7934  159.3891 N   0  0  0  0  0  0  0  0  0  0  0  0
  153.0877  143.8654  162.3680 H   0  0  0  0  0  0  0  0  0  0  0  0
  151.5923  143.0247  161.9668 H   0  0  0  0  0  0  0  0  0  0  0  0
  152.1108  144.4109  161.0077 H   0  0  0  0  0  0  0  0  0  0  0  0
  154.1190  143.1003  160.2079 H   0  0  0  0  0  0  0  0  0  0  0  0
  153.6096  141.7275  161.1709 H   0  0  0  0  0  0  0  0  0  0  0  0
  151.9374  143.9354  158.4547 H   0  0  0  0  0  0  0  0  0  0  0  0
  150.3383  143.1390  156.2462 H   0  0  0  0  0  0  0  0  0  0  0  0
  149.1919  142.8226  154.6638 H   0  0  0  0  0  0  0  0  0  0  0  0
  148.6854  141.4398  152.7678 H   0  0  0  0  0  0  0  0  0  0  0  0
  148.6743  140.0341  153.8102 H   0  0  0  0  0  0  0  0  0  0  0  0
  146.7231  141.5476  155.0202 H   0  0  0  0  0  0  0  0  0  0  0  0
  146.4615  142.0388  153.3728 H   0  0  0  0  0  0  0  0  0  0  0  0
  146.9923  139.6834  151.8551 H   0  0  0  0  0  0  0  0  0  0  0  0
  147.7285  138.7506  153.1355 H   0  0  0  0  0  0  0  0  0  0  0  0
  144.9831  138.2826  151.8552 H   0  0  0  0  0  0  0  0  0  0  0  0
  146.3965  137.2751  151.6537 H   0  0  0  0  0  0  0  0  0  0  0  0
  144.7848  136.3095  153.3180 H   0  0  0  0  0  0  0  0  0  0  0  0
  146.3466  136.6270  154.0354 H   0  0  0  0  0  0  0  0  0  0  0  0
  143.8630  138.3965  154.2238 H   0  0  0  0  0  0  0  0  0  0  0  0
  144.5496  137.4677  155.5280 H   0  0  0  0  0  0  0  0  0  0  0  0
  145.0617  139.9021  155.5813 H   0  0  0  0  0  0  0  0  0  0  0  0
  146.5285  138.2809  156.7697 H   0  0  0  0  0  0  0  0  0  0  0  0
  147.4079  139.7125  156.2898 H   0  0  0  0  0  0  0  0  0  0  0  0
  147.6071  138.2128  155.3868 H   0  0  0  0  0  0  0  0  0  0  0  0
  151.0822  139.7133  157.9837 H   0  0  0  0  0  0  0  0  0  0  0  0
  145.2460  140.2698  153.3242 H   0  0  0  0  0  0  0  0  0  0  0  0
  1  2  1  0  0  0  0
  1 21  1  0  0  0  0
  1 22  1  0  0  0  0
  1 23  1  0  0  0  0
  2  3  1  0  0  0  0
  2 24  1  0  0  0  0
  2 25  1  0  0  0  0
  3 20  1  0  0  0  0
  3  4  1  0  0  0  0
  4  5  2  0  0  0  0
  4 26  1  0  0  0  0
  5  6  1  0  0  0  0
  5 19  1  0  0  0  0
  6  7  1  0  0  0  0
  6 27  1  0  0  0  0
  7  8  2  0  0  0  0
  7  9  1  0  0  0  0
  9 10  1  0  0  0  0
  9 28  1  0  0  0  0
 10 11  1  0  0  0  0
 10 29  1  0  0  0  0
 10 30  1  0  0  0  0
 11 12  1  0  0  0  0
 11 31  1  0  0  0  0
 11 32  1  0  0  0  0
 12 17  1  0  0  0  0
 12 13  1  0  0  0  0
 12 46  1  0  0  0  0
 13 14  1  0  0  0  0
 13 33  1  0  0  0  0
 13 34  1  0  0  0  0
 14 15  1  0  0  0  0
 14 35  1  0  0  0  0
 14 36  1  0  0  0  0
 15 16  1  0  0  0  0
 15 37  1  0  0  0  0
 15 38  1  0  0  0  0
 16 17  1  0  0  0  0
 16 39  1  0  0  0  0
 16 40  1  0  0  0  0
 17 18  1  0  0  0  0
 17 41  1  0  0  0  0
 18 42  1  0  0  0  0
 18 43  1  0  0  0  0
 18 44  1  0  0  0  0
 19 20  2  0  0  0  0
 19 45  1  0  0  0  0
M  CHG  1  12   1
M  END
> <s_m_source_file>
AV-unprocessed.smi

> <i_m_source_file_index>
1215

> <i_lp_mmshare_version>
43012

> <i_f3d_flags>
0

> <s_epik_input>
W0NIM11bQ0gyXW4xW2NIXWMoW2NIXW4xKVtOSF1DKD1PKVtOSF1bQ0gyXVtDSDJdTjJbQ0gyXVtDSDJdW0NIMl1bQ0gyXVtDQEhdMltDSDNd

> <s_epik_cmdline>
J2VwaWtfcHl0aG9uJywgJy1waCcsICc3LjAnLCAnLXRuJywgJzgnLCAnLW1hJywgJzIwMCcsICctbWV0YWxfYmluZGluZycsICctaW1hZScsICc8aW5maWxlLm1hZT4nLCAnLW9tYWUnLCAnPG91dGZpbGUubWFlPic=

> <r_lp_tautomer_probability>
1

> <r_epik_Ionization_Penalty>
0.00247187

> <r_epik_Ionization_Penalty_Charging>
0.00232067

> <r_epik_Ionization_Penalty_Neutral>
0.000151201

> <r_epik_State_Penalty>
0.00160128

> <r_epik_Charging_Adjusted_Penalty>
0.00392194

> <i_epik_Tot_Q>
1

> <i_epik_Tot_abs_Q>
1

> <r_epik_Metal_State_Penalty>
-0

> <b_epik_Metal_Only>
0

> <s_lp_Force_Field>
OPLS_2005

> <r_lp_Energy>
23.8911

> <b_lp_Chiralities_Consistent>
1

> <s_lp_Variant>
AV-unprocessed.smi:1215-2

> <Gold.Version>
5.8.1

> <Gold.Id.Protein>
6NUR|6NUR_protein|mol2

> <Gold.PLP.Fitness>
47.2746

> <Gold.PLP.PLP>
-37.0642

> <Gold.PLP.part.hbond>
-3.0000

> <Gold.PLP.part.metal>
0.0000

> <Gold.PLP.part.buried>
-3.0097

> <Gold.PLP.part.nonpolar>
-30.9907

> <Gold.PLP.part.repulsive>
0.3118

> <Gold.PLP.ligand.clash>
0.0739

> <Gold.PLP.ligand.torsion>
0.8796

> <Gold.PLP.Chemscore.Hbond>
4.0000

> <Gold.PLP.Chemscore.CHOScore>
0.0000

> <Gold.PLP.Chemscore.Metal>
0.0000

> <Gold.Chemscore.Hbonds>
donor molecule, donor type, donor heavy atom, donor atom, acceptor molecule, acceptor atom, score
      L1  H     6    27       P1  8028  0.47
      L1  H     9    28       P1  8028  0.66
      L1  H    12    46       P1 10175  2.00

> <Gold.PLP.Chemscore.Internal.Correction>
0.0434

> <Gold.Rescore>
     Score         DG    S(hbond)    S(metal)    S(lipo)     H(rot)  DE(clash)    DE(int)     intcor
     19.20     -21.62       2.96        0.00      88.22       1.59       0.19       2.24       ----

> <Gold.Chemscore.Fitness>
19.1969

> <Gold.Chemscore.DG>
-21.6203

> <Gold.Chemscore.ZeroCoef>
-5.4800

> <Gold.Chemscore.Hbond>
2.9615

> <Gold.Chemscore.Metal>
0.0000

> <Gold.Chemscore.Lipo>
88.2189

> <Gold.Chemscore.Internal_Hbond>
0.0000

> <Gold.Chemscore.DEClash>
0.1869

> <Gold.Chemscore.DEInternal>
2.2365

> <Gold.Chemscore.Rot>
1.5909

> <Gold.Chemscore.Internal.Correction>
   9.000000E+99

> <Gold.Chemscore.Hbonds>
donor molecule, donor type, donor heavy atom, donor atom, acceptor molecule, acceptor atom, score
      L1  H     6    27       P1  8028  0.45
      L1  H     9    28       P1  8028  0.63
      L1  H    12    46       P1 10175  1.00

> <Gold.Chemscore.Hbond.Weighted>
-9.8915

> <Gold.Chemscore.Metal.Weighted>
-0.0000

> <Gold.Chemscore.Lipo.Weighted>
-10.3216

> <Gold.Chemscore.Internal_Hbond.Weighted>
0.0000

> <Gold.Chemscore.DEClash.Weighted>
0.1869

> <Gold.Chemscore.DEInternal.Weighted>
2.2365

> <Gold.Chemscore.Rot.Weighted>
4.0728

> <Gold.Chemscore.Internal.Correction.Weighted>
   9.000000E+99

> <Gold.Protein.RotatedTorsions>
[ 6907 6896 6895 6894 ] final  -96.05 input  -60.11 | X-H torsion
[ 7974 7965 7964 7962 ] final  -12.80 input  175.53 | X-H torsion
[ 8008 7997 7996 7995 ] final   -7.33 input   59.86 | X-H torsion
[ 10167 10162 10161 10158 ] final  101.30 input  -65.29 | X-H torsion
[ 10718 10713 10712 10709 ] final -133.91 input   66.30 | X-H torsion
[ 10763 10752 10751 10750 ] final  106.34 input  -60.55 | X-H torsion
[ 11005 11000 10999 10996 ] final  165.25 input  -57.11 | X-H torsion

> <Gold.Protein.ActiveResidues>
 VAL166  LYS551  ARG553  GLY616  TRP617  ASP618  TYR619  PRO620  LYS621  CYS622 
 ASP623  PHE694  ASN695  SER759  ASP760  ASP761  ALA762  ILE779  LEU786  VAL792 
 PHE793  MET794  SER795  GLU796  ALA797  LYS798  CYS799  TRP800  GLU811  SER814 

> <Gold.Protein.RotatedAtoms>
  150.6979  134.1563  159.4158 H   0  0  0  0  0  0  0  0  0  0  0  0  # atno 6907 bound_to 6896
  151.9544  135.0151  160.0553 H   0  0  0  0  0  0  0  0  0  0  0  0  # atno 6908 bound_to 6896
  152.1982  133.4787  159.5081 H   0  0  0  0  0  0  0  0  0  0  0  0  # atno 6909 bound_to 6896
  146.2138  140.3110  142.8382 H   0  0  0  0  0  0  0  0  0  0  0  0  # atno 7974 bound_to 7965
  154.5849  140.2410  155.8001 H   0  0  0  0  0  0  0  0  0  0  0  0  # atno 8008 bound_to 7997
  156.2206  140.2998  155.9899 H   0  0  0  0  0  0  0  0  0  0  0  0  # atno 8009 bound_to 7997
  155.2475  140.0409  157.2973 H   0  0  0  0  0  0  0  0  0  0  0  0  # atno 8010 bound_to 7997
  139.7450  144.7000  151.0518 H   0  0  0  0  0  0  0  0  0  0  0  0  # atno 10167 bound_to 10162
  156.2499  130.7147  151.1042 H   0  0  0  0  0  0  0  0  0  0  0  0  # atno 10718 bound_to 10713
  153.3916  135.3880  155.1927 H   0  0  0  0  0  0  0  0  0  0  0  0  # atno 10763 bound_to 10752
  154.8720  135.3750  154.4730 H   0  0  0  0  0  0  0  0  0  0  0  0  # atno 10764 bound_to 10752
  153.5217  135.7086  153.5789 H   0  0  0  0  0  0  0  0  0  0  0  0  # atno 10765 bound_to 10752
  140.2542  134.7953  157.3530 H   0  0  0  0  0  0  0  0  0  0  0  0  # atno 11005 bound_to 11000
  144.8988  140.7617  143.5880 LP  0  0  0  0  0  0  0  0  0  0  0  0  # atno 17320 bound_to 7965
  145.3035  139.1842  143.4677 LP  0  0  0  0  0  0  0  0  0  0  0  0  # atno 17321 bound_to 7965
  140.7791  143.4878  150.9933 LP  0  0  0  0  0  0  0  0  0  0  0  0  # atno 17342 bound_to 10162
  139.8566  143.7369  152.3175 LP  0  0  0  0  0  0  0  0  0  0  0  0  # atno 17343 bound_to 10162
  157.7210  131.0681  150.6134 LP  0  0  0  0  0  0  0  0  0  0  0  0  # atno 17370 bound_to 10713
  156.6214  130.4407  149.5821 LP  0  0  0  0  0  0  0  0  0  0  0  0  # atno 17371 bound_to 10713
  140.1528  134.4828  155.7949 LP  0  0  0  0  0  0  0  0  0  0  0  0  # atno 17394 bound_to 11000
  141.2198  133.6869  156.7408 LP  0  0  0  0  0  0  0  0  0  0  0  0  # atno 17395 bound_to 11000

$$$$
