#       Name:                AV-unprocessed.smi:1934
#       Creating user name   scv26
#       Creation time:       Fri Mar 27 09:57:17 2020


#       File generated by GOLD software.
#

@<TRIPOS>MOLECULE
AV-unprocessed.smi:1934
    49    50     1
SMALL
NO_CHARGES


@<TRIPOS>ATOM
      1 ****        -7.0637   2.2382   0.2958 C.3            1 S1                 0.0000
      2 ****        -6.0489   1.1689   0.5744 C.2            1 S1                 0.0000
      3 ****        -4.6304   1.2977   0.6195 C.2            1 S1                 0.0000
      4 ****        -4.2213   0.0242   0.9068 C.2            1 S1                 0.0000
      5 ****        -2.9578  -0.4509   1.0694 N.am           1 S1                 0.0000
      6 ****        -1.7910   0.1941   0.8961 C.2            1 S1                 0.0000
      7 ****        -1.6669   1.3714   0.5578 O.2            1 S1                 0.0000
      8 ****        -0.7483  -0.6157   1.1302 N.am           1 S1                 0.0000
      9 ****         0.6521  -0.2248   1.0155 C.3            1 S1                 0.0000
     10 ****         1.1091  -0.1872  -0.4562 C.3            1 S1                 0.0000
     11 ****         2.5194   0.2528  -0.6052 N.4            1 S1                 1.0000
     12 ****         2.7954   0.7853  -1.9649 C.3            1 S1                 0.0000
     13 ****         4.2180   1.3584  -2.0596 C.3            1 S1                 0.0000
     14 ****         5.2609   0.3050  -1.6665 C.3            1 S1                 0.0000
     15 ****         4.9501  -0.2553  -0.2687 C.3            1 S1                 0.0000
     16 ****         5.9645  -1.3325   0.1408 C.3            1 S1                 0.0000
     17 ****         3.5054  -0.7924  -0.2175 C.3            1 S1                 0.0000
     18 ****        -5.3310  -0.7831   1.0274 N.pl3          1 S1                 0.0000
     19 ****        -5.4135  -2.2010   1.3207 C.3            1 S1                 0.0000
     20 ****        -6.4592  -0.0711   0.8168 N.2            1 S1                 0.0000
     21 ****        -6.5843   3.2055   0.1434 H              1 S1                 0.0000
     22 ****        -7.7631   2.3425   1.1257 H              1 S1                 0.0000
     23 ****        -7.6395   2.0091  -0.6012 H              1 S1                 0.0000
     24 ****        -4.0355   2.1850   0.4640 H              1 S1                 0.0000
     25 ****        -2.8957  -1.4224   1.3361 H              1 S1                 0.0000
     26 ****        -0.9366  -1.5685   1.4070 H              1 S1                 0.0000
     27 ****         0.8075   0.7455   1.4903 H              1 S1                 0.0000
     28 ****         1.2340  -0.9469   1.5868 H              1 S1                 0.0000
     29 ****         0.9723  -1.1606  -0.9302 H              1 S1                 0.0000
     30 ****         0.4661   0.5090  -0.9968 H              1 S1                 0.0000
     31 ****         2.6579  -0.0072  -2.7024 H              1 S1                 0.0000
     32 ****         2.0796   1.5718  -2.2071 H              1 S1                 0.0000
     33 ****         4.4101   1.7121  -3.0731 H              1 S1                 0.0000
     34 ****         4.3084   2.2275  -1.4064 H              1 S1                 0.0000
     35 ****         5.2611  -0.5023  -2.4005 H              1 S1                 0.0000
     36 ****         6.2585   0.7454  -1.6861 H              1 S1                 0.0000
     37 ****         5.0321   0.5626   0.4493 H              1 S1                 0.0000
     38 ****         5.9267  -2.1901  -0.5319 H              1 S1                 0.0000
     39 ****         5.7684  -1.6931   1.1510 H              1 S1                 0.0000
     40 ****         6.9821  -0.9409   0.1232 H              1 S1                 0.0000
     41 ****         3.2985  -1.1458   0.7919 H              1 S1                 0.0000
     42 ****         3.3995  -1.6538  -0.8795 H              1 S1                 0.0000
     43 ****        -4.7658  -2.4427   2.1637 H              1 S1                 0.0000
     44 ****        -5.0940  -2.7726   0.4491 H              1 S1                 0.0000
     45 ****        -6.4372  -2.4810   1.5735 H              1 S1                 0.0000
     46 ****         2.6457   1.0283   0.0296 H              1 S1                 0.0000
     47 ****        -2.4781   1.9309   0.3875 LP             1 S1                 0.0000
     48 ****        -0.7549   1.7682   0.4533 LP             1 S1                 0.0000
     49 ****        -7.4013  -0.4056   0.8386 LP             1 S1                 0.0000
@<TRIPOS>BOND
    1    1    2 1     
    2    1   21 1     
    3    1   22 1     
    4    1   23 1     
    5    2   20 2     
    6    2    3 1     
    7    3    4 2     
    8    3   24 1     
    9    4    5 1     
   10    4   18 1     
   11    5    6 am    
   12    5   25 1     
   13    6    7 2     
   14    6    8 am    
   15    8    9 1     
   16    8   26 1     
   17    9   10 1     
   18    9   27 1     
   19    9   28 1     
   20   10   11 1     
   21   10   29 1     
   22   10   30 1     
   23   11   17 1     
   24   11   12 1     
   25   11   46 1     
   26   12   13 1     
   27   12   31 1     
   28   12   32 1     
   29   13   14 1     
   30   13   33 1     
   31   13   34 1     
   32   14   15 1     
   33   14   35 1     
   34   14   36 1     
   35   15   16 1     
   36   15   17 1     
   37   15   37 1     
   38   16   38 1     
   39   16   39 1     
   40   16   40 1     
   41   17   41 1     
   42   17   42 1     
   43   18   19 1     
   44   18   20 1     
   45   19   43 1     
   46   19   44 1     
   47   19   45 1     
   48    7   47 1     
   49    7   48 1     
   50   20   49 1     
@<TRIPOS>SUBSTRUCTURE
      1 S1             1
@<TRIPOS>SET
LONE_PAIRS      STATIC     ATOMS    <user>   **** ""
3 47 48 49
DONOR_HYDROGENS      STATIC     ATOMS    <user>   **** ""
3 25 26 46
ATOM$BLUE        STATIC     ATOMS    COLORGROUP SYSTEM
3 47 48 49
ATOM$RED        STATIC     ATOMS    COLORGROUP SYSTEM
3 25 26 46
