AV-unprocessed.smi:1011|AV-procd|sdf|4419|dock3
  -GOLD-   22720 2363D 1   1.00000     0.00000
 Structure written by MMmdl.
 44 46  0  0  0  0  0  0  0  0  2 V2000
  149.5124  141.3690  155.7927 C   0  0  0  0  0  0  0  0  0  0  0  0
  148.4127  140.7718  154.9626 C   0  0  0  0  0  0  0  0  0  0  0  0
  147.0155  140.7706  155.2366 C   0  0  0  0  0  0  0  0  0  0  0  0
  146.3087  140.1614  154.2987 N   0  0  0  0  0  0  0  0  0  0  0  0
  147.2264  139.7506  153.3973 N   0  0  0  0  0  0  0  0  0  0  0  0
  146.8005  139.0459  152.2004 C   0  0  0  0  0  0  0  0  0  0  0  0
  146.1062  137.7170  152.5373 C   0  0  0  0  0  0  0  0  0  0  0  0
  146.2866  136.7318  151.4540 N   0  3  0  0  0  0  0  0  0  0  0  0
  145.1779  135.7708  151.3132 C   0  0  0  0  0  0  0  0  0  0  0  0
  145.7846  134.4848  151.7844 C   0  0  0  0  0  0  0  0  0  0  0  0
  146.9743  134.4506  152.3849 N   0  0  0  0  0  0  0  0  0  0  0  0
  147.1452  133.1047  152.6460 C   0  0  0  0  0  0  0  0  0  0  0  0
  148.2127  132.4180  153.2668 C   0  0  0  0  0  0  0  0  0  0  0  0
  148.1640  131.0174  153.4267 C   0  0  0  0  0  0  0  0  0  0  0  0
  149.4766  130.1945  154.1859 Cl  0  0  0  0  0  0  0  0  0  0  0  0
  147.0484  130.2860  152.9691 C   0  0  0  0  0  0  0  0  0  0  0  0
  145.9732  130.9511  152.3487 C   0  0  0  0  0  0  0  0  0  0  0  0
  146.0277  132.3486  152.1914 C   0  0  0  0  0  0  0  0  0  0  0  0
  145.1614  133.2864  151.6382 N   0  0  0  0  0  0  0  0  0  0  0  0
  143.8634  132.9988  151.0386 C   0  0  0  0  0  0  0  0  0  0  0  0
  143.9338  132.8905  149.5069 C   0  0  0  0  0  0  0  0  0  0  0  0
  142.8613  132.1224  149.0029 O   0  0  0  0  0  0  0  0  0  0  0  0
  148.5043  140.1063  153.7730 C   0  0  0  0  0  0  0  0  0  0  0  0
  149.3337  141.2291  156.8590 H   0  0  0  0  0  0  0  0  0  0  0  0
  149.6078  142.4411  155.6203 H   0  0  0  0  0  0  0  0  0  0  0  0
  150.4800  140.9195  155.5688 H   0  0  0  0  0  0  0  0  0  0  0  0
  146.4970  141.1942  156.0841 H   0  0  0  0  0  0  0  0  0  0  0  0
  146.1154  139.6926  151.6509 H   0  0  0  0  0  0  0  0  0  0  0  0
  147.6638  138.8824  151.5534 H   0  0  0  0  0  0  0  0  0  0  0  0
  146.5128  137.3215  153.4693 H   0  0  0  0  0  0  0  0  0  0  0  0
  145.0392  137.8750  152.6961 H   0  0  0  0  0  0  0  0  0  0  0  0
  146.4216  137.2152  150.5774 H   0  0  0  0  0  0  0  0  0  0  0  0
  144.3201  136.0438  151.9277 H   0  0  0  0  0  0  0  0  0  0  0  0
  144.8558  135.6936  150.2739 H   0  0  0  0  0  0  0  0  0  0  0  0
  149.0711  132.9702  153.6202 H   0  0  0  0  0  0  0  0  0  0  0  0
  147.0176  129.2133  153.0942 H   0  0  0  0  0  0  0  0  0  0  0  0
  145.1187  130.3923  151.9969 H   0  0  0  0  0  0  0  0  0  0  0  0
  143.4980  132.0598  151.4560 H   0  0  0  0  0  0  0  0  0  0  0  0
  143.1386  133.7576  151.3323 H   0  0  0  0  0  0  0  0  0  0  0  0
  143.9070  133.8803  149.0502 H   0  0  0  0  0  0  0  0  0  0  0  0
  144.8722  132.4239  149.2064 H   0  0  0  0  0  0  0  0  0  0  0  0
  142.0846  132.6613  148.9938 H   0  0  0  0  0  0  0  0  0  0  0  0
  149.3649  139.8622  153.1674 H   0  0  0  0  0  0  0  0  0  0  0  0
  147.1229  136.2027  151.6582 H   0  0  0  0  0  0  0  0  0  0  0  0
  1  2  1  0  0  0  0
  1 24  1  0  0  0  0
  1 25  1  0  0  0  0
  1 26  1  0  0  0  0
  2 23  2  0  0  0  0
  2  3  1  0  0  0  0
  3  4  2  0  0  0  0
  3 27  1  0  0  0  0
  4  5  1  0  0  0  0
  5  6  1  0  0  0  0
  5 23  1  0  0  0  0
  6  7  1  0  0  0  0
  6 28  1  0  0  0  0
  6 29  1  0  0  0  0
  7  8  1  0  0  0  0
  7 30  1  0  0  0  0
  7 31  1  0  0  0  0
  8  9  1  0  0  0  0
  8 32  1  0  0  0  0
  8 44  1  0  0  0  0
  9 10  1  0  0  0  0
  9 33  1  0  0  0  0
  9 34  1  0  0  0  0
 10 19  1  0  0  0  0
 10 11  2  0  0  0  0
 11 12  1  0  0  0  0
 12 18  2  0  0  0  0
 12 13  1  0  0  0  0
 13 14  2  0  0  0  0
 13 35  1  0  0  0  0
 14 15  1  0  0  0  0
 14 16  1  0  0  0  0
 16 17  2  0  0  0  0
 16 36  1  0  0  0  0
 17 18  1  0  0  0  0
 17 37  1  0  0  0  0
 18 19  1  0  0  0  0
 19 20  1  0  0  0  0
 20 21  1  0  0  0  0
 20 38  1  0  0  0  0
 20 39  1  0  0  0  0
 21 22  1  0  0  0  0
 21 40  1  0  0  0  0
 21 41  1  0  0  0  0
 22 42  1  0  0  0  0
 23 43  1  0  0  0  0
M  CHG  1   8   1
M  END
> <s_m_source_file>
AV-unprocessed.smi

> <i_m_source_file_index>
1011

> <i_lp_mmshare_version>
43012

> <i_f3d_flags>
0

> <s_epik_input>
W0NIM11jMVtjSF1ubihbY0hdMSlbQ0gyXVtDSDJdW05IXVtDSDJdYyhuMiluKFtDSDJdW0NIMl1bT0hdKWMoYzIzKVtjSF1bY0hdYyhDbClbY0hdMw==

> <s_epik_cmdline>
J2VwaWtfcHl0aG9uJywgJy1waCcsICc3LjAnLCAnLXRuJywgJzgnLCAnLW1hJywgJzIwMCcsICctbWV0YWxfYmluZGluZycsICctaW1hZScsICc8aW5maWxlLm1hZT4nLCAnLW9tYWUnLCAnPG91dGZpbGUubWFlPic=

> <r_lp_tautomer_probability>
1

> <r_epik_Ionization_Penalty>
0.234823

> <r_epik_Ionization_Penalty_Charging>
0.2345

> <r_epik_Ionization_Penalty_Neutral>
0.00032281

> <r_epik_State_Penalty>
0.238632

> <r_epik_Charging_Adjusted_Penalty>
0.473132

> <i_epik_Tot_Q>
1

> <i_epik_Tot_abs_Q>
1

> <r_epik_Metal_State_Penalty>
0.25397

> <b_epik_Metal_Only>
0

> <s_lp_Force_Field>
OPLS_2005

> <r_lp_Energy>
6.60255

> <b_lp_Chiralities_Consistent>
1

> <s_lp_Variant>
AV-unprocessed.smi:1011-1

> <Gold.Version>
5.8.1

> <Gold.Id.Protein>
6NUR|6NUR_protein|mol2

> <Gold.PLP.Fitness>
54.3809

> <Gold.PLP.PLP>
-42.8129

> <Gold.PLP.part.hbond>
-4.0000

> <Gold.PLP.part.metal>
0.0000

> <Gold.PLP.part.buried>
-4.0052

> <Gold.PLP.part.nonpolar>
-38.7103

> <Gold.PLP.part.repulsive>
3.1854

> <Gold.PLP.ligand.clash>
0.0000

> <Gold.PLP.ligand.torsion>
1.2568

> <Gold.PLP.Chemscore.Hbond>
3.6680

> <Gold.PLP.Chemscore.CHOScore>
0.9865

> <Gold.PLP.Chemscore.Metal>
0.0000

> <Gold.Chemscore.Hbonds>
donor molecule, donor type, donor heavy atom, donor atom, acceptor molecule, acceptor atom, score
      L1  H     8    44       P1  7948  1.89
      L1  H    22    42       P1 10186  0.78
      P1  H 10785 10796       L1    22  1.00
      L1  C    23    43       P1  7957  0.98

> <Gold.PLP.Chemscore.Internal.Correction>
0.1182

> <Gold.Rescore>
     Score         DG    S(hbond)    S(metal)    S(lipo)     H(rot)  DE(clash)    DE(int)     intcor
     15.68     -18.55       2.67        0.00      99.78       2.94       1.65       1.21       ----

> <Gold.Chemscore.Fitness>
15.6849

> <Gold.Chemscore.DG>
-18.5455

> <Gold.Chemscore.ZeroCoef>
-5.4800

> <Gold.Chemscore.Hbond>
2.6682

> <Gold.Chemscore.Metal>
0.0000

> <Gold.Chemscore.Lipo>
99.7816

> <Gold.Chemscore.Internal_Hbond>
0.0000

> <Gold.Chemscore.DEClash>
1.6475

> <Gold.Chemscore.DEInternal>
1.2131

> <Gold.Chemscore.Rot>
2.9378

> <Gold.Chemscore.Internal.Correction>
   9.000000E+99

> <Gold.Chemscore.Hbonds>
donor molecule, donor type, donor heavy atom, donor atom, acceptor molecule, acceptor atom, score
      L1  H     8    44       P1  7948  0.91
      L1  H    22    42       P1 10186  0.74
      P1  H 10785 10796       L1    22  0.88

> <Gold.Chemscore.Hbond.Weighted>
-8.9119

> <Gold.Chemscore.Metal.Weighted>
-0.0000

> <Gold.Chemscore.Lipo.Weighted>
-11.6744

> <Gold.Chemscore.Internal_Hbond.Weighted>
0.0000

> <Gold.Chemscore.DEClash.Weighted>
1.6475

> <Gold.Chemscore.DEInternal.Weighted>
1.2131

> <Gold.Chemscore.Rot.Weighted>
7.5209

> <Gold.Chemscore.Internal.Correction.Weighted>
   9.000000E+99

> <Gold.Protein.RotatedTorsions>
[ 6907 6896 6895 6894 ] final  162.43 input  -60.11 | X-H torsion
[ 7974 7965 7964 7962 ] final   42.67 input  175.53 | X-H torsion
[ 8008 7997 7996 7995 ] final    4.03 input   59.86 | X-H torsion
[ 10167 10162 10161 10158 ] final -144.92 input  -65.29 | X-H torsion
[ 10718 10713 10712 10709 ] final  150.74 input   66.30 | X-H torsion
[ 10763 10752 10751 10750 ] final   99.91 input  -60.55 | X-H torsion
[ 11005 11000 10999 10996 ] final   68.30 input  -57.11 | X-H torsion

> <Gold.Protein.ActiveResidues>
 VAL166  LYS551  ARG553  GLY616  TRP617  ASP618  TYR619  PRO620  LYS621  CYS622 
 ASP623  PHE694  ASN695  SER759  ASP760  ASP761  ALA762  ILE779  LEU786  VAL792 
 PHE793  MET794  SER795  GLU796  ALA797  LYS798  CYS799  TRP800  GLU811  SER814 

> <Gold.Protein.RotatedAtoms>
  151.9406  133.3637  159.3963 H   0  0  0  0  0  0  0  0  0  0  0  0  # atno 6907 bound_to 6896
  150.6999  134.4443  159.5316 H   0  0  0  0  0  0  0  0  0  0  0  0  # atno 6908 bound_to 6896
  152.2100  134.8510  160.0549 H   0  0  0  0  0  0  0  0  0  0  0  0  # atno 6909 bound_to 6896
  146.0720  139.5273  142.9591 H   0  0  0  0  0  0  0  0  0  0  0  0  # atno 7974 bound_to 7965
  154.7109  140.2692  155.6630 H   0  0  0  0  0  0  0  0  0  0  0  0  # atno 8008 bound_to 7997
  156.2795  140.2753  156.1675 H   0  0  0  0  0  0  0  0  0  0  0  0  # atno 8009 bound_to 7997
  155.0636  140.0371  157.2575 H   0  0  0  0  0  0  0  0  0  0  0  0  # atno 8010 bound_to 7997
  139.7854  143.8042  152.2644 H   0  0  0  0  0  0  0  0  0  0  0  0  # atno 10167 bound_to 10162
  157.2796  131.0833  151.1541 H   0  0  0  0  0  0  0  0  0  0  0  0  # atno 10718 bound_to 10713
  153.3074  135.4097  155.1306 H   0  0  0  0  0  0  0  0  0  0  0  0  # atno 10763 bound_to 10752
  154.8566  135.3556  154.5770 H   0  0  0  0  0  0  0  0  0  0  0  0  # atno 10764 bound_to 10752
  153.6197  135.7065  153.5373 H   0  0  0  0  0  0  0  0  0  0  0  0  # atno 10765 bound_to 10752
  139.9719  134.6886  156.0429 H   0  0  0  0  0  0  0  0  0  0  0  0  # atno 11005 bound_to 11000
  145.6374  141.0291  143.1830 LP  0  0  0  0  0  0  0  0  0  0  0  0  # atno 17320 bound_to 7965
  144.7238  139.7943  143.7372 LP  0  0  0  0  0  0  0  0  0  0  0  0  # atno 17321 bound_to 7965
  139.8117  144.7333  150.9689 LP  0  0  0  0  0  0  0  0  0  0  0  0  # atno 17342 bound_to 10162
  140.7819  143.4244  151.0791 LP  0  0  0  0  0  0  0  0  0  0  0  0  # atno 17343 bound_to 10162
  157.2981  130.6829  149.6149 LP  0  0  0  0  0  0  0  0  0  0  0  0  # atno 17370 bound_to 10713
  155.9664  130.4400  150.5283 LP  0  0  0  0  0  0  0  0  0  0  0  0  # atno 17371 bound_to 10713
  141.1398  133.6567  156.3698 LP  0  0  0  0  0  0  0  0  0  0  0  0  # atno 17394 bound_to 11000
  140.5275  134.6245  157.5339 LP  0  0  0  0  0  0  0  0  0  0  0  0  # atno 17395 bound_to 11000

$$$$
