AV-unprocessed.smi:2845|AV-procd|sdf|10948|dock6
  -GOLD-   2272015403D 1   1.00000     0.00000
 Structure written by MMmdl.
 43 45  0  0  0  0  0  0  0  0  2 V2000
  151.7132  143.7173  160.4540 C   0  0  0  0  0  0  0  0  0  0  0  0
  151.6021  142.7366  159.2991 C   0  0  0  0  0  0  0  0  0  0  0  0
  150.8471  143.1124  158.1645 C   0  0  0  0  0  0  0  0  0  0  0  0
  150.7659  142.1945  157.1240 C   0  0  0  0  0  0  0  0  0  0  0  0
  150.1119  142.2607  155.8912 N   0  3  0  0  0  0  0  0  0  0  0  0
  150.3251  141.1062  155.2000 C   0  0  0  0  0  0  0  0  0  0  0  0
  151.1028  140.3035  155.9759 N   0  0  0  0  0  0  0  0  0  0  0  0
  151.6324  138.9587  155.7205 C   0  0  0  0  0  0  0  0  0  0  0  0
  151.0708  138.3386  154.4227 C   0  0  1  0  0  0  0  0  0  0  0  0
  152.0076  137.4198  153.8983 O   0  0  0  0  0  0  0  0  0  0  0  0
  149.7204  137.6181  154.6167 C   0  0  0  0  0  0  0  0  0  0  0  0
  149.7990  136.5021  155.5445 N   0  0  0  0  0  0  0  0  0  0  0  0
  149.9866  136.4840  156.8678 C   0  0  0  0  0  0  0  0  0  0  0  0
  150.0096  135.2655  157.3935 N   0  0  0  0  0  0  0  0  0  0  0  0
  149.8324  134.5385  156.2526 C   0  0  0  0  0  0  0  0  0  0  0  0
  149.7168  132.7226  156.2830 S   0  0  1  0  0  0  0  0  0  0  0  0
  150.2266  132.4900  154.5154 C   0  0  0  0  0  0  0  0  0  0  0  0
  150.8848  132.2402  157.1461 O   0  0  0  0  0  0  0  0  0  0  0  0
  149.7219  135.2196  155.1150 N   0  0  0  0  0  0  0  0  0  0  0  0
  151.4037  140.9407  157.1841 C   0  0  0  0  0  0  0  0  0  0  0  0
  152.1502  140.5539  158.2945 C   0  0  0  0  0  0  0  0  0  0  0  0
  152.2445  141.4728  159.3633 C   0  0  0  0  0  0  0  0  0  0  0  0
  153.0514  141.0775  160.5883 C   0  0  0  0  0  0  0  0  0  0  0  0
  151.1565  144.6337  160.2552 H   0  0  0  0  0  0  0  0  0  0  0  0
  152.7548  143.9907  160.6245 H   0  0  0  0  0  0  0  0  0  0  0  0
  151.3157  143.2785  161.3696 H   0  0  0  0  0  0  0  0  0  0  0  0
  150.3551  144.0726  158.1094 H   0  0  0  0  0  0  0  0  0  0  0  0
  149.9458  140.8703  154.2160 H   0  0  0  0  0  0  0  0  0  0  0  0
  152.7197  139.0316  155.6688 H   0  0  0  0  0  0  0  0  0  0  0  0
  151.4089  138.3431  156.5924 H   0  0  0  0  0  0  0  0  0  0  0  0
  150.9419  139.1214  153.6742 H   0  0  0  0  0  0  0  0  0  0  0  0
  151.8874  137.3713  152.9624 H   0  0  0  0  0  0  0  0  0  0  0  0
  148.9686  138.3150  154.9894 H   0  0  0  0  0  0  0  0  0  0  0  0
  149.3552  137.2420  153.6598 H   0  0  0  0  0  0  0  0  0  0  0  0
  150.0986  137.3803  157.4602 H   0  0  0  0  0  0  0  0  0  0  0  0
  149.6501  133.1429  153.8597 H   0  0  0  0  0  0  0  0  0  0  0  0
  150.0580  131.4578  154.2095 H   0  0  0  0  0  0  0  0  0  0  0  0
  151.2846  132.7200  154.3913 H   0  0  0  0  0  0  0  0  0  0  0  0
  152.6375  139.5917  158.3446 H   0  0  0  0  0  0  0  0  0  0  0  0
  153.4774  140.0802  160.4799 H   0  0  0  0  0  0  0  0  0  0  0  0
  152.4210  141.0733  161.4777 H   0  0  0  0  0  0  0  0  0  0  0  0
  153.8738  141.7749  160.7477 H   0  0  0  0  0  0  0  0  0  0  0  0
  149.5618  143.0361  155.5438 H   0  0  0  0  0  0  0  0  0  0  0  0
  1  2  1  0  0  0  0
  1 24  1  0  0  0  0
  1 25  1  0  0  0  0
  1 26  1  0  0  0  0
  2 22  1  0  0  0  0
  2  3  2  0  0  0  0
  3  4  1  0  0  0  0
  3 27  1  0  0  0  0
  4 20  2  0  0  0  0
  4  5  1  0  0  0  0
  5  6  2  0  0  0  0
  5 43  1  0  0  0  0
  6  7  1  0  0  0  0
  6 28  1  0  0  0  0
  7  8  1  0  0  0  0
  7 20  1  0  0  0  0
  8  9  1  0  0  0  0
  8 29  1  0  0  0  0
  8 30  1  0  0  0  0
  9 10  1  0  0  0  0
  9 11  1  0  0  0  0
  9 31  1  0  0  0  0
 10 32  1  0  0  0  0
 11 12  1  0  0  0  0
 11 33  1  0  0  0  0
 11 34  1  0  0  0  0
 12 19  1  0  0  0  0
 12 13  1  0  0  0  0
 13 14  2  0  0  0  0
 13 35  1  0  0  0  0
 14 15  1  0  0  0  0
 15 16  1  0  0  0  0
 15 19  2  0  0  0  0
 16 17  1  0  0  0  0
 16 18  2  0  0  0  0
 17 36  1  0  0  0  0
 17 37  1  0  0  0  0
 17 38  1  0  0  0  0
 20 21  1  0  0  0  0
 21 22  2  0  0  0  0
 21 39  1  0  0  0  0
 22 23  1  0  0  0  0
 23 40  1  0  0  0  0
 23 41  1  0  0  0  0
 23 42  1  0  0  0  0
M  CHG  1   5   1
M  END
> <s_m_source_file>
AV-unprocessed.smi

> <i_m_source_file_index>
2845

> <i_lp_mmshare_version>
43012

> <i_f3d_flags>
0

> <s_epik_input>
W0NIM11jKFtjSF0xKWMoW0NIM10pW2NIXWMoYzEyKW4oW2NIXW4yKVtDSDJdW0NASF0oW09IXSlbQ0gyXW4zW2NIXW5jKG4zKVtTQF0oPU8pW0NIM10=

> <s_epik_cmdline>
J2VwaWtfcHl0aG9uJywgJy1waCcsICc3LjAnLCAnLXRuJywgJzgnLCAnLW1hJywgJzIwMCcsICctbWV0YWxfYmluZGluZycsICctaW1hZScsICc8aW5maWxlLm1hZT4nLCAnLW9tYWUnLCAnPG91dGZpbGUubWFlPic=

> <r_lp_tautomer_probability>
1

> <r_epik_Ionization_Penalty>
1.12076

> <r_epik_Ionization_Penalty_Charging>
1.12075

> <r_epik_Ionization_Penalty_Neutral>
1.54566e-06

> <r_epik_State_Penalty>
1.17957

> <r_epik_Charging_Adjusted_Penalty>
2.30033

> <i_epik_Tot_Q>
1

> <i_epik_Tot_abs_Q>
1

> <r_epik_Metal_State_Penalty>
1.26402

> <b_epik_Metal_Only>
0

> <s_lp_Force_Field>
OPLS_2005

> <r_lp_Energy>
13.65

> <b_lp_Chiralities_Consistent>
1

> <s_lp_Variant>
AV-unprocessed.smi:2845-6

> <Gold.Version>
5.8.1

> <Gold.Id.Protein>
6NUR|6NUR_protein|mol2

> <Gold.PLP.Fitness>
58.7318

> <Gold.PLP.PLP>
-43.3501

> <Gold.PLP.part.hbond>
-5.0000

> <Gold.PLP.part.metal>
0.0000

> <Gold.PLP.part.buried>
-5.3360

> <Gold.PLP.part.nonpolar>
-33.5717

> <Gold.PLP.part.repulsive>
0.2158

> <Gold.PLP.ligand.clash>
0.0000

> <Gold.PLP.ligand.torsion>
0.9851

> <Gold.PLP.Chemscore.Hbond>
5.4420

> <Gold.PLP.Chemscore.CHOScore>
0.0000

> <Gold.PLP.Chemscore.Metal>
0.0000

> <Gold.Chemscore.Hbonds>
donor molecule, donor type, donor heavy atom, donor atom, acceptor molecule, acceptor atom, score
      L1  H     5    43       P1  8028  2.00
      L1  H    10    32       P1  7949  0.59
      P1  H  6896  6907       L1    14  0.12
      P1  H 10752 10763       L1    10  0.73

> <Gold.PLP.Chemscore.Internal.Correction>
1.0258

> <Gold.Rescore>
     Score         DG    S(hbond)    S(metal)    S(lipo)     H(rot)  DE(clash)    DE(int)     intcor
     20.43     -21.54       3.39        0.00     101.05       2.77       0.25       0.87       ----

> <Gold.Chemscore.Fitness>
20.4289

> <Gold.Chemscore.DG>
-21.5446

> <Gold.Chemscore.ZeroCoef>
-5.4800

> <Gold.Chemscore.Hbond>
3.3915

> <Gold.Chemscore.Metal>
0.0000

> <Gold.Chemscore.Lipo>
101.0526

> <Gold.Chemscore.Internal_Hbond>
0.0000

> <Gold.Chemscore.DEClash>
0.2468

> <Gold.Chemscore.DEInternal>
0.8688

> <Gold.Chemscore.Rot>
2.7681

> <Gold.Chemscore.Internal.Correction>
   9.000000E+99

> <Gold.Chemscore.Hbonds>
donor molecule, donor type, donor heavy atom, donor atom, acceptor molecule, acceptor atom, score
      L1  H     5    43       P1  8028  0.97
      L1  H    10    32       P1  7949  0.58
      P1  H  6896  6907       L1    14  0.13
      P1  H 10752 10763       L1    10  0.08

> <Gold.Chemscore.Hbond.Weighted>
-11.3277

> <Gold.Chemscore.Metal.Weighted>
-0.0000

> <Gold.Chemscore.Lipo.Weighted>
-11.8232

> <Gold.Chemscore.Internal_Hbond.Weighted>
0.0000

> <Gold.Chemscore.DEClash.Weighted>
0.2468

> <Gold.Chemscore.DEInternal.Weighted>
0.8688

> <Gold.Chemscore.Rot.Weighted>
7.0863

> <Gold.Chemscore.Internal.Correction.Weighted>
   9.000000E+99

> <Gold.Protein.RotatedTorsions>
[ 6907 6896 6895 6894 ] final  -65.24 input  -60.11 | X-H torsion
[ 7974 7965 7964 7962 ] final  -39.83 input  175.53 | X-H torsion
[ 8008 7997 7996 7995 ] final  137.03 input   59.86 | X-H torsion
[ 10167 10162 10161 10158 ] final  -70.83 input  -65.29 | X-H torsion
[ 10718 10713 10712 10709 ] final  166.60 input   66.30 | X-H torsion
[ 10763 10752 10751 10750 ] final   25.40 input  -60.55 | X-H torsion
[ 11005 11000 10999 10996 ] final  -52.33 input  -57.11 | X-H torsion

> <Gold.Protein.ActiveResidues>
 VAL166  LYS551  ARG553  GLY616  TRP617  ASP618  TYR619  PRO620  LYS621  CYS622 
 ASP623  PHE694  ASN695  SER759  ASP760  ASP761  ALA762  ILE779  LEU786  VAL792 
 PHE793  MET794  SER795  GLU796  ALA797  LYS798  CYS799  TRP800  GLU811  SER814 

> <Gold.Protein.RotatedAtoms>
  150.7536  134.6187  159.6124 H   0  0  0  0  0  0  0  0  0  0  0  0  # atno 6907 bound_to 6896
  152.3500  134.7016  160.0248 H   0  0  0  0  0  0  0  0  0  0  0  0  # atno 6908 bound_to 6896
  151.7440  133.3287  159.3410 H   0  0  0  0  0  0  0  0  0  0  0  0  # atno 6909 bound_to 6896
  146.0360  140.6670  142.9110 H   0  0  0  0  0  0  0  0  0  0  0  0  # atno 7974 bound_to 7965
  156.3003  140.2430  156.3843 H   0  0  0  0  0  0  0  0  0  0  0  0  # atno 8008 bound_to 7997
  154.8672  140.0417  157.1722 H   0  0  0  0  0  0  0  0  0  0  0  0  # atno 8009 bound_to 7997
  154.8833  140.2952  155.5416 H   0  0  0  0  0  0  0  0  0  0  0  0  # atno 8010 bound_to 7997
  140.5321  143.2321  151.7243 H   0  0  0  0  0  0  0  0  0  0  0  0  # atno 10167 bound_to 10162
  157.0635  131.0346  151.2638 H   0  0  0  0  0  0  0  0  0  0  0  0  # atno 10718 bound_to 10713
  153.0694  135.6584  154.0280 H   0  0  0  0  0  0  0  0  0  0  0  0  # atno 10763 bound_to 10752
  153.9929  135.2944  155.3411 H   0  0  0  0  0  0  0  0  0  0  0  0  # atno 10764 bound_to 10752
  154.7064  135.5223  153.8671 H   0  0  0  0  0  0  0  0  0  0  0  0  # atno 10765 bound_to 10752
  141.0918  133.6631  156.4008 H   0  0  0  0  0  0  0  0  0  0  0  0  # atno 11005 bound_to 11000
  144.7052  140.3822  143.7124 LP  0  0  0  0  0  0  0  0  0  0  0  0  # atno 17320 bound_to 7965
  145.6962  139.1650  143.2618 LP  0  0  0  0  0  0  0  0  0  0  0  0  # atno 17321 bound_to 7965
  139.4958  144.4098  152.0093 LP  0  0  0  0  0  0  0  0  0  0  0  0  # atno 17342 bound_to 10162
  140.3201  144.3438  150.6012 LP  0  0  0  0  0  0  0  0  0  0  0  0  # atno 17343 bound_to 10162
  157.4935  130.7837  149.7532 LP  0  0  0  0  0  0  0  0  0  0  0  0  # atno 17370 bound_to 10713
  155.9971  130.3902  150.2752 LP  0  0  0  0  0  0  0  0  0  0  0  0  # atno 17371 bound_to 10713
  140.5233  134.6283  157.5325 LP  0  0  0  0  0  0  0  0  0  0  0  0  # atno 17394 bound_to 11000
  139.9746  134.7236  155.9975 LP  0  0  0  0  0  0  0  0  0  0  0  0  # atno 17395 bound_to 11000

$$$$
