AV-unprocessed.smi:951|AV-procd|sdf|4252|dock2
  -GOLD-   22720 2153D 1   1.00000     0.00000
 Structure written by MMmdl.
 51 53  0  0  0  0  0  0  0  0  1 V2000
  151.3855  138.8813  159.7565 O   0  0  0  0  0  0  0  0  0  0  0  0
  151.1529  138.7234  158.5571 C   0  0  0  0  0  0  0  0  0  0  0  0
  150.0028  138.2145  158.0934 N   0  0  0  0  0  0  0  0  0  0  0  0
  148.9026  137.7683  158.9363 C   0  0  0  0  0  0  0  0  0  0  0  0
  148.8249  136.2355  158.9579 C   0  0  0  0  0  0  0  0  0  0  0  0
  148.2600  135.7068  160.2628 C   0  0  0  0  0  0  0  0  0  0  0  0
  147.9626  134.3357  160.4171 C   0  0  0  0  0  0  0  0  0  0  0  0
  147.4449  133.8963  161.6509 C   0  0  0  0  0  0  0  0  0  0  0  0
  147.2469  134.8393  162.6779 C   0  0  0  0  0  0  0  0  0  0  0  0
  147.5775  136.1856  162.4246 C   0  0  0  0  0  0  0  0  0  0  0  0
  148.0734  136.6175  161.2450 N   0  0  0  0  0  0  0  0  0  0  0  0
  152.1940  139.1337  157.4971 C   0  0  1  0  0  0  0  0  0  0  0  0
  152.4844  137.9431  156.5697 C   0  0  0  0  0  0  0  0  0  0  0  0
  152.8607  138.5726  155.2438 C   0  0  0  0  0  0  0  0  0  0  0  0
  152.0810  139.8855  155.2057 C   0  0  0  0  0  0  0  0  0  0  0  0
  151.7756  140.2298  156.5983 N   0  0  0  0  0  0  0  0  0  0  0  0
  151.2669  141.4244  156.9995 C   0  0  0  0  0  0  0  0  0  0  0  0
  150.8813  142.2674  156.1888 O   0  0  0  0  0  0  0  0  0  0  0  0
  151.1552  141.7384  158.5125 C   0  0  0  0  0  0  0  0  0  0  0  0
  150.2986  142.9980  158.7808 C   0  0  0  0  0  0  0  0  0  0  0  0
  151.0451  144.3125  158.4923 C   0  0  0  0  0  0  0  0  0  0  0  0
  152.3549  144.3879  159.2897 C   0  0  0  0  0  0  0  0  0  0  0  0
  153.2610  143.1872  158.9828 C   0  0  0  0  0  0  0  0  0  0  0  0
  152.5308  141.8496  159.2193 C   0  0  0  0  0  0  0  0  0  0  0  0
  149.8867  138.1231  157.0946 H   0  0  0  0  0  0  0  0  0  0  0  0
  149.0453  138.1484  159.9494 H   0  0  0  0  0  0  0  0  0  0  0  0
  147.9679  138.1887  158.5616 H   0  0  0  0  0  0  0  0  0  0  0  0
  148.2027  135.8803  158.1347 H   0  0  0  0  0  0  0  0  0  0  0  0
  149.8166  135.8096  158.7987 H   0  0  0  0  0  0  0  0  0  0  0  0
  148.1284  133.6351  159.6114 H   0  0  0  0  0  0  0  0  0  0  0  0
  147.2046  132.8550  161.8068 H   0  0  0  0  0  0  0  0  0  0  0  0
  146.8523  134.5384  163.6370 H   0  0  0  0  0  0  0  0  0  0  0  0
  147.4401  136.9356  163.1894 H   0  0  0  0  0  0  0  0  0  0  0  0
  153.1173  139.4498  157.9863 H   0  0  0  0  0  0  0  0  0  0  0  0
  153.2698  137.2936  156.9579 H   0  0  0  0  0  0  0  0  0  0  0  0
  151.5937  137.3290  156.4237 H   0  0  0  0  0  0  0  0  0  0  0  0
  153.9301  138.7876  155.2408 H   0  0  0  0  0  0  0  0  0  0  0  0
  152.6493  137.9286  154.3897 H   0  0  0  0  0  0  0  0  0  0  0  0
  152.6537  140.6641  154.7000 H   0  0  0  0  0  0  0  0  0  0  0  0
  151.1465  139.7389  154.6622 H   0  0  0  0  0  0  0  0  0  0  0  0
  150.6611  140.8997  158.9990 H   0  0  0  0  0  0  0  0  0  0  0  0
  149.3802  142.9653  158.1934 H   0  0  0  0  0  0  0  0  0  0  0  0
  149.9816  142.9936  159.8244 H   0  0  0  0  0  0  0  0  0  0  0  0
  151.2558  144.4002  157.4260 H   0  0  0  0  0  0  0  0  0  0  0  0
  150.4091  145.1604  158.7482 H   0  0  0  0  0  0  0  0  0  0  0  0
  152.8783  145.3164  159.0597 H   0  0  0  0  0  0  0  0  0  0  0  0
  152.1321  144.4148  160.3571 H   0  0  0  0  0  0  0  0  0  0  0  0
  153.6186  143.2524  157.9558 H   0  0  0  0  0  0  0  0  0  0  0  0
  154.1519  143.2313  159.6096 H   0  0  0  0  0  0  0  0  0  0  0  0
  152.3786  141.7261  160.2921 H   0  0  0  0  0  0  0  0  0  0  0  0
  153.1763  141.0233  158.9181 H   0  0  0  0  0  0  0  0  0  0  0  0
  1  2  2  0  0  0  0
  2  3  1  0  0  0  0
  2 12  1  0  0  0  0
  3  4  1  0  0  0  0
  3 25  1  0  0  0  0
  4  5  1  0  0  0  0
  4 26  1  0  0  0  0
  4 27  1  0  0  0  0
  5  6  1  0  0  0  0
  5 28  1  0  0  0  0
  5 29  1  0  0  0  0
  6 11  1  0  0  0  0
  6  7  2  0  0  0  0
  7  8  1  0  0  0  0
  7 30  1  0  0  0  0
  8  9  2  0  0  0  0
  8 31  1  0  0  0  0
  9 10  1  0  0  0  0
  9 32  1  0  0  0  0
 10 11  2  0  0  0  0
 10 33  1  0  0  0  0
 12 16  1  0  0  0  0
 12 13  1  0  0  0  0
 12 34  1  0  0  0  0
 13 14  1  0  0  0  0
 13 35  1  0  0  0  0
 13 36  1  0  0  0  0
 14 15  1  0  0  0  0
 14 37  1  0  0  0  0
 14 38  1  0  0  0  0
 15 16  1  0  0  0  0
 15 39  1  0  0  0  0
 15 40  1  0  0  0  0
 16 17  1  0  0  0  0
 17 18  2  0  0  0  0
 17 19  1  0  0  0  0
 19 24  1  0  0  0  0
 19 20  1  0  0  0  0
 19 41  1  0  0  0  0
 20 21  1  0  0  0  0
 20 42  1  0  0  0  0
 20 43  1  0  0  0  0
 21 22  1  0  0  0  0
 21 44  1  0  0  0  0
 21 45  1  0  0  0  0
 22 23  1  0  0  0  0
 22 46  1  0  0  0  0
 22 47  1  0  0  0  0
 23 24  1  0  0  0  0
 23 48  1  0  0  0  0
 23 49  1  0  0  0  0
 24 50  1  0  0  0  0
 24 51  1  0  0  0  0
M  END
> <s_m_source_file>
AV-unprocessed.smi

> <i_m_source_file_index>
951

> <i_lp_mmshare_version>
43012

> <i_f3d_flags>
0

> <s_epik_input>
bjFbY0hdW2NIXVtjSF1bY0hdYzFbQ0gyXVtDSDJdW05IXUMoPU8pW0NAQEhdMltDSDJdW0NIMl1bQ0gyXU4yQyg9TylbQ0hdM1tDSDJdW0NIMl1bQ0gyXVtDSDJdW0NIMl0z

> <s_epik_cmdline>
J2VwaWtfcHl0aG9uJywgJy1waCcsICc3LjAnLCAnLXRuJywgJzgnLCAnLW1hJywgJzIwMCcsICctbWV0YWxfYmluZGluZycsICctaW1hZScsICc8aW5maWxlLm1hZT4nLCAnLW9tYWUnLCAnPG91dGZpbGUubWFlPic=

> <r_epik_Ionization_Penalty>
0.0265505

> <r_epik_Ionization_Penalty_Charging>
0

> <r_epik_Ionization_Penalty_Neutral>
0.0265505

> <r_epik_State_Penalty>
0.02168

> <r_epik_Charging_Adjusted_Penalty>
0.02168

> <i_epik_Tot_Q>
0

> <i_epik_Tot_abs_Q>
0

> <r_epik_Metal_State_Penalty>
0.020746

> <b_epik_Metal_Only>
0

> <s_lp_Force_Field>
OPLS_2005

> <r_lp_Energy>
20.7073

> <b_lp_Chiralities_Consistent>
1

> <s_lp_Variant>
AV-unprocessed.smi:951-2

> <Gold.Version>
5.8.1

> <Gold.Id.Protein>
6NUR|6NUR_protein|mol2

> <Gold.PLP.Fitness>
47.8867

> <Gold.PLP.PLP>
-45.8339

> <Gold.PLP.part.hbond>
-2.0000

> <Gold.PLP.part.metal>
0.0000

> <Gold.PLP.part.buried>
-0.7342

> <Gold.PLP.part.nonpolar>
-42.6801

> <Gold.PLP.part.repulsive>
0.2136

> <Gold.PLP.ligand.clash>
0.0000

> <Gold.PLP.ligand.torsion>
0.5384

> <Gold.PLP.Chemscore.Hbond>
1.0000

> <Gold.PLP.Chemscore.CHOScore>
0.0000

> <Gold.PLP.Chemscore.Metal>
0.0000

> <Gold.Chemscore.Hbonds>
donor molecule, donor type, donor heavy atom, donor atom, acceptor molecule, acceptor atom, score
      P1  H  6931  6943       L1    11  0.95

> <Gold.PLP.Chemscore.Internal.Correction>
0.1296

> <Gold.Rescore>
     Score         DG    S(hbond)    S(metal)    S(lipo)     H(rot)  DE(clash)    DE(int)     intcor
     16.41     -20.40       0.85        0.00     137.28       1.55       1.83       2.16       ----

> <Gold.Chemscore.Fitness>
16.4106

> <Gold.Chemscore.DG>
-20.3977

> <Gold.Chemscore.ZeroCoef>
-5.4800

> <Gold.Chemscore.Hbond>
0.8458

> <Gold.Chemscore.Metal>
0.0000

> <Gold.Chemscore.Lipo>
137.2841

> <Gold.Chemscore.Internal_Hbond>
0.0000

> <Gold.Chemscore.DEClash>
1.8290

> <Gold.Chemscore.DEInternal>
2.1581

> <Gold.Chemscore.Rot>
1.5506

> <Gold.Chemscore.Internal.Correction>
   9.000000E+99

> <Gold.Chemscore.Hbonds>
donor molecule, donor type, donor heavy atom, donor atom, acceptor molecule, acceptor atom, score
      P1  H  6931  6943       L1    11  0.21

> <Gold.Chemscore.Hbond.Weighted>
-2.8249

> <Gold.Chemscore.Metal.Weighted>
-0.0000

> <Gold.Chemscore.Lipo.Weighted>
-16.0622

> <Gold.Chemscore.Internal_Hbond.Weighted>
0.0000

> <Gold.Chemscore.DEClash.Weighted>
1.8290

> <Gold.Chemscore.DEInternal.Weighted>
2.1581

> <Gold.Chemscore.Rot.Weighted>
3.9695

> <Gold.Chemscore.Internal.Correction.Weighted>
   9.000000E+99

> <Gold.Protein.RotatedTorsions>
[ 6907 6896 6895 6894 ] final  -97.55 input  -60.11 | X-H torsion
[ 7974 7965 7964 7962 ] final -129.02 input  175.53 | X-H torsion
[ 8008 7997 7996 7995 ] final  -10.38 input   59.86 | X-H torsion
[ 10167 10162 10161 10158 ] final  104.22 input  -65.29 | X-H torsion
[ 10718 10713 10712 10709 ] final  -32.39 input   66.30 | X-H torsion
[ 10763 10752 10751 10750 ] final  172.11 input  -60.55 | X-H torsion
[ 11005 11000 10999 10996 ] final   -5.54 input  -57.11 | X-H torsion

> <Gold.Protein.ActiveResidues>
 VAL166  LYS551  ARG553  GLY616  TRP617  ASP618  TYR619  PRO620  LYS621  CYS622 
 ASP623  PHE694  ASN695  SER759  ASP760  ASP761  ALA762  ILE779  LEU786  VAL792 
 PHE793  MET794  SER795  GLU796  ALA797  LYS798  CYS799  TRP800  GLU811  SER814 

> <Gold.Protein.RotatedAtoms>
  150.7019  134.1332  159.4076 H   0  0  0  0  0  0  0  0  0  0  0  0  # atno 6907 bound_to 6896
  151.9317  135.0251  160.0539 H   0  0  0  0  0  0  0  0  0  0  0  0  # atno 6908 bound_to 6896
  152.2170  133.4919  159.5178 H   0  0  0  0  0  0  0  0  0  0  0  0  # atno 6909 bound_to 6896
  144.9613  140.7450  143.4727 H   0  0  0  0  0  0  0  0  0  0  0  0  # atno 7974 bound_to 7965
  154.5560  140.2330  155.8410 H   0  0  0  0  0  0  0  0  0  0  0  0  # atno 8008 bound_to 7997
  156.1988  140.3058  155.9444 H   0  0  0  0  0  0  0  0  0  0  0  0  # atno 8009 bound_to 7997
  155.2979  140.0430  157.3018 H   0  0  0  0  0  0  0  0  0  0  0  0  # atno 8010 bound_to 7997
  139.7195  144.7061  151.0895 H   0  0  0  0  0  0  0  0  0  0  0  0  # atno 10167 bound_to 10162
  156.3755  130.4347  149.7511 H   0  0  0  0  0  0  0  0  0  0  0  0  # atno 10718 bound_to 10713
  154.4215  135.2758  155.1972 H   0  0  0  0  0  0  0  0  0  0  0  0  # atno 10763 bound_to 10752
  154.3916  135.6065  153.5850 H   0  0  0  0  0  0  0  0  0  0  0  0  # atno 10764 bound_to 10752
  152.9833  135.5905  154.4511 H   0  0  0  0  0  0  0  0  0  0  0  0  # atno 10765 bound_to 10752
  140.6922  133.9061  155.8626 H   0  0  0  0  0  0  0  0  0  0  0  0  # atno 11005 bound_to 11000
  145.2696  139.1960  143.4849 LP  0  0  0  0  0  0  0  0  0  0  0  0  # atno 17320 bound_to 7965
  146.3354  140.2639  142.8603 LP  0  0  0  0  0  0  0  0  0  0  0  0  # atno 17321 bound_to 7965
  140.7751  143.5184  150.9566 LP  0  0  0  0  0  0  0  0  0  0  0  0  # atno 17342 bound_to 10162
  139.8871  143.6999  152.3150 LP  0  0  0  0  0  0  0  0  0  0  0  0  # atno 17343 bound_to 10162
  156.4621  130.7957  151.2977 LP  0  0  0  0  0  0  0  0  0  0  0  0  # atno 17370 bound_to 10713
  157.7488  131.0062  150.3144 LP  0  0  0  0  0  0  0  0  0  0  0  0  # atno 17371 bound_to 10713
  141.0232  134.0860  157.4098 LP  0  0  0  0  0  0  0  0  0  0  0  0  # atno 17394 bound_to 11000
  139.8920  135.0122  156.6823 LP  0  0  0  0  0  0  0  0  0  0  0  0  # atno 17395 bound_to 11000

$$$$
