AV-unprocessed.smi:414|AV-procd|sdf|2514|dock3
  -GOLD-   2262022463D 1   1.00000     0.00000
 Structure written by MMmdl.
 38 39  0  0  0  0  0  0  0  0  1 V2000
  153.3841  142.1858  160.6891 C   0  0  0  0  0  0  0  0  0  0  0  0
  152.2347  142.2674  159.6746 C   0  0  2  0  0  0  0  0  0  0  0  0
  152.0727  140.9464  158.8985 C   0  0  0  0  0  0  0  0  0  0  0  0
  150.9242  141.0258  157.8798 C   0  0  0  0  0  0  0  0  0  0  0  0
  151.1162  142.2014  156.9046 C   0  0  1  0  0  0  0  0  0  0  0  0
  149.9778  142.2727  155.9938 N   0  0  0  0  0  0  0  0  0  0  0  0
  149.6989  141.3834  155.0283 C   0  0  0  0  0  0  0  0  0  0  0  0
  150.4025  140.3999  154.7936 O   0  0  0  0  0  0  0  0  0  0  0  0
  148.4446  141.6701  154.1903 C   0  0  0  0  0  0  0  0  0  0  0  0
  147.4816  140.5591  154.1973 N   0  0  0  0  0  0  0  0  0  0  0  0
  147.8216  139.3340  153.6413 C   0  0  0  0  0  0  0  0  0  0  0  0
  146.9889  138.2662  153.6241 C   0  0  0  0  0  0  0  0  0  0  0  0
  145.6553  138.3600  154.2084 C   0  0  0  0  0  0  0  0  0  0  0  0
  144.8294  137.4505  154.2404 O   0  0  0  0  0  0  0  0  0  0  0  0
  145.3515  139.6076  154.7597 N   0  0  0  0  0  0  0  0  0  0  0  0
  146.2055  140.7116  154.7823 C   0  0  0  0  0  0  0  0  0  0  0  0
  145.8389  141.7666  155.2987 O   0  0  0  0  0  0  0  0  0  0  0  0
  151.2810  143.5259  157.6767 C   0  0  0  0  0  0  0  0  0  0  0  0
  152.4277  143.4426  158.6972 C   0  0  0  0  0  0  0  0  0  0  0  0
  144.4397  139.7190  155.1789 H   0  0  0  0  0  0  0  0  0  0  0  0
  154.3391  142.0088  160.1932 H   0  0  0  0  0  0  0  0  0  0  0  0
  153.2229  141.3756  161.4009 H   0  0  0  0  0  0  0  0  0  0  0  0
  153.4713  143.1114  161.2589 H   0  0  0  0  0  0  0  0  0  0  0  0
  151.3149  142.4437  160.2344 H   0  0  0  0  0  0  0  0  0  0  0  0
  153.0018  140.7070  158.3791 H   0  0  0  0  0  0  0  0  0  0  0  0
  151.8878  140.1258  159.5926 H   0  0  0  0  0  0  0  0  0  0  0  0
  150.8605  140.0879  157.3264 H   0  0  0  0  0  0  0  0  0  0  0  0
  149.9777  141.1354  158.4115 H   0  0  0  0  0  0  0  0  0  0  0  0
  152.0229  142.0148  156.3253 H   0  0  0  0  0  0  0  0  0  0  0  0
  149.3496  143.0542  156.1122 H   0  0  0  0  0  0  0  0  0  0  0  0
  147.9645  142.5852  154.5436 H   0  0  0  0  0  0  0  0  0  0  0  0
  148.7626  141.8881  153.1696 H   0  0  0  0  0  0  0  0  0  0  0  0
  148.8016  139.2170  153.2009 H   0  0  0  0  0  0  0  0  0  0  0  0
  147.3119  137.3373  153.1768 H   0  0  0  0  0  0  0  0  0  0  0  0
  151.4714  144.3460  156.9833 H   0  0  0  0  0  0  0  0  0  0  0  0
  150.3526  143.7698  158.1952 H   0  0  0  0  0  0  0  0  0  0  0  0
  152.4926  144.3807  159.2493 H   0  0  0  0  0  0  0  0  0  0  0  0
  153.3750  143.3305  158.1678 H   0  0  0  0  0  0  0  0  0  0  0  0
  1  2  1  0  0  0  0
  1 21  1  0  0  0  0
  1 22  1  0  0  0  0
  1 23  1  0  0  0  0
  2 19  1  0  0  0  0
  2  3  1  0  0  0  0
  2 24  1  0  0  0  0
  3  4  1  0  0  0  0
  3 25  1  0  0  0  0
  3 26  1  0  0  0  0
  4  5  1  0  0  0  0
  4 27  1  0  0  0  0
  4 28  1  0  0  0  0
  5  6  1  0  0  0  0
  5 18  1  0  0  0  0
  5 29  1  0  0  0  0
  6  7  1  0  0  0  0
  6 30  1  0  0  0  0
  7  8  2  0  0  0  0
  7  9  1  0  0  0  0
  9 10  1  0  0  0  0
  9 31  1  0  0  0  0
  9 32  1  0  0  0  0
 10 16  1  0  0  0  0
 10 11  1  0  0  0  0
 11 12  2  0  0  0  0
 11 33  1  0  0  0  0
 12 13  1  0  0  0  0
 12 34  1  0  0  0  0
 13 14  2  0  0  0  0
 13 15  1  0  0  0  0
 15 20  1  0  0  0  0
 15 16  1  0  0  0  0
 16 17  2  0  0  0  0
 18 19  1  0  0  0  0
 18 35  1  0  0  0  0
 18 36  1  0  0  0  0
 19 37  1  0  0  0  0
 19 38  1  0  0  0  0
M  END
> <s_m_source_file>
AV-unprocessed.smi

> <i_m_source_file_index>
414

> <i_lp_mmshare_version>
43012

> <i_f3d_flags>
0

> <s_epik_input>
W0NIM11bQ0BASF0xW0NIMl1bQ0gyXVtDQEhdKFtDSDJdW0NIMl0xKVtOSF1DKD1PKVtDSDJdbjJbY0hdW2NIXWMoPU8pW25IXWMyPU8=

> <s_epik_cmdline>
J2VwaWtfcHl0aG9uJywgJy1waCcsICc3LjAnLCAnLXRuJywgJzgnLCAnLW1hJywgJzIwMCcsICctbWV0YWxfYmluZGluZycsICctaW1hZScsICc8aW5maWxlLm1hZT4nLCAnLW9tYWUnLCAnPG91dGZpbGUubWFlPic=

> <r_lp_tautomer_probability>
0.999537

> <r_epik_Ionization_Penalty>
0.00309124

> <r_epik_Ionization_Penalty_Charging>
0.00309122

> <r_epik_Ionization_Penalty_Neutral>
1.90469e-08

> <r_epik_State_Penalty>
0.00217484

> <r_epik_Charging_Adjusted_Penalty>
0.00526606

> <i_epik_Tot_Q>
0

> <i_epik_Tot_abs_Q>
0

> <r_epik_Metal_State_Penalty>
0.362537

> <b_epik_Metal_Only>
0

> <s_lp_Force_Field>
OPLS_2005

> <r_lp_Energy>
8.30971

> <b_lp_Chiralities_Consistent>
1

> <s_lp_Variant>
AV-unprocessed.smi:414-1

> <Gold.Version>
5.8.1

> <Gold.Id.Protein>
6NUR|6NUR_protein|mol2

> <Gold.PLP.Fitness>
43.9462

> <Gold.PLP.PLP>
-35.3079

> <Gold.PLP.part.hbond>
-3.0000

> <Gold.PLP.part.metal>
0.0000

> <Gold.PLP.part.buried>
-3.0768

> <Gold.PLP.part.nonpolar>
-29.6239

> <Gold.PLP.part.repulsive>
0.4314

> <Gold.PLP.ligand.clash>
0.0000

> <Gold.PLP.ligand.torsion>
0.1382

> <Gold.PLP.Chemscore.Hbond>
2.0000

> <Gold.PLP.Chemscore.CHOScore>
0.9700

> <Gold.PLP.Chemscore.Metal>
0.0000

> <Gold.Chemscore.Hbonds>
donor molecule, donor type, donor heavy atom, donor atom, acceptor molecule, acceptor atom, score
      L1  H     6    30       P1  8028  0.98
      P1  H  7989  7998       L1     8  1.00
      L1  C    11    33       P1  7957  0.98

> <Gold.PLP.Chemscore.Internal.Correction>
0.0047

> <Gold.Rescore>
     Score         DG    S(hbond)    S(metal)    S(lipo)     H(rot)  DE(clash)    DE(int)     intcor
     16.57     -16.77       1.70        0.00      84.88       1.69       0.02       0.18       ----

> <Gold.Chemscore.Fitness>
16.5738

> <Gold.Chemscore.DG>
-16.7712

> <Gold.Chemscore.ZeroCoef>
-5.4800

> <Gold.Chemscore.Hbond>
1.7005

> <Gold.Chemscore.Metal>
0.0000

> <Gold.Chemscore.Lipo>
84.8819

> <Gold.Chemscore.Internal_Hbond>
0.0000

> <Gold.Chemscore.DEClash>
0.0176

> <Gold.Chemscore.DEInternal>
0.1798

> <Gold.Chemscore.Rot>
1.6874

> <Gold.Chemscore.Internal.Correction>
   9.000000E+99

> <Gold.Chemscore.Hbonds>
donor molecule, donor type, donor heavy atom, donor atom, acceptor molecule, acceptor atom, score
      L1  H     6    30       P1  8028  0.93
      P1  H  7989  7998       L1     8  0.58

> <Gold.Chemscore.Hbond.Weighted>
-5.6798

> <Gold.Chemscore.Metal.Weighted>
-0.0000

> <Gold.Chemscore.Lipo.Weighted>
-9.9312

> <Gold.Chemscore.Internal_Hbond.Weighted>
0.0000

> <Gold.Chemscore.DEClash.Weighted>
0.0176

> <Gold.Chemscore.DEInternal.Weighted>
0.1798

> <Gold.Chemscore.Rot.Weighted>
4.3198

> <Gold.Chemscore.Internal.Correction.Weighted>
   9.000000E+99

> <Gold.Protein.RotatedTorsions>
[ 6907 6896 6895 6894 ] final -117.19 input  -60.11 | X-H torsion
[ 7974 7965 7964 7962 ] final  -51.97 input  175.53 | X-H torsion
[ 8008 7997 7996 7995 ] final  179.25 input   59.86 | X-H torsion
[ 10167 10162 10161 10158 ] final  128.21 input  -65.29 | X-H torsion
[ 10718 10713 10712 10709 ] final  103.16 input   66.30 | X-H torsion
[ 10763 10752 10751 10750 ] final  157.08 input  -60.55 | X-H torsion
[ 11005 11000 10999 10996 ] final   84.13 input  -57.11 | X-H torsion

> <Gold.Protein.ActiveResidues>
 VAL166  LYS551  ARG553  GLY616  TRP617  ASP618  TYR619  PRO620  LYS621  CYS622 
 ASP623  PHE694  ASN695  SER759  ASP760  ASP761  ALA762  ILE779  LEU786  VAL792 
 PHE793  MET794  SER795  GLU796  ALA797  LYS798  CYS799  TRP800  GLU811  SER814 

> <Gold.Protein.RotatedAtoms>
  150.8116  133.8411  159.3179 H   0  0  0  0  0  0  0  0  0  0  0  0  # atno 6907 bound_to 6896
  151.6195  135.1031  160.0108 H   0  0  0  0  0  0  0  0  0  0  0  0  # atno 6908 bound_to 6896
  152.4208  133.7073  159.6515 H   0  0  0  0  0  0  0  0  0  0  0  0  # atno 6909 bound_to 6896
  145.9131  140.7898  142.9685 H   0  0  0  0  0  0  0  0  0  0  0  0  # atno 7974 bound_to 7965
  156.0455  140.1313  157.0109 H   0  0  0  0  0  0  0  0  0  0  0  0  # atno 8008 bound_to 7997
  154.4410  140.1021  156.6370 H   0  0  0  0  0  0  0  0  0  0  0  0  # atno 8009 bound_to 7997
  155.5603  140.3464  155.4492 H   0  0  0  0  0  0  0  0  0  0  0  0  # atno 8010 bound_to 7997
  139.5539  144.6834  151.4241 H   0  0  0  0  0  0  0  0  0  0  0  0  # atno 10167 bound_to 10162
  157.6781  131.0772  150.5514 H   0  0  0  0  0  0  0  0  0  0  0  0  # atno 10718 bound_to 10713
  154.1946  135.2793  155.3011 H   0  0  0  0  0  0  0  0  0  0  0  0  # atno 10763 bound_to 10752
  154.5902  135.5562  153.7274 H   0  0  0  0  0  0  0  0  0  0  0  0  # atno 10764 bound_to 10752
  153.0103  135.6366  154.2084 H   0  0  0  0  0  0  0  0  0  0  0  0  # atno 10765 bound_to 10752
  139.9009  134.8195  156.2404 H   0  0  0  0  0  0  0  0  0  0  0  0  # atno 11005 bound_to 11000
  144.6745  140.1857  143.7401 LP  0  0  0  0  0  0  0  0  0  0  0  0  # atno 17320 bound_to 7965
  145.8646  139.2240  143.1696 LP  0  0  0  0  0  0  0  0  0  0  0  0  # atno 17321 bound_to 7965
  140.6807  143.8087  150.7118 LP  0  0  0  0  0  0  0  0  0  0  0  0  # atno 17342 bound_to 10162
  140.1540  143.4333  152.2112 LP  0  0  0  0  0  0  0  0  0  0  0  0  # atno 17343 bound_to 10162
  156.5818  130.4306  149.5974 LP  0  0  0  0  0  0  0  0  0  0  0  0  # atno 17370 bound_to 10713
  156.2655  130.6987  151.1768 LP  0  0  0  0  0  0  0  0  0  0  0  0  # atno 17371 bound_to 10713
  141.0288  133.7000  156.1395 LP  0  0  0  0  0  0  0  0  0  0  0  0  # atno 17394 bound_to 11000
  140.7126  134.4445  157.5580 LP  0  0  0  0  0  0  0  0  0  0  0  0  # atno 17395 bound_to 11000

$$$$
