AV-unprocessed.smi:501|AV-procd|sdf|2743|dock3
  -GOLD-   2262023203D 1   1.00000     0.00000
 Structure written by MMmdl.
 46 48  0  0  0  0  0  0  0  0  2 V2000
  151.9045  144.9695  159.2371 C   0  0  0  0  0  0  0  0  0  0  0  0
  152.4090  143.5539  159.4294 C   0  0  0  0  0  0  0  0  0  0  0  0
  152.9819  143.1614  160.6556 C   0  0  0  0  0  0  0  0  0  0  0  0
  153.4489  141.8450  160.8231 C   0  0  0  0  0  0  0  0  0  0  0  0
  153.3435  140.9200  159.7670 C   0  0  0  0  0  0  0  0  0  0  0  0
  152.7720  141.2950  158.5339 C   0  0  0  0  0  0  0  0  0  0  0  0
  152.7080  140.3275  157.5538 O   0  0  0  0  0  0  0  0  0  0  0  0
  151.6844  140.4359  156.5762 C   0  0  0  0  0  0  0  0  0  0  0  0
  150.7067  139.2685  156.7437 C   0  0  0  0  0  0  0  0  0  0  0  0
  149.9404  139.0284  155.5130 N   0  0  0  0  0  0  0  0  0  0  0  0
  149.9578  137.9719  154.6480 C   0  0  0  0  0  0  0  0  0  0  0  0
  150.7933  136.7312  154.7501 C   0  0  0  0  0  0  0  0  0  0  0  0
  149.9883  135.4871  155.1785 C   0  0  0  0  0  0  0  0  0  0  0  0
  149.3417  134.8081  154.0583 N   0  0  0  0  0  0  0  0  0  0  0  0
  149.2589  133.4781  153.9115 C   0  0  0  0  0  0  0  0  0  0  0  0
  149.7447  132.6617  154.6925 O   0  0  0  0  0  0  0  0  0  0  0  0
  149.0446  138.2400  153.6708 N   0  3  0  0  0  0  0  0  0  0  0  0
  148.4642  139.4889  153.8931 C   0  0  0  0  0  0  0  0  0  0  0  0
  147.5053  140.1902  153.1686 C   0  0  0  0  0  0  0  0  0  0  0  0
  147.1322  141.4543  153.6706 C   0  0  0  0  0  0  0  0  0  0  0  0
  147.7069  141.9753  154.8482 C   0  0  0  0  0  0  0  0  0  0  0  0
  148.6773  141.2542  155.5748 C   0  0  0  0  0  0  0  0  0  0  0  0
  149.0384  140.0039  155.0730 C   0  0  0  0  0  0  0  0  0  0  0  0
  152.3041  142.6246  158.3742 C   0  0  0  0  0  0  0  0  0  0  0  0
  152.0621  145.5745  160.1305 H   0  0  0  0  0  0  0  0  0  0  0  0
  150.8372  144.9627  159.0148 H   0  0  0  0  0  0  0  0  0  0  0  0
  152.4257  145.4467  158.4069 H   0  0  0  0  0  0  0  0  0  0  0  0
  153.0660  143.8661  161.4700 H   0  0  0  0  0  0  0  0  0  0  0  0
  153.8891  141.5438  161.7622 H   0  0  0  0  0  0  0  0  0  0  0  0
  153.7060  139.9119  159.9048 H   0  0  0  0  0  0  0  0  0  0  0  0
  151.1565  141.3844  156.6877 H   0  0  0  0  0  0  0  0  0  0  0  0
  152.1165  140.4015  155.5765 H   0  0  0  0  0  0  0  0  0  0  0  0
  151.2458  138.3537  156.9902 H   0  0  0  0  0  0  0  0  0  0  0  0
  150.0171  139.4460  157.5692 H   0  0  0  0  0  0  0  0  0  0  0  0
  151.2745  136.5357  153.7922 H   0  0  0  0  0  0  0  0  0  0  0  0
  151.5975  136.9126  155.4631 H   0  0  0  0  0  0  0  0  0  0  0  0
  150.6341  134.7889  155.7133 H   0  0  0  0  0  0  0  0  0  0  0  0
  149.2086  135.7791  155.8826 H   0  0  0  0  0  0  0  0  0  0  0  0
  148.9033  135.3902  153.3591 H   0  0  0  0  0  0  0  0  0  0  0  0
  148.7019  133.2168  152.9985 H   0  0  0  0  0  0  0  0  0  0  0  0
  147.0656  139.7937  152.2651 H   0  0  0  0  0  0  0  0  0  0  0  0
  146.3917  142.0370  153.1417 H   0  0  0  0  0  0  0  0  0  0  0  0
  147.3977  142.9483  155.2020 H   0  0  0  0  0  0  0  0  0  0  0  0
  149.1125  141.6648  156.4739 H   0  0  0  0  0  0  0  0  0  0  0  0
  151.8599  142.9567  157.4483 H   0  0  0  0  0  0  0  0  0  0  0  0
  148.8405  137.6134  152.9030 H   0  0  0  0  0  0  0  0  0  0  0  0
  1  2  1  0  0  0  0
  1 25  1  0  0  0  0
  1 26  1  0  0  0  0
  1 27  1  0  0  0  0
  2 24  1  0  0  0  0
  2  3  2  0  0  0  0
  3  4  1  0  0  0  0
  3 28  1  0  0  0  0
  4  5  2  0  0  0  0
  4 29  1  0  0  0  0
  5  6  1  0  0  0  0
  5 30  1  0  0  0  0
  6  7  1  0  0  0  0
  6 24  2  0  0  0  0
  7  8  1  0  0  0  0
  8  9  1  0  0  0  0
  8 31  1  0  0  0  0
  8 32  1  0  0  0  0
  9 10  1  0  0  0  0
  9 33  1  0  0  0  0
  9 34  1  0  0  0  0
 10 23  1  0  0  0  0
 10 11  1  0  0  0  0
 11 12  1  0  0  0  0
 11 17  2  0  0  0  0
 12 13  1  0  0  0  0
 12 35  1  0  0  0  0
 12 36  1  0  0  0  0
 13 14  1  0  0  0  0
 13 37  1  0  0  0  0
 13 38  1  0  0  0  0
 14 15  1  0  0  0  0
 14 39  1  0  0  0  0
 15 16  2  0  0  0  0
 15 40  1  0  0  0  0
 17 18  1  0  0  0  0
 17 46  1  0  0  0  0
 18 23  2  0  0  0  0
 18 19  1  0  0  0  0
 19 20  2  0  0  0  0
 19 41  1  0  0  0  0
 20 21  1  0  0  0  0
 20 42  1  0  0  0  0
 21 22  2  0  0  0  0
 21 43  1  0  0  0  0
 22 23  1  0  0  0  0
 22 44  1  0  0  0  0
 24 45  1  0  0  0  0
M  CHG  1  17   1
M  END
> <s_m_source_file>
AV-unprocessed.smi

> <i_m_source_file_index>
501

> <i_lp_mmshare_version>
43012

> <i_f3d_flags>
0

> <s_epik_input>
W0NIM11jMVtjSF1bY0hdW2NIXWMoW2NIXTEpT1tDSDJdW0NIMl1uKGMobjIpW0NIMl1bQ0gyXVtOSF1bQ0hdPU8pYyhjMjMpW2NIXVtjSF1bY0hdW2NIXTM=

> <s_epik_cmdline>
J2VwaWtfcHl0aG9uJywgJy1waCcsICc3LjAnLCAnLXRuJywgJzgnLCAnLW1hJywgJzIwMCcsICctbWV0YWxfYmluZGluZycsICctaW1hZScsICc8aW5maWxlLm1hZT4nLCAnLW9tYWUnLCAnPG91dGZpbGUubWFlPic=

> <r_lp_tautomer_probability>
1

> <r_epik_Ionization_Penalty>
1.14747

> <r_epik_Ionization_Penalty_Charging>
1.14747

> <r_epik_Ionization_Penalty_Neutral>
1.55554e-08

> <r_epik_State_Penalty>
1.20856

> <r_epik_Charging_Adjusted_Penalty>
2.35603

> <i_epik_Tot_Q>
1

> <i_epik_Tot_abs_Q>
1

> <r_epik_Metal_State_Penalty>
1.28951

> <b_epik_Metal_Only>
0

> <s_lp_Force_Field>
OPLS_2005

> <r_lp_Energy>
21.7567

> <b_lp_Chiralities_Consistent>
1

> <s_lp_Variant>
AV-unprocessed.smi:501-2

> <Gold.Version>
5.8.1

> <Gold.Id.Protein>
6NUR|6NUR_protein|mol2

> <Gold.PLP.Fitness>
57.5577

> <Gold.PLP.PLP>
-48.1983

> <Gold.PLP.part.hbond>
-3.6277

> <Gold.PLP.part.metal>
0.0000

> <Gold.PLP.part.buried>
-0.3481

> <Gold.PLP.part.nonpolar>
-43.1260

> <Gold.PLP.part.repulsive>
0.0894

> <Gold.PLP.ligand.clash>
0.0000

> <Gold.PLP.ligand.torsion>
1.3100

> <Gold.PLP.Chemscore.Hbond>
3.9120

> <Gold.PLP.Chemscore.CHOScore>
0.0000

> <Gold.PLP.Chemscore.Metal>
0.0000

> <Gold.Chemscore.Hbonds>
donor molecule, donor type, donor heavy atom, donor atom, acceptor molecule, acceptor atom, score
      L1  H    14    39       P1  7948  0.98
      L1  H    17    46       P1  7948  2.00
      P1  H  7997  8009       L1     7  0.94

> <Gold.PLP.Chemscore.Internal.Correction>
0.2434

> <Gold.Rescore>
     Score         DG    S(hbond)    S(metal)    S(lipo)     H(rot)  DE(clash)    DE(int)     intcor
     20.50     -21.90       2.33        0.00     132.67       2.68       0.11       1.29       ----

> <Gold.Chemscore.Fitness>
20.5034

> <Gold.Chemscore.DG>
-21.9001

> <Gold.Chemscore.ZeroCoef>
-5.4800

> <Gold.Chemscore.Hbond>
2.3262

> <Gold.Chemscore.Metal>
0.0000

> <Gold.Chemscore.Lipo>
132.6697

> <Gold.Chemscore.Internal_Hbond>
0.0000

> <Gold.Chemscore.DEClash>
0.1056

> <Gold.Chemscore.DEInternal>
1.2911

> <Gold.Chemscore.Rot>
2.6843

> <Gold.Chemscore.Internal.Correction>
   9.000000E+99

> <Gold.Chemscore.Hbonds>
donor molecule, donor type, donor heavy atom, donor atom, acceptor molecule, acceptor atom, score
      L1  H    14    39       P1  7948  0.65
      L1  H    17    46       P1  7948  0.99
      P1  H  7997  8009       L1     7  0.53

> <Gold.Chemscore.Hbond.Weighted>
-7.7696

> <Gold.Chemscore.Metal.Weighted>
-0.0000

> <Gold.Chemscore.Lipo.Weighted>
-15.5224

> <Gold.Chemscore.Internal_Hbond.Weighted>
0.0000

> <Gold.Chemscore.DEClash.Weighted>
0.1056

> <Gold.Chemscore.DEInternal.Weighted>
1.2911

> <Gold.Chemscore.Rot.Weighted>
6.8718

> <Gold.Chemscore.Internal.Correction.Weighted>
   9.000000E+99

> <Gold.Protein.RotatedTorsions>
[ 6907 6896 6895 6894 ] final   99.57 input  -60.11 | X-H torsion
[ 7974 7965 7964 7962 ] final  140.02 input  175.53 | X-H torsion
[ 8008 7997 7996 7995 ] final  174.28 input   59.86 | X-H torsion
[ 10167 10162 10161 10158 ] final   99.28 input  -65.29 | X-H torsion
[ 10718 10713 10712 10709 ] final  136.38 input   66.30 | X-H torsion
[ 10763 10752 10751 10750 ] final -141.62 input  -60.55 | X-H torsion
[ 11005 11000 10999 10996 ] final  133.64 input  -57.11 | X-H torsion

> <Gold.Protein.ActiveResidues>
 VAL166  LYS551  ARG553  GLY616  TRP617  ASP618  TYR619  PRO620  LYS621  CYS622 
 ASP623  PHE694  ASN695  SER759  ASP760  ASP761  ALA762  ILE779  LEU786  VAL792 
 PHE793  MET794  SER795  GLU796  ALA797  LYS798  CYS799  TRP800  GLU811  SER814 

> <Gold.Protein.RotatedAtoms>
  152.5389  134.0408  159.8066 H   0  0  0  0  0  0  0  0  0  0  0  0  # atno 6907 bound_to 6896
  151.0564  133.5573  159.2645 H   0  0  0  0  0  0  0  0  0  0  0  0  # atno 6908 bound_to 6896
  151.2488  135.0622  159.9107 H   0  0  0  0  0  0  0  0  0  0  0  0  # atno 6909 bound_to 6896
  144.9225  139.5149  143.5656 H   0  0  0  0  0  0  0  0  0  0  0  0  # atno 7974 bound_to 7965
  156.0990  140.1438  156.9493 H   0  0  0  0  0  0  0  0  0  0  0  0  # atno 8008 bound_to 7997
  154.4690  140.0916  156.7141 H   0  0  0  0  0  0  0  0  0  0  0  0  # atno 8009 bound_to 7997
  155.4792  140.3444  155.4339 H   0  0  0  0  0  0  0  0  0  0  0  0  # atno 8010 bound_to 7997
  139.7632  144.6947  151.0263 H   0  0  0  0  0  0  0  0  0  0  0  0  # atno 10167 bound_to 10162
  157.4472  131.1063  151.0075 H   0  0  0  0  0  0  0  0  0  0  0  0  # atno 10718 bound_to 10713
  154.8539  135.3519  154.5897 H   0  0  0  0  0  0  0  0  0  0  0  0  # atno 10763 bound_to 10752
  153.6507  135.6994  153.5214 H   0  0  0  0  0  0  0  0  0  0  0  0  # atno 10764 bound_to 10752
  153.2896  135.4238  155.1113 H   0  0  0  0  0  0  0  0  0  0  0  0  # atno 10765 bound_to 10752
  139.9864  134.9530  156.9754 H   0  0  0  0  0  0  0  0  0  0  0  0  # atno 11005 bound_to 11000
  146.3211  139.8116  142.8945 LP  0  0  0  0  0  0  0  0  0  0  0  0  # atno 17320 bound_to 7965
  145.3272  141.0258  143.3467 LP  0  0  0  0  0  0  0  0  0  0  0  0  # atno 17321 bound_to 7965
  140.7809  143.4673  151.0194 LP  0  0  0  0  0  0  0  0  0  0  0  0  # atno 17342 bound_to 10162
  139.8359  143.7629  152.3180 LP  0  0  0  0  0  0  0  0  0  0  0  0  # atno 17343 bound_to 10162
  157.0918  130.5945  149.5441 LP  0  0  0  0  0  0  0  0  0  0  0  0  # atno 17370 bound_to 10713
  155.9972  130.5043  150.7526 LP  0  0  0  0  0  0  0  0  0  0  0  0  # atno 17371 bound_to 10713
  140.4993  134.1113  155.7247 LP  0  0  0  0  0  0  0  0  0  0  0  0  # atno 17394 bound_to 11000
  141.1529  133.8937  157.2053 LP  0  0  0  0  0  0  0  0  0  0  0  0  # atno 17395 bound_to 11000

$$$$
