AV-unprocessed.smi:2300|AV-procd|sdf|9233|dock2
  -GOLD-   2272012453D 1   1.00000     0.00000
 Structure written by MMmdl.
 51 52  0  0  0  0  0  0  0  0  1 V2000
  148.8752  141.2130  154.1985 C   0  0  0  0  0  0  0  0  0  0  0  0
  149.6476  139.9823  154.6632 C   0  0  0  0  0  0  0  0  0  0  0  0
  150.8525  139.8907  154.4306 O   0  0  0  0  0  0  0  0  0  0  0  0
  148.9452  139.0417  155.3131 N   0  0  0  0  0  0  0  0  0  0  0  0
  149.4927  137.7893  155.8233 C   0  0  0  0  0  0  0  0  0  0  0  0
  150.8361  138.0052  156.5401 C   0  0  1  0  0  0  0  0  0  0  0  0
  150.8095  139.2535  157.4419 C   0  0  0  0  0  0  0  0  0  0  0  0
  152.0642  139.3763  158.1810 N   0  0  0  0  0  0  0  0  0  0  0  0
  152.3250  140.5958  158.8412 C   0  0  0  0  0  0  0  0  0  0  0  0
  151.8443  141.8210  158.3221 C   0  0  0  0  0  0  0  0  0  0  0  0
  152.1484  142.9898  159.0519 C   0  0  0  0  0  0  0  0  0  0  0  0
  151.6731  144.3583  158.5847 C   0  0  0  0  0  0  0  0  0  0  0  0
  152.6890  145.0255  157.6449 C   0  0  0  0  0  0  0  0  0  0  0  0
  151.2876  145.2622  159.7660 C   0  0  0  0  0  0  0  0  0  0  0  0
  152.8676  142.9429  160.1953 N   0  0  0  0  0  0  0  0  0  0  0  0
  153.2733  141.7392  160.6067 C   0  0  0  0  0  0  0  0  0  0  0  0
  154.0850  141.6909  161.8946 C   0  0  0  0  0  0  0  0  0  0  0  0
  154.5272  140.2607  162.2407 C   0  0  0  0  0  0  0  0  0  0  0  0
  153.3656  142.3955  163.0555 C   0  0  0  0  0  0  0  0  0  0  0  0
  153.0394  140.5751  159.9928 N   0  0  0  0  0  0  0  0  0  0  0  0
  152.4300  138.1658  158.9111 C   0  0  0  0  0  0  0  0  0  0  0  0
  152.3837  136.9438  157.9779 C   0  0  0  0  0  0  0  0  0  0  0  0
  151.1085  136.8635  157.3499 O   0  0  0  0  0  0  0  0  0  0  0  0
  147.8868  141.2618  154.6571 H   0  0  0  0  0  0  0  0  0  0  0  0
  148.7500  141.1904  153.1156 H   0  0  0  0  0  0  0  0  0  0  0  0
  149.4167  142.1220  154.4622 H   0  0  0  0  0  0  0  0  0  0  0  0
  147.9576  139.1980  155.4540 H   0  0  0  0  0  0  0  0  0  0  0  0
  148.7735  137.3220  156.4983 H   0  0  0  0  0  0  0  0  0  0  0  0
  149.6210  137.1021  154.9864 H   0  0  0  0  0  0  0  0  0  0  0  0
  151.6267  138.1189  155.7957 H   0  0  0  0  0  0  0  0  0  0  0  0
  150.6495  140.1394  156.8258 H   0  0  0  0  0  0  0  0  0  0  0  0
  149.9801  139.1927  158.1482 H   0  0  0  0  0  0  0  0  0  0  0  0
  151.2553  141.8694  157.4184 H   0  0  0  0  0  0  0  0  0  0  0  0
  150.7647  144.1998  158.0020 H   0  0  0  0  0  0  0  0  0  0  0  0
  152.8991  144.3917  156.7828 H   0  0  0  0  0  0  0  0  0  0  0  0
  153.6341  145.2223  158.1520 H   0  0  0  0  0  0  0  0  0  0  0  0
  152.3104  145.9769  157.2705 H   0  0  0  0  0  0  0  0  0  0  0  0
  150.5182  144.7947  160.3811 H   0  0  0  0  0  0  0  0  0  0  0  0
  150.8955  146.2177  159.4170 H   0  0  0  0  0  0  0  0  0  0  0  0
  152.1452  145.4707  160.4065 H   0  0  0  0  0  0  0  0  0  0  0  0
  155.0013  142.2576  161.7183 H   0  0  0  0  0  0  0  0  0  0  0  0
  155.0997  139.8201  161.4241 H   0  0  0  0  0  0  0  0  0  0  0  0
  153.6708  139.6140  162.4344 H   0  0  0  0  0  0  0  0  0  0  0  0
  155.1583  140.2502  163.1295 H   0  0  0  0  0  0  0  0  0  0  0  0
  153.1314  143.4296  162.8009 H   0  0  0  0  0  0  0  0  0  0  0  0
  153.9864  142.4077  163.9515 H   0  0  0  0  0  0  0  0  0  0  0  0
  152.4304  141.8944  163.3078 H   0  0  0  0  0  0  0  0  0  0  0  0
  153.4255  138.2412  159.3459 H   0  0  0  0  0  0  0  0  0  0  0  0
  151.7314  138.0303  159.7376 H   0  0  0  0  0  0  0  0  0  0  0  0
  153.1699  137.0003  157.2232 H   0  0  0  0  0  0  0  0  0  0  0  0
  152.5560  136.0307  158.5478 H   0  0  0  0  0  0  0  0  0  0  0  0
  1  2  1  0  0  0  0
  1 24  1  0  0  0  0
  1 25  1  0  0  0  0
  1 26  1  0  0  0  0
  2  3  2  0  0  0  0
  2  4  1  0  0  0  0
  4  5  1  0  0  0  0
  4 27  1  0  0  0  0
  5  6  1  0  0  0  0
  5 28  1  0  0  0  0
  5 29  1  0  0  0  0
  6 23  1  0  0  0  0
  6  7  1  0  0  0  0
  6 30  1  0  0  0  0
  7  8  1  0  0  0  0
  7 31  1  0  0  0  0
  7 32  1  0  0  0  0
  8  9  1  0  0  0  0
  8 21  1  0  0  0  0
  9 20  1  0  0  0  0
  9 10  2  0  0  0  0
 10 11  1  0  0  0  0
 10 33  1  0  0  0  0
 11 12  1  0  0  0  0
 11 15  2  0  0  0  0
 12 13  1  0  0  0  0
 12 14  1  0  0  0  0
 12 34  1  0  0  0  0
 13 35  1  0  0  0  0
 13 36  1  0  0  0  0
 13 37  1  0  0  0  0
 14 38  1  0  0  0  0
 14 39  1  0  0  0  0
 14 40  1  0  0  0  0
 15 16  1  0  0  0  0
 16 17  1  0  0  0  0
 16 20  2  0  0  0  0
 17 18  1  0  0  0  0
 17 19  1  0  0  0  0
 17 41  1  0  0  0  0
 18 42  1  0  0  0  0
 18 43  1  0  0  0  0
 18 44  1  0  0  0  0
 19 45  1  0  0  0  0
 19 46  1  0  0  0  0
 19 47  1  0  0  0  0
 21 22  1  0  0  0  0
 21 48  1  0  0  0  0
 21 49  1  0  0  0  0
 22 23  1  0  0  0  0
 22 50  1  0  0  0  0
 22 51  1  0  0  0  0
M  END
> <s_m_source_file>
AV-unprocessed.smi

> <i_m_source_file_index>
2300

> <i_lp_mmshare_version>
43012

> <i_f3d_flags>
0

> <s_epik_input>
W0NIM11DKD1PKVtOSF1bQ0gyXVtDQEBIXTFbQ0gyXU4oW0NIMl1bQ0gyXU8xKWMyW2NIXWMoW0NIXShbQ0gzXSlbQ0gzXSluYyhuMilbQ0hdKFtDSDNdKVtDSDNd

> <s_epik_cmdline>
J2VwaWtfcHl0aG9uJywgJy1waCcsICc3LjAnLCAnLXRuJywgJzgnLCAnLW1hJywgJzIwMCcsICctbWV0YWxfYmluZGluZycsICctaW1hZScsICc8aW5maWxlLm1hZT4nLCAnLW9tYWUnLCAnPG91dGZpbGUubWFlPic=

> <r_lp_tautomer_probability>
1

> <r_epik_Ionization_Penalty>
0.0035465

> <r_epik_Ionization_Penalty_Charging>
0

> <r_epik_Ionization_Penalty_Neutral>
0.0035465

> <r_epik_State_Penalty>
0.00247846

> <r_epik_Charging_Adjusted_Penalty>
0.00247846

> <i_epik_Tot_Q>
0

> <i_epik_Tot_abs_Q>
0

> <r_epik_Metal_State_Penalty>
-0

> <b_epik_Metal_Only>
0

> <s_lp_Force_Field>
OPLS_2005

> <r_lp_Energy>
1.47364

> <b_lp_Chiralities_Consistent>
1

> <s_lp_Variant>
AV-unprocessed.smi:2300-2

> <Gold.Version>
5.8.1

> <Gold.Id.Protein>
6NUR|6NUR_protein|mol2

> <Gold.PLP.Fitness>
42.9675

> <Gold.PLP.PLP>
-42.3666

> <Gold.PLP.part.hbond>
-1.0000

> <Gold.PLP.part.metal>
0.0000

> <Gold.PLP.part.buried>
-5.0480

> <Gold.PLP.part.nonpolar>
-36.2758

> <Gold.PLP.part.repulsive>
0.1289

> <Gold.PLP.ligand.clash>
0.0000

> <Gold.PLP.ligand.torsion>
1.4430

> <Gold.PLP.Chemscore.Hbond>
1.0000

> <Gold.PLP.Chemscore.CHOScore>
0.0000

> <Gold.PLP.Chemscore.Metal>
0.0000

> <Gold.Chemscore.Hbonds>
donor molecule, donor type, donor heavy atom, donor atom, acceptor molecule, acceptor atom, score
      P1  H  7989  7998       L1     3  1.00

> <Gold.PLP.Chemscore.Internal.Correction>
0.4870

> <Gold.Rescore>
     Score         DG    S(hbond)    S(metal)    S(lipo)     H(rot)  DE(clash)    DE(int)     intcor
     15.00     -17.64       0.99        0.00     115.30       1.82       0.12       2.52       ----

> <Gold.Chemscore.Fitness>
14.9966

> <Gold.Chemscore.DG>
-17.6384

> <Gold.Chemscore.ZeroCoef>
-5.4800

> <Gold.Chemscore.Hbond>
0.9928

> <Gold.Chemscore.Metal>
0.0000

> <Gold.Chemscore.Lipo>
115.3046

> <Gold.Chemscore.Internal_Hbond>
0.0000

> <Gold.Chemscore.DEClash>
0.1177

> <Gold.Chemscore.DEInternal>
2.5241

> <Gold.Chemscore.Rot>
1.8156

> <Gold.Chemscore.Internal.Correction>
   9.000000E+99

> <Gold.Chemscore.Hbonds>
donor molecule, donor type, donor heavy atom, donor atom, acceptor molecule, acceptor atom, score
      P1  H  7989  7998       L1     3  0.96

> <Gold.Chemscore.Hbond.Weighted>
-3.3159

> <Gold.Chemscore.Metal.Weighted>
-0.0000

> <Gold.Chemscore.Lipo.Weighted>
-13.4906

> <Gold.Chemscore.Internal_Hbond.Weighted>
0.0000

> <Gold.Chemscore.DEClash.Weighted>
0.1177

> <Gold.Chemscore.DEInternal.Weighted>
2.5241

> <Gold.Chemscore.Rot.Weighted>
4.6481

> <Gold.Chemscore.Internal.Correction.Weighted>
   9.000000E+99

> <Gold.Protein.RotatedTorsions>
[ 6907 6896 6895 6894 ] final   15.46 input  -60.11 | X-H torsion
[ 7974 7965 7964 7962 ] final   56.93 input  175.53 | X-H torsion
[ 8008 7997 7996 7995 ] final    1.29 input   59.86 | X-H torsion
[ 10167 10162 10161 10158 ] final  109.19 input  -65.29 | X-H torsion
[ 10718 10713 10712 10709 ] final   88.26 input   66.30 | X-H torsion
[ 10763 10752 10751 10750 ] final   88.03 input  -60.55 | X-H torsion
[ 11005 11000 10999 10996 ] final   35.80 input  -57.11 | X-H torsion

> <Gold.Protein.ActiveResidues>
 VAL166  LYS551  ARG553  GLY616  TRP617  ASP618  TYR619  PRO620  LYS621  CYS622 
 ASP623  PHE694  ASN695  SER759  ASP760  ASP761  ALA762  ILE779  LEU786  VAL792 
 PHE793  MET794  SER795  GLU796  ALA797  LYS798  CYS799  TRP800  GLU811  SER814 

> <Gold.Protein.RotatedAtoms>
  151.8185  135.0659  160.0421 H   0  0  0  0  0  0  0  0  0  0  0  0  # atno 6907 bound_to 6896
  152.2968  133.5611  159.5601 H   0  0  0  0  0  0  0  0  0  0  0  0  # atno 6908 bound_to 6896
  150.7255  134.0265  159.3761 H   0  0  0  0  0  0  0  0  0  0  0  0  # atno 6909 bound_to 6896
  145.9346  139.3836  143.0400 H   0  0  0  0  0  0  0  0  0  0  0  0  # atno 7974 bound_to 7965
  154.6780  140.2626  155.6937 H   0  0  0  0  0  0  0  0  0  0  0  0  # atno 8008 bound_to 7997
  156.2685  140.2816  156.1237 H   0  0  0  0  0  0  0  0  0  0  0  0  # atno 8009 bound_to 7997
  155.1072  140.0375  157.2704 H   0  0  0  0  0  0  0  0  0  0  0  0  # atno 8010 bound_to 7997
  139.6786  144.7120  151.1557 H   0  0  0  0  0  0  0  0  0  0  0  0  # atno 10167 bound_to 10162
  157.6947  131.0288  150.3248 H   0  0  0  0  0  0  0  0  0  0  0  0  # atno 10718 bound_to 10713
  153.1728  135.4521  154.9925 H   0  0  0  0  0  0  0  0  0  0  0  0  # atno 10763 bound_to 10752
  154.7977  135.3244  154.7628 H   0  0  0  0  0  0  0  0  0  0  0  0  # atno 10764 bound_to 10752
  153.8102  135.6955  153.4897 H   0  0  0  0  0  0  0  0  0  0  0  0  # atno 10765 bound_to 10752
  140.2390  134.3437  155.7933 H   0  0  0  0  0  0  0  0  0  0  0  0  # atno 11005 bound_to 11000
  145.8381  140.9595  143.0813 LP  0  0  0  0  0  0  0  0  0  0  0  0  # atno 17320 bound_to 7965
  144.6769  140.0249  143.7483 LP  0  0  0  0  0  0  0  0  0  0  0  0  # atno 17321 bound_to 7965
  140.7644  143.5734  150.8971 LP  0  0  0  0  0  0  0  0  0  0  0  0  # atno 17342 bound_to 10162
  139.9404  143.6388  152.3055 LP  0  0  0  0  0  0  0  0  0  0  0  0  # atno 17343 bound_to 10162
  156.3730  130.3867  149.7160 LP  0  0  0  0  0  0  0  0  0  0  0  0  # atno 17370 bound_to 10713
  156.4568  130.7933  151.2954 LP  0  0  0  0  0  0  0  0  0  0  0  0  # atno 17371 bound_to 10713
  141.2212  133.7288  156.8855 LP  0  0  0  0  0  0  0  0  0  0  0  0  # atno 17394 bound_to 11000
  140.1672  134.9125  157.2789 LP  0  0  0  0  0  0  0  0  0  0  0  0  # atno 17395 bound_to 11000

$$$$
