AV-unprocessed.smi:3237|AV-procd|sdf|12373|dock7
  -GOLD-   2272018233D 1   1.00000     0.00000
 Structure written by MMmdl.
 36 38  0  0  0  0  0  0  0  0  3 V2000
  147.4480  135.3533  162.7928 C   0  0  0  0  0  0  0  0  0  0  0  0
  147.7841  135.7974  161.4102 C   0  0  0  0  0  0  0  0  0  0  0  0
  147.7618  135.1632  160.2002 C   0  0  0  0  0  0  0  0  0  0  0  0
  148.1991  136.1718  159.3005 C   0  0  0  0  0  0  0  0  0  0  0  0
  148.3138  135.9019  157.9113 N   0  0  0  0  0  0  0  0  0  0  0  0
  148.4613  134.7163  157.2924 C   0  0  0  0  0  0  0  0  0  0  0  0
  148.5129  133.6697  157.9493 O   0  0  0  0  0  0  0  0  0  0  0  0
  148.5315  134.8467  155.9384 N   0  5  0  0  0  0  0  0  0  0  0  0
  148.0522  133.8494  154.9797 C   0  0  2  0  0  0  0  0  0  0  0  0
  149.1769  133.3744  154.0589 C   0  0  0  0  0  0  0  0  0  0  0  0
  148.4301  132.9234  152.8047 C   0  0  0  0  0  0  0  0  0  0  0  0
  147.3073  133.8745  152.6672 N   0  3  1  0  0  0  0  0  0  0  0  0
  146.1336  133.3258  151.9541 C   0  0  0  0  0  0  0  0  0  0  0  0
  146.3964  133.0271  150.4977 C   0  0  0  0  0  0  0  0  0  0  0  0
  145.5913  134.2477  150.8886 C   0  0  0  0  0  0  0  0  0  0  0  0
  147.0059  134.4275  154.0092 C   0  0  0  0  0  0  0  0  0  0  0  0
  148.4648  137.3186  159.9087 N   0  0  0  0  0  0  0  0  0  0  0  0
  148.1993  137.0847  161.2631 O   0  0  0  0  0  0  0  0  0  0  0  0
  147.6740  134.2954  162.9258 H   0  0  0  0  0  0  0  0  0  0  0  0
  146.3879  135.5018  162.9972 H   0  0  0  0  0  0  0  0  0  0  0  0
  148.0180  135.9153  163.5329 H   0  0  0  0  0  0  0  0  0  0  0  0
  147.4777  134.1419  159.9937 H   0  0  0  0  0  0  0  0  0  0  0  0
  148.2802  136.7092  157.3066 H   0  0  0  0  0  0  0  0  0  0  0  0
  147.6258  132.9712  155.4672 H   0  0  0  0  0  0  0  0  0  0  0  0
  149.8452  134.1996  153.8054 H   0  0  0  0  0  0  0  0  0  0  0  0
  149.7781  132.5791  154.5006 H   0  0  0  0  0  0  0  0  0  0  0  0
  149.0655  132.9353  151.9187 H   0  0  0  0  0  0  0  0  0  0  0  0
  148.0536  131.9037  152.9238 H   0  0  0  0  0  0  0  0  0  0  0  0
  145.4609  132.6989  152.5369 H   0  0  0  0  0  0  0  0  0  0  0  0
  147.4014  133.1895  150.1121 H   0  0  0  0  0  0  0  0  0  0  0  0
  145.8556  132.1956  150.0504 H   0  0  0  0  0  0  0  0  0  0  0  0
  144.5202  134.2204  150.6989 H   0  0  0  0  0  0  0  0  0  0  0  0
  146.0610  135.2217  150.7634 H   0  0  0  0  0  0  0  0  0  0  0  0
  145.9962  134.1781  154.3392 H   0  0  0  0  0  0  0  0  0  0  0  0
  147.0658  135.5147  153.9417 H   0  0  0  0  0  0  0  0  0  0  0  0
  147.6580  134.6506  152.1246 H   0  0  0  0  0  0  0  0  0  0  0  0
  1  2  1  0  0  0  0
  1 19  1  0  0  0  0
  1 20  1  0  0  0  0
  1 21  1  0  0  0  0
  2 18  1  0  0  0  0
  2  3  2  0  0  0  0
  3  4  1  0  0  0  0
  3 22  1  0  0  0  0
  4  5  1  0  0  0  0
  4 17  2  0  0  0  0
  5  6  1  0  0  0  0
  5 23  1  0  0  0  0
  6  7  2  0  0  0  0
  6  8  1  0  0  0  0
  8  9  1  0  0  0  0
  9 16  1  0  0  0  0
  9 10  1  0  0  0  0
  9 24  1  0  0  0  0
 10 11  1  0  0  0  0
 10 25  1  0  0  0  0
 10 26  1  0  0  0  0
 11 12  1  0  0  0  0
 11 27  1  0  0  0  0
 11 28  1  0  0  0  0
 12 13  1  0  0  0  0
 12 16  1  0  0  0  0
 12 36  1  0  0  0  0
 13 15  1  0  0  0  0
 13 14  1  0  0  0  0
 13 29  1  0  0  0  0
 14 15  1  0  0  0  0
 14 30  1  0  0  0  0
 14 31  1  0  0  0  0
 15 32  1  0  0  0  0
 15 33  1  0  0  0  0
 16 34  1  0  0  0  0
 16 35  1  0  0  0  0
 17 18  1  0  0  0  0
M  CHG  1   8  -1
M  CHG  1  12   1
M  END
> <s_m_source_file>
AV-unprocessed.smi

> <i_m_source_file_index>
3237

> <i_lp_mmshare_version>
43012

> <i_f3d_flags>
0

> <s_epik_input>
W0NIM11jMVtjSF1jKG5vMSlbTkhdQyg9TylbTkhdW0NAQEhdMltDSDJdW0NIMl1OKFtDSDJdMilbQ0hdM1tDSDJdW0NIMl0z

> <s_epik_cmdline>
J2VwaWtfcHl0aG9uJywgJy1waCcsICc3LjAnLCAnLXRuJywgJzgnLCAnLW1hJywgJzIwMCcsICctbWV0YWxfYmluZGluZycsICctaW1hZScsICc8aW5maWxlLm1hZT4nLCAnLW9tYWUnLCAnPG91dGZpbGUubWFlPic=

> <r_epik_Ionization_Penalty>
6.76456

> <r_epik_Ionization_Penalty_Charging>
6.76456

> <r_epik_Ionization_Penalty_Neutral>
5.76722e-06

> <r_epik_State_Penalty>
6.78919

> <r_epik_Charging_Adjusted_Penalty>
13.5538

> <i_epik_Tot_Q>
0

> <i_epik_Tot_abs_Q>
2

> <r_epik_Metal_State_Penalty>
2.728

> <b_epik_Metal_Only>
1

> <s_lp_Force_Field>
OPLS_2005

> <r_lp_Energy>
30.8833

> <b_lp_Chiralities_Consistent>
1

> <s_lp_Variant>
AV-unprocessed.smi:3237-11

> <Gold.Version>
5.8.1

> <Gold.Id.Protein>
6NUR|6NUR_protein|mol2

> <Gold.PLP.Fitness>
38.8441

> <Gold.PLP.PLP>
-30.5598

> <Gold.PLP.part.hbond>
-4.8398

> <Gold.PLP.part.metal>
0.0000

> <Gold.PLP.part.buried>
-2.8563

> <Gold.PLP.part.nonpolar>
-23.2568

> <Gold.PLP.part.repulsive>
0.0787

> <Gold.PLP.ligand.clash>
0.0000

> <Gold.PLP.ligand.torsion>
0.9924

> <Gold.PLP.Chemscore.Hbond>
3.0000

> <Gold.PLP.Chemscore.CHOScore>
0.0000

> <Gold.PLP.Chemscore.Metal>
0.0000

> <Gold.Chemscore.Hbonds>
donor molecule, donor type, donor heavy atom, donor atom, acceptor molecule, acceptor atom, score
      L1  H    12    36       P1  7948  2.00
      P1  H  6931  6943       L1    18  1.00

> <Gold.PLP.Chemscore.Internal.Correction>
1.2691

> <Gold.Rescore>
     Score         DG    S(hbond)    S(metal)    S(lipo)     H(rot)  DE(clash)    DE(int)     intcor
     11.67     -14.07       1.46        0.00      59.05       1.25       0.13       2.27       ----

> <Gold.Chemscore.Fitness>
11.6702

> <Gold.Chemscore.DG>
-14.0695

> <Gold.Chemscore.ZeroCoef>
-5.4800

> <Gold.Chemscore.Hbond>
1.4585

> <Gold.Chemscore.Metal>
0.0000

> <Gold.Chemscore.Lipo>
59.0513

> <Gold.Chemscore.Internal_Hbond>
0.0000

> <Gold.Chemscore.DEClash>
0.1276

> <Gold.Chemscore.DEInternal>
2.2717

> <Gold.Chemscore.Rot>
1.2464

> <Gold.Chemscore.Internal.Correction>
   9.000000E+99

> <Gold.Chemscore.Hbonds>
donor molecule, donor type, donor heavy atom, donor atom, acceptor molecule, acceptor atom, score
      L1  H    12    36       P1  7948  0.60
      P1  H  6931  6943       L1    18  0.24

> <Gold.Chemscore.Hbond.Weighted>
-4.8714

> <Gold.Chemscore.Metal.Weighted>
-0.0000

> <Gold.Chemscore.Lipo.Weighted>
-6.9090

> <Gold.Chemscore.Internal_Hbond.Weighted>
0.0000

> <Gold.Chemscore.DEClash.Weighted>
0.1276

> <Gold.Chemscore.DEInternal.Weighted>
2.2717

> <Gold.Chemscore.Rot.Weighted>
3.1909

> <Gold.Chemscore.Internal.Correction.Weighted>
   9.000000E+99

> <Gold.Protein.RotatedTorsions>
[ 6907 6896 6895 6894 ] final   10.94 input  -60.11 | X-H torsion
[ 7974 7965 7964 7962 ] final  116.68 input  175.53 | X-H torsion
[ 8008 7997 7996 7995 ] final  164.01 input   59.86 | X-H torsion
[ 10167 10162 10161 10158 ] final -155.19 input  -65.29 | X-H torsion
[ 10718 10713 10712 10709 ] final  -99.65 input   66.30 | X-H torsion
[ 10763 10752 10751 10750 ] final -177.63 input  -60.55 | X-H torsion
[ 11005 11000 10999 10996 ] final  -63.23 input  -57.11 | X-H torsion

> <Gold.Protein.ActiveResidues>
 VAL166  LYS551  ARG553  GLY616  TRP617  ASP618  TYR619  PRO620  LYS621  CYS622 
 ASP623  PHE694  ASN695  SER759  ASP760  ASP761  ALA762  ILE779  LEU786  VAL792 
 PHE793  MET794  SER795  GLU796  ALA797  LYS798  CYS799  TRP800  GLU811  SER814 

> <Gold.Protein.RotatedAtoms>
  151.7463  135.0843  160.0323 H   0  0  0  0  0  0  0  0  0  0  0  0  # atno 6907 bound_to 6896
  152.3446  133.6102  159.5909 H   0  0  0  0  0  0  0  0  0  0  0  0  # atno 6908 bound_to 6896
  150.7500  133.9585  159.3550 H   0  0  0  0  0  0  0  0  0  0  0  0  # atno 6909 bound_to 6896
  145.1767  139.3072  143.4439 H   0  0  0  0  0  0  0  0  0  0  0  0  # atno 7974 bound_to 7965
  156.1913  140.1708  156.8086 H   0  0  0  0  0  0  0  0  0  0  0  0  # atno 8008 bound_to 7997
  154.5475  140.0724  156.8644 H   0  0  0  0  0  0  0  0  0  0  0  0  # atno 8009 bound_to 7997
  155.3094  140.3366  155.4247 H   0  0  0  0  0  0  0  0  0  0  0  0  # atno 8010 bound_to 7997
  139.6951  143.9355  152.2403 H   0  0  0  0  0  0  0  0  0  0  0  0  # atno 10167 bound_to 10162
  156.0140  130.5292  150.6701 H   0  0  0  0  0  0  0  0  0  0  0  0  # atno 10718 bound_to 10713
  154.5578  135.2818  155.0948 H   0  0  0  0  0  0  0  0  0  0  0  0  # atno 10763 bound_to 10752
  154.2369  135.6364  153.5197 H   0  0  0  0  0  0  0  0  0  0  0  0  # atno 10764 bound_to 10752
  153.0020  135.5550  154.6163 H   0  0  0  0  0  0  0  0  0  0  0  0  # atno 10765 bound_to 10752
  141.1386  133.6649  156.5648 H   0  0  0  0  0  0  0  0  0  0  0  0  # atno 11005 bound_to 11000
  146.3460  140.1932  142.8589 LP  0  0  0  0  0  0  0  0  0  0  0  0  # atno 17320 bound_to 7965
  145.0178  140.8768  143.5185 LP  0  0  0  0  0  0  0  0  0  0  0  0  # atno 17321 bound_to 7965
  139.9182  144.6816  150.8489 LP  0  0  0  0  0  0  0  0  0  0  0  0  # atno 17342 bound_to 10162
  140.7694  143.3394  151.2240 LP  0  0  0  0  0  0  0  0  0  0  0  0  # atno 17343 bound_to 10162
  157.4425  131.0863  151.0929 LP  0  0  0  0  0  0  0  0  0  0  0  0  # atno 17370 bound_to 10713
  157.1469  130.6167  149.5571 LP  0  0  0  0  0  0  0  0  0  0  0  0  # atno 17371 bound_to 10713
  140.3959  134.7399  157.4750 LP  0  0  0  0  0  0  0  0  0  0  0  0  # atno 17394 bound_to 11000
  140.0531  134.6102  155.8837 LP  0  0  0  0  0  0  0  0  0  0  0  0  # atno 17395 bound_to 11000

$$$$
