AV-unprocessed.smi:1120|AV-procd|sdf|4823|dock3
  -GOLD-   22720 3383D 1   1.00000     0.00000
 Structure written by MMmdl.
 47 48  0  0  0  0  0  0  0  0  2 V2000
  152.9842  143.2700  160.1663 C   0  0  0  0  0  0  0  0  0  0  0  0
  152.4493  141.8398  160.0115 C   0  0  2  0  0  0  0  0  0  0  0  0
  153.5541  140.8576  159.5595 C   0  0  0  0  0  0  0  0  0  0  0  0
  153.0317  139.4123  159.3502 C   0  0  0  0  0  0  0  0  0  0  0  0
  151.8288  139.3043  158.3806 C   0  0  2  0  0  0  0  0  0  0  0  0
  152.2697  139.5544  157.0144 N   0  5  0  0  0  0  0  0  0  0  0  0
  151.5630  138.7810  155.7754 S   0  0  0  0  0  0  0  0  0  0  0  0
  150.5388  139.6111  155.1213 O   0  0  0  0  0  0  0  0  0  0  0  0
  152.5293  138.1004  154.8966 O   0  0  0  0  0  0  0  0  0  0  0  0
  150.6287  137.4614  156.6764 C   0  0  0  0  0  0  0  0  0  0  0  0
  150.8662  136.0833  156.0560 C   0  0  0  0  0  0  0  0  0  0  0  0
  151.9891  135.5796  156.0856 O   0  0  0  0  0  0  0  0  0  0  0  0
  149.7981  135.4741  155.5181 N   0  0  0  0  0  0  0  0  0  0  0  0
  149.8088  134.1585  154.8910 C   0  0  0  0  0  0  0  0  0  0  0  0
  150.7119  133.1763  155.6553 C   0  0  0  0  0  0  0  0  0  0  0  0
  150.5640  131.7516  155.1558 C   0  0  0  0  0  0  0  0  0  0  0  0
  151.4150  130.7302  155.6292 C   0  0  0  0  0  0  0  0  0  0  0  0
  151.2393  129.4252  155.1296 C   0  0  0  0  0  0  0  0  0  0  0  0
  150.2265  129.1934  154.1792 C   0  0  0  0  0  0  0  0  0  0  0  0
  149.4311  130.2817  153.7689 C   0  0  0  0  0  0  0  0  0  0  0  0
  149.5903  131.5363  154.2423 N   0  0  0  0  0  0  0  0  0  0  0  0
  150.7430  140.3272  158.8039 C   0  0  0  0  0  0  0  0  0  0  0  0
  151.2740  141.7694  159.0103 C   0  0  0  0  0  0  0  0  0  0  0  0
  153.3653  143.6547  159.2199 H   0  0  0  0  0  0  0  0  0  0  0  0
  153.7966  143.3083  160.8923 H   0  0  0  0  0  0  0  0  0  0  0  0
  152.2016  143.9463  160.5105 H   0  0  0  0  0  0  0  0  0  0  0  0
  152.0839  141.5128  160.9862 H   0  0  0  0  0  0  0  0  0  0  0  0
  154.0165  141.2237  158.6402 H   0  0  0  0  0  0  0  0  0  0  0  0
  154.3515  140.8422  160.3031 H   0  0  0  0  0  0  0  0  0  0  0  0
  153.8459  138.7703  159.0111 H   0  0  0  0  0  0  0  0  0  0  0  0
  152.7291  139.0152  160.3199 H   0  0  0  0  0  0  0  0  0  0  0  0
  151.4142  138.3000  158.4748 H   0  0  0  0  0  0  0  0  0  0  0  0
  150.9216  137.4762  157.7263 H   0  0  0  0  0  0  0  0  0  0  0  0
  149.5680  137.7066  156.6262 H   0  0  0  0  0  0  0  0  0  0  0  0
  148.9173  135.9679  155.5269 H   0  0  0  0  0  0  0  0  0  0  0  0
  148.7837  133.7881  154.8744 H   0  0  0  0  0  0  0  0  0  0  0  0
  150.1265  134.2410  153.8503 H   0  0  0  0  0  0  0  0  0  0  0  0
  151.7565  133.4778  155.5663 H   0  0  0  0  0  0  0  0  0  0  0  0
  150.4763  133.2033  156.7201 H   0  0  0  0  0  0  0  0  0  0  0  0
  152.1858  130.9407  156.3562 H   0  0  0  0  0  0  0  0  0  0  0  0
  151.8701  128.6169  155.4690 H   0  0  0  0  0  0  0  0  0  0  0  0
  150.0632  128.2058  153.7739 H   0  0  0  0  0  0  0  0  0  0  0  0
  148.6452  130.1404  153.0418 H   0  0  0  0  0  0  0  0  0  0  0  0
  149.9241  140.3365  158.0847 H   0  0  0  0  0  0  0  0  0  0  0  0
  150.3017  139.9896  159.7421 H   0  0  0  0  0  0  0  0  0  0  0  0
  150.4577  142.3997  159.3646 H   0  0  0  0  0  0  0  0  0  0  0  0
  151.5804  142.1949  158.0521 H   0  0  0  0  0  0  0  0  0  0  0  0
  1  2  1  0  0  0  0
  1 24  1  0  0  0  0
  1 25  1  0  0  0  0
  1 26  1  0  0  0  0
  2 23  1  0  0  0  0
  2  3  1  0  0  0  0
  2 27  1  0  0  0  0
  3  4  1  0  0  0  0
  3 28  1  0  0  0  0
  3 29  1  0  0  0  0
  4  5  1  0  0  0  0
  4 30  1  0  0  0  0
  4 31  1  0  0  0  0
  5  6  1  0  0  0  0
  5 22  1  0  0  0  0
  5 32  1  0  0  0  0
  6  7  1  0  0  0  0
  7  8  2  0  0  0  0
  7  9  2  0  0  0  0
  7 10  1  0  0  0  0
 10 11  1  0  0  0  0
 10 33  1  0  0  0  0
 10 34  1  0  0  0  0
 11 12  2  0  0  0  0
 11 13  1  0  0  0  0
 13 14  1  0  0  0  0
 13 35  1  0  0  0  0
 14 15  1  0  0  0  0
 14 36  1  0  0  0  0
 14 37  1  0  0  0  0
 15 16  1  0  0  0  0
 15 38  1  0  0  0  0
 15 39  1  0  0  0  0
 16 21  1  0  0  0  0
 16 17  2  0  0  0  0
 17 18  1  0  0  0  0
 17 40  1  0  0  0  0
 18 19  2  0  0  0  0
 18 41  1  0  0  0  0
 19 20  1  0  0  0  0
 19 42  1  0  0  0  0
 20 21  2  0  0  0  0
 20 43  1  0  0  0  0
 22 23  1  0  0  0  0
 22 44  1  0  0  0  0
 22 45  1  0  0  0  0
 23 46  1  0  0  0  0
 23 47  1  0  0  0  0
M  CHG  1   6  -1
M  END
> <s_m_source_file>
AV-unprocessed.smi

> <i_m_source_file_index>
1120

> <i_lp_mmshare_version>
43012

> <i_f3d_flags>
0

> <s_epik_input>
W0NIM11bQ0BASF0xW0NIMl1bQ0gyXVtDQEhdKFtDSDJdW0NIMl0xKVtOSF1TKD1PKSg9TylbQ0gyXUMoPU8pW05IXVtDSDJdW0NIMl1jMltjSF1bY0hdW2NIXVtjSF1uMg==

> <s_epik_cmdline>
J2VwaWtfcHl0aG9uJywgJy1waCcsICc3LjAnLCAnLXRuJywgJzgnLCAnLW1hJywgJzIwMCcsICctbWV0YWxfYmluZGluZycsICctaW1hZScsICc8aW5maWxlLm1hZT4nLCAnLW9tYWUnLCAnPG91dGZpbGUubWFlPic=

> <r_epik_Ionization_Penalty>
5.68623

> <r_epik_Ionization_Penalty_Charging>
5.66033

> <r_epik_Ionization_Penalty_Neutral>
0.0259005

> <r_epik_State_Penalty>
5.67764

> <r_epik_Charging_Adjusted_Penalty>
11.338

> <i_epik_Tot_Q>
-1

> <i_epik_Tot_abs_Q>
1

> <r_epik_Metal_State_Penalty>
1.68319

> <b_epik_Metal_Only>
1

> <s_lp_Force_Field>
OPLS_2005

> <r_lp_Energy>
10.049

> <b_lp_Chiralities_Consistent>
1

> <s_lp_Variant>
AV-unprocessed.smi:1120-6

> <Gold.Version>
5.8.1

> <Gold.Id.Protein>
6NUR|6NUR_protein|mol2

> <Gold.PLP.Fitness>
53.6447

> <Gold.PLP.PLP>
-40.3197

> <Gold.PLP.part.hbond>
-3.8924

> <Gold.PLP.part.metal>
0.0000

> <Gold.PLP.part.buried>
-6.8326

> <Gold.PLP.part.nonpolar>
-29.7874

> <Gold.PLP.part.repulsive>
0.2308

> <Gold.PLP.ligand.clash>
0.0000

> <Gold.PLP.ligand.torsion>
1.3842

> <Gold.PLP.Chemscore.Hbond>
4.0000

> <Gold.PLP.Chemscore.CHOScore>
0.9752

> <Gold.PLP.Chemscore.Metal>
0.0000

> <Gold.Chemscore.Hbonds>
donor molecule, donor type, donor heavy atom, donor atom, acceptor molecule, acceptor atom, score
      P1  H  7989  7998       L1     8  0.26
      P1  H  7997  8008       L1     6  1.14
      P1  H 10752 10765       L1    12  1.00
      L1  C    20    43       P1 10747  0.18

> <Gold.PLP.Chemscore.Internal.Correction>
1.1678

> <Gold.Rescore>
     Score         DG    S(hbond)    S(metal)    S(lipo)     H(rot)  DE(clash)    DE(int)     intcor
     17.33     -21.07       2.94        0.00      90.15       1.86       0.03       3.72       ----

> <Gold.Chemscore.Fitness>
17.3281

> <Gold.Chemscore.DG>
-21.0704

> <Gold.Chemscore.ZeroCoef>
-5.4800

> <Gold.Chemscore.Hbond>
2.9355

> <Gold.Chemscore.Metal>
0.0000

> <Gold.Chemscore.Lipo>
90.1546

> <Gold.Chemscore.Internal_Hbond>
0.0000

> <Gold.Chemscore.DEClash>
0.0257

> <Gold.Chemscore.DEInternal>
3.7166

> <Gold.Chemscore.Rot>
1.8602

> <Gold.Chemscore.Internal.Correction>
   9.000000E+99

> <Gold.Chemscore.Hbonds>
donor molecule, donor type, donor heavy atom, donor atom, acceptor molecule, acceptor atom, score
      P1  H  7989  7998       L1     8  0.16
      P1  H  7997  8008       L1     6  0.48
      P1  H 10752 10765       L1    12  0.95

> <Gold.Chemscore.Hbond.Weighted>
-9.8045

> <Gold.Chemscore.Metal.Weighted>
-0.0000

> <Gold.Chemscore.Lipo.Weighted>
-10.5481

> <Gold.Chemscore.Internal_Hbond.Weighted>
0.0000

> <Gold.Chemscore.DEClash.Weighted>
0.0257

> <Gold.Chemscore.DEInternal.Weighted>
3.7166

> <Gold.Chemscore.Rot.Weighted>
4.7622

> <Gold.Chemscore.Internal.Correction.Weighted>
   9.000000E+99

> <Gold.Protein.RotatedTorsions>
[ 6907 6896 6895 6894 ] final -114.59 input  -60.11 | X-H torsion
[ 7974 7965 7964 7962 ] final -137.08 input  175.53 | X-H torsion
[ 8008 7997 7996 7995 ] final  -60.94 input   59.86 | X-H torsion
[ 10167 10162 10161 10158 ] final  -15.13 input  -65.29 | X-H torsion
[ 10718 10713 10712 10709 ] final  -79.19 input   66.30 | X-H torsion
[ 10763 10752 10751 10750 ] final -146.57 input  -60.55 | X-H torsion
[ 11005 11000 10999 10996 ] final  114.32 input  -57.11 | X-H torsion

> <Gold.Protein.ActiveResidues>
 VAL166  LYS551  ARG553  GLY616  TRP617  ASP618  TYR619  PRO620  LYS621  CYS622 
 ASP623  PHE694  ASN695  SER759  ASP760  ASP761  ALA762  ILE779  LEU786  VAL792 
 PHE793  MET794  SER795  GLU796  ALA797  LYS798  CYS799  TRP800  GLU811  SER814 

> <Gold.Protein.RotatedAtoms>
  150.7914  133.8779  159.3277 H   0  0  0  0  0  0  0  0  0  0  0  0  # atno 6907 bound_to 6896
  151.6616  135.0986  160.0190 H   0  0  0  0  0  0  0  0  0  0  0  0  # atno 6908 bound_to 6896
  152.3988  133.6748  159.6334 H   0  0  0  0  0  0  0  0  0  0  0  0  # atno 6909 bound_to 6896
  144.8872  140.6591  143.5168 H   0  0  0  0  0  0  0  0  0  0  0  0  # atno 7974 bound_to 7965
  154.4423  140.1028  156.6352 H   0  0  0  0  0  0  0  0  0  0  0  0  # atno 8008 bound_to 7997
  155.5561  140.3486  155.4461 H   0  0  0  0  0  0  0  0  0  0  0  0  # atno 8009 bound_to 7997
  156.0493  140.1300  157.0057 H   0  0  0  0  0  0  0  0  0  0  0  0  # atno 8010 bound_to 7997
  140.7213  143.5250  150.9588 H   0  0  0  0  0  0  0  0  0  0  0  0  # atno 10167 bound_to 10162
  156.0098  130.4539  150.3611 H   0  0  0  0  0  0  0  0  0  0  0  0  # atno 10718 bound_to 10713
  154.8329  135.3383  154.6682 H   0  0  0  0  0  0  0  0  0  0  0  0  # atno 10763 bound_to 10752
  153.7300  135.6952  153.4996 H   0  0  0  0  0  0  0  0  0  0  0  0  # atno 10764 bound_to 10752
  153.2319  135.4413  155.0557 H   0  0  0  0  0  0  0  0  0  0  0  0  # atno 10765 bound_to 10752
  139.8977  134.9565  156.6873 H   0  0  0  0  0  0  0  0  0  0  0  0  # atno 11005 bound_to 11000
  145.3847  139.1629  143.4261 LP  0  0  0  0  0  0  0  0  0  0  0  0  # atno 17320 bound_to 7965
  146.3032  140.3931  142.8696 LP  0  0  0  0  0  0  0  0  0  0  0  0  # atno 17321 bound_to 7965
  139.8968  143.6885  152.3137 LP  0  0  0  0  0  0  0  0  0  0  0  0  # atno 17342 bound_to 10162
  139.7220  144.7600  151.0939 LP  0  0  0  0  0  0  0  0  0  0  0  0  # atno 17343 bound_to 10162
  157.1700  131.0366  151.2800 LP  0  0  0  0  0  0  0  0  0  0  0  0  # atno 17370 bound_to 10713
  157.4238  130.7452  149.6934 LP  0  0  0  0  0  0  0  0  0  0  0  0  # atno 17371 bound_to 10713
  140.7252  133.9106  155.8174 LP  0  0  0  0  0  0  0  0  0  0  0  0  # atno 17394 bound_to 11000
  141.0196  134.0907  157.4134 LP  0  0  0  0  0  0  0  0  0  0  0  0  # atno 17395 bound_to 11000

$$$$
