AV-unprocessed.smi:1394|AV-procd|sdf|5668|dock2
  -GOLD-   22720 5293D 1   1.00000     0.00000
 Structure written by MMmdl.
 41 42  0  0  0  0  0  0  0  0  1 V2000
  153.0517  141.6163  160.9591 C   0  0  0  0  0  0  0  0  0  0  0  0
  152.1363  142.4625  160.0560 C   0  0  1  0  0  0  0  0  0  0  0  0
  152.6065  143.9313  160.0357 C   0  0  0  0  0  0  0  0  0  0  0  0
  151.7087  144.8085  159.1500 C   0  0  0  0  0  0  0  0  0  0  0  0
  151.6323  144.2518  157.7221 C   0  0  0  0  0  0  0  0  0  0  0  0
  151.1481  142.7950  157.7261 C   0  0  0  0  0  0  0  0  0  0  0  0
  152.0385  141.9003  158.6152 C   0  0  2  0  0  0  0  0  0  0  0  0
  151.5091  140.5383  158.6344 N   0  0  0  0  0  0  0  0  0  0  0  0
  152.1939  139.4318  158.3078 C   0  0  0  0  0  0  0  0  0  0  0  0
  153.3760  139.4455  157.9622 O   0  0  0  0  0  0  0  0  0  0  0  0
  151.4226  138.1085  158.4076 C   0  0  0  0  0  0  0  0  0  0  0  0
  151.1034  137.5262  157.0928 N   0  0  0  0  0  0  0  0  0  0  0  0
  151.6787  138.1400  155.9659 C   0  0  0  0  0  0  0  0  0  0  0  0
  151.4512  137.6903  154.7246 C   0  0  0  0  0  0  0  0  0  0  0  0
  150.5915  136.5435  154.5610 C   0  0  0  0  0  0  0  0  0  0  0  0
  150.0219  135.9329  155.6261 C   0  0  0  0  0  0  0  0  0  0  0  0
  149.1129  134.7157  155.4721 C   0  0  0  0  0  0  0  0  0  0  0  0
  147.8800  134.9947  155.8968 F   0  0  0  0  0  0  0  0  0  0  0  0
  149.0266  134.3194  154.2014 F   0  0  0  0  0  0  0  0  0  0  0  0
  149.5777  133.6902  156.1872 F   0  0  0  0  0  0  0  0  0  0  0  0
  150.2763  136.4398  156.9903 C   0  0  0  0  0  0  0  0  0  0  0  0
  149.7768  135.9207  157.9902 O   0  0  0  0  0  0  0  0  0  0  0  0
  154.0660  141.5720  160.5618 H   0  0  0  0  0  0  0  0  0  0  0  0
  152.6883  140.5933  161.0583 H   0  0  0  0  0  0  0  0  0  0  0  0
  153.1074  142.0369  161.9634 H   0  0  0  0  0  0  0  0  0  0  0  0
  151.1373  142.4436  160.4946 H   0  0  0  0  0  0  0  0  0  0  0  0
  152.6188  144.3336  161.0493 H   0  0  0  0  0  0  0  0  0  0  0  0
  153.6337  143.9833  159.6723 H   0  0  0  0  0  0  0  0  0  0  0  0
  150.7068  144.8587  159.5784 H   0  0  0  0  0  0  0  0  0  0  0  0
  152.0896  145.8299  159.1308 H   0  0  0  0  0  0  0  0  0  0  0  0
  150.9626  144.8650  157.1184 H   0  0  0  0  0  0  0  0  0  0  0  0
  152.6146  144.3105  157.2515 H   0  0  0  0  0  0  0  0  0  0  0  0
  150.1172  142.7590  158.0814 H   0  0  0  0  0  0  0  0  0  0  0  0
  151.1336  142.4166  156.7032 H   0  0  0  0  0  0  0  0  0  0  0  0
  153.0450  141.8812  158.1920 H   0  0  0  0  0  0  0  0  0  0  0  0
  150.5441  140.4314  158.9119 H   0  0  0  0  0  0  0  0  0  0  0  0
  152.0185  137.4153  159.0026 H   0  0  0  0  0  0  0  0  0  0  0  0
  150.5055  138.2591  158.9806 H   0  0  0  0  0  0  0  0  0  0  0  0
  152.3048  138.9954  156.1742 H   0  0  0  0  0  0  0  0  0  0  0  0
  151.8980  138.1750  153.8690 H   0  0  0  0  0  0  0  0  0  0  0  0
  150.4099  136.1775  153.5616 H   0  0  0  0  0  0  0  0  0  0  0  0
  1  2  1  0  0  0  0
  1 23  1  0  0  0  0
  1 24  1  0  0  0  0
  1 25  1  0  0  0  0
  2  7  1  0  0  0  0
  2  3  1  0  0  0  0
  2 26  1  0  0  0  0
  3  4  1  0  0  0  0
  3 27  1  0  0  0  0
  3 28  1  0  0  0  0
  4  5  1  0  0  0  0
  4 29  1  0  0  0  0
  4 30  1  0  0  0  0
  5  6  1  0  0  0  0
  5 31  1  0  0  0  0
  5 32  1  0  0  0  0
  6  7  1  0  0  0  0
  6 33  1  0  0  0  0
  6 34  1  0  0  0  0
  7  8  1  0  0  0  0
  7 35  1  0  0  0  0
  8  9  1  0  0  0  0
  8 36  1  0  0  0  0
  9 10  2  0  0  0  0
  9 11  1  0  0  0  0
 11 12  1  0  0  0  0
 11 37  1  0  0  0  0
 11 38  1  0  0  0  0
 12 21  1  0  0  0  0
 12 13  1  0  0  0  0
 13 14  2  0  0  0  0
 13 39  1  0  0  0  0
 14 15  1  0  0  0  0
 14 40  1  0  0  0  0
 15 16  2  0  0  0  0
 15 41  1  0  0  0  0
 16 17  1  0  0  0  0
 16 21  1  0  0  0  0
 17 18  1  0  0  0  0
 17 19  1  0  0  0  0
 17 20  1  0  0  0  0
 21 22  2  0  0  0  0
M  END
> <s_m_source_file>
AV-unprocessed.smi

> <i_m_source_file_index>
1394

> <i_lp_mmshare_version>
43012

> <i_f3d_flags>
0

> <s_epik_input>
W0NIM11bQ0BASF0xW0NIMl1bQ0gyXVtDSDJdW0NIMl1bQ0BIXTFbTkhdQyg9TylbQ0gyXW4yW2NIXVtjSF1bY0hdYyhDKEYpKEYpRiljMj1P

> <s_epik_cmdline>
J2VwaWtfcHl0aG9uJywgJy1waCcsICc3LjAnLCAnLXRuJywgJzgnLCAnLW1hJywgJzIwMCcsICctbWV0YWxfYmluZGluZycsICctaW1hZScsICc8aW5maWxlLm1hZT4nLCAnLW9tYWUnLCAnPG91dGZpbGUubWFlPic=

> <r_lp_tautomer_probability>
1

> <r_epik_Ionization_Penalty>
2.11487e-08

> <r_epik_Ionization_Penalty_Charging>
2.10183e-09

> <r_epik_Ionization_Penalty_Neutral>
1.90469e-08

> <r_epik_State_Penalty>
-0

> <r_epik_Charging_Adjusted_Penalty>
2.10183e-09

> <i_epik_Tot_Q>
0

> <i_epik_Tot_abs_Q>
0

> <r_epik_Metal_State_Penalty>
-0

> <b_epik_Metal_Only>
0

> <s_lp_Force_Field>
OPLS_2005

> <r_lp_Energy>
20.4612

> <b_lp_Chiralities_Consistent>
1

> <s_lp_Variant>
AV-unprocessed.smi:1394-4

> <Gold.Version>
5.8.1

> <Gold.Id.Protein>
6NUR|6NUR_protein|mol2

> <Gold.PLP.Fitness>
45.6288

> <Gold.PLP.PLP>
-41.2363

> <Gold.PLP.part.hbond>
-2.0000

> <Gold.PLP.part.metal>
0.0000

> <Gold.PLP.part.buried>
-4.7424

> <Gold.PLP.part.nonpolar>
-35.9055

> <Gold.PLP.part.repulsive>
0.1409

> <Gold.PLP.ligand.clash>
1.2042

> <Gold.PLP.ligand.torsion>
0.2674

> <Gold.PLP.Chemscore.Hbond>
1.9440

> <Gold.PLP.Chemscore.CHOScore>
0.0000

> <Gold.PLP.Chemscore.Metal>
0.0000

> <Gold.Chemscore.Hbonds>
donor molecule, donor type, donor heavy atom, donor atom, acceptor molecule, acceptor atom, score
      P1  H  6896  6907       L1    22  0.45
      P1  H  7997  8008       L1    10  1.00

> <Gold.PLP.Chemscore.Internal.Correction>
0.2996

> <Gold.Rescore>
     Score         DG    S(hbond)    S(metal)    S(lipo)     H(rot)  DE(clash)    DE(int)     intcor
     16.85     -20.80       1.97        0.00     107.92       1.52       0.00       3.94       ----

> <Gold.Chemscore.Fitness>
16.8546

> <Gold.Chemscore.DG>
-20.7957

> <Gold.Chemscore.ZeroCoef>
-5.4800

> <Gold.Chemscore.Hbond>
1.9734

> <Gold.Chemscore.Metal>
0.0000

> <Gold.Chemscore.Lipo>
107.9181

> <Gold.Chemscore.Internal_Hbond>
0.0000

> <Gold.Chemscore.DEClash>
0.0004

> <Gold.Chemscore.DEInternal>
3.9407

> <Gold.Chemscore.Rot>
1.5242

> <Gold.Chemscore.Internal.Correction>
   9.000000E+99

> <Gold.Chemscore.Hbonds>
donor molecule, donor type, donor heavy atom, donor atom, acceptor molecule, acceptor atom, score
      P1  H  6896  6907       L1    22  0.42
      P1  H  7997  8008       L1    10  1.00

> <Gold.Chemscore.Hbond.Weighted>
-6.5912

> <Gold.Chemscore.Metal.Weighted>
-0.0000

> <Gold.Chemscore.Lipo.Weighted>
-12.6264

> <Gold.Chemscore.Internal_Hbond.Weighted>
0.0000

> <Gold.Chemscore.DEClash.Weighted>
0.0004

> <Gold.Chemscore.DEInternal.Weighted>
3.9407

> <Gold.Chemscore.Rot.Weighted>
3.9019

> <Gold.Chemscore.Internal.Correction.Weighted>
   9.000000E+99

> <Gold.Protein.RotatedTorsions>
[ 6907 6896 6895 6894 ] final  -53.85 input  -60.11 | X-H torsion
[ 7974 7965 7964 7962 ] final   47.19 input  175.53 | X-H torsion
[ 8008 7997 7996 7995 ] final  -89.31 input   59.86 | X-H torsion
[ 10167 10162 10161 10158 ] final -110.43 input  -65.29 | X-H torsion
[ 10718 10713 10712 10709 ] final -179.04 input   66.30 | X-H torsion
[ 10763 10752 10751 10750 ] final  137.64 input  -60.55 | X-H torsion
[ 11005 11000 10999 10996 ] final   22.65 input  -57.11 | X-H torsion

> <Gold.Protein.ActiveResidues>
 VAL166  LYS551  ARG553  GLY616  TRP617  ASP618  TYR619  PRO620  LYS621  CYS622 
 ASP623  PHE694  ASN695  SER759  ASP760  ASP761  ALA762  ILE779  LEU786  VAL792 
 PHE793  MET794  SER795  GLU796  ALA797  LYS798  CYS799  TRP800  GLU811  SER814 

> <Gold.Protein.RotatedAtoms>
  150.8390  134.7675  159.6916 H   0  0  0  0  0  0  0  0  0  0  0  0  # atno 6907 bound_to 6896
  152.4481  134.5448  159.9859 H   0  0  0  0  0  0  0  0  0  0  0  0  # atno 6908 bound_to 6896
  151.5592  133.3368  159.3003 H   0  0  0  0  0  0  0  0  0  0  0  0  # atno 6909 bound_to 6896
  146.0321  139.4776  142.9831 H   0  0  0  0  0  0  0  0  0  0  0  0  # atno 7974 bound_to 7965
  154.6851  140.0543  157.0306 H   0  0  0  0  0  0  0  0  0  0  0  0  # atno 8008 bound_to 7997
  155.0896  140.3218  155.4559 H   0  0  0  0  0  0  0  0  0  0  0  0  # atno 8009 bound_to 7997
  156.2708  140.2050  156.6023 H   0  0  0  0  0  0  0  0  0  0  0  0  # atno 8010 bound_to 7997
  140.1446  143.4250  152.1538 H   0  0  0  0  0  0  0  0  0  0  0  0  # atno 10167 bound_to 10162
  156.8532  130.9726  151.3090 H   0  0  0  0  0  0  0  0  0  0  0  0  # atno 10718 bound_to 10713
  153.8764  135.3049  155.3444 H   0  0  0  0  0  0  0  0  0  0  0  0  # atno 10763 bound_to 10752
  154.7782  135.4850  153.9791 H   0  0  0  0  0  0  0  0  0  0  0  0  # atno 10764 bound_to 10752
  153.1377  135.6817  153.9174 H   0  0  0  0  0  0  0  0  0  0  0  0  # atno 10765 bound_to 10752
  140.3783  134.1948  155.7664 H   0  0  0  0  0  0  0  0  0  0  0  0  # atno 11005 bound_to 11000
  145.7024  141.0132  143.1497 LP  0  0  0  0  0  0  0  0  0  0  0  0  # atno 17320 bound_to 7965
  144.7035  139.8660  143.7437 LP  0  0  0  0  0  0  0  0  0  0  0  0  # atno 17321 bound_to 7965
  139.5455  144.7295  151.4596 LP  0  0  0  0  0  0  0  0  0  0  0  0  # atno 17342 bound_to 10162
  140.6740  143.8231  150.7034 LP  0  0  0  0  0  0  0  0  0  0  0  0  # atno 17343 bound_to 10162
  157.6291  130.8715  149.9242 LP  0  0  0  0  0  0  0  0  0  0  0  0  # atno 17370 bound_to 10713
  156.0816  130.3672  150.0568 LP  0  0  0  0  0  0  0  0  0  0  0  0  # atno 17371 bound_to 10713
  141.1932  133.8156  157.0809 LP  0  0  0  0  0  0  0  0  0  0  0  0  # atno 17394 bound_to 11000
  140.0498  134.9811  157.1116 LP  0  0  0  0  0  0  0  0  0  0  0  0  # atno 17395 bound_to 11000

$$$$
