AV-unprocessed.smi:144|AV-procd|sdf|1196|dock8
  -GOLD-   2262018353D 1   1.00000     0.00000
 Structure written by MMmdl.
 46 48  0  0  0  0  0  0  0  0  1 V2000
  152.7179  136.4438  156.8171 O   0  0  0  0  0  0  0  0  0  0  0  0
  152.0985  137.2499  156.1244 C   0  0  0  0  0  0  0  0  0  0  0  0
  152.7043  138.6503  155.9144 C   0  0  0  0  0  0  0  0  0  0  0  0
  151.8072  139.7815  156.2475 N   0  0  0  0  0  0  0  0  0  0  0  0
  150.7829  140.1311  155.3323 C   0  0  0  0  0  0  0  0  0  0  0  0
  150.6327  139.5137  154.2772 O   0  0  0  0  0  0  0  0  0  0  0  0
  149.9508  141.2647  155.7199 C   0  0  0  0  0  0  0  0  0  0  0  0
  148.9586  141.6697  154.9093 F   0  0  0  0  0  0  0  0  0  0  0  0
  150.1681  141.9217  156.8776 C   0  0  0  0  0  0  0  0  0  0  0  0
  151.1726  141.5702  157.7609 N   0  0  0  0  0  0  0  0  0  0  0  0
  151.4010  142.3392  159.0440 C   0  0  1  0  0  0  0  0  0  0  0  0
  152.7821  143.0040  159.0233 C   0  0  0  0  0  0  0  0  0  0  0  0
  152.4570  144.3765  158.4755 C   0  0  0  0  0  0  0  0  0  0  0  0
  151.0835  144.6329  159.0859 C   0  0  0  0  0  0  0  0  0  0  0  0
  150.4475  143.3580  159.1446 O   0  0  0  0  0  0  0  0  0  0  0  0
  152.0259  140.4887  157.4539 C   0  0  0  0  0  0  0  0  0  0  0  0
  152.9488  140.1802  158.2110 O   0  0  0  0  0  0  0  0  0  0  0  0
  150.9061  136.9916  155.5508 N   0  0  0  0  0  0  0  0  0  0  0  0
  150.1426  135.7945  155.5819 C   0  0  0  0  0  0  0  0  0  0  0  0
  150.7845  134.6344  156.0600 C   0  0  0  0  0  0  0  0  0  0  0  0
  150.0905  133.4083  156.1409 C   0  0  0  0  0  0  0  0  0  0  0  0
  150.7873  132.1505  156.6380 C   0  0  0  0  0  0  0  0  0  0  0  0
  150.1368  131.6450  157.6864 F   0  0  0  0  0  0  0  0  0  0  0  0
  150.8011  131.2430  155.6627 F   0  0  0  0  0  0  0  0  0  0  0  0
  152.0439  132.4010  157.0078 F   0  0  0  0  0  0  0  0  0  0  0  0
  148.7394  133.3496  155.7403 C   0  0  0  0  0  0  0  0  0  0  0  0
  148.0763  134.5074  155.2799 C   0  0  0  0  0  0  0  0  0  0  0  0
  146.6143  134.4635  154.8604 C   0  0  0  0  0  0  0  0  0  0  0  0
  145.9069  135.3084  155.6107 F   0  0  0  0  0  0  0  0  0  0  0  0
  146.5096  134.8318  153.5839 F   0  0  0  0  0  0  0  0  0  0  0  0
  146.0918  133.2439  154.9945 F   0  0  0  0  0  0  0  0  0  0  0  0
  148.7802  135.7274  155.2069 C   0  0  0  0  0  0  0  0  0  0  0  0
  153.6292  138.7066  156.4904 H   0  0  0  0  0  0  0  0  0  0  0  0
  153.0422  138.7196  154.8793 H   0  0  0  0  0  0  0  0  0  0  0  0
  149.5263  142.7592  157.1069 H   0  0  0  0  0  0  0  0  0  0  0  0
  151.2630  141.6235  159.8561 H   0  0  0  0  0  0  0  0  0  0  0  0
  153.1476  143.0784  160.0484 H   0  0  0  0  0  0  0  0  0  0  0  0
  153.5069  142.4464  158.4286 H   0  0  0  0  0  0  0  0  0  0  0  0
  153.1933  145.1329  158.7484 H   0  0  0  0  0  0  0  0  0  0  0  0
  152.3884  144.3431  157.3874 H   0  0  0  0  0  0  0  0  0  0  0  0
  151.1867  145.0175  160.1014 H   0  0  0  0  0  0  0  0  0  0  0  0
  150.4950  145.3476  158.5103 H   0  0  0  0  0  0  0  0  0  0  0  0
  150.4648  137.7740  155.0899 H   0  0  0  0  0  0  0  0  0  0  0  0
  151.8218  134.6879  156.3573 H   0  0  0  0  0  0  0  0  0  0  0  0
  148.2144  132.4076  155.7943 H   0  0  0  0  0  0  0  0  0  0  0  0
  148.2499  136.6050  154.8707 H   0  0  0  0  0  0  0  0  0  0  0  0
  1  2  2  0  0  0  0
  2  3  1  0  0  0  0
  2 18  1  0  0  0  0
  3  4  1  0  0  0  0
  3 33  1  0  0  0  0
  3 34  1  0  0  0  0
  4 16  1  0  0  0  0
  4  5  1  0  0  0  0
  5  6  2  0  0  0  0
  5  7  1  0  0  0  0
  7  8  1  0  0  0  0
  7  9  2  0  0  0  0
  9 10  1  0  0  0  0
  9 35  1  0  0  0  0
 10 11  1  0  0  0  0
 10 16  1  0  0  0  0
 11 15  1  0  0  0  0
 11 12  1  0  0  0  0
 11 36  1  0  0  0  0
 12 13  1  0  0  0  0
 12 37  1  0  0  0  0
 12 38  1  0  0  0  0
 13 14  1  0  0  0  0
 13 39  1  0  0  0  0
 13 40  1  0  0  0  0
 14 15  1  0  0  0  0
 14 41  1  0  0  0  0
 14 42  1  0  0  0  0
 16 17  2  0  0  0  0
 18 19  1  0  0  0  0
 18 43  1  0  0  0  0
 19 32  1  0  0  0  0
 19 20  2  0  0  0  0
 20 21  1  0  0  0  0
 20 44  1  0  0  0  0
 21 22  1  0  0  0  0
 21 26  2  0  0  0  0
 22 23  1  0  0  0  0
 22 24  1  0  0  0  0
 22 25  1  0  0  0  0
 26 27  1  0  0  0  0
 26 45  1  0  0  0  0
 27 28  1  0  0  0  0
 27 32  2  0  0  0  0
 28 29  1  0  0  0  0
 28 30  1  0  0  0  0
 28 31  1  0  0  0  0
 32 46  1  0  0  0  0
M  END
> <s_m_source_file>
AV-unprocessed.smi

> <i_m_source_file_index>
144

> <i_lp_mmshare_version>
43012

> <i_f3d_flags>
0

> <s_epik_input>
RkMoRikoRiljKFtjSF0xKVtjSF1jKEMoRikoRilGKVtjSF1jMVtOSF1DKD1PKVtDSDJdbjJjKD1PKWMoRilbY0hdbihjMj1PKVtDQEBIXTNbQ0gyXVtDSDJdW0NIMl1PMw==

> <s_epik_cmdline>
J2VwaWtfcHl0aG9uJywgJy1waCcsICc3LjAnLCAnLXRuJywgJzgnLCAnLW1hJywgJzIwMCcsICctbWV0YWxfYmluZGluZycsICctaW1hZScsICc8aW5maWxlLm1hZT4nLCAnLW9tYWUnLCAnPG91dGZpbGUubWFlPic=

> <r_lp_tautomer_probability>
1

> <r_epik_Ionization_Penalty>
3.68082e-06

> <r_epik_Ionization_Penalty_Charging>
3.88729e-08

> <r_epik_Ionization_Penalty_Neutral>
3.64194e-06

> <r_epik_State_Penalty>
-0

> <r_epik_Charging_Adjusted_Penalty>
3.88729e-08

> <i_epik_Tot_Q>
0

> <i_epik_Tot_abs_Q>
0

> <r_epik_Metal_State_Penalty>
-0

> <b_epik_Metal_Only>
0

> <s_epik_Chemistry_Notes>
This compound contains an acetal/aminal-like group ( X-CH(R)-Y where X, Y are N, S, or O) that may be acid/base labile, releasing an aldehyde.

> <s_lp_Force_Field>
OPLS_2005

> <r_lp_Energy>
36.4766

> <b_lp_Chiralities_Consistent>
1

> <s_lp_Variant>
AV-unprocessed.smi:144-2

> <Gold.Version>
5.8.1

> <Gold.Id.Protein>
6NUR|6NUR_protein|mol2

> <Gold.PLP.Fitness>
58.1620

> <Gold.PLP.PLP>
-49.1700

> <Gold.PLP.part.hbond>
-3.0000

> <Gold.PLP.part.metal>
0.0000

> <Gold.PLP.part.buried>
-1.1443

> <Gold.PLP.part.nonpolar>
-44.6619

> <Gold.PLP.part.repulsive>
0.4384

> <Gold.PLP.ligand.clash>
0.5945

> <Gold.PLP.ligand.torsion>
0.3347

> <Gold.PLP.Chemscore.Hbond>
2.2500

> <Gold.PLP.Chemscore.CHOScore>
0.9349

> <Gold.PLP.Chemscore.Metal>
0.0000

> <Gold.Chemscore.Hbonds>
donor molecule, donor type, donor heavy atom, donor atom, acceptor molecule, acceptor atom, score
      P1  H  7989  7998       L1     6  0.35
      P1  H  7997  8008       L1    17  0.99
      P1  H 10752 10764       L1     1  0.60
      L1  C     9    35       P1  8028  1.00

> <Gold.PLP.Chemscore.Internal.Correction>
0.7011

> <Gold.Rescore>
     Score         DG    S(hbond)    S(metal)    S(lipo)     H(rot)  DE(clash)    DE(int)     intcor
     13.67     -16.95       1.89        0.00      84.10       1.83       0.57       2.71       ----

> <Gold.Chemscore.Fitness>
13.6715

> <Gold.Chemscore.DG>
-16.9468

> <Gold.Chemscore.ZeroCoef>
-5.4800

> <Gold.Chemscore.Hbond>
1.8916

> <Gold.Chemscore.Metal>
0.0000

> <Gold.Chemscore.Lipo>
84.1025

> <Gold.Chemscore.Internal_Hbond>
0.0000

> <Gold.Chemscore.DEClash>
0.5698

> <Gold.Chemscore.DEInternal>
2.7055

> <Gold.Chemscore.Rot>
1.8325

> <Gold.Chemscore.Internal.Correction>
   9.000000E+99

> <Gold.Chemscore.Hbonds>
donor molecule, donor type, donor heavy atom, donor atom, acceptor molecule, acceptor atom, score
      P1  H  7989  7998       L1     6  0.01
      P1  H  7997  8008       L1    17  0.35
      P1  H 10752 10764       L1     1  0.04

> <Gold.Chemscore.Hbond.Weighted>
-6.3179

> <Gold.Chemscore.Metal.Weighted>
-0.0000

> <Gold.Chemscore.Lipo.Weighted>
-9.8400

> <Gold.Chemscore.Internal_Hbond.Weighted>
0.0000

> <Gold.Chemscore.DEClash.Weighted>
0.5698

> <Gold.Chemscore.DEInternal.Weighted>
2.7055

> <Gold.Chemscore.Rot.Weighted>
4.6911

> <Gold.Chemscore.Internal.Correction.Weighted>
   9.000000E+99

> <Gold.Protein.RotatedTorsions>
[ 6907 6896 6895 6894 ] final -104.16 input  -60.11 | X-H torsion
[ 7974 7965 7964 7962 ] final   63.43 input  175.53 | X-H torsion
[ 8008 7997 7996 7995 ] final  -81.32 input   59.86 | X-H torsion
[ 10167 10162 10161 10158 ] final  -44.30 input  -65.29 | X-H torsion
[ 10718 10713 10712 10709 ] final -125.50 input   66.30 | X-H torsion
[ 10763 10752 10751 10750 ] final  -16.67 input  -60.55 | X-H torsion
[ 11005 11000 10999 10996 ] final  129.43 input  -57.11 | X-H torsion

> <Gold.Protein.ActiveResidues>
 VAL166  LYS551  ARG553  GLY616  TRP617  ASP618  TYR619  PRO620  LYS621  CYS622 
 ASP623  PHE694  ASN695  SER759  ASP760  ASP761  ALA762  ILE779  LEU786  VAL792 
 PHE793  MET794  SER795  GLU796  ALA797  LYS798  CYS799  TRP800  GLU811  SER814 

> <Gold.Protein.RotatedAtoms>
  150.7274  134.0319  159.3736 H   0  0  0  0  0  0  0  0  0  0  0  0  # atno 6907 bound_to 6896
  151.8289  135.0626  160.0443 H   0  0  0  0  0  0  0  0  0  0  0  0  # atno 6908 bound_to 6896
  152.2948  133.5561  159.5617 H   0  0  0  0  0  0  0  0  0  0  0  0  # atno 6909 bound_to 6896
  145.8619  139.3320  143.0814 H   0  0  0  0  0  0  0  0  0  0  0  0  # atno 7974 bound_to 7965
  154.5971  140.0649  156.9318 H   0  0  0  0  0  0  0  0  0  0  0  0  # atno 8008 bound_to 7997
  155.2195  140.3329  155.4299 H   0  0  0  0  0  0  0  0  0  0  0  0  # atno 8009 bound_to 7997
  156.2294  140.1834  156.7264 H   0  0  0  0  0  0  0  0  0  0  0  0  # atno 8010 bound_to 7997
  140.6902  143.2937  151.3475 H   0  0  0  0  0  0  0  0  0  0  0  0  # atno 10167 bound_to 10162
  156.1681  130.6648  151.0142 H   0  0  0  0  0  0  0  0  0  0  0  0  # atno 10718 bound_to 10713
  153.5622  135.7009  153.5542 H   0  0  0  0  0  0  0  0  0  0  0  0  # atno 10763 bound_to 10752
  153.3419  135.4018  155.1578 H   0  0  0  0  0  0  0  0  0  0  0  0  # atno 10764 bound_to 10752
  154.8646  135.3744  154.5140 H   0  0  0  0  0  0  0  0  0  0  0  0  # atno 10765 bound_to 10752
  139.9615  134.9601  156.9148 H   0  0  0  0  0  0  0  0  0  0  0  0  # atno 11005 bound_to 11000
  145.9238  140.9096  143.0391 LP  0  0  0  0  0  0  0  0  0  0  0  0  # atno 17320 bound_to 7965
  144.6726  140.1325  143.7442 LP  0  0  0  0  0  0  0  0  0  0  0  0  # atno 17321 bound_to 7965
  139.6297  144.0744  152.2466 LP  0  0  0  0  0  0  0  0  0  0  0  0  # atno 17342 bound_to 10162
  140.0215  144.6149  150.7563 LP  0  0  0  0  0  0  0  0  0  0  0  0  # atno 17343 bound_to 10162
  157.6783  131.0845  150.7438 LP  0  0  0  0  0  0  0  0  0  0  0  0  # atno 17370 bound_to 10713
  156.7498  130.4765  149.5459 LP  0  0  0  0  0  0  0  0  0  0  0  0  # atno 17371 bound_to 10713
  140.5489  134.0646  155.7363 LP  0  0  0  0  0  0  0  0  0  0  0  0  # atno 17394 bound_to 11000
  141.1293  133.9330  157.2570 LP  0  0  0  0  0  0  0  0  0  0  0  0  # atno 17395 bound_to 11000

$$$$
